MODEL 1
REMARK VINA RESULT:     -13.2      0.000      0.000
REMARK SMILES COC(=O)c1ccc(C)c2c1[C@H]1C=CC[C@H]1[C@@H](c1ccc(C(=O)NCCCNC(=O)c3ccc(-c4c5nc(c(-c6c(F)cccc6F)c6ccc([nH]6)c(-c6c(F)cccc6F)c6nc(c(-c7c(F)cccc7F)c7ccc4[nH]7)C=C6)C=C5)cc3)cc1)N2
REMARK SMILES IDX 25 1 24 2 22 3 23 4 21 6 18 7 19 8 86 9 20 10 85 11 17 12
REMARK SMILES IDX 5 13 6 14 11 15 7 16 10 17 12 18 8 19 87 20 13 21 16 22 9 23
REMARK SMILES IDX 14 25 15 26 3 27 4 28 2 29 1 30 26 31 27 32 28 33 29 34
REMARK SMILES IDX 30 36 31 37 32 38 84 39 33 40 83 41 34 42 35 43 36 44 77 45
REMARK SMILES IDX 37 46 82 47 76 48 78 49 38 50 81 51 75 52 74 53 39 55 65 56
REMARK SMILES IDX 48 57 64 58 49 59 52 60 63 61 79 62 50 63 51 64 62 66 80 67
REMARK SMILES IDX 53 68 40 69 41 70 46 71 42 72 43 73 45 74 47 75 44 76 66 77
REMARK SMILES IDX 67 78 72 79 68 80 69 81 71 82 73 83 70 84 54 85 55 86 60 87
REMARK SMILES IDX 56 88 57 89 59 90 61 91 58 92
REMARK H PARENT 24 5 87 24 28 35 78 54 52 65
REMARK Flexibility Score: inf
ROOT
ATOM      1  C   UNL A   1      36.725  20.466  24.964  1.00  0.00     0.118 C 
ENDROOT
BRANCH   1   2
ATOM      2  N   UNL A   1      36.908  21.490  23.960  1.00  0.00    -0.352 N 
ATOM      3  C   UNL A   1      36.279  22.681  23.739  1.00  0.00     0.251 C 
ATOM      4  O   UNL A   1      36.645  23.331  22.759  1.00  0.00    -0.269 OA
ATOM      5  H   UNL A   1      37.624  21.291  23.312  1.00  0.00     0.163 HD
BRANCH   3   6
ATOM      6  C   UNL A   1      35.222  23.236  24.630  1.00  0.00     0.039 A 
ATOM      7  C   UNL A   1      33.139  24.480  26.116  1.00  0.00    -0.025 A 
ATOM      8  C   UNL A   1      33.845  25.170  25.120  1.00  0.00     0.006 A 
ATOM      9  C   UNL A   1      33.538  23.165  26.388  1.00  0.00     0.006 A 
ATOM     10  C   UNL A   1      34.864  24.562  24.388  1.00  0.00     0.014 A 
ATOM     11  C   UNL A   1      34.540  22.542  25.631  1.00  0.00     0.014 A 
BRANCH   7  12
ATOM     12  C   UNL A   1      31.901  25.044  26.820  1.00  0.00     0.114 C 
ATOM     13  C   UNL A   1      31.028  28.087  23.982  1.00  0.00     0.065 A 
ATOM     14  C   UNL A   1      31.730  29.294  24.074  1.00  0.00     0.016 A 
ATOM     15  C   UNL A   1      31.098  27.130  25.021  1.00  0.00    -0.003 A 
ATOM     16  C   UNL A   1      32.501  29.568  25.196  1.00  0.00     0.006 A 
ATOM     17  C   UNL A   1      31.878  27.424  26.173  1.00  0.00     0.042 A 
ATOM     18  C   UNL A   1      30.368  25.803  24.913  1.00  0.00     0.050 C 
ATOM     19  C   UNL A   1      32.592  28.644  26.248  1.00  0.00    -0.028 A 
ATOM     20  N   UNL A   1      32.064  26.450  27.146  1.00  0.00    -0.377 N 
ATOM     21  C   UNL A   1      30.782  24.887  23.786  1.00  0.00    -0.023 C 
ATOM     22  C   UNL A   1      30.532  24.862  26.127  1.00  0.00     0.031 C 
ATOM     23  C   UNL A   1      33.515  29.009  27.383  1.00  0.00     0.046 C 
ATOM     24  H   UNL A   1      32.308  26.715  28.063  1.00  0.00     0.161 HD
ATOM     25  C   UNL A   1      30.719  23.596  24.143  1.00  0.00    -0.030 C 
ATOM     26  C   UNL A   1      30.286  23.452  25.565  1.00  0.00     0.034 C 
BRANCH  13  27
ATOM     27  C   UNL A   1      30.215  27.857  22.763  1.00  0.00     0.338 C 
ATOM     28  O   UNL A   1      30.654  27.500  21.689  1.00  0.00    -0.246 OA
BRANCH  27  29
ATOM     29  O   UNL A   1      28.921  28.163  23.049  1.00  0.00    -0.465 OA
ATOM     30  C   UNL A   1      28.443  29.333  22.385  1.00  0.00     0.282 C 
ENDBRANCH  27  29
ENDBRANCH  13  27
ENDBRANCH   7  12
ENDBRANCH   3   6
ENDBRANCH   1   2
BRANCH   1  31
ATOM     31  C   UNL A   1      37.941  19.543  25.002  1.00  0.00     0.042 C 
BRANCH  31  32
ATOM     32  C   UNL A   1      39.114  20.174  25.745  1.00  0.00     0.118 C 
BRANCH  32  33
ATOM     33  N   UNL A   1      40.166  19.194  25.979  1.00  0.00    -0.352 N 
ATOM     34  C   UNL A   1      41.517  19.396  26.074  1.00  0.00     0.251 C 
ATOM     35  H   UNL A   1      39.866  18.263  26.085  1.00  0.00     0.163 HD
ATOM     36  O   UNL A   1      42.296  18.463  25.907  1.00  0.00    -0.269 OA
BRANCH  34  37
ATOM     37  C   UNL A   1      42.027  20.738  26.406  1.00  0.00     0.039 A 
ATOM     38  C   UNL A   1      42.176  21.107  27.745  1.00  0.00     0.014 A 
ATOM     39  C   UNL A   1      42.284  21.654  25.380  1.00  0.00     0.014 A 
ATOM     40  C   UNL A   1      42.598  22.399  28.058  1.00  0.00     0.010 A 
ATOM     41  C   UNL A   1      42.761  22.919  25.689  1.00  0.00     0.010 A 
ATOM     42  C   UNL A   1      42.887  23.310  27.030  1.00  0.00    -0.014 A 
BRANCH  42  43
ATOM     43  C   UNL A   1      43.205  24.724  27.320  1.00  0.00     0.031 A 
ATOM     44  C   UNL A   1      44.642  25.159  27.298  1.00  0.00     0.074 A 
ATOM     45  C   UNL A   1      42.228  25.582  27.661  1.00  0.00     0.049 A 
ATOM     46  N   UNL A   1      45.166  26.311  27.626  1.00  0.00    -0.248 NA
ATOM     47  C   UNL A   1      45.623  24.149  26.868  1.00  0.00     0.031 C 
ATOM     48  C   UNL A   1      40.803  25.264  27.722  1.00  0.00     0.029 A 
ATOM     49  N   UNL A   1      42.298  26.897  28.042  1.00  0.00    -0.354 N 
ATOM     50  C   UNL A   1      46.536  26.160  27.452  1.00  0.00     0.074 A 
ATOM     51  C   UNL A   1      46.767  24.792  27.048  1.00  0.00     0.031 C 
ATOM     52  C   UNL A   1      40.129  26.359  28.115  1.00  0.00     0.029 A 
ATOM     53  C   UNL A   1      41.080  27.438  28.369  1.00  0.00     0.049 A 
ATOM     54  H   UNL A   1      43.141  27.405  28.077  1.00  0.00     0.167 HD
ATOM     55  C   UNL A   1      47.512  27.086  27.597  1.00  0.00     0.037 A 
ATOM     56  C   UNL A   1      40.777  28.663  28.837  1.00  0.00     0.037 A 
ATOM     57  C   UNL A   1      47.271  28.443  28.006  1.00  0.00     0.049 A 
ATOM     58  C   UNL A   1      41.886  29.657  29.053  1.00  0.00     0.074 A 
ATOM     59  C   UNL A   1      48.181  29.473  28.166  1.00  0.00     0.029 A 
ATOM     60  N   UNL A   1      46.023  28.956  28.334  1.00  0.00    -0.354 N 
ATOM     61  N   UNL A   1      43.174  29.522  28.842  1.00  0.00    -0.248 NA
ATOM     62  C   UNL A   1      41.498  30.976  29.570  1.00  0.00     0.031 C 
ATOM     63  C   UNL A   1      47.490  30.595  28.637  1.00  0.00     0.029 A 
ATOM     64  C   UNL A   1      46.142  30.281  28.716  1.00  0.00     0.049 A 
ATOM     65  H   UNL A   1      45.179  28.450  28.300  1.00  0.00     0.167 HD
ATOM     66  C   UNL A   1      43.744  30.748  29.161  1.00  0.00     0.074 A 
ATOM     67  C   UNL A   1      42.659  31.615  29.576  1.00  0.00     0.031 C 
ATOM     68  C   UNL A   1      45.045  31.128  29.111  1.00  0.00     0.037 A 
BRANCH  55  69
ATOM     69  C   UNL A   1      48.920  26.643  27.325  1.00  0.00     0.057 A 
ATOM     70  C   UNL A   1      49.741  26.189  28.363  1.00  0.00     0.134 A 
ATOM     71  C   UNL A   1      49.460  26.650  26.031  1.00  0.00     0.134 A 
ATOM     72  F   UNL A   1      49.291  26.158  29.626  1.00  0.00    -0.206 F 
ATOM     73  C   UNL A   1      51.045  25.748  28.124  1.00  0.00     0.040 A 
ATOM     74  C   UNL A   1      50.751  26.182  25.775  1.00  0.00     0.040 A 
ATOM     75  F   UNL A   1      48.723  27.058  24.987  1.00  0.00    -0.206 F 
ATOM     76  C   UNL A   1      51.549  25.733  26.825  1.00  0.00     0.006 A 
ENDBRANCH  55  69
BRANCH  56  77
ATOM     77  C   UNL A   1      39.366  29.027  29.121  1.00  0.00     0.057 A 
ATOM     78  C   UNL A   1      38.518  29.517  28.121  1.00  0.00     0.134 A 
ATOM     79  C   UNL A   1      38.825  28.864  30.402  1.00  0.00     0.134 A 
ATOM     80  F   UNL A   1      38.977  29.703  26.874  1.00  0.00    -0.206 F 
ATOM     81  C   UNL A   1      37.184  29.832  28.383  1.00  0.00     0.040 A 
ATOM     82  C   UNL A   1      37.487  29.150  30.672  1.00  0.00     0.040 A 
ATOM     83  F   UNL A   1      39.583  28.382  31.397  1.00  0.00    -0.206 F 
ATOM     84  C   UNL A   1      36.662  29.639  29.661  1.00  0.00     0.006 A 
ENDBRANCH  56  77
BRANCH  68  85
ATOM     85  C   UNL A   1      45.358  32.555  29.458  1.00  0.00     0.057 A 
ATOM     86  C   UNL A   1      45.332  33.544  28.467  1.00  0.00     0.134 A 
ATOM     87  C   UNL A   1      45.725  32.945  30.752  1.00  0.00     0.134 A 
ATOM     88  F   UNL A   1      44.999  33.236  27.204  1.00  0.00    -0.206 F 
ATOM     89  C   UNL A   1      45.665  34.870  28.748  1.00  0.00     0.040 A 
ATOM     90  C   UNL A   1      46.030  34.274  31.052  1.00  0.00     0.040 A 
ATOM     91  F   UNL A   1      45.755  32.048  31.750  1.00  0.00    -0.206 F 
ATOM     92  C   UNL A   1      46.009  35.238  30.046  1.00  0.00     0.006 A 
ENDBRANCH  68  85
ENDBRANCH  42  43
ENDBRANCH  34  37
ENDBRANCH  32  33
ENDBRANCH  31  32
ENDBRANCH   1  31
TORSDOF 13
ENDMDL
MODEL 2
REMARK VINA RESULT:     -13.1      0.670      6.059
REMARK SMILES COC(=O)c1ccc(C)c2c1[C@H]1C=CC[C@H]1[C@@H](c1ccc(C(=O)NCCCNC(=O)c3ccc(-c4c5nc(c(-c6c(F)cccc6F)c6ccc([nH]6)c(-c6c(F)cccc6F)c6nc(c(-c7c(F)cccc7F)c7ccc4[nH]7)C=C6)C=C5)cc3)cc1)N2
REMARK SMILES IDX 25 1 24 2 22 3 23 4 21 6 18 7 19 8 86 9 20 10 85 11 17 12
REMARK SMILES IDX 5 13 6 14 11 15 7 16 10 17 12 18 8 19 87 20 13 21 16 22 9 23
REMARK SMILES IDX 14 25 15 26 3 27 4 28 2 29 1 30 26 31 27 32 28 33 29 34
REMARK SMILES IDX 30 36 31 37 32 38 84 39 33 40 83 41 34 42 35 43 36 44 77 45
REMARK SMILES IDX 37 46 82 47 76 48 78 49 38 50 81 51 75 52 74 53 39 55 65 56
REMARK SMILES IDX 48 57 64 58 49 59 52 60 63 61 79 62 50 63 51 64 62 66 80 67
REMARK SMILES IDX 53 68 40 69 41 70 46 71 42 72 43 73 45 74 47 75 44 76 66 77
REMARK SMILES IDX 67 78 72 79 68 80 69 81 71 82 73 83 70 84 54 85 55 86 60 87
REMARK SMILES IDX 56 88 57 89 59 90 61 91 58 92
REMARK H PARENT 24 5 87 24 28 35 78 54 52 65
REMARK Flexibility Score: inf
ROOT
ATOM      1  C   UNL A   1      36.978  20.794  25.082  1.00  0.00     0.118 C 
ENDROOT
BRANCH   1   2
ATOM      2  N   UNL A   1      37.062  21.782  24.031  1.00  0.00    -0.352 N 
ATOM      3  C   UNL A   1      36.329  22.903  23.764  1.00  0.00     0.251 C 
ATOM      4  O   UNL A   1      36.628  23.536  22.751  1.00  0.00    -0.269 OA
ATOM      5  H   UNL A   1      37.786  21.616  23.383  1.00  0.00     0.163 HD
BRANCH   3   6
ATOM      6  C   UNL A   1      35.236  23.405  24.642  1.00  0.00     0.039 A 
ATOM      7  C   UNL A   1      33.096  24.565  26.117  1.00  0.00    -0.025 A 
ATOM      8  C   UNL A   1      33.858  25.317  25.211  1.00  0.00     0.006 A 
ATOM      9  C   UNL A   1      33.467  23.227  26.307  1.00  0.00     0.006 A 
ATOM     10  C   UNL A   1      34.905  24.751  24.485  1.00  0.00     0.014 A 
ATOM     11  C   UNL A   1      34.498  22.648  25.554  1.00  0.00     0.014 A 
BRANCH   7  12
ATOM     12  C   UNL A   1      31.831  25.093  26.801  1.00  0.00     0.114 C 
ATOM     13  C   UNL A   1      30.961  28.163  23.992  1.00  0.00     0.065 A 
ATOM     14  C   UNL A   1      31.636  29.381  24.118  1.00  0.00     0.016 A 
ATOM     15  C   UNL A   1      31.027  27.191  25.017  1.00  0.00    -0.003 A 
ATOM     16  C   UNL A   1      32.376  29.653  25.262  1.00  0.00     0.006 A 
ATOM     17  C   UNL A   1      31.775  27.481  26.191  1.00  0.00     0.042 A 
ATOM     18  C   UNL A   1      30.326  25.851  24.873  1.00  0.00     0.050 C 
ATOM     19  C   UNL A   1      32.462  28.714  26.301  1.00  0.00    -0.028 A 
ATOM     20  N   UNL A   1      31.959  26.496  27.153  1.00  0.00    -0.377 N 
ATOM     21  C   UNL A   1      30.784  24.961  23.741  1.00  0.00    -0.023 C 
ATOM     22  C   UNL A   1      30.483  24.894  26.075  1.00  0.00     0.031 C 
ATOM     23  C   UNL A   1      33.352  29.079  27.463  1.00  0.00     0.046 C 
ATOM     24  H   UNL A   1      32.176  26.751  28.079  1.00  0.00     0.161 HD
ATOM     25  C   UNL A   1      30.739  23.664  24.076  1.00  0.00    -0.030 C 
ATOM     26  C   UNL A   1      30.278  23.489  25.486  1.00  0.00     0.034 C 
BRANCH  13  27
ATOM     27  C   UNL A   1      30.180  27.935  22.751  1.00  0.00     0.338 C 
ATOM     28  O   UNL A   1      30.652  27.622  21.678  1.00  0.00    -0.246 OA
BRANCH  27  29
ATOM     29  O   UNL A   1      28.871  28.189  23.018  1.00  0.00    -0.465 OA
ATOM     30  C   UNL A   1      28.365  29.359  22.375  1.00  0.00     0.282 C 
ENDBRANCH  27  29
ENDBRANCH  13  27
ENDBRANCH   7  12
ENDBRANCH   3   6
ENDBRANCH   1   2
BRANCH   1  31
ATOM     31  C   UNL A   1      38.165  19.837  25.001  1.00  0.00     0.042 C 
BRANCH  31  32
ATOM     32  C   UNL A   1      39.305  20.261  25.921  1.00  0.00     0.118 C 
BRANCH  32  33
ATOM     33  N   UNL A   1      40.275  19.186  26.074  1.00  0.00    -0.352 N 
ATOM     34  C   UNL A   1      41.641  19.265  26.119  1.00  0.00     0.251 C 
ATOM     35  H   UNL A   1      39.898  18.281  26.157  1.00  0.00     0.163 HD
ATOM     36  O   UNL A   1      42.328  18.277  25.885  1.00  0.00    -0.269 OA
BRANCH  34  37
ATOM     37  C   UNL A   1      42.280  20.544  26.479  1.00  0.00     0.039 A 
ATOM     38  C   UNL A   1      42.277  20.964  27.811  1.00  0.00     0.014 A 
ATOM     39  C   UNL A   1      42.814  21.358  25.475  1.00  0.00     0.014 A 
ATOM     40  C   UNL A   1      42.826  22.204  28.141  1.00  0.00     0.010 A 
ATOM     41  C   UNL A   1      43.413  22.563  25.810  1.00  0.00     0.010 A 
ATOM     42  C   UNL A   1      43.391  23.008  27.140  1.00  0.00    -0.014 A 
BRANCH  42  43
ATOM     43  C   UNL A   1      43.857  24.382  27.426  1.00  0.00     0.031 A 
ATOM     44  C   UNL A   1      42.847  25.416  27.829  1.00  0.00     0.074 A 
ATOM     45  C   UNL A   1      45.151  24.707  27.261  1.00  0.00     0.049 A 
ATOM     46  N   UNL A   1      43.003  26.700  28.019  1.00  0.00    -0.248 NA
ATOM     47  C   UNL A   1      41.466  24.940  28.023  1.00  0.00     0.031 C 
ATOM     48  C   UNL A   1      46.213  23.784  26.865  1.00  0.00     0.029 A 
ATOM     49  N   UNL A   1      45.783  25.916  27.389  1.00  0.00    -0.354 N 
ATOM     50  C   UNL A   1      41.742  27.185  28.344  1.00  0.00     0.074 A 
ATOM     51  C   UNL A   1      40.824  26.072  28.267  1.00  0.00     0.031 C 
ATOM     52  C   UNL A   1      47.371  24.462  26.785  1.00  0.00     0.029 A 
ATOM     53  C   UNL A   1      47.121  25.869  27.086  1.00  0.00     0.049 A 
ATOM     54  H   UNL A   1      45.322  26.739  27.671  1.00  0.00     0.167 HD
ATOM     55  C   UNL A   1      41.387  28.443  28.695  1.00  0.00     0.037 A 
ATOM     56  C   UNL A   1      48.031  26.860  27.041  1.00  0.00     0.037 A 
ATOM     57  C   UNL A   1      42.308  29.545  28.762  1.00  0.00     0.049 A 
ATOM     58  C   UNL A   1      47.599  28.264  27.372  1.00  0.00     0.074 A 
ATOM     59  C   UNL A   1      42.064  30.857  29.126  1.00  0.00     0.029 A 
ATOM     60  N   UNL A   1      43.657  29.461  28.443  1.00  0.00    -0.354 N 
ATOM     61  N   UNL A   1      46.415  28.707  27.723  1.00  0.00    -0.248 NA
ATOM     62  C   UNL A   1      48.633  29.305  27.302  1.00  0.00     0.031 C 
ATOM     63  C   UNL A   1      43.254  31.578  28.980  1.00  0.00     0.029 A 
ATOM     64  C   UNL A   1      44.253  30.704  28.581  1.00  0.00     0.049 A 
ATOM     65  H   UNL A   1      44.120  28.640  28.161  1.00  0.00     0.167 HD
ATOM     66  C   UNL A   1      46.571  30.067  27.955  1.00  0.00     0.074 A 
ATOM     67  C   UNL A   1      47.965  30.374  27.709  1.00  0.00     0.031 C 
ATOM     68  C   UNL A   1      45.647  30.982  28.344  1.00  0.00     0.037 A 
BRANCH  55  69
ATOM     69  C   UNL A   1      39.939  28.681  29.013  1.00  0.00     0.057 A 
ATOM     70  C   UNL A   1      39.450  28.492  30.310  1.00  0.00     0.134 A 
ATOM     71  C   UNL A   1      39.030  29.112  28.036  1.00  0.00     0.134 A 
ATOM     72  F   UNL A   1      40.263  28.078  31.293  1.00  0.00    -0.206 F 
ATOM     73  C   UNL A   1      38.112  28.734  30.629  1.00  0.00     0.040 A 
ATOM     74  C   UNL A   1      37.697  29.387  28.349  1.00  0.00     0.040 A 
ATOM     75  F   UNL A   1      39.435  29.328  26.776  1.00  0.00    -0.206 F 
ATOM     76  C   UNL A   1      37.234  29.194  29.649  1.00  0.00     0.006 A 
ENDBRANCH  55  69
BRANCH  56  77
ATOM     77  C   UNL A   1      49.441  26.564  26.685  1.00  0.00     0.057 A 
ATOM     78  C   UNL A   1      50.376  26.169  27.649  1.00  0.00     0.134 A 
ATOM     79  C   UNL A   1      49.879  26.643  25.357  1.00  0.00     0.134 A 
ATOM     80  F   UNL A   1      50.021  26.081  28.940  1.00  0.00    -0.206 F 
ATOM     81  C   UNL A   1      51.694  25.864  27.308  1.00  0.00     0.040 A 
ATOM     82  C   UNL A   1      51.187  26.316  24.998  1.00  0.00     0.040 A 
ATOM     83  F   UNL A   1      49.026  26.998  24.386  1.00  0.00    -0.206 F 
ATOM     84  C   UNL A   1      52.100  25.927  25.976  1.00  0.00     0.006 A 
ENDBRANCH  56  77
BRANCH  68  85
ATOM     85  C   UNL A   1      46.127  32.385  28.580  1.00  0.00     0.057 A 
ATOM     86  C   UNL A   1      46.572  32.773  29.851  1.00  0.00     0.134 A 
ATOM     87  C   UNL A   1      46.109  33.359  27.575  1.00  0.00     0.134 A 
ATOM     88  F   UNL A   1      46.604  31.891  30.862  1.00  0.00    -0.206 F 
ATOM     89  C   UNL A   1      46.978  34.081  30.115  1.00  0.00     0.040 A 
ATOM     90  C   UNL A   1      46.542  34.664  27.819  1.00  0.00     0.040 A 
ATOM     91  F   UNL A   1      45.708  33.047  26.333  1.00  0.00    -0.206 F 
ATOM     92  C   UNL A   1      46.970  35.030  29.094  1.00  0.00     0.006 A 
ENDBRANCH  68  85
ENDBRANCH  42  43
ENDBRANCH  34  37
ENDBRANCH  32  33
ENDBRANCH  31  32
ENDBRANCH   1  31
TORSDOF 13
ENDMDL
MODEL 3
REMARK VINA RESULT:     -13.0      4.665      8.360
REMARK SMILES COC(=O)c1ccc(C)c2c1[C@H]1C=CC[C@H]1[C@@H](c1ccc(C(=O)NCCCNC(=O)c3ccc(-c4c5nc(c(-c6c(F)cccc6F)c6ccc([nH]6)c(-c6c(F)cccc6F)c6nc(c(-c7c(F)cccc7F)c7ccc4[nH]7)C=C6)C=C5)cc3)cc1)N2
REMARK SMILES IDX 25 1 24 2 22 3 23 4 21 6 18 7 19 8 86 9 20 10 85 11 17 12
REMARK SMILES IDX 5 13 6 14 11 15 7 16 10 17 12 18 8 19 87 20 13 21 16 22 9 23
REMARK SMILES IDX 14 25 15 26 3 27 4 28 2 29 1 30 26 31 27 32 28 33 29 34
REMARK SMILES IDX 30 36 31 37 32 38 84 39 33 40 83 41 34 42 35 43 36 44 77 45
REMARK SMILES IDX 37 46 82 47 76 48 78 49 38 50 81 51 75 52 74 53 39 55 65 56
REMARK SMILES IDX 48 57 64 58 49 59 52 60 63 61 79 62 50 63 51 64 62 66 80 67
REMARK SMILES IDX 53 68 40 69 41 70 46 71 42 72 43 73 45 74 47 75 44 76 66 77
REMARK SMILES IDX 67 78 72 79 68 80 69 81 71 82 73 83 70 84 54 85 55 86 60 87
REMARK SMILES IDX 56 88 57 89 59 90 61 91 58 92
REMARK H PARENT 24 5 87 24 28 35 78 54 52 65
REMARK Flexibility Score: inf
ROOT
ATOM      1  C   UNL A   1      38.047  22.240  25.612  1.00  0.00     0.118 C 
ENDROOT
BRANCH   1   2
ATOM      2  N   UNL A   1      37.555  22.454  24.270  1.00  0.00    -0.352 N 
ATOM      3  C   UNL A   1      36.360  22.910  23.793  1.00  0.00     0.251 C 
ATOM      4  O   UNL A   1      36.227  22.949  22.569  1.00  0.00    -0.269 OA
ATOM      5  H   UNL A   1      38.206  22.230  23.565  1.00  0.00     0.163 HD
BRANCH   3   6
ATOM      6  C   UNL A   1      35.250  23.388  24.663  1.00  0.00     0.039 A 
ATOM      7  C   UNL A   1      33.076  24.502  26.123  1.00  0.00    -0.025 A 
ATOM      8  C   UNL A   1      33.837  25.273  25.233  1.00  0.00     0.006 A 
ATOM      9  C   UNL A   1      33.464  23.168  26.306  1.00  0.00     0.006 A 
ATOM     10  C   UNL A   1      34.901  24.729  24.515  1.00  0.00     0.014 A 
ATOM     11  C   UNL A   1      34.512  22.611  25.560  1.00  0.00     0.014 A 
BRANCH   7  12
ATOM     12  C   UNL A   1      31.796  25.005  26.798  1.00  0.00     0.114 C 
ATOM     13  C   UNL A   1      30.927  28.105  24.022  1.00  0.00     0.065 A 
ATOM     14  C   UNL A   1      31.585  29.330  24.175  1.00  0.00     0.016 A 
ATOM     15  C   UNL A   1      30.990  27.119  25.033  1.00  0.00    -0.003 A 
ATOM     16  C   UNL A   1      32.307  29.593  25.333  1.00  0.00     0.006 A 
ATOM     17  C   UNL A   1      31.719  27.401  26.222  1.00  0.00     0.042 A 
ATOM     18  C   UNL A   1      30.308  25.774  24.860  1.00  0.00     0.050 C 
ATOM     19  C   UNL A   1      32.390  28.640  26.359  1.00  0.00    -0.028 A 
ATOM     20  N   UNL A   1      31.901  26.404  27.171  1.00  0.00    -0.377 N 
ATOM     21  C   UNL A   1      30.792  24.906  23.722  1.00  0.00    -0.023 C 
ATOM     22  C   UNL A   1      30.460  24.801  26.050  1.00  0.00     0.031 C 
ATOM     23  C   UNL A   1      33.259  28.999  27.538  1.00  0.00     0.046 C 
ATOM     24  H   UNL A   1      32.103  26.648  28.104  1.00  0.00     0.161 HD
ATOM     25  C   UNL A   1      30.758  23.604  24.038  1.00  0.00    -0.030 C 
ATOM     26  C   UNL A   1      30.280  23.403  25.438  1.00  0.00     0.034 C 
BRANCH  13  27
ATOM     27  C   UNL A   1      30.166  27.887  22.767  1.00  0.00     0.338 C 
ATOM     28  O   UNL A   1      30.654  27.572  21.702  1.00  0.00    -0.246 OA
BRANCH  27  29
ATOM     29  O   UNL A   1      28.854  28.150  23.013  1.00  0.00    -0.465 OA
ATOM     30  C   UNL A   1      28.371  29.331  22.374  1.00  0.00     0.282 C 
ENDBRANCH  27  29
ENDBRANCH  13  27
ENDBRANCH   7  12
ENDBRANCH   3   6
ENDBRANCH   1   2
BRANCH   1  31
ATOM     31  C   UNL A   1      38.372  23.578  26.274  1.00  0.00     0.042 C 
BRANCH  31  32
ATOM     32  C   UNL A   1      39.723  23.553  26.981  1.00  0.00     0.118 C 
BRANCH  32  33
ATOM     33  N   UNL A   1      40.764  24.110  26.128  1.00  0.00    -0.352 N 
ATOM     34  C   UNL A   1      41.153  25.417  25.995  1.00  0.00     0.251 C 
ATOM     35  H   UNL A   1      41.254  23.462  25.574  1.00  0.00     0.163 HD
ATOM     36  O   UNL A   1      41.769  25.782  25.000  1.00  0.00    -0.269 OA
BRANCH  34  37
ATOM     37  C   UNL A   1      40.849  26.375  27.072  1.00  0.00     0.039 A 
ATOM     38  C   UNL A   1      41.456  27.633  27.068  1.00  0.00     0.014 A 
ATOM     39  C   UNL A   1      40.015  25.989  28.128  1.00  0.00     0.014 A 
ATOM     40  C   UNL A   1      41.217  28.515  28.122  1.00  0.00     0.010 A 
ATOM     41  C   UNL A   1      39.729  26.887  29.145  1.00  0.00     0.010 A 
ATOM     42  C   UNL A   1      40.356  28.142  29.166  1.00  0.00    -0.014 A 
BRANCH  42  43
ATOM     43  C   UNL A   1      40.184  28.991  30.364  1.00  0.00     0.031 A 
ATOM     44  C   UNL A   1      39.139  30.068  30.339  1.00  0.00     0.074 A 
ATOM     45  C   UNL A   1      40.995  28.838  31.425  1.00  0.00     0.049 A 
ATOM     46  N   UNL A   1      38.885  30.999  31.221  1.00  0.00    -0.248 NA
ATOM     47  C   UNL A   1      38.278  30.116  29.145  1.00  0.00     0.031 C 
ATOM     48  C   UNL A   1      42.047  27.831  31.551  1.00  0.00     0.029 A 
ATOM     49  N   UNL A   1      41.069  29.552  32.592  1.00  0.00    -0.354 N 
ATOM     50  C   UNL A   1      37.845  31.747  30.685  1.00  0.00     0.074 A 
ATOM     51  C   UNL A   1      37.555  31.200  29.379  1.00  0.00     0.031 C 
ATOM     52  C   UNL A   1      42.662  27.989  32.736  1.00  0.00     0.029 A 
ATOM     53  C   UNL A   1      42.072  29.131  33.429  1.00  0.00     0.049 A 
ATOM     54  H   UNL A   1      40.461  30.296  32.809  1.00  0.00     0.167 HD
ATOM     55  C   UNL A   1      37.176  32.784  31.242  1.00  0.00     0.037 A 
ATOM     56  C   UNL A   1      42.473  29.628  34.614  1.00  0.00     0.037 A 
ATOM     57  C   UNL A   1      37.478  33.324  32.540  1.00  0.00     0.049 A 
ATOM     58  C   UNL A   1      41.758  30.824  35.185  1.00  0.00     0.074 A 
ATOM     59  C   UNL A   1      36.853  34.359  33.212  1.00  0.00     0.029 A 
ATOM     60  N   UNL A   1      38.504  32.874  33.359  1.00  0.00    -0.354 N 
ATOM     61  N   UNL A   1      40.744  31.497  34.693  1.00  0.00    -0.248 NA
ATOM     62  C   UNL A   1      42.241  31.327  36.477  1.00  0.00     0.031 C 
ATOM     63  C   UNL A   1      37.533  34.567  34.417  1.00  0.00     0.029 A 
ATOM     64  C   UNL A   1      38.544  33.625  34.522  1.00  0.00     0.049 A 
ATOM     65  H   UNL A   1      39.113  32.131  33.144  1.00  0.00     0.167 HD
ATOM     66  C   UNL A   1      40.444  32.475  35.633  1.00  0.00     0.074 A 
ATOM     67  C   UNL A   1      41.381  32.303  36.725  1.00  0.00     0.031 C 
ATOM     68  C   UNL A   1      39.478  33.426  35.602  1.00  0.00     0.037 A 
BRANCH  55  69
ATOM     69  C   UNL A   1      36.073  33.400  30.431  1.00  0.00     0.057 A 
ATOM     70  C   UNL A   1      34.731  33.143  30.736  1.00  0.00     0.134 A 
ATOM     71  C   UNL A   1      36.337  34.261  29.357  1.00  0.00     0.134 A 
ATOM     72  F   UNL A   1      34.405  32.326  31.748  1.00  0.00    -0.206 F 
ATOM     73  C   UNL A   1      33.692  33.728  30.009  1.00  0.00     0.040 A 
ATOM     74  C   UNL A   1      35.307  34.877  28.643  1.00  0.00     0.040 A 
ATOM     75  F   UNL A   1      37.601  34.563  29.021  1.00  0.00    -0.206 F 
ATOM     76  C   UNL A   1      33.979  34.607  28.967  1.00  0.00     0.006 A 
ENDBRANCH  55  69
BRANCH  56  77
ATOM     77  C   UNL A   1      43.596  28.994  35.349  1.00  0.00     0.057 A 
ATOM     78  C   UNL A   1      43.385  27.942  36.248  1.00  0.00     0.134 A 
ATOM     79  C   UNL A   1      44.916  29.412  35.145  1.00  0.00     0.134 A 
ATOM     80  F   UNL A   1      42.142  27.500  36.494  1.00  0.00    -0.206 F 
ATOM     81  C   UNL A   1      44.445  27.328  36.917  1.00  0.00     0.040 A 
ATOM     82  C   UNL A   1      45.988  28.791  35.787  1.00  0.00     0.040 A 
ATOM     83  F   UNL A   1      45.184  30.403  34.283  1.00  0.00    -0.206 F 
ATOM     84  C   UNL A   1      45.753  27.746  36.678  1.00  0.00     0.006 A 
ENDBRANCH  56  77
BRANCH  68  85
ATOM     85  C   UNL A   1      39.349  34.314  36.805  1.00  0.00     0.057 A 
ATOM     86  C   UNL A   1      39.947  35.581  36.815  1.00  0.00     0.134 A 
ATOM     87  C   UNL A   1      38.677  33.907  37.964  1.00  0.00     0.134 A 
ATOM     88  F   UNL A   1      40.615  36.028  35.740  1.00  0.00    -0.206 F 
ATOM     89  C   UNL A   1      39.886  36.410  37.935  1.00  0.00     0.040 A 
ATOM     90  C   UNL A   1      38.583  34.740  39.081  1.00  0.00     0.040 A 
ATOM     91  F   UNL A   1      38.070  32.711  38.014  1.00  0.00    -0.206 F 
ATOM     92  C   UNL A   1      39.196  35.992  39.070  1.00  0.00     0.006 A 
ENDBRANCH  68  85
ENDBRANCH  42  43
ENDBRANCH  34  37
ENDBRANCH  32  33
ENDBRANCH  31  32
ENDBRANCH   1  31
TORSDOF 13
ENDMDL
