MODEL 1
REMARK VINA RESULT:     -10.9      0.000      0.000
REMARK SMILES C[C@]1(C(=O)NCc2ccc(C(=O)NCCCNC(=O)c3ccc(-c4c5nc(c(-c6c(F)cccc6F)c6ccc([nH]6)c(-c6c(F)cccc6F)c6nc(c(-c7c(F)cccc7F)c7ccc4[nH]7)C=C6)C=C5)cc3)o2)CCC[NH2+]C1
REMARK SMILES IDX 14 1 13 2 11 3 12 4 10 6 7 7 8 8 74 9 9 10 6 11 5 12 3 13
REMARK SMILES IDX 4 14 2 16 1 17 75 18 79 19 76 20 78 21 77 22 15 25 16 26
REMARK SMILES IDX 17 27 18 28 19 30 20 31 21 32 73 33 22 34 72 35 23 36 24 37
REMARK SMILES IDX 25 38 66 39 26 40 71 41 65 42 67 43 27 44 70 45 64 46 63 47
REMARK SMILES IDX 28 49 54 50 37 51 53 52 38 53 41 54 52 55 68 56 39 57 40 58
REMARK SMILES IDX 51 60 69 61 42 62 29 63 30 64 35 65 31 66 32 67 34 68 36 69
REMARK SMILES IDX 33 70 55 71 56 72 61 73 57 74 58 75 60 76 62 77 59 78 43 79
REMARK SMILES IDX 44 80 49 81 45 82 46 83 48 84 50 85 47 86
REMARK H PARENT 13 5 5 15 78 23 78 24 17 29 67 48 41 59
REMARK Flexibility Score: inf
ROOT
ATOM      1  C   UNL A   1      35.294  34.910  28.468  1.00  0.00     0.118 C 
ENDROOT
BRANCH   1   2
ATOM      2  N   UNL A   1      33.962  35.460  28.330  1.00  0.00    -0.349 N 
ATOM      3  C   UNL A   1      33.070  35.929  29.265  1.00  0.00     0.286 C 
ATOM      4  O   UNL A   1      32.026  36.396  28.805  1.00  0.00    -0.266 OA
ATOM      5  H   UNL A   1      33.638  35.507  27.402  1.00  0.00     0.163 HD
BRANCH   3   6
ATOM      6  C   UNL A   1      33.347  35.876  30.690  1.00  0.00     0.191 A 
ATOM      7  C   UNL A   1      33.728  34.735  32.556  1.00  0.00     0.124 A 
ATOM      8  C   UNL A   1      33.801  36.065  32.899  1.00  0.00     0.048 A 
ATOM      9  O   UNL A   1      33.450  34.618  31.231  1.00  0.00    -0.454 OA
ATOM     10  C   UNL A   1      33.583  36.794  31.700  1.00  0.00     0.056 A 
BRANCH   7  11
ATOM     11  C   UNL A   1      33.958  33.464  33.278  1.00  0.00     0.191 C 
BRANCH  11  12
ATOM     12  N   UNL A   1      35.017  33.616  34.249  1.00  0.00    -0.348 N 
ATOM     13  C   UNL A   1      36.358  33.405  34.167  1.00  0.00     0.232 C 
ATOM     14  O   UNL A   1      37.024  33.887  35.092  1.00  0.00    -0.274 OA
ATOM     15  H   UNL A   1      34.711  33.929  35.132  1.00  0.00     0.163 HD
BRANCH  13  16
ATOM     16  C   UNL A   1      37.032  32.655  32.988  1.00  0.00     0.095 C 
ATOM     17  C   UNL A   1      36.174  31.438  32.583  1.00  0.00     0.028 C 
ATOM     18  C   UNL A   1      37.082  33.574  31.731  1.00  0.00     0.028 C 
ATOM     19  C   UNL A   1      38.478  32.232  33.340  1.00  0.00     0.277 C 
ATOM     20  C   UNL A   1      38.134  34.678  31.824  1.00  0.00     0.063 C 
ATOM     21  N   UNL A   1      39.410  33.359  33.457  1.00  0.00    -0.345 N 
ATOM     22  C   UNL A   1      39.495  34.119  32.214  1.00  0.00     0.260 C 
ATOM     23  H   UNL A   1      39.090  33.978  34.201  1.00  0.00     0.346 HD
ATOM     24  H   UNL A   1      40.337  32.984  33.665  1.00  0.00     0.346 HD
ENDBRANCH  13  16
ENDBRANCH  11  12
ENDBRANCH   7  11
ENDBRANCH   3   6
ENDBRANCH   1   2
BRANCH   1  25
ATOM     25  C   UNL A   1      35.338  33.433  28.084  1.00  0.00     0.042 C 
BRANCH  25  26
ATOM     26  C   UNL A   1      34.738  32.512  29.148  1.00  0.00     0.118 C 
BRANCH  26  27
ATOM     27  N   UNL A   1      34.090  31.349  28.555  1.00  0.00    -0.352 N 
ATOM     28  C   UNL A   1      34.625  30.184  28.068  1.00  0.00     0.251 C 
ATOM     29  H   UNL A   1      33.109  31.409  28.497  1.00  0.00     0.163 HD
ATOM     30  O   UNL A   1      33.921  29.437  27.392  1.00  0.00    -0.269 OA
BRANCH  28  31
ATOM     31  C   UNL A   1      36.029  29.813  28.342  1.00  0.00     0.039 A 
ATOM     32  C   UNL A   1      36.974  29.960  27.319  1.00  0.00     0.014 A 
ATOM     33  C   UNL A   1      36.408  29.249  29.563  1.00  0.00     0.014 A 
ATOM     34  C   UNL A   1      38.302  29.585  27.536  1.00  0.00     0.010 A 
ATOM     35  C   UNL A   1      37.744  28.930  29.799  1.00  0.00     0.010 A 
ATOM     36  C   UNL A   1      38.702  29.086  28.786  1.00  0.00    -0.014 A 
BRANCH  36  37
ATOM     37  C   UNL A   1      40.115  28.714  29.048  1.00  0.00     0.031 A 
ATOM     38  C   UNL A   1      41.046  29.693  29.708  1.00  0.00     0.074 A 
ATOM     39  C   UNL A   1      40.576  27.519  28.630  1.00  0.00     0.049 A 
ATOM     40  N   UNL A   1      42.329  29.584  29.943  1.00  0.00    -0.248 NA
ATOM     41  C   UNL A   1      40.463  30.974  30.139  1.00  0.00     0.031 C 
ATOM     42  C   UNL A   1      39.784  26.500  27.939  1.00  0.00     0.029 A 
ATOM     43  N   UNL A   1      41.829  26.967  28.710  1.00  0.00    -0.354 N 
ATOM     44  C   UNL A   1      42.712  30.790  30.518  1.00  0.00     0.074 A 
ATOM     45  C   UNL A   1      41.533  31.627  30.571  1.00  0.00     0.031 C 
ATOM     46  C   UNL A   1      40.566  25.441  27.672  1.00  0.00     0.029 A 
ATOM     47  C   UNL A   1      41.919  25.720  28.141  1.00  0.00     0.049 A 
ATOM     48  H   UNL A   1      42.592  27.421  29.136  1.00  0.00     0.167 HD
ATOM     49  C   UNL A   1      43.933  31.159  30.975  1.00  0.00     0.037 A 
ATOM     50  C   UNL A   1      42.977  24.898  28.006  1.00  0.00     0.037 A 
ATOM     51  C   UNL A   1      45.092  30.305  30.967  1.00  0.00     0.049 A 
ATOM     52  C   UNL A   1      44.314  25.324  28.544  1.00  0.00     0.074 A 
ATOM     53  C   UNL A   1      46.350  30.557  31.489  1.00  0.00     0.029 A 
ATOM     54  N   UNL A   1      45.135  29.037  30.413  1.00  0.00    -0.354 N 
ATOM     55  N   UNL A   1      44.643  26.437  29.152  1.00  0.00    -0.248 NA
ATOM     56  C   UNL A   1      45.426  24.376  28.381  1.00  0.00     0.031 C 
ATOM     57  C   UNL A   1      47.164  29.451  31.219  1.00  0.00     0.029 A 
ATOM     58  C   UNL A   1      46.403  28.499  30.562  1.00  0.00     0.049 A 
ATOM     59  H   UNL A   1      44.376  28.584  29.978  1.00  0.00     0.167 HD
ATOM     60  C   UNL A   1      45.989  26.313  29.470  1.00  0.00     0.074 A 
ATOM     61  C   UNL A   1      46.413  25.011  28.997  1.00  0.00     0.031 C 
ATOM     62  C   UNL A   1      46.802  27.197  30.098  1.00  0.00     0.037 A 
BRANCH  49  63
ATOM     63  C   UNL A   1      44.081  32.545  31.527  1.00  0.00     0.057 A 
ATOM     64  C   UNL A   1      43.866  32.828  32.881  1.00  0.00     0.134 A 
ATOM     65  C   UNL A   1      44.492  33.600  30.702  1.00  0.00     0.134 A 
ATOM     66  F   UNL A   1      43.462  31.864  33.722  1.00  0.00    -0.206 F 
ATOM     67  C   UNL A   1      44.038  34.115  33.393  1.00  0.00     0.040 A 
ATOM     68  C   UNL A   1      44.688  34.887  31.206  1.00  0.00     0.040 A 
ATOM     69  F   UNL A   1      44.720  33.394  29.396  1.00  0.00    -0.206 F 
ATOM     70  C   UNL A   1      44.457  35.148  32.556  1.00  0.00     0.006 A 
ENDBRANCH  49  63
BRANCH  50  71
ATOM     71  C   UNL A   1      42.815  23.577  27.352  1.00  0.00     0.057 A 
ATOM     72  C   UNL A   1      42.449  22.448  28.094  1.00  0.00     0.134 A 
ATOM     73  C   UNL A   1      43.039  23.405  25.981  1.00  0.00     0.134 A 
ATOM     74  F   UNL A   1      42.239  22.547  29.414  1.00  0.00    -0.206 F 
ATOM     75  C   UNL A   1      42.333  21.189  27.501  1.00  0.00     0.040 A 
ATOM     76  C   UNL A   1      42.905  22.156  25.371  1.00  0.00     0.040 A 
ATOM     77  F   UNL A   1      43.386  24.449  25.215  1.00  0.00    -0.206 F 
ATOM     78  C   UNL A   1      42.559  21.043  26.134  1.00  0.00     0.006 A 
ENDBRANCH  50  71
BRANCH  62  79
ATOM     79  C   UNL A   1      48.217  26.769  30.342  1.00  0.00     0.057 A 
ATOM     80  C   UNL A   1      48.570  25.984  31.445  1.00  0.00     0.134 A 
ATOM     81  C   UNL A   1      49.231  27.120  29.442  1.00  0.00     0.134 A 
ATOM     82  F   UNL A   1      47.646  25.627  32.350  1.00  0.00    -0.206 F 
ATOM     83  C   UNL A   1      49.889  25.577  31.656  1.00  0.00     0.040 A 
ATOM     84  C   UNL A   1      50.549  26.702  29.631  1.00  0.00     0.040 A 
ATOM     85  F   UNL A   1      48.956  27.865  28.361  1.00  0.00    -0.206 F 
ATOM     86  C   UNL A   1      50.881  25.932  30.744  1.00  0.00     0.006 A 
ENDBRANCH  62  79
ENDBRANCH  36  37
ENDBRANCH  28  31
ENDBRANCH  26  27
ENDBRANCH  25  26
ENDBRANCH   1  25
TORSDOF 13
ENDMDL
MODEL 2
REMARK VINA RESULT:     -10.8      4.278      9.562
REMARK SMILES C[C@]1(C(=O)NCc2ccc(C(=O)NCCCNC(=O)c3ccc(-c4c5nc(c(-c6c(F)cccc6F)c6ccc([nH]6)c(-c6c(F)cccc6F)c6nc(c(-c7c(F)cccc7F)c7ccc4[nH]7)C=C6)C=C5)cc3)o2)CCC[NH2+]C1
REMARK SMILES IDX 14 1 13 2 11 3 12 4 10 6 7 7 8 8 74 9 9 10 6 11 5 12 3 13
REMARK SMILES IDX 4 14 2 16 1 17 75 18 79 19 76 20 78 21 77 22 15 25 16 26
REMARK SMILES IDX 17 27 18 28 19 30 20 31 21 32 73 33 22 34 72 35 23 36 24 37
REMARK SMILES IDX 25 38 66 39 26 40 71 41 65 42 67 43 27 44 70 45 64 46 63 47
REMARK SMILES IDX 28 49 54 50 37 51 53 52 38 53 41 54 52 55 68 56 39 57 40 58
REMARK SMILES IDX 51 60 69 61 42 62 29 63 30 64 35 65 31 66 32 67 34 68 36 69
REMARK SMILES IDX 33 70 55 71 56 72 61 73 57 74 58 75 60 76 62 77 59 78 43 79
REMARK SMILES IDX 44 80 49 81 45 82 46 83 48 84 50 85 47 86
REMARK H PARENT 13 5 5 15 78 23 78 24 17 29 67 48 41 59
REMARK Flexibility Score: inf
ROOT
ATOM      1  C   UNL A   1      35.919  20.448  24.983  1.00  0.00     0.118 C 
ENDROOT
BRANCH   1   2
ATOM      2  N   UNL A   1      34.694  19.703  25.184  1.00  0.00    -0.349 N 
ATOM      3  C   UNL A   1      33.382  20.024  24.932  1.00  0.00     0.286 C 
ATOM      4  O   UNL A   1      32.569  19.125  25.163  1.00  0.00    -0.266 OA
ATOM      5  H   UNL A   1      34.825  18.806  25.570  1.00  0.00     0.163 HD
BRANCH   3   6
ATOM      6  C   UNL A   1      32.991  21.328  24.427  1.00  0.00     0.191 A 
ATOM      7  C   UNL A   1      32.691  23.511  24.703  1.00  0.00     0.124 A 
ATOM      8  C   UNL A   1      32.355  23.241  23.397  1.00  0.00     0.048 A 
ATOM      9  O   UNL A   1      33.068  22.363  25.326  1.00  0.00    -0.454 OA
ATOM     10  C   UNL A   1      32.572  21.849  23.213  1.00  0.00     0.056 A 
BRANCH   7  11
ATOM     11  C   UNL A   1      32.800  24.745  25.512  1.00  0.00     0.191 C 
BRANCH  11  12
ATOM     12  N   UNL A   1      33.300  25.836  24.708  1.00  0.00    -0.348 N 
ATOM     13  C   UNL A   1      32.882  27.124  24.567  1.00  0.00     0.232 C 
ATOM     14  O   UNL A   1      33.686  27.880  24.010  1.00  0.00    -0.274 OA
ATOM     15  H   UNL A   1      34.087  25.607  24.162  1.00  0.00     0.163 HD
BRANCH  13  16
ATOM     16  C   UNL A   1      31.519  27.639  25.097  1.00  0.00     0.095 C 
ATOM     17  C   UNL A   1      30.385  26.705  24.623  1.00  0.00     0.028 C 
ATOM     18  C   UNL A   1      31.493  27.576  26.654  1.00  0.00     0.028 C 
ATOM     19  C   UNL A   1      31.260  29.102  24.665  1.00  0.00     0.277 C 
ATOM     20  C   UNL A   1      32.333  28.665  27.321  1.00  0.00     0.063 C 
ATOM     21  N   UNL A   1      32.142  30.075  25.319  1.00  0.00    -0.345 N 
ATOM     22  C   UNL A   1      31.997  30.043  26.771  1.00  0.00     0.260 C 
ATOM     23  H   UNL A   1      33.109  29.858  25.080  1.00  0.00     0.346 HD
ATOM     24  H   UNL A   1      31.885  31.007  24.993  1.00  0.00     0.346 HD
ENDBRANCH  13  16
ENDBRANCH  11  12
ENDBRANCH   7  11
ENDBRANCH   3   6
ENDBRANCH   1   2
BRANCH   1  25
ATOM     25  C   UNL A   1      37.141  19.532  24.972  1.00  0.00     0.042 C 
BRANCH  25  26
ATOM     26  C   UNL A   1      38.439  20.248  25.346  1.00  0.00     0.118 C 
BRANCH  26  27
ATOM     27  N   UNL A   1      39.528  19.309  25.581  1.00  0.00    -0.352 N 
ATOM     28  C   UNL A   1      40.816  19.525  25.998  1.00  0.00     0.251 C 
ATOM     29  H   UNL A   1      39.301  18.365  25.415  1.00  0.00     0.163 HD
ATOM     30  O   UNL A   1      41.640  18.619  25.900  1.00  0.00    -0.269 OA
BRANCH  28  31
ATOM     31  C   UNL A   1      41.229  20.827  26.564  1.00  0.00     0.039 A 
ATOM     32  C   UNL A   1      41.751  21.799  25.702  1.00  0.00     0.014 A 
ATOM     33  C   UNL A   1      41.183  21.070  27.939  1.00  0.00     0.014 A 
ATOM     34  C   UNL A   1      42.182  23.025  26.211  1.00  0.00     0.010 A 
ATOM     35  C   UNL A   1      41.559  22.316  28.440  1.00  0.00     0.010 A 
ATOM     36  C   UNL A   1      42.071  23.302  27.583  1.00  0.00    -0.014 A 
BRANCH  36  37
ATOM     37  C   UNL A   1      42.491  24.612  28.140  1.00  0.00     0.031 A 
ATOM     38  C   UNL A   1      41.475  25.693  28.384  1.00  0.00     0.074 A 
ATOM     39  C   UNL A   1      43.798  24.851  28.361  1.00  0.00     0.049 A 
ATOM     40  N   UNL A   1      41.658  26.926  28.783  1.00  0.00    -0.248 NA
ATOM     41  C   UNL A   1      40.067  25.350  28.121  1.00  0.00     0.031 C 
ATOM     42  C   UNL A   1      44.885  23.900  28.123  1.00  0.00     0.029 A 
ATOM     43  N   UNL A   1      44.436  25.975  28.821  1.00  0.00    -0.354 N 
ATOM     44  C   UNL A   1      40.399  27.514  28.789  1.00  0.00     0.074 A 
ATOM     45  C   UNL A   1      39.463  26.512  28.326  1.00  0.00     0.031 C 
ATOM     46  C   UNL A   1      46.054  24.476  28.453  1.00  0.00     0.029 A 
ATOM     47  C   UNL A   1      45.801  25.844  28.892  1.00  0.00     0.049 A 
ATOM     48  H   UNL A   1      43.960  26.798  29.077  1.00  0.00     0.167 HD
ATOM     49  C   UNL A   1      40.054  28.769  29.161  1.00  0.00     0.037 A 
ATOM     50  C   UNL A   1      46.744  26.732  29.261  1.00  0.00     0.037 A 
ATOM     51  C   UNL A   1      40.980  29.747  29.669  1.00  0.00     0.049 A 
ATOM     52  C   UNL A   1      46.330  28.110  29.693  1.00  0.00     0.074 A 
ATOM     53  C   UNL A   1      40.713  31.016  30.156  1.00  0.00     0.029 A 
ATOM     54  N   UNL A   1      42.351  29.565  29.757  1.00  0.00    -0.354 N 
ATOM     55  N   UNL A   1      45.127  28.626  29.763  1.00  0.00    -0.248 NA
ATOM     56  C   UNL A   1      47.403  29.027  30.100  1.00  0.00     0.031 C 
ATOM     57  C   UNL A   1      41.928  31.613  30.508  1.00  0.00     0.029 A 
ATOM     58  C   UNL A   1      42.946  30.704  30.272  1.00  0.00     0.049 A 
ATOM     59  H   UNL A   1      42.830  28.746  29.493  1.00  0.00     0.167 HD
ATOM     60  C   UNL A   1      45.296  29.916  30.250  1.00  0.00     0.074 A 
ATOM     61  C   UNL A   1      46.716  30.100  30.467  1.00  0.00     0.031 C 
ATOM     62  C   UNL A   1      44.359  30.863  30.495  1.00  0.00     0.037 A 
BRANCH  49  63
ATOM     63  C   UNL A   1      38.611  29.161  29.039  1.00  0.00     0.057 A 
ATOM     64  C   UNL A   1      37.739  29.119  30.133  1.00  0.00     0.134 A 
ATOM     65  C   UNL A   1      38.102  29.633  27.822  1.00  0.00     0.134 A 
ATOM     66  F   UNL A   1      38.161  28.668  31.324  1.00  0.00    -0.206 F 
ATOM     67  C   UNL A   1      36.406  29.517  30.018  1.00  0.00     0.040 A 
ATOM     68  C   UNL A   1      36.777  30.054  27.700  1.00  0.00     0.040 A 
ATOM     69  F   UNL A   1      38.888  29.703  26.737  1.00  0.00    -0.206 F 
ATOM     70  C   UNL A   1      35.923  29.993  28.799  1.00  0.00     0.006 A 
ENDBRANCH  49  63
BRANCH  50  71
ATOM     71  C   UNL A   1      48.175  26.341  29.263  1.00  0.00     0.057 A 
ATOM     72  C   UNL A   1      48.957  26.470  28.109  1.00  0.00     0.134 A 
ATOM     73  C   UNL A   1      48.789  25.811  30.404  1.00  0.00     0.134 A 
ATOM     74  F   UNL A   1      48.418  26.953  26.980  1.00  0.00    -0.206 F 
ATOM     75  C   UNL A   1      50.293  26.067  28.081  1.00  0.00     0.040 A 
ATOM     76  C   UNL A   1      50.131  25.425  30.397  1.00  0.00     0.040 A 
ATOM     77  F   UNL A   1      48.095  25.668  31.542  1.00  0.00    -0.206 F 
ATOM     78  C   UNL A   1      50.884  25.545  29.231  1.00  0.00     0.006 A 
ENDBRANCH  50  71
BRANCH  62  79
ATOM     79  C   UNL A   1      44.837  32.166  31.062  1.00  0.00     0.057 A 
ATOM     80  C   UNL A   1      45.165  33.251  30.241  1.00  0.00     0.134 A 
ATOM     81  C   UNL A   1      44.937  32.344  32.447  1.00  0.00     0.134 A 
ATOM     82  F   UNL A   1      45.104  33.136  28.906  1.00  0.00    -0.206 F 
ATOM     83  C   UNL A   1      45.596  34.465  30.779  1.00  0.00     0.040 A 
ATOM     84  C   UNL A   1      45.344  33.560  32.997  1.00  0.00     0.040 A 
ATOM     85  F   UNL A   1      44.629  31.345  33.288  1.00  0.00    -0.206 F 
ATOM     86  C   UNL A   1      45.681  34.624  32.161  1.00  0.00     0.006 A 
ENDBRANCH  62  79
ENDBRANCH  36  37
ENDBRANCH  28  31
ENDBRANCH  26  27
ENDBRANCH  25  26
ENDBRANCH   1  25
TORSDOF 13
ENDMDL
MODEL 3
REMARK VINA RESULT:     -10.8      4.292      9.507
REMARK SMILES C[C@]1(C(=O)NCc2ccc(C(=O)NCCCNC(=O)c3ccc(-c4c5nc(c(-c6c(F)cccc6F)c6ccc([nH]6)c(-c6c(F)cccc6F)c6nc(c(-c7c(F)cccc7F)c7ccc4[nH]7)C=C6)C=C5)cc3)o2)CCC[NH2+]C1
REMARK SMILES IDX 14 1 13 2 11 3 12 4 10 6 7 7 8 8 74 9 9 10 6 11 5 12 3 13
REMARK SMILES IDX 4 14 2 16 1 17 75 18 79 19 76 20 78 21 77 22 15 25 16 26
REMARK SMILES IDX 17 27 18 28 19 30 20 31 21 32 73 33 22 34 72 35 23 36 24 37
REMARK SMILES IDX 25 38 66 39 26 40 71 41 65 42 67 43 27 44 70 45 64 46 63 47
REMARK SMILES IDX 28 49 54 50 37 51 53 52 38 53 41 54 52 55 68 56 39 57 40 58
REMARK SMILES IDX 51 60 69 61 42 62 29 63 30 64 35 65 31 66 32 67 34 68 36 69
REMARK SMILES IDX 33 70 55 71 56 72 61 73 57 74 58 75 60 76 62 77 59 78 43 79
REMARK SMILES IDX 44 80 49 81 45 82 46 83 48 84 50 85 47 86
REMARK H PARENT 13 5 5 15 78 23 78 24 17 29 67 48 41 59
REMARK Flexibility Score: inf
ROOT
ATOM      1  C   UNL A   1      36.069  20.400  24.960  1.00  0.00     0.118 C 
ENDROOT
BRANCH   1   2
ATOM      2  N   UNL A   1      34.854  19.614  24.953  1.00  0.00    -0.349 N 
ATOM      3  C   UNL A   1      33.596  19.880  25.440  1.00  0.00     0.286 C 
ATOM      4  O   UNL A   1      32.751  19.010  25.211  1.00  0.00    -0.266 OA
ATOM      5  H   UNL A   1      34.943  18.734  24.522  1.00  0.00     0.163 HD
BRANCH   3   6
ATOM      6  C   UNL A   1      33.292  21.099  26.167  1.00  0.00     0.191 A 
ATOM      7  C   UNL A   1      32.210  23.028  26.363  1.00  0.00     0.124 A 
ATOM      8  C   UNL A   1      32.971  22.899  27.503  1.00  0.00     0.048 A 
ATOM      9  O   UNL A   1      32.405  21.952  25.557  1.00  0.00    -0.454 OA
ATOM     10  C   UNL A   1      33.643  21.653  27.388  1.00  0.00     0.056 A 
BRANCH   7  11
ATOM     11  C   UNL A   1      31.210  24.011  25.892  1.00  0.00     0.191 C 
BRANCH  11  12
ATOM     12  N   UNL A   1      31.197  25.174  26.749  1.00  0.00    -0.348 N 
ATOM     13  C   UNL A   1      31.571  26.464  26.531  1.00  0.00     0.232 C 
ATOM     14  O   UNL A   1      31.182  27.275  27.380  1.00  0.00    -0.274 OA
ATOM     15  H   UNL A   1      30.855  25.002  27.656  1.00  0.00     0.163 HD
BRANCH  13  16
ATOM     16  C   UNL A   1      32.389  26.916  25.293  1.00  0.00     0.095 C 
ATOM     17  C   UNL A   1      33.719  26.136  25.232  1.00  0.00     0.028 C 
ATOM     18  C   UNL A   1      31.624  26.551  23.986  1.00  0.00     0.028 C 
ATOM     19  C   UNL A   1      32.633  28.444  25.304  1.00  0.00     0.277 C 
ATOM     20  C   UNL A   1      30.425  27.455  23.708  1.00  0.00     0.063 C 
ATOM     21  N   UNL A   1      31.420  29.236  25.078  1.00  0.00    -0.345 N 
ATOM     22  C   UNL A   1      30.807  28.927  23.790  1.00  0.00     0.260 C 
ATOM     23  H   UNL A   1      30.749  29.035  25.819  1.00  0.00     0.346 HD
ATOM     24  H   UNL A   1      31.680  30.223  25.077  1.00  0.00     0.346 HD
ENDBRANCH  13  16
ENDBRANCH  11  12
ENDBRANCH   7  11
ENDBRANCH   3   6
ENDBRANCH   1   2
BRANCH   1  25
ATOM     25  C   UNL A   1      37.313  19.514  24.932  1.00  0.00     0.042 C 
BRANCH  25  26
ATOM     26  C   UNL A   1      38.584  20.239  25.377  1.00  0.00     0.118 C 
BRANCH  26  27
ATOM     27  N   UNL A   1      39.682  19.312  25.613  1.00  0.00    -0.352 N 
ATOM     28  C   UNL A   1      40.968  19.542  26.032  1.00  0.00     0.251 C 
ATOM     29  H   UNL A   1      39.466  18.366  25.447  1.00  0.00     0.163 HD
ATOM     30  O   UNL A   1      41.802  18.644  25.935  1.00  0.00    -0.269 OA
BRANCH  28  31
ATOM     31  C   UNL A   1      41.366  20.848  26.599  1.00  0.00     0.039 A 
ATOM     32  C   UNL A   1      41.820  21.846  25.729  1.00  0.00     0.014 A 
ATOM     33  C   UNL A   1      41.373  21.071  27.978  1.00  0.00     0.014 A 
ATOM     34  C   UNL A   1      42.237  23.078  26.237  1.00  0.00     0.010 A 
ATOM     35  C   UNL A   1      41.733  22.321  28.480  1.00  0.00     0.010 A 
ATOM     36  C   UNL A   1      42.177  23.333  27.616  1.00  0.00    -0.014 A 
BRANCH  36  37
ATOM     37  C   UNL A   1      42.582  24.648  28.173  1.00  0.00     0.031 A 
ATOM     38  C   UNL A   1      41.555  25.720  28.410  1.00  0.00     0.074 A 
ATOM     39  C   UNL A   1      43.886  24.899  28.402  1.00  0.00     0.049 A 
ATOM     40  N   UNL A   1      41.724  26.956  28.808  1.00  0.00    -0.248 NA
ATOM     41  C   UNL A   1      40.152  25.364  28.139  1.00  0.00     0.031 C 
ATOM     42  C   UNL A   1      44.983  23.958  28.172  1.00  0.00     0.029 A 
ATOM     43  N   UNL A   1      44.510  26.030  28.863  1.00  0.00    -0.354 N 
ATOM     44  C   UNL A   1      40.460  27.532  28.805  1.00  0.00     0.074 A 
ATOM     45  C   UNL A   1      39.536  26.521  28.339  1.00  0.00     0.031 C 
ATOM     46  C   UNL A   1      46.144  24.545  28.507  1.00  0.00     0.029 A 
ATOM     47  C   UNL A   1      45.876  25.912  28.943  1.00  0.00     0.049 A 
ATOM     48  H   UNL A   1      44.025  26.849  29.115  1.00  0.00     0.167 HD
ATOM     49  C   UNL A   1      40.101  28.785  29.173  1.00  0.00     0.037 A 
ATOM     50  C   UNL A   1      46.809  26.809  29.316  1.00  0.00     0.037 A 
ATOM     51  C   UNL A   1      41.015  29.772  29.685  1.00  0.00     0.049 A 
ATOM     52  C   UNL A   1      46.379  28.183  29.743  1.00  0.00     0.074 A 
ATOM     53  C   UNL A   1      40.733  31.038  30.169  1.00  0.00     0.029 A 
ATOM     54  N   UNL A   1      42.387  29.602  29.781  1.00  0.00    -0.354 N 
ATOM     55  N   UNL A   1      45.172  28.689  29.805  1.00  0.00    -0.248 NA
ATOM     56  C   UNL A   1      47.442  29.111  30.155  1.00  0.00     0.031 C 
ATOM     57  C   UNL A   1      41.941  31.648  30.526  1.00  0.00     0.029 A 
ATOM     58  C   UNL A   1      42.969  30.748  30.298  1.00  0.00     0.049 A 
ATOM     59  H   UNL A   1      42.876  28.788  29.521  1.00  0.00     0.167 HD
ATOM     60  C   UNL A   1      45.326  29.981  30.291  1.00  0.00     0.074 A 
ATOM     61  C   UNL A   1      46.742  30.179  30.516  1.00  0.00     0.031 C 
ATOM     62  C   UNL A   1      44.379  30.920  30.529  1.00  0.00     0.037 A 
BRANCH  49  63
ATOM     63  C   UNL A   1      38.656  29.163  29.042  1.00  0.00     0.057 A 
ATOM     64  C   UNL A   1      37.780  29.127  30.134  1.00  0.00     0.134 A 
ATOM     65  C   UNL A   1      38.146  29.616  27.819  1.00  0.00     0.134 A 
ATOM     66  F   UNL A   1      38.203  28.694  31.331  1.00  0.00    -0.206 F 
ATOM     67  C   UNL A   1      36.444  29.512  30.010  1.00  0.00     0.040 A 
ATOM     68  C   UNL A   1      36.818  30.024  27.687  1.00  0.00     0.040 A 
ATOM     69  F   UNL A   1      38.935  29.679  26.734  1.00  0.00    -0.206 F 
ATOM     70  C   UNL A   1      35.962  29.969  28.785  1.00  0.00     0.006 A 
ENDBRANCH  49  63
BRANCH  50  71
ATOM     71  C   UNL A   1      48.243  26.431  29.326  1.00  0.00     0.057 A 
ATOM     72  C   UNL A   1      48.818  25.818  30.446  1.00  0.00     0.134 A 
ATOM     73  C   UNL A   1      49.077  26.689  28.232  1.00  0.00     0.134 A 
ATOM     74  F   UNL A   1      48.072  25.563  31.531  1.00  0.00    -0.206 F 
ATOM     75  C   UNL A   1      50.175  25.495  30.488  1.00  0.00     0.040 A 
ATOM     76  C   UNL A   1      50.432  26.351  28.251  1.00  0.00     0.040 A 
ATOM     77  F   UNL A   1      48.585  27.268  27.126  1.00  0.00    -0.206 F 
ATOM     78  C   UNL A   1      50.985  25.759  29.385  1.00  0.00     0.006 A 
ENDBRANCH  50  71
BRANCH  62  79
ATOM     79  C   UNL A   1      44.842  32.228  31.097  1.00  0.00     0.057 A 
ATOM     80  C   UNL A   1      44.964  32.432  32.475  1.00  0.00     0.134 A 
ATOM     81  C   UNL A   1      45.200  33.283  30.248  1.00  0.00     0.134 A 
ATOM     82  F   UNL A   1      44.623  31.463  33.339  1.00  0.00    -0.206 F 
ATOM     83  C   UNL A   1      45.410  33.649  32.994  1.00  0.00     0.040 A 
ATOM     84  C   UNL A   1      45.668  34.496  30.754  1.00  0.00     0.040 A 
ATOM     85  F   UNL A   1      45.111  33.149  28.917  1.00  0.00    -0.206 F 
ATOM     86  C   UNL A   1      45.769  34.683  32.132  1.00  0.00     0.006 A 
ENDBRANCH  62  79
ENDBRANCH  36  37
ENDBRANCH  28  31
ENDBRANCH  26  27
ENDBRANCH  25  26
ENDBRANCH   1  25
TORSDOF 13
ENDMDL
