MODEL 1
REMARK VINA RESULT:     -10.9      0.000      0.000
REMARK SMILES C[C@H]1C[NH2+]C[C@@H](CC(=O)NCCCNC(=O)c2ccc(-c3c4nc(c(-c5c(F)cccc5F)c5ccc([nH]5)c(-c5c(F)cccc5F)c5nc(c(-c6c(F)cccc6F)c6ccc3[nH]6)C=C5)C=C4)cc2)C1
REMARK SMILES IDX 12 1 11 2 10 3 8 4 9 5 7 7 6 8 1 9 2 10 3 11 71 12 4 13 5 14
REMARK SMILES IDX 13 17 14 18 15 19 16 21 17 22 18 23 70 24 19 25 69 26 20 27
REMARK SMILES IDX 21 28 22 29 63 30 23 31 68 32 62 33 64 34 24 35 67 36 61 37
REMARK SMILES IDX 60 38 25 40 51 41 34 42 50 43 35 44 38 45 49 46 65 47 36 48
REMARK SMILES IDX 37 49 48 51 66 52 39 53 26 54 27 55 32 56 28 57 29 58 31 59
REMARK SMILES IDX 33 60 30 61 52 62 53 63 58 64 54 65 55 66 57 67 59 68 56 69
REMARK SMILES IDX 40 70 41 71 46 72 42 73 43 74 45 75 47 76 44 77
REMARK H PARENT 10 6 4 15 4 16 14 20 64 39 38 50
REMARK Flexibility Score: inf
ROOT
ATOM      1  C   UNL A   1      37.772  19.578  24.999  1.00  0.00     0.042 C 
ENDROOT
BRANCH   1   2
ATOM      2  C   UNL A   1      36.692  20.597  24.627  1.00  0.00     0.117 C 
BRANCH   2   3
ATOM      3  N   UNL A   1      35.649  20.704  25.640  1.00  0.00    -0.356 N 
ATOM      4  C   UNL A   1      34.298  20.538  25.567  1.00  0.00     0.220 C 
ATOM      5  O   UNL A   1      33.638  20.716  26.592  1.00  0.00    -0.275 OA
ATOM      6  H   UNL A   1      35.979  20.937  26.537  1.00  0.00     0.163 HD
BRANCH   4   7
ATOM      7  C   UNL A   1      33.619  20.162  24.265  1.00  0.00     0.109 C 
BRANCH   7   8
ATOM      8  C   UNL A   1      33.387  18.646  24.120  1.00  0.00     0.054 C 
ATOM      9  C   UNL A   1      35.658  15.749  25.376  1.00  0.00     0.013 C 
ATOM     10  C   UNL A   1      34.416  16.369  24.729  1.00  0.00     0.041 C 
ATOM     11  C   UNL A   1      33.171  16.115  25.581  1.00  0.00     0.263 C 
ATOM     12  C   UNL A   1      34.639  17.868  24.534  1.00  0.00     0.019 C 
ATOM     13  N   UNL A   1      31.997  16.768  25.000  1.00  0.00    -0.346 N 
ATOM     14  C   UNL A   1      32.174  18.221  24.962  1.00  0.00     0.264 C 
ATOM     15  H   UNL A   1      31.177  16.546  25.565  1.00  0.00     0.346 HD
ATOM     16  H   UNL A   1      31.873  16.429  24.046  1.00  0.00     0.346 HD
ENDBRANCH   7   8
ENDBRANCH   4   7
ENDBRANCH   2   3
ENDBRANCH   1   2
BRANCH   1  17
ATOM     17  C   UNL A   1      38.941  20.161  25.788  1.00  0.00     0.118 C 
BRANCH  17  18
ATOM     18  N   UNL A   1      40.033  19.214  25.909  1.00  0.00    -0.352 N 
ATOM     19  C   UNL A   1      41.388  19.423  26.035  1.00  0.00     0.251 C 
ATOM     20  H   UNL A   1      39.762  18.267  25.901  1.00  0.00     0.163 HD
ATOM     21  O   UNL A   1      42.152  18.475  25.866  1.00  0.00    -0.269 OA
BRANCH  19  22
ATOM     22  C   UNL A   1      41.951  20.759  26.357  1.00  0.00     0.039 A 
ATOM     23  C   UNL A   1      42.162  21.086  27.703  1.00  0.00     0.014 A 
ATOM     24  C   UNL A   1      42.184  21.726  25.377  1.00  0.00     0.014 A 
ATOM     25  C   UNL A   1      42.644  22.351  28.059  1.00  0.00     0.010 A 
ATOM     26  C   UNL A   1      42.728  22.967  25.726  1.00  0.00     0.010 A 
ATOM     27  C   UNL A   1      42.955  23.298  27.070  1.00  0.00    -0.014 A 
BRANCH  27  28
ATOM     28  C   UNL A   1      43.498  24.638  27.423  1.00  0.00     0.031 A 
ATOM     29  C   UNL A   1      42.580  25.736  27.890  1.00  0.00     0.074 A 
ATOM     30  C   UNL A   1      44.812  24.896  27.261  1.00  0.00     0.049 A 
ATOM     31  N   UNL A   1      42.853  26.992  28.143  1.00  0.00    -0.248 NA
ATOM     32  C   UNL A   1      41.164  25.382  28.077  1.00  0.00     0.031 C 
ATOM     33  C   UNL A   1      45.809  23.939  26.781  1.00  0.00     0.029 A 
ATOM     34  N   UNL A   1      45.528  26.050  27.463  1.00  0.00    -0.354 N 
ATOM     35  C   UNL A   1      41.643  27.584  28.486  1.00  0.00     0.074 A 
ATOM     36  C   UNL A   1      40.629  26.556  28.385  1.00  0.00     0.031 C 
ATOM     37  C   UNL A   1      47.008  24.544  26.728  1.00  0.00     0.029 A 
ATOM     38  C   UNL A   1      46.858  25.938  27.136  1.00  0.00     0.049 A 
ATOM     39  H   UNL A   1      45.127  26.880  27.810  1.00  0.00     0.167 HD
ATOM     40  C   UNL A   1      41.400  28.861  28.863  1.00  0.00     0.037 A 
ATOM     41  C   UNL A   1      47.844  26.856  27.143  1.00  0.00     0.037 A 
ATOM     42  C   UNL A   1      42.410  29.874  29.020  1.00  0.00     0.049 A 
ATOM     43  C   UNL A   1      47.548  28.265  27.573  1.00  0.00     0.074 A 
ATOM     44  C   UNL A   1      42.269  31.163  29.506  1.00  0.00     0.029 A 
ATOM     45  N   UNL A   1      43.747  29.713  28.694  1.00  0.00    -0.354 N 
ATOM     46  N   UNL A   1      46.413  28.787  27.966  1.00  0.00    -0.248 NA
ATOM     47  C   UNL A   1      48.672  29.214  27.560  1.00  0.00     0.031 C 
ATOM     48  C   UNL A   1      43.514  31.796  29.436  1.00  0.00     0.029 A 
ATOM     49  C   UNL A   1      44.436  30.890  28.938  1.00  0.00     0.049 A 
ATOM     50  H   UNL A   1      44.148  28.886  28.340  1.00  0.00     0.167 HD
ATOM     51  C   UNL A   1      46.686  30.117  28.258  1.00  0.00     0.074 A 
ATOM     52  C   UNL A   1      48.098  30.320  28.013  1.00  0.00     0.031 C 
ATOM     53  C   UNL A   1      45.840  31.083  28.689  1.00  0.00     0.037 A 
BRANCH  40  54
ATOM     54  C   UNL A   1      39.978  29.247  29.141  1.00  0.00     0.057 A 
ATOM     55  C   UNL A   1      39.087  29.574  28.112  1.00  0.00     0.134 A 
ATOM     56  C   UNL A   1      39.481  29.229  30.451  1.00  0.00     0.134 A 
ATOM     57  F   UNL A   1      39.504  29.615  26.839  1.00  0.00    -0.206 F 
ATOM     58  C   UNL A   1      37.752  29.887  28.378  1.00  0.00     0.040 A 
ATOM     59  C   UNL A   1      38.144  29.520  30.726  1.00  0.00     0.040 A 
ATOM     60  F   UNL A   1      40.282  28.916  31.479  1.00  0.00    -0.206 F 
ATOM     61  C   UNL A   1      37.276  29.853  29.688  1.00  0.00     0.006 A 
ENDBRANCH  40  54
BRANCH  41  62
ATOM     62  C   UNL A   1      49.212  26.475  26.716  1.00  0.00     0.057 A 
ATOM     63  C   UNL A   1      50.120  25.915  27.621  1.00  0.00     0.134 A 
ATOM     64  C   UNL A   1      49.647  26.674  25.401  1.00  0.00     0.134 A 
ATOM     65  F   UNL A   1      49.766  25.722  28.900  1.00  0.00    -0.206 F 
ATOM     66  C   UNL A   1      51.419  25.578  27.237  1.00  0.00     0.040 A 
ATOM     67  C   UNL A   1      50.937  26.324  24.998  1.00  0.00     0.040 A 
ATOM     68  F   UNL A   1      48.821  27.205  24.487  1.00  0.00    -0.206 F 
ATOM     69  C   UNL A   1      51.828  25.779  25.921  1.00  0.00     0.006 A 
ENDBRANCH  41  62
BRANCH  53  70
ATOM     70  C   UNL A   1      46.418  32.443  28.934  1.00  0.00     0.057 A 
ATOM     71  C   UNL A   1      46.976  32.789  30.169  1.00  0.00     0.134 A 
ATOM     72  C   UNL A   1      46.458  33.399  27.911  1.00  0.00     0.134 A 
ATOM     73  F   UNL A   1      46.956  31.921  31.192  1.00  0.00    -0.206 F 
ATOM     74  C   UNL A   1      47.544  34.046  30.385  1.00  0.00     0.040 A 
ATOM     75  C   UNL A   1      47.039  34.652  28.109  1.00  0.00     0.040 A 
ATOM     76  F   UNL A   1      45.944  33.127  26.702  1.00  0.00    -0.206 F 
ATOM     77  C   UNL A   1      47.582  34.979  29.350  1.00  0.00     0.006 A 
ENDBRANCH  53  70
ENDBRANCH  27  28
ENDBRANCH  19  22
ENDBRANCH  17  18
ENDBRANCH   1  17
TORSDOF 11
ENDMDL
MODEL 2
REMARK VINA RESULT:     -10.9      2.030      3.206
REMARK SMILES C[C@H]1C[NH2+]C[C@@H](CC(=O)NCCCNC(=O)c2ccc(-c3c4nc(c(-c5c(F)cccc5F)c5ccc([nH]5)c(-c5c(F)cccc5F)c5nc(c(-c6c(F)cccc6F)c6ccc3[nH]6)C=C5)C=C4)cc2)C1
REMARK SMILES IDX 12 1 11 2 10 3 8 4 9 5 7 7 6 8 1 9 2 10 3 11 71 12 4 13 5 14
REMARK SMILES IDX 13 17 14 18 15 19 16 21 17 22 18 23 70 24 19 25 69 26 20 27
REMARK SMILES IDX 21 28 22 29 63 30 23 31 68 32 62 33 64 34 24 35 67 36 61 37
REMARK SMILES IDX 60 38 25 40 51 41 34 42 50 43 35 44 38 45 49 46 65 47 36 48
REMARK SMILES IDX 37 49 48 51 66 52 39 53 26 54 27 55 32 56 28 57 29 58 31 59
REMARK SMILES IDX 33 60 30 61 52 62 53 63 58 64 54 65 55 66 57 67 59 68 56 69
REMARK SMILES IDX 40 70 41 71 46 72 42 73 43 74 45 75 47 76 44 77
REMARK H PARENT 10 6 4 15 4 16 14 20 64 39 38 50
REMARK Flexibility Score: inf
ROOT
ATOM      1  C   UNL A   1      37.385  19.464  24.917  1.00  0.00     0.042 C 
ENDROOT
BRANCH   1   2
ATOM      2  C   UNL A   1      36.095  20.288  24.970  1.00  0.00     0.117 C 
BRANCH   2   3
ATOM      3  N   UNL A   1      34.898  19.456  24.986  1.00  0.00    -0.356 N 
ATOM      4  C   UNL A   1      33.595  19.742  24.706  1.00  0.00     0.220 C 
ATOM      5  O   UNL A   1      32.767  18.837  24.825  1.00  0.00    -0.275 OA
ATOM      6  H   UNL A   1      35.060  18.520  25.244  1.00  0.00     0.163 HD
BRANCH   4   7
ATOM      7  C   UNL A   1      33.166  21.131  24.277  1.00  0.00     0.109 C 
BRANCH   7   8
ATOM      8  C   UNL A   1      32.983  22.098  25.462  1.00  0.00     0.054 C 
ATOM      9  C   UNL A   1      33.822  25.894  25.603  1.00  0.00     0.013 C 
ATOM     10  C   UNL A   1      33.281  24.564  26.134  1.00  0.00     0.041 C 
ATOM     11  C   UNL A   1      31.763  24.622  26.315  1.00  0.00     0.263 C 
ATOM     12  C   UNL A   1      33.666  23.438  25.174  1.00  0.00     0.019 C 
ATOM     13  N   UNL A   1      31.237  23.329  26.754  1.00  0.00    -0.346 N 
ATOM     14  C   UNL A   1      31.486  22.296  25.748  1.00  0.00     0.264 C 
ATOM     15  H   UNL A   1      30.232  23.411  26.908  1.00  0.00     0.346 HD
ATOM     16  H   UNL A   1      31.707  23.062  27.620  1.00  0.00     0.346 HD
ENDBRANCH   7   8
ENDBRANCH   4   7
ENDBRANCH   2   3
ENDBRANCH   1   2
BRANCH   1  17
ATOM     17  C   UNL A   1      38.613  20.185  25.466  1.00  0.00     0.118 C 
BRANCH  17  18
ATOM     18  N   UNL A   1      39.725  19.275  25.666  1.00  0.00    -0.352 N 
ATOM     19  C   UNL A   1      41.032  19.525  26.020  1.00  0.00     0.251 C 
ATOM     20  H   UNL A   1      39.510  18.324  25.528  1.00  0.00     0.163 HD
ATOM     21  O   UNL A   1      41.863  18.630  25.884  1.00  0.00    -0.269 OA
BRANCH  19  22
ATOM     22  C   UNL A   1      41.466  20.844  26.548  1.00  0.00     0.039 A 
ATOM     23  C   UNL A   1      41.363  21.076  27.926  1.00  0.00     0.014 A 
ATOM     24  C   UNL A   1      41.878  21.883  25.711  1.00  0.00     0.014 A 
ATOM     25  C   UNL A   1      41.713  22.320  28.464  1.00  0.00     0.010 A 
ATOM     26  C   UNL A   1      42.291  23.105  26.255  1.00  0.00     0.010 A 
ATOM     27  C   UNL A   1      42.203  23.341  27.635  1.00  0.00    -0.014 A 
BRANCH  27  28
ATOM     28  C   UNL A   1      42.611  24.661  28.189  1.00  0.00     0.031 A 
ATOM     29  C   UNL A   1      41.585  25.735  28.438  1.00  0.00     0.074 A 
ATOM     30  C   UNL A   1      43.915  24.925  28.408  1.00  0.00     0.049 A 
ATOM     31  N   UNL A   1      41.762  26.977  28.816  1.00  0.00    -0.248 NA
ATOM     32  C   UNL A   1      40.178  25.374  28.209  1.00  0.00     0.031 C 
ATOM     33  C   UNL A   1      45.018  23.992  28.176  1.00  0.00     0.029 A 
ATOM     34  N   UNL A   1      44.533  26.067  28.857  1.00  0.00    -0.354 N 
ATOM     35  C   UNL A   1      40.497  27.551  28.841  1.00  0.00     0.074 A 
ATOM     36  C   UNL A   1      39.563  26.531  28.414  1.00  0.00     0.031 C 
ATOM     37  C   UNL A   1      46.177  24.599  28.486  1.00  0.00     0.029 A 
ATOM     38  C   UNL A   1      45.903  25.970  28.904  1.00  0.00     0.049 A 
ATOM     39  H   UNL A   1      44.041  26.879  29.119  1.00  0.00     0.167 HD
ATOM     40  C   UNL A   1      40.143  28.808  29.198  1.00  0.00     0.037 A 
ATOM     41  C   UNL A   1      46.837  26.886  29.227  1.00  0.00     0.037 A 
ATOM     42  C   UNL A   1      41.058  29.811  29.677  1.00  0.00     0.049 A 
ATOM     43  C   UNL A   1      46.415  28.271  29.627  1.00  0.00     0.074 A 
ATOM     44  C   UNL A   1      40.771  31.074  30.167  1.00  0.00     0.029 A 
ATOM     45  N   UNL A   1      42.435  29.665  29.725  1.00  0.00    -0.354 N 
ATOM     46  N   UNL A   1      45.209  28.774  29.716  1.00  0.00    -0.248 NA
ATOM     47  C   UNL A   1      47.487  29.219  29.970  1.00  0.00     0.031 C 
ATOM     48  C   UNL A   1      41.979  31.709  30.475  1.00  0.00     0.029 A 
ATOM     49  C   UNL A   1      43.015  30.828  30.206  1.00  0.00     0.049 A 
ATOM     50  H   UNL A   1      42.928  28.856  29.456  1.00  0.00     0.167 HD
ATOM     51  C   UNL A   1      45.374  30.087  30.137  1.00  0.00     0.074 A 
ATOM     52  C   UNL A   1      46.797  30.301  30.301  1.00  0.00     0.031 C 
ATOM     53  C   UNL A   1      44.430  31.031  30.364  1.00  0.00     0.037 A 
BRANCH  40  54
ATOM     54  C   UNL A   1      38.694  29.182  29.092  1.00  0.00     0.057 A 
ATOM     55  C   UNL A   1      37.841  29.152  30.201  1.00  0.00     0.134 A 
ATOM     56  C   UNL A   1      38.166  29.637  27.877  1.00  0.00     0.134 A 
ATOM     57  F   UNL A   1      38.286  28.720  31.390  1.00  0.00    -0.206 F 
ATOM     58  C   UNL A   1      36.505  29.546  30.103  1.00  0.00     0.040 A 
ATOM     59  C   UNL A   1      36.838  30.052  27.771  1.00  0.00     0.040 A 
ATOM     60  F   UNL A   1      38.934  29.696  26.779  1.00  0.00    -0.206 F 
ATOM     61  C   UNL A   1      36.003  30.005  28.885  1.00  0.00     0.006 A 
ENDBRANCH  40  54
BRANCH  41  62
ATOM     62  C   UNL A   1      48.274  26.525  29.176  1.00  0.00     0.057 A 
ATOM     63  C   UNL A   1      49.041  26.777  28.034  1.00  0.00     0.134 A 
ATOM     64  C   UNL A   1      48.909  25.909  30.261  1.00  0.00     0.134 A 
ATOM     65  F   UNL A   1      48.481  27.345  26.957  1.00  0.00    -0.206 F 
ATOM     66  C   UNL A   1      50.388  26.417  27.966  1.00  0.00     0.040 A 
ATOM     67  C   UNL A   1      50.260  25.560  30.213  1.00  0.00     0.040 A 
ATOM     68  F   UNL A   1      48.226  25.643  31.384  1.00  0.00    -0.206 F 
ATOM     69  C   UNL A   1      51.002  25.810  29.060  1.00  0.00     0.006 A 
ENDBRANCH  41  62
BRANCH  53  70
ATOM     70  C   UNL A   1      44.900  32.377  30.825  1.00  0.00     0.057 A 
ATOM     71  C   UNL A   1      45.105  32.656  32.181  1.00  0.00     0.134 A 
ATOM     72  C   UNL A   1      45.195  33.388  29.901  1.00  0.00     0.134 A 
ATOM     73  F   UNL A   1      44.827  31.733  33.114  1.00  0.00    -0.206 F 
ATOM     74  C   UNL A   1      45.575  33.900  32.605  1.00  0.00     0.040 A 
ATOM     75  C   UNL A   1      45.683  34.629  30.313  1.00  0.00     0.040 A 
ATOM     76  F   UNL A   1      45.026  33.181  28.587  1.00  0.00    -0.206 F 
ATOM     77  C   UNL A   1      45.872  34.888  31.669  1.00  0.00     0.006 A 
ENDBRANCH  53  70
ENDBRANCH  27  28
ENDBRANCH  19  22
ENDBRANCH  17  18
ENDBRANCH   1  17
TORSDOF 11
ENDMDL
MODEL 3
REMARK VINA RESULT:     -10.8      4.617      8.475
REMARK SMILES C[C@H]1C[NH2+]C[C@@H](CC(=O)NCCCNC(=O)c2ccc(-c3c4nc(c(-c5c(F)cccc5F)c5ccc([nH]5)c(-c5c(F)cccc5F)c5nc(c(-c6c(F)cccc6F)c6ccc3[nH]6)C=C5)C=C4)cc2)C1
REMARK SMILES IDX 12 1 11 2 10 3 8 4 9 5 7 7 6 8 1 9 2 10 3 11 71 12 4 13 5 14
REMARK SMILES IDX 13 17 14 18 15 19 16 21 17 22 18 23 70 24 19 25 69 26 20 27
REMARK SMILES IDX 21 28 22 29 63 30 23 31 68 32 62 33 64 34 24 35 67 36 61 37
REMARK SMILES IDX 60 38 25 40 51 41 34 42 50 43 35 44 38 45 49 46 65 47 36 48
REMARK SMILES IDX 37 49 48 51 66 52 39 53 26 54 27 55 32 56 28 57 29 58 31 59
REMARK SMILES IDX 33 60 30 61 52 62 53 63 58 64 54 65 55 66 57 67 59 68 56 69
REMARK SMILES IDX 40 70 41 71 46 72 42 73 43 74 45 75 47 76 44 77
REMARK H PARENT 10 6 4 15 4 16 14 20 64 39 38 50
REMARK Flexibility Score: inf
ROOT
ATOM      1  C   UNL A   1      34.052  28.244  25.877  1.00  0.00     0.042 C 
ENDROOT
BRANCH   1   2
ATOM      2  C   UNL A   1      33.541  26.899  25.352  1.00  0.00     0.117 C 
BRANCH   2   3
ATOM      3  N   UNL A   1      33.783  26.726  23.925  1.00  0.00    -0.356 N 
ATOM      4  C   UNL A   1      32.928  26.556  22.877  1.00  0.00     0.220 C 
ATOM      5  O   UNL A   1      33.412  26.406  21.754  1.00  0.00    -0.275 OA
ATOM      6  H   UNL A   1      34.735  26.735  23.672  1.00  0.00     0.163 HD
BRANCH   4   7
ATOM      7  C   UNL A   1      31.426  26.532  23.081  1.00  0.00     0.109 C 
BRANCH   7   8
ATOM      8  C   UNL A   1      30.696  27.656  22.323  1.00  0.00     0.054 C 
ATOM      9  C   UNL A   1      27.299  29.329  23.212  1.00  0.00     0.013 C 
ATOM     10  C   UNL A   1      28.589  29.129  22.411  1.00  0.00     0.041 C 
ATOM     11  C   UNL A   1      29.522  30.330  22.568  1.00  0.00     0.263 C 
ATOM     12  C   UNL A   1      29.279  27.845  22.871  1.00  0.00     0.019 C 
ATOM     13  N   UNL A   1      30.785  30.108  21.862  1.00  0.00    -0.346 N 
ATOM     14  C   UNL A   1      31.501  28.961  22.422  1.00  0.00     0.264 C 
ATOM     15  H   UNL A   1      31.367  30.941  21.948  1.00  0.00     0.346 HD
ATOM     16  H   UNL A   1      30.581  29.919  20.880  1.00  0.00     0.346 HD
ENDBRANCH   7   8
ENDBRANCH   4   7
ENDBRANCH   2   3
ENDBRANCH   1   2
BRANCH   1  17
ATOM     17  C   UNL A   1      33.741  28.503  27.348  1.00  0.00     0.118 C 
BRANCH  17  18
ATOM     18  N   UNL A   1      33.702  29.922  27.648  1.00  0.00    -0.352 N 
ATOM     19  C   UNL A   1      34.617  30.726  28.289  1.00  0.00     0.251 C 
ATOM     20  H   UNL A   1      32.889  30.386  27.342  1.00  0.00     0.163 HD
ATOM     21  O   UNL A   1      34.266  31.844  28.658  1.00  0.00    -0.269 OA
BRANCH  19  22
ATOM     22  C   UNL A   1      36.007  30.278  28.556  1.00  0.00     0.039 A 
ATOM     23  C   UNL A   1      36.943  30.356  27.517  1.00  0.00     0.014 A 
ATOM     24  C   UNL A   1      36.383  29.695  29.769  1.00  0.00     0.014 A 
ATOM     25  C   UNL A   1      38.253  29.899  27.706  1.00  0.00     0.010 A 
ATOM     26  C   UNL A   1      37.708  29.299  29.981  1.00  0.00     0.010 A 
ATOM     27  C   UNL A   1      38.656  29.387  28.949  1.00  0.00    -0.014 A 
BRANCH  27  28
ATOM     28  C   UNL A   1      40.051  28.924  29.182  1.00  0.00     0.031 A 
ATOM     29  C   UNL A   1      41.075  29.854  29.778  1.00  0.00     0.074 A 
ATOM     30  C   UNL A   1      40.423  27.687  28.797  1.00  0.00     0.049 A 
ATOM     31  N   UNL A   1      42.359  29.665  29.959  1.00  0.00    -0.248 NA
ATOM     32  C   UNL A   1      40.599  31.178  30.207  1.00  0.00     0.031 C 
ATOM     33  C   UNL A   1      39.546  26.695  28.172  1.00  0.00     0.029 A 
ATOM     34  N   UNL A   1      41.645  27.061  28.855  1.00  0.00    -0.354 N 
ATOM     35  C   UNL A   1      42.848  30.852  30.491  1.00  0.00     0.074 A 
ATOM     36  C   UNL A   1      41.728  31.766  30.580  1.00  0.00     0.031 C 
ATOM     37  C   UNL A   1      40.257  25.586  27.908  1.00  0.00     0.029 A 
ATOM     38  C   UNL A   1      41.644  25.800  28.311  1.00  0.00     0.049 A 
ATOM     39  H   UNL A   1      42.445  27.477  29.250  1.00  0.00     0.167 HD
ATOM     40  C   UNL A   1      44.109  31.151  30.880  1.00  0.00     0.037 A 
ATOM     41  C   UNL A   1      42.649  24.919  28.136  1.00  0.00     0.037 A 
ATOM     42  C   UNL A   1      45.215  30.231  30.848  1.00  0.00     0.049 A 
ATOM     43  C   UNL A   1      44.038  25.274  28.585  1.00  0.00     0.074 A 
ATOM     44  C   UNL A   1      46.501  30.413  31.327  1.00  0.00     0.029 A 
ATOM     45  N   UNL A   1      45.167  28.958  30.304  1.00  0.00    -0.354 N 
ATOM     46  N   UNL A   1      44.466  26.373  29.154  1.00  0.00    -0.248 NA
ATOM     47  C   UNL A   1      45.086  24.265  28.366  1.00  0.00     0.031 C 
ATOM     48  C   UNL A   1      47.244  29.264  31.039  1.00  0.00     0.029 A 
ATOM     49  C   UNL A   1      46.410  28.354  30.408  1.00  0.00     0.049 A 
ATOM     50  H   UNL A   1      44.369  28.543  29.903  1.00  0.00     0.167 HD
ATOM     51  C   UNL A   1      45.825  26.185  29.373  1.00  0.00     0.074 A 
ATOM     52  C   UNL A   1      46.148  24.859  28.890  1.00  0.00     0.031 C 
ATOM     53  C   UNL A   1      46.722  27.037  29.923  1.00  0.00     0.037 A 
BRANCH  40  54
ATOM     54  C   UNL A   1      44.372  32.538  31.387  1.00  0.00     0.057 A 
ATOM     55  C   UNL A   1      44.229  32.869  32.740  1.00  0.00     0.134 A 
ATOM     56  C   UNL A   1      44.834  33.536  30.520  1.00  0.00     0.134 A 
ATOM     57  F   UNL A   1      43.784  31.960  33.620  1.00  0.00    -0.206 F 
ATOM     58  C   UNL A   1      44.522  34.150  33.211  1.00  0.00     0.040 A 
ATOM     59  C   UNL A   1      45.149  34.814  30.982  1.00  0.00     0.040 A 
ATOM     60  F   UNL A   1      44.999  33.279  29.214  1.00  0.00    -0.206 F 
ATOM     61  C   UNL A   1      44.990  35.125  32.330  1.00  0.00     0.006 A 
ENDBRANCH  40  54
BRANCH  41  62
ATOM     62  C   UNL A   1      42.381  23.611  27.492  1.00  0.00     0.057 A 
ATOM     63  C   UNL A   1      42.068  22.482  28.256  1.00  0.00     0.134 A 
ATOM     64  C   UNL A   1      42.445  23.456  26.102  1.00  0.00     0.134 A 
ATOM     65  F   UNL A   1      42.015  22.565  29.593  1.00  0.00    -0.206 F 
ATOM     66  C   UNL A   1      41.842  21.239  27.662  1.00  0.00     0.040 A 
ATOM     67  C   UNL A   1      42.202  22.223  25.493  1.00  0.00     0.040 A 
ATOM     68  F   UNL A   1      42.739  24.503  25.317  1.00  0.00    -0.206 F 
ATOM     69  C   UNL A   1      41.904  21.109  26.276  1.00  0.00     0.006 A 
ENDBRANCH  41  62
BRANCH  53  70
ATOM     70  C   UNL A   1      48.138  26.560  30.043  1.00  0.00     0.057 A 
ATOM     71  C   UNL A   1      49.083  26.817  29.045  1.00  0.00     0.134 A 
ATOM     72  C   UNL A   1      48.569  25.877  31.187  1.00  0.00     0.134 A 
ATOM     73  F   UNL A   1      48.728  27.455  27.919  1.00  0.00    -0.206 F 
ATOM     74  C   UNL A   1      50.410  26.400  29.174  1.00  0.00     0.040 A 
ATOM     75  C   UNL A   1      49.896  25.472  31.335  1.00  0.00     0.040 A 
ATOM     76  F   UNL A   1      47.712  25.605  32.183  1.00  0.00    -0.206 F 
ATOM     77  C   UNL A   1      50.820  25.731  30.325  1.00  0.00     0.006 A 
ENDBRANCH  53  70
ENDBRANCH  27  28
ENDBRANCH  19  22
ENDBRANCH  17  18
ENDBRANCH   1  17
TORSDOF 11
ENDMDL
