MODEL 1
REMARK VINA RESULT:     -12.4      0.000      0.000
REMARK SMILES COc1ccc(-n2ccnc2C[N@@H+]2CCn3nc(C(=O)NCCCNC(=O)c4ccc(-c5c6nc(c(-c7c(F)cccc7F)c7ccc([nH]7)c(-c7c(F)cccc7F)c7nc(c(-c8c(F)cccc8F)c8ccc5[nH]8)C=C7)C=C6)cc4)cc3C2)cc1
REMARK SMILES IDX 22 1 21 2 19 3 20 4 18 6 13 7 14 8 84 9 15 11 83 12 16 13
REMARK SMILES IDX 82 14 17 15 12 16 11 17 7 18 8 19 9 20 10 21 6 22 3 23 4 24
REMARK SMILES IDX 86 25 5 26 85 27 2 28 1 29 23 30 24 31 25 32 26 33 27 35
REMARK SMILES IDX 28 36 29 37 81 38 30 39 80 40 31 41 32 42 33 43 74 44 34 45
REMARK SMILES IDX 79 46 73 47 75 48 35 49 78 50 72 51 71 52 36 54 62 55 45 56
REMARK SMILES IDX 61 57 46 58 49 59 60 60 76 61 47 62 48 63 59 65 77 66 50 67
REMARK SMILES IDX 37 68 38 69 43 70 39 71 40 72 42 73 44 74 41 75 63 76 64 77
REMARK SMILES IDX 69 78 65 79 66 80 68 81 70 82 67 83 51 84 52 85 57 86 53 87
REMARK SMILES IDX 54 88 56 89 58 90 55 91
REMARK H PARENT 21 5 13 10 25 34 75 53 49 64
REMARK Flexibility Score: inf
ROOT
ATOM      1  C   UNL A   1      42.302  18.867  27.181  1.00  0.00     0.118 C 
ENDROOT
BRANCH   1   2
ATOM      2  N   UNL A   1      42.098  20.188  27.809  1.00  0.00    -0.351 N 
ATOM      3  C   UNL A   1      41.128  21.197  27.738  1.00  0.00     0.271 C 
ATOM      4  O   UNL A   1      41.290  22.131  28.531  1.00  0.00    -0.267 OA
ATOM      5  H   UNL A   1      42.825  20.418  28.433  1.00  0.00     0.163 HD
BRANCH   3   6
ATOM      6  C   UNL A   1      40.047  21.258  26.703  1.00  0.00     0.150 A 
ATOM      7  N   UNL A   1      35.960  21.417  24.922  1.00  0.00    -0.322 N 
ATOM      8  C   UNL A   1      36.216  19.973  24.772  1.00  0.00     0.286 C 
ATOM      9  C   UNL A   1      37.149  22.219  24.547  1.00  0.00     0.319 C 
ATOM     10  H   UNL A   1      35.183  21.529  24.272  1.00  0.00     0.348 HD
ATOM     11  C   UNL A   1      37.684  19.464  24.795  1.00  0.00     0.206 C 
ATOM     12  C   UNL A   1      38.327  21.778  25.350  1.00  0.00     0.094 A 
ATOM     13  N   UNL A   1      38.592  20.446  25.362  1.00  0.00    -0.257 N 
ATOM     14  C   UNL A   1      39.232  22.339  26.235  1.00  0.00     0.065 A 
ATOM     15  N   UNL A   1      39.698  20.120  26.045  1.00  0.00    -0.167 NA
BRANCH   7  16
ATOM     16  C   UNL A   1      35.405  21.937  26.191  1.00  0.00     0.339 C 
BRANCH  16  17
ATOM     17  C   UNL A   1      33.985  22.447  26.316  1.00  0.00     0.168 A 
ATOM     18  N   UNL A   1      32.831  21.863  25.779  1.00  0.00    -0.299 N 
ATOM     19  C   UNL A   1      31.758  22.566  26.278  1.00  0.00     0.113 A 
ATOM     20  C   UNL A   1      32.284  23.482  27.150  1.00  0.00     0.132 A 
ATOM     21  N   UNL A   1      33.648  23.437  27.132  1.00  0.00    -0.236 NA
BRANCH  18  22
ATOM     22  C   UNL A   1      32.686  20.658  25.061  1.00  0.00     0.047 A 
ATOM     23  C   UNL A   1      32.573  18.314  23.527  1.00  0.00     0.119 A 
ATOM     24  C   UNL A   1      32.430  19.569  22.981  1.00  0.00     0.048 A 
ATOM     25  C   UNL A   1      32.749  18.217  24.890  1.00  0.00     0.048 A 
ATOM     26  C   UNL A   1      32.528  20.743  23.699  1.00  0.00     0.030 A 
ATOM     27  C   UNL A   1      32.802  19.392  25.667  1.00  0.00     0.030 A 
BRANCH  23  28
ATOM     28  O   UNL A   1      32.794  17.272  22.675  1.00  0.00    -0.497 OA
ATOM     29  C   UNL A   1      34.003  16.565  22.941  1.00  0.00     0.278 C 
ENDBRANCH  23  28
ENDBRANCH  18  22
ENDBRANCH  16  17
ENDBRANCH   7  16
ENDBRANCH   3   6
ENDBRANCH   1   2
BRANCH   1  30
ATOM     30  C   UNL A   1      42.969  18.802  25.772  1.00  0.00     0.042 C 
BRANCH  30  31
ATOM     31  C   UNL A   1      44.329  19.439  25.589  1.00  0.00     0.118 C 
BRANCH  31  32
ATOM     32  N   UNL A   1      44.638  19.948  24.255  1.00  0.00    -0.352 N 
ATOM     33  C   UNL A   1      44.570  21.265  23.788  1.00  0.00     0.251 C 
ATOM     34  H   UNL A   1      44.933  19.276  23.599  1.00  0.00     0.163 HD
ATOM     35  O   UNL A   1      44.539  21.493  22.592  1.00  0.00    -0.269 OA
BRANCH  33  36
ATOM     36  C   UNL A   1      44.511  22.387  24.761  1.00  0.00     0.039 A 
ATOM     37  C   UNL A   1      45.576  22.791  25.572  1.00  0.00     0.014 A 
ATOM     38  C   UNL A   1      43.332  23.098  24.825  1.00  0.00     0.014 A 
ATOM     39  C   UNL A   1      45.383  23.893  26.414  1.00  0.00     0.010 A 
ATOM     40  C   UNL A   1      43.370  24.393  25.213  1.00  0.00     0.010 A 
ATOM     41  C   UNL A   1      44.236  24.679  26.232  1.00  0.00    -0.014 A 
BRANCH  41  42
ATOM     42  C   UNL A   1      43.914  25.882  26.981  1.00  0.00     0.031 A 
ATOM     43  C   UNL A   1      44.850  26.979  26.681  1.00  0.00     0.074 A 
ATOM     44  C   UNL A   1      42.746  26.068  27.646  1.00  0.00     0.049 A 
ATOM     45  N   UNL A   1      45.855  27.356  27.394  1.00  0.00    -0.248 NA
ATOM     46  C   UNL A   1      44.821  27.556  25.328  1.00  0.00     0.031 C 
ATOM     47  C   UNL A   1      41.564  25.191  27.707  1.00  0.00     0.029 A 
ATOM     48  N   UNL A   1      42.338  27.148  28.374  1.00  0.00    -0.354 N 
ATOM     49  C   UNL A   1      46.415  28.416  26.694  1.00  0.00     0.074 A 
ATOM     50  C   UNL A   1      45.925  28.306  25.347  1.00  0.00     0.031 C 
ATOM     51  C   UNL A   1      40.519  25.855  28.257  1.00  0.00     0.029 A 
ATOM     52  C   UNL A   1      40.992  27.136  28.743  1.00  0.00     0.049 A 
ATOM     53  H   UNL A   1      42.948  27.880  28.619  1.00  0.00     0.167 HD
ATOM     54  C   UNL A   1      46.950  29.469  27.370  1.00  0.00     0.037 A 
ATOM     55  C   UNL A   1      40.329  28.115  29.412  1.00  0.00     0.037 A 
ATOM     56  C   UNL A   1      47.101  29.138  28.770  1.00  0.00     0.049 A 
ATOM     57  C   UNL A   1      41.355  28.957  30.069  1.00  0.00     0.074 A 
ATOM     58  C   UNL A   1      47.826  28.219  29.498  1.00  0.00     0.029 A 
ATOM     59  N   UNL A   1      46.073  29.554  29.580  1.00  0.00    -0.354 N 
ATOM     60  N   UNL A   1      42.118  28.540  31.041  1.00  0.00    -0.248 NA
ATOM     61  C   UNL A   1      41.845  30.120  29.348  1.00  0.00     0.031 C 
ATOM     62  C   UNL A   1      46.977  27.840  30.584  1.00  0.00     0.029 A 
ATOM     63  C   UNL A   1      45.805  28.596  30.520  1.00  0.00     0.049 A 
ATOM     64  H   UNL A   1      45.599  30.413  29.498  1.00  0.00     0.167 HD
ATOM     65  C   UNL A   1      43.363  29.087  30.772  1.00  0.00     0.074 A 
ATOM     66  C   UNL A   1      43.101  30.148  29.801  1.00  0.00     0.031 C 
ATOM     67  C   UNL A   1      44.502  28.425  31.134  1.00  0.00     0.037 A 
BRANCH  54  68
ATOM     68  C   UNL A   1      46.879  30.910  26.907  1.00  0.00     0.057 A 
ATOM     69  C   UNL A   1      48.056  31.682  26.950  1.00  0.00     0.134 A 
ATOM     70  C   UNL A   1      45.694  31.649  26.713  1.00  0.00     0.134 A 
ATOM     71  F   UNL A   1      49.252  31.104  27.135  1.00  0.00    -0.206 F 
ATOM     72  C   UNL A   1      48.041  33.081  26.895  1.00  0.00     0.040 A 
ATOM     73  C   UNL A   1      45.674  33.043  26.606  1.00  0.00     0.040 A 
ATOM     74  F   UNL A   1      44.479  31.093  26.714  1.00  0.00    -0.206 F 
ATOM     75  C   UNL A   1      46.846  33.767  26.732  1.00  0.00     0.006 A 
ENDBRANCH  54  68
BRANCH  55  76
ATOM     76  C   UNL A   1      38.918  28.557  29.299  1.00  0.00     0.057 A 
ATOM     77  C   UNL A   1      38.062  28.589  30.410  1.00  0.00     0.134 A 
ATOM     78  C   UNL A   1      38.474  29.247  28.159  1.00  0.00     0.134 A 
ATOM     79  F   UNL A   1      38.418  28.000  31.561  1.00  0.00    -0.206 F 
ATOM     80  C   UNL A   1      36.843  29.285  30.395  1.00  0.00     0.040 A 
ATOM     81  C   UNL A   1      37.262  29.948  28.131  1.00  0.00     0.040 A 
ATOM     82  F   UNL A   1      39.251  29.344  27.070  1.00  0.00    -0.206 F 
ATOM     83  C   UNL A   1      36.446  29.979  29.256  1.00  0.00     0.006 A 
ENDBRANCH  55  76
BRANCH  67  84
ATOM     84  C   UNL A   1      44.360  27.298  32.125  1.00  0.00     0.057 A 
ATOM     85  C   UNL A   1      44.274  25.937  31.789  1.00  0.00     0.134 A 
ATOM     86  C   UNL A   1      44.433  27.603  33.488  1.00  0.00     0.134 A 
ATOM     87  F   UNL A   1      44.282  25.534  30.513  1.00  0.00    -0.206 F 
ATOM     88  C   UNL A   1      44.224  24.936  32.766  1.00  0.00     0.040 A 
ATOM     89  C   UNL A   1      44.418  26.613  34.472  1.00  0.00     0.040 A 
ATOM     90  F   UNL A   1      44.564  28.879  33.886  1.00  0.00    -0.206 F 
ATOM     91  C   UNL A   1      44.303  25.273  34.113  1.00  0.00     0.006 A 
ENDBRANCH  67  84
ENDBRANCH  41  42
ENDBRANCH  33  36
ENDBRANCH  31  32
ENDBRANCH  30  31
ENDBRANCH   1  30
TORSDOF 14
ENDMDL
MODEL 2
REMARK VINA RESULT:     -12.4      4.151      9.095
REMARK SMILES COc1ccc(-n2ccnc2C[N@@H+]2CCn3nc(C(=O)NCCCNC(=O)c4ccc(-c5c6nc(c(-c7c(F)cccc7F)c7ccc([nH]7)c(-c7c(F)cccc7F)c7nc(c(-c8c(F)cccc8F)c8ccc5[nH]8)C=C7)C=C6)cc4)cc3C2)cc1
REMARK SMILES IDX 22 1 21 2 19 3 20 4 18 6 13 7 14 8 84 9 15 11 83 12 16 13
REMARK SMILES IDX 82 14 17 15 12 16 11 17 7 18 8 19 9 20 10 21 6 22 3 23 4 24
REMARK SMILES IDX 86 25 5 26 85 27 2 28 1 29 23 30 24 31 25 32 26 33 27 35
REMARK SMILES IDX 28 36 29 37 81 38 30 39 80 40 31 41 32 42 33 43 74 44 34 45
REMARK SMILES IDX 79 46 73 47 75 48 35 49 78 50 72 51 71 52 36 54 62 55 45 56
REMARK SMILES IDX 61 57 46 58 49 59 60 60 76 61 47 62 48 63 59 65 77 66 50 67
REMARK SMILES IDX 37 68 38 69 43 70 39 71 40 72 42 73 44 74 41 75 63 76 64 77
REMARK SMILES IDX 69 78 65 79 66 80 68 81 70 82 67 83 51 84 52 85 57 86 53 87
REMARK SMILES IDX 54 88 56 89 58 90 55 91
REMARK H PARENT 21 5 13 10 25 34 75 53 49 64
REMARK Flexibility Score: inf
ROOT
ATOM      1  C   UNL A   1      31.524  30.190  25.753  1.00  0.00     0.118 C 
ENDROOT
BRANCH   1   2
ATOM      2  N   UNL A   1      32.599  29.842  24.801  1.00  0.00    -0.351 N 
ATOM      3  C   UNL A   1      33.138  28.657  24.282  1.00  0.00     0.271 C 
ATOM      4  O   UNL A   1      33.991  28.817  23.403  1.00  0.00    -0.267 OA
ATOM      5  H   UNL A   1      33.048  30.642  24.442  1.00  0.00     0.163 HD
BRANCH   3   6
ATOM      6  C   UNL A   1      32.846  27.290  24.818  1.00  0.00     0.150 A 
ATOM      7  N   UNL A   1      32.681  22.839  25.071  1.00  0.00    -0.322 N 
ATOM      8  C   UNL A   1      31.317  23.087  24.570  1.00  0.00     0.286 C 
ATOM      9  C   UNL A   1      33.049  23.799  26.139  1.00  0.00     0.319 C 
ATOM     10  H   UNL A   1      32.575  21.885  25.414  1.00  0.00     0.348 HD
ATOM     11  C   UNL A   1      30.691  24.497  24.762  1.00  0.00     0.206 C 
ATOM     12  C   UNL A   1      32.887  25.195  25.638  1.00  0.00     0.094 A 
ATOM     13  N   UNL A   1      31.696  25.502  25.062  1.00  0.00    -0.257 N 
ATOM     14  C   UNL A   1      33.675  26.322  25.472  1.00  0.00     0.065 A 
ATOM     15  N   UNL A   1      31.589  26.785  24.691  1.00  0.00    -0.167 NA
BRANCH   7  16
ATOM     16  C   UNL A   1      33.806  22.723  24.117  1.00  0.00     0.339 C 
BRANCH  16  17
ATOM     17  C   UNL A   1      35.142  22.119  24.496  1.00  0.00     0.168 A 
ATOM     18  N   UNL A   1      35.391  20.793  24.868  1.00  0.00    -0.299 N 
ATOM     19  C   UNL A   1      36.758  20.654  24.960  1.00  0.00     0.113 A 
ATOM     20  C   UNL A   1      37.284  21.856  24.567  1.00  0.00     0.132 A 
ATOM     21  N   UNL A   1      36.291  22.763  24.332  1.00  0.00    -0.236 NA
BRANCH  18  22
ATOM     22  C   UNL A   1      34.508  19.696  24.926  1.00  0.00     0.047 A 
ATOM     23  C   UNL A   1      32.895  17.415  25.161  1.00  0.00     0.119 A 
ATOM     24  C   UNL A   1      34.108  17.406  24.511  1.00  0.00     0.048 A 
ATOM     25  C   UNL A   1      32.451  18.608  25.688  1.00  0.00     0.048 A 
ATOM     26  C   UNL A   1      34.946  18.497  24.418  1.00  0.00     0.030 A 
ATOM     27  C   UNL A   1      33.256  19.759  25.569  1.00  0.00     0.030 A 
BRANCH  23  28
ATOM     28  O   UNL A   1      32.332  16.212  25.473  1.00  0.00    -0.497 OA
ATOM     29  C   UNL A   1      33.216  15.107  25.304  1.00  0.00     0.278 C 
ENDBRANCH  23  28
ENDBRANCH  18  22
ENDBRANCH  16  17
ENDBRANCH   7  16
ENDBRANCH   3   6
ENDBRANCH   1   2
BRANCH   1  30
ATOM     30  C   UNL A   1      31.359  31.679  26.185  1.00  0.00     0.042 C 
BRANCH  30  31
ATOM     31  C   UNL A   1      32.311  32.239  27.219  1.00  0.00     0.118 C 
BRANCH  31  32
ATOM     32  N   UNL A   1      32.187  33.663  27.519  1.00  0.00    -0.352 N 
ATOM     33  C   UNL A   1      32.935  34.433  28.417  1.00  0.00     0.251 C 
ATOM     34  H   UNL A   1      31.484  34.144  27.025  1.00  0.00     0.163 HD
ATOM     35  O   UNL A   1      32.516  35.510  28.801  1.00  0.00    -0.269 OA
BRANCH  33  36
ATOM     36  C   UNL A   1      34.235  33.918  28.920  1.00  0.00     0.039 A 
ATOM     37  C   UNL A   1      34.420  33.319  30.170  1.00  0.00     0.014 A 
ATOM     38  C   UNL A   1      35.314  34.002  28.067  1.00  0.00     0.014 A 
ATOM     39  C   UNL A   1      35.697  32.845  30.492  1.00  0.00     0.010 A 
ATOM     40  C   UNL A   1      36.316  33.101  28.190  1.00  0.00     0.010 A 
ATOM     41  C   UNL A   1      36.658  32.770  29.472  1.00  0.00    -0.014 A 
BRANCH  41  42
ATOM     42  C   UNL A   1      38.007  32.253  29.625  1.00  0.00     0.031 A 
ATOM     43  C   UNL A   1      38.108  30.852  29.181  1.00  0.00     0.074 A 
ATOM     44  C   UNL A   1      39.092  33.031  29.869  1.00  0.00     0.049 A 
ATOM     45  N   UNL A   1      38.113  29.802  29.928  1.00  0.00    -0.248 NA
ATOM     46  C   UNL A   1      37.933  30.571  27.747  1.00  0.00     0.031 C 
ATOM     47  C   UNL A   1      39.178  34.499  29.957  1.00  0.00     0.029 A 
ATOM     48  N   UNL A   1      40.395  32.659  30.026  1.00  0.00    -0.354 N 
ATOM     49  C   UNL A   1      38.227  28.735  29.047  1.00  0.00     0.074 A 
ATOM     50  C   UNL A   1      37.838  29.239  27.759  1.00  0.00     0.031 C 
ATOM     51  C   UNL A   1      40.475  34.891  29.952  1.00  0.00     0.029 A 
ATOM     52  C   UNL A   1      41.312  33.710  30.034  1.00  0.00     0.049 A 
ATOM     53  H   UNL A   1      40.666  31.718  30.127  1.00  0.00     0.167 HD
ATOM     54  C   UNL A   1      38.954  27.639  29.398  1.00  0.00     0.037 A 
ATOM     55  C   UNL A   1      42.664  33.602  30.113  1.00  0.00     0.037 A 
ATOM     56  C   UNL A   1      39.252  27.671  30.813  1.00  0.00     0.049 A 
ATOM     57  C   UNL A   1      42.957  32.251  30.645  1.00  0.00     0.074 A 
ATOM     58  C   UNL A   1      38.520  27.639  31.981  1.00  0.00     0.029 A 
ATOM     59  N   UNL A   1      40.480  28.192  31.137  1.00  0.00    -0.354 N 
ATOM     60  N   UNL A   1      42.661  31.871  31.856  1.00  0.00    -0.248 NA
ATOM     61  C   UNL A   1      43.172  31.177  29.690  1.00  0.00     0.031 C 
ATOM     62  C   UNL A   1      39.214  28.498  32.888  1.00  0.00     0.029 A 
ATOM     63  C   UNL A   1      40.378  28.957  32.267  1.00  0.00     0.049 A 
ATOM     64  H   UNL A   1      41.312  28.038  30.633  1.00  0.00     0.167 HD
ATOM     65  C   UNL A   1      42.217  30.565  31.718  1.00  0.00     0.074 A 
ATOM     66  C   UNL A   1      42.678  30.154  30.392  1.00  0.00     0.031 C 
ATOM     67  C   UNL A   1      41.267  30.064  32.563  1.00  0.00     0.037 A 
BRANCH  54  68
ATOM     68  C   UNL A   1      39.794  26.824  28.436  1.00  0.00     0.057 A 
ATOM     69  C   UNL A   1      40.761  27.495  27.663  1.00  0.00     0.134 A 
ATOM     70  C   UNL A   1      39.511  25.508  28.016  1.00  0.00     0.134 A 
ATOM     71  F   UNL A   1      41.119  28.755  27.951  1.00  0.00    -0.206 F 
ATOM     72  C   UNL A   1      41.331  26.931  26.515  1.00  0.00     0.040 A 
ATOM     73  C   UNL A   1      40.111  24.918  26.900  1.00  0.00     0.040 A 
ATOM     74  F   UNL A   1      38.572  24.746  28.587  1.00  0.00    -0.206 F 
ATOM     75  C   UNL A   1      40.999  25.641  26.124  1.00  0.00     0.006 A 
ENDBRANCH  54  68
BRANCH  55  76
ATOM     76  C   UNL A   1      43.723  34.444  29.505  1.00  0.00     0.057 A 
ATOM     77  C   UNL A   1      43.988  34.418  28.128  1.00  0.00     0.134 A 
ATOM     78  C   UNL A   1      44.283  35.515  30.220  1.00  0.00     0.134 A 
ATOM     79  F   UNL A   1      43.458  33.462  27.351  1.00  0.00    -0.206 F 
ATOM     80  C   UNL A   1      44.750  35.412  27.494  1.00  0.00     0.040 A 
ATOM     81  C   UNL A   1      45.044  36.515  29.601  1.00  0.00     0.040 A 
ATOM     82  F   UNL A   1      44.027  35.676  31.527  1.00  0.00    -0.206 F 
ATOM     83  C   UNL A   1      45.271  36.472  28.230  1.00  0.00     0.006 A 
ENDBRANCH  55  76
BRANCH  67  84
ATOM     84  C   UNL A   1      40.998  30.832  33.832  1.00  0.00     0.057 A 
ATOM     85  C   UNL A   1      39.996  31.804  33.986  1.00  0.00     0.134 A 
ATOM     86  C   UNL A   1      41.715  30.483  34.981  1.00  0.00     0.134 A 
ATOM     87  F   UNL A   1      39.200  32.149  32.968  1.00  0.00    -0.206 F 
ATOM     88  C   UNL A   1      39.749  32.422  35.217  1.00  0.00     0.040 A 
ATOM     89  C   UNL A   1      41.457  31.067  36.222  1.00  0.00     0.040 A 
ATOM     90  F   UNL A   1      42.657  29.528  34.922  1.00  0.00    -0.206 F 
ATOM     91  C   UNL A   1      40.476  32.048  36.343  1.00  0.00     0.006 A 
ENDBRANCH  67  84
ENDBRANCH  41  42
ENDBRANCH  33  36
ENDBRANCH  31  32
ENDBRANCH  30  31
ENDBRANCH   1  30
TORSDOF 14
ENDMDL
MODEL 3
REMARK VINA RESULT:     -12.3      2.973      8.383
REMARK SMILES COc1ccc(-n2ccnc2C[N@@H+]2CCn3nc(C(=O)NCCCNC(=O)c4ccc(-c5c6nc(c(-c7c(F)cccc7F)c7ccc([nH]7)c(-c7c(F)cccc7F)c7nc(c(-c8c(F)cccc8F)c8ccc5[nH]8)C=C7)C=C6)cc4)cc3C2)cc1
REMARK SMILES IDX 22 1 21 2 19 3 20 4 18 6 13 7 14 8 84 9 15 11 83 12 16 13
REMARK SMILES IDX 82 14 17 15 12 16 11 17 7 18 8 19 9 20 10 21 6 22 3 23 4 24
REMARK SMILES IDX 86 25 5 26 85 27 2 28 1 29 23 30 24 31 25 32 26 33 27 35
REMARK SMILES IDX 28 36 29 37 81 38 30 39 80 40 31 41 32 42 33 43 74 44 34 45
REMARK SMILES IDX 79 46 73 47 75 48 35 49 78 50 72 51 71 52 36 54 62 55 45 56
REMARK SMILES IDX 61 57 46 58 49 59 60 60 76 61 47 62 48 63 59 65 77 66 50 67
REMARK SMILES IDX 37 68 38 69 43 70 39 71 40 72 42 73 44 74 41 75 63 76 64 77
REMARK SMILES IDX 69 78 65 79 66 80 68 81 70 82 67 83 51 84 52 85 57 86 53 87
REMARK SMILES IDX 54 88 56 89 58 90 55 91
REMARK H PARENT 21 5 13 10 25 34 75 53 49 64
REMARK Flexibility Score: inf
ROOT
ATOM      1  C   UNL A   1      34.154  29.194  27.055  1.00  0.00     0.118 C 
ENDROOT
BRANCH   1   2
ATOM      2  N   UNL A   1      34.126  28.706  25.661  1.00  0.00    -0.351 N 
ATOM      3  C   UNL A   1      33.599  27.590  24.996  1.00  0.00     0.271 C 
ATOM      4  O   UNL A   1      33.716  27.616  23.766  1.00  0.00    -0.267 OA
ATOM      5  H   UNL A   1      34.595  29.316  25.045  1.00  0.00     0.163 HD
BRANCH   3   6
ATOM      6  C   UNL A   1      33.062  26.373  25.683  1.00  0.00     0.150 A 
ATOM      7  N   UNL A   1      31.366  22.284  26.238  1.00  0.00    -0.322 N 
ATOM      8  C   UNL A   1      30.117  23.062  26.335  1.00  0.00     0.286 C 
ATOM      9  C   UNL A   1      32.464  22.926  26.999  1.00  0.00     0.319 C 
ATOM     10  H   UNL A   1      31.059  21.403  26.648  1.00  0.00     0.348 HD
ATOM     11  C   UNL A   1      30.199  24.573  26.687  1.00  0.00     0.206 C 
ATOM     12  C   UNL A   1      32.647  24.330  26.531  1.00  0.00     0.094 A 
ATOM     13  N   UNL A   1      31.534  25.108  26.485  1.00  0.00    -0.257 N 
ATOM     14  C   UNL A   1      33.658  25.107  25.988  1.00  0.00     0.065 A 
ATOM     15  N   UNL A   1      31.774  26.375  26.119  1.00  0.00    -0.167 NA
BRANCH   7  16
ATOM     16  C   UNL A   1      31.874  21.871  24.911  1.00  0.00     0.339 C 
BRANCH  16  17
ATOM     17  C   UNL A   1      32.711  20.626  24.706  1.00  0.00     0.168 A 
ATOM     18  N   UNL A   1      34.107  20.549  24.657  1.00  0.00    -0.299 N 
ATOM     19  C   UNL A   1      34.434  19.212  24.622  1.00  0.00     0.113 A 
ATOM     20  C   UNL A   1      33.248  18.535  24.734  1.00  0.00     0.132 A 
ATOM     21  N   UNL A   1      32.195  19.404  24.735  1.00  0.00    -0.236 NA
BRANCH  18  22
ATOM     22  C   UNL A   1      35.069  21.564  24.842  1.00  0.00     0.047 A 
ATOM     23  C   UNL A   1      37.115  23.431  25.276  1.00  0.00     0.119 A 
ATOM     24  C   UNL A   1      36.529  22.718  26.296  1.00  0.00     0.048 A 
ATOM     25  C   UNL A   1      36.648  23.233  23.995  1.00  0.00     0.048 A 
ATOM     26  C   UNL A   1      35.555  21.759  26.112  1.00  0.00     0.030 A 
ATOM     27  C   UNL A   1      35.617  22.298  23.772  1.00  0.00     0.030 A 
BRANCH  23  28
ATOM     28  O   UNL A   1      38.281  24.086  25.546  1.00  0.00    -0.497 OA
ATOM     29  C   UNL A   1      38.903  23.666  26.757  1.00  0.00     0.278 C 
ENDBRANCH  23  28
ENDBRANCH  18  22
ENDBRANCH  16  17
ENDBRANCH   7  16
ENDBRANCH   3   6
ENDBRANCH   1   2
BRANCH   1  30
ATOM     30  C   UNL A   1      33.830  30.695  27.330  1.00  0.00     0.042 C 
BRANCH  30  31
ATOM     31  C   UNL A   1      34.969  31.623  27.690  1.00  0.00     0.118 C 
BRANCH  31  32
ATOM     32  N   UNL A   1      34.836  32.367  28.940  1.00  0.00    -0.352 N 
ATOM     33  C   UNL A   1      35.384  32.072  30.193  1.00  0.00     0.251 C 
ATOM     34  H   UNL A   1      34.289  33.184  28.894  1.00  0.00     0.163 HD
ATOM     35  O   UNL A   1      34.931  32.587  31.200  1.00  0.00    -0.269 OA
BRANCH  33  36
ATOM     36  C   UNL A   1      36.508  31.104  30.294  1.00  0.00     0.039 A 
ATOM     37  C   UNL A   1      36.355  29.717  30.374  1.00  0.00     0.014 A 
ATOM     38  C   UNL A   1      37.784  31.623  30.259  1.00  0.00     0.014 A 
ATOM     39  C   UNL A   1      37.510  28.928  30.425  1.00  0.00     0.010 A 
ATOM     40  C   UNL A   1      38.790  30.851  29.786  1.00  0.00     0.010 A 
ATOM     41  C   UNL A   1      38.745  29.534  30.150  1.00  0.00    -0.014 A 
BRANCH  41  42
ATOM     42  C   UNL A   1      40.026  28.850  30.107  1.00  0.00     0.031 A 
ATOM     43  C   UNL A   1      40.630  28.739  31.446  1.00  0.00     0.074 A 
ATOM     44  C   UNL A   1      40.474  28.152  29.034  1.00  0.00     0.049 A 
ATOM     45  N   UNL A   1      41.561  29.481  31.939  1.00  0.00    -0.248 NA
ATOM     46  C   UNL A   1      39.961  27.876  32.433  1.00  0.00     0.031 C 
ATOM     47  C   UNL A   1      39.790  27.869  27.760  1.00  0.00     0.029 A 
ATOM     48  N   UNL A   1      41.648  27.473  28.884  1.00  0.00    -0.354 N 
ATOM     49  C   UNL A   1      41.781  28.980  33.215  1.00  0.00     0.074 A 
ATOM     50  C   UNL A   1      40.614  28.211  33.548  1.00  0.00     0.031 C 
ATOM     51  C   UNL A   1      40.471  26.926  27.065  1.00  0.00     0.029 A 
ATOM     52  C   UNL A   1      41.720  26.662  27.751  1.00  0.00     0.049 A 
ATOM     53  H   UNL A   1      42.389  27.551  29.527  1.00  0.00     0.167 HD
ATOM     54  C   UNL A   1      43.041  28.966  33.731  1.00  0.00     0.037 A 
ATOM     55  C   UNL A   1      42.749  25.842  27.407  1.00  0.00     0.037 A 
ATOM     56  C   UNL A   1      43.920  29.782  32.923  1.00  0.00     0.049 A 
ATOM     57  C   UNL A   1      43.933  26.298  28.169  1.00  0.00     0.074 A 
ATOM     58  C   UNL A   1      44.002  31.117  32.587  1.00  0.00     0.029 A 
ATOM     59  N   UNL A   1      44.645  29.097  31.979  1.00  0.00    -0.354 N 
ATOM     60  N   UNL A   1      44.524  27.442  27.972  1.00  0.00    -0.248 NA
ATOM     61  C   UNL A   1      44.192  25.677  29.458  1.00  0.00     0.031 C 
ATOM     62  C   UNL A   1      44.463  31.140  31.234  1.00  0.00     0.029 A 
ATOM     63  C   UNL A   1      44.716  29.829  30.825  1.00  0.00     0.049 A 
ATOM     64  H   UNL A   1      45.054  28.212  32.111  1.00  0.00     0.167 HD
ATOM     65  C   UNL A   1      44.852  27.895  29.241  1.00  0.00     0.074 A 
ATOM     66  C   UNL A   1      44.743  26.714  30.096  1.00  0.00     0.031 C 
ATOM     67  C   UNL A   1      44.879  29.234  29.512  1.00  0.00     0.037 A 
BRANCH  54  68
ATOM     68  C   UNL A   1      43.587  27.875  34.629  1.00  0.00     0.057 A 
ATOM     69  C   UNL A   1      44.135  28.247  35.872  1.00  0.00     0.134 A 
ATOM     70  C   UNL A   1      43.875  26.554  34.228  1.00  0.00     0.134 A 
ATOM     71  F   UNL A   1      43.943  29.478  36.368  1.00  0.00    -0.206 F 
ATOM     72  C   UNL A   1      44.973  27.401  36.609  1.00  0.00     0.040 A 
ATOM     73  C   UNL A   1      44.670  25.685  34.981  1.00  0.00     0.040 A 
ATOM     74  F   UNL A   1      43.497  26.051  33.049  1.00  0.00    -0.206 F 
ATOM     75  C   UNL A   1      45.251  26.118  36.159  1.00  0.00     0.006 A 
ENDBRANCH  54  68
BRANCH  55  76
ATOM     76  C   UNL A   1      42.729  24.535  26.708  1.00  0.00     0.057 A 
ATOM     77  C   UNL A   1      43.270  24.376  25.423  1.00  0.00     0.134 A 
ATOM     78  C   UNL A   1      42.458  23.351  27.412  1.00  0.00     0.134 A 
ATOM     79  F   UNL A   1      43.608  25.447  24.690  1.00  0.00    -0.206 F 
ATOM     80  C   UNL A   1      43.544  23.112  24.878  1.00  0.00     0.040 A 
ATOM     81  C   UNL A   1      42.728  22.083  26.882  1.00  0.00     0.040 A 
ATOM     82  F   UNL A   1      42.013  23.392  28.677  1.00  0.00    -0.206 F 
ATOM     83  C   UNL A   1      43.284  21.960  25.614  1.00  0.00     0.006 A 
ENDBRANCH  55  76
BRANCH  67  84
ATOM     84  C   UNL A   1      44.901  30.176  28.336  1.00  0.00     0.057 A 
ATOM     85  C   UNL A   1      43.767  30.783  27.770  1.00  0.00     0.134 A 
ATOM     86  C   UNL A   1      46.142  30.575  27.831  1.00  0.00     0.134 A 
ATOM     87  F   UNL A   1      42.539  30.531  28.236  1.00  0.00    -0.206 F 
ATOM     88  C   UNL A   1      43.868  31.711  26.728  1.00  0.00     0.040 A 
ATOM     89  C   UNL A   1      46.260  31.525  26.815  1.00  0.00     0.040 A 
ATOM     90  F   UNL A   1      47.274  30.074  28.354  1.00  0.00    -0.206 F 
ATOM     91  C   UNL A   1      45.119  32.091  26.252  1.00  0.00     0.006 A 
ENDBRANCH  67  84
ENDBRANCH  41  42
ENDBRANCH  33  36
ENDBRANCH  31  32
ENDBRANCH  30  31
ENDBRANCH   1  30
TORSDOF 14
ENDMDL
