MODEL 1
REMARK VINA RESULT:     -11.3      0.000      0.000
REMARK SMILES CC1(CNS(=O)(=O)Cc2ccc(C(=O)NCCCNC(=O)c3ccc(-c4c5nc(c(-c6c(F)cccc6F)c6ccc([nH]6)c(-c6c(F)cccc6F)c6nc(c(-c7c(F)cccc7F)c7ccc4[nH]7)C=C6)C=C5)cc3)cc2)COC1
REMARK SMILES IDX 13 1 14 2 15 3 12 5 9 6 10 7 77 8 11 9 76 10 8 11 5 12 6 13
REMARK SMILES IDX 7 14 4 15 3 17 2 18 1 19 78 20 80 21 79 22 16 23 17 24 18 25
REMARK SMILES IDX 19 26 20 27 21 29 22 30 23 31 75 32 24 33 74 34 25 35 26 36
REMARK SMILES IDX 27 37 68 38 28 39 73 40 67 41 69 42 29 43 72 44 66 45 65 46
REMARK SMILES IDX 30 48 56 49 39 50 55 51 40 52 43 53 54 54 70 55 41 56 42 57
REMARK SMILES IDX 53 59 71 60 44 61 31 62 32 63 37 64 33 65 34 66 36 67 38 68
REMARK SMILES IDX 35 69 57 70 58 71 63 72 59 73 60 74 62 75 64 76 61 77 45 78
REMARK SMILES IDX 46 79 51 80 47 81 48 82 50 83 52 84 49 85
REMARK H PARENT 15 4 4 16 19 28 69 47 43 58
REMARK Flexibility Score: inf
ROOT
ATOM      1  C   UNL A   1      33.893  29.308  27.240  1.00  0.00     0.251 C 
ATOM      2  O   UNL A   1      34.875  29.241  27.977  1.00  0.00    -0.269 OA
ATOM      3  N   UNL A   1      32.892  30.187  27.577  1.00  0.00    -0.352 N 
ATOM      4  H   UNL A   1      33.044  30.660  28.427  1.00  0.00     0.163 HD
ENDROOT
BRANCH   1   5
ATOM      5  C   UNL A   1      33.853  28.481  26.004  1.00  0.00     0.039 A 
ATOM      6  C   UNL A   1      33.664  27.011  23.577  1.00  0.00    -0.032 A 
ATOM      7  C   UNL A   1      34.001  28.376  23.579  1.00  0.00     0.005 A 
ATOM      8  C   UNL A   1      33.464  26.407  24.817  1.00  0.00     0.005 A 
ATOM      9  C   UNL A   1      34.077  29.106  24.774  1.00  0.00     0.014 A 
ATOM     10  C   UNL A   1      33.619  27.112  26.007  1.00  0.00     0.014 A 
BRANCH   6  11
ATOM     11  C   UNL A   1      33.635  26.289  22.250  1.00  0.00     0.189 C 
BRANCH  11  12
ATOM     12  S   UNL A   1      32.015  25.898  21.565  1.00  0.00     0.215 S 
ATOM     13  O   UNL A   1      31.357  24.967  22.454  1.00  0.00    -0.212 OA
ATOM     14  O   UNL A   1      32.147  25.595  20.154  1.00  0.00    -0.212 OA
BRANCH  12  15
ATOM     15  N   UNL A   1      31.110  27.318  21.626  1.00  0.00    -0.214 NA
ATOM     16  H   UNL A   1      31.771  28.095  21.602  1.00  0.00     0.141 HD
BRANCH  15  17
ATOM     17  C   UNL A   1      30.214  27.547  22.773  1.00  0.00     0.110 C 
BRANCH  17  18
ATOM     18  C   UNL A   1      29.860  29.033  22.923  1.00  0.00     0.028 C 
ATOM     19  C   UNL A   1      30.424  29.702  24.171  1.00  0.00     0.018 C 
ATOM     20  C   UNL A   1      28.353  29.288  22.715  1.00  0.00     0.170 C 
ATOM     21  C   UNL A   1      30.006  29.858  21.630  1.00  0.00     0.170 C 
ATOM     22  O   UNL A   1      28.591  29.709  21.347  1.00  0.00    -0.380 OA
ENDBRANCH  17  18
ENDBRANCH  15  17
ENDBRANCH  12  15
ENDBRANCH  11  12
ENDBRANCH   6  11
ENDBRANCH   1   5
BRANCH   3  23
ATOM     23  C   UNL A   1      31.652  30.551  26.911  1.00  0.00     0.118 C 
BRANCH  23  24
ATOM     24  C   UNL A   1      31.471  32.070  26.882  1.00  0.00     0.042 C 
BRANCH  24  25
ATOM     25  C   UNL A   1      32.782  32.824  27.054  1.00  0.00     0.118 C 
BRANCH  25  26
ATOM     26  N   UNL A   1      32.568  34.145  27.627  1.00  0.00    -0.352 N 
ATOM     27  C   UNL A   1      33.117  34.722  28.742  1.00  0.00     0.251 C 
ATOM     28  H   UNL A   1      31.930  34.712  27.137  1.00  0.00     0.163 HD
ATOM     29  O   UNL A   1      32.622  35.749  29.198  1.00  0.00    -0.269 OA
BRANCH  27  30
ATOM     30  C   UNL A   1      34.290  34.113  29.403  1.00  0.00     0.039 A 
ATOM     31  C   UNL A   1      34.078  33.172  30.413  1.00  0.00     0.014 A 
ATOM     32  C   UNL A   1      35.591  34.499  29.067  1.00  0.00     0.014 A 
ATOM     33  C   UNL A   1      35.170  32.583  31.052  1.00  0.00     0.010 A 
ATOM     34  C   UNL A   1      36.678  33.853  29.648  1.00  0.00     0.010 A 
ATOM     35  C   UNL A   1      36.479  32.895  30.652  1.00  0.00    -0.014 A 
BRANCH  35  36
ATOM     36  C   UNL A   1      37.650  32.233  31.279  1.00  0.00     0.031 A 
ATOM     37  C   UNL A   1      38.370  31.127  30.556  1.00  0.00     0.074 A 
ATOM     38  C   UNL A   1      38.033  32.596  32.519  1.00  0.00     0.049 A 
ATOM     39  N   UNL A   1      39.364  30.381  30.968  1.00  0.00    -0.248 NA
ATOM     40  C   UNL A   1      37.898  30.799  29.200  1.00  0.00     0.031 C 
ATOM     41  C   UNL A   1      37.392  33.631  33.334  1.00  0.00     0.029 A 
ATOM     42  N   UNL A   1      39.049  32.131  33.314  1.00  0.00    -0.354 N 
ATOM     43  C   UNL A   1      39.633  29.502  29.926  1.00  0.00     0.074 A 
ATOM     44  C   UNL A   1      38.659  29.761  28.890  1.00  0.00     0.031 C 
ATOM     45  C   UNL A   1      38.043  33.736  34.503  1.00  0.00     0.029 A 
ATOM     46  C   UNL A   1      39.115  32.749  34.541  1.00  0.00     0.049 A 
ATOM     47  H   UNL A   1      39.672  31.423  33.034  1.00  0.00     0.167 HD
ATOM     48  C   UNL A   1      40.620  28.580  29.832  1.00  0.00     0.037 A 
ATOM     49  C   UNL A   1      39.940  32.530  35.584  1.00  0.00     0.037 A 
ATOM     50  C   UNL A   1      41.596  28.333  30.862  1.00  0.00     0.049 A 
ATOM     51  C   UNL A   1      41.001  31.469  35.463  1.00  0.00     0.074 A 
ATOM     52  C   UNL A   1      42.653  27.440  30.851  1.00  0.00     0.029 A 
ATOM     53  N   UNL A   1      41.634  28.984  32.086  1.00  0.00    -0.354 N 
ATOM     54  N   UNL A   1      41.278  30.685  34.450  1.00  0.00    -0.248 NA
ATOM     55  C   UNL A   1      41.871  31.270  36.631  1.00  0.00     0.031 C 
ATOM     56  C   UNL A   1      43.303  27.517  32.086  1.00  0.00     0.029 A 
ATOM     57  C   UNL A   1      42.688  28.499  32.844  1.00  0.00     0.049 A 
ATOM     58  H   UNL A   1      41.007  29.686  32.373  1.00  0.00     0.167 HD
ATOM     59  C   UNL A   1      42.375  29.928  34.844  1.00  0.00     0.074 A 
ATOM     60  C   UNL A   1      42.723  30.361  36.181  1.00  0.00     0.031 C 
ATOM     61  C   UNL A   1      43.035  28.959  34.164  1.00  0.00     0.037 A 
BRANCH  48  62
ATOM     62  C   UNL A   1      40.712  27.778  28.566  1.00  0.00     0.057 A 
ATOM     63  C   UNL A   1      40.001  26.582  28.403  1.00  0.00     0.134 A 
ATOM     64  C   UNL A   1      41.460  28.238  27.475  1.00  0.00     0.134 A 
ATOM     65  F   UNL A   1      39.274  26.079  29.412  1.00  0.00    -0.206 F 
ATOM     66  C   UNL A   1      40.043  25.864  27.206  1.00  0.00     0.040 A 
ATOM     67  C   UNL A   1      41.487  27.544  26.264  1.00  0.00     0.040 A 
ATOM     68  F   UNL A   1      42.159  29.379  27.561  1.00  0.00    -0.206 F 
ATOM     69  C   UNL A   1      40.779  26.352  26.128  1.00  0.00     0.006 A 
ENDBRANCH  48  62
BRANCH  49  70
ATOM     70  C   UNL A   1      39.805  33.321  36.835  1.00  0.00     0.057 A 
ATOM     71  C   UNL A   1      38.876  32.965  37.820  1.00  0.00     0.134 A 
ATOM     72  C   UNL A   1      40.559  34.481  37.052  1.00  0.00     0.134 A 
ATOM     73  F   UNL A   1      38.113  31.874  37.665  1.00  0.00    -0.206 F 
ATOM     74  C   UNL A   1      38.670  33.755  38.953  1.00  0.00     0.040 A 
ATOM     75  C   UNL A   1      40.387  35.262  38.196  1.00  0.00     0.040 A 
ATOM     76  F   UNL A   1      41.475  34.873  36.155  1.00  0.00    -0.206 F 
ATOM     77  C   UNL A   1      39.428  34.908  39.143  1.00  0.00     0.006 A 
ENDBRANCH  49  70
BRANCH  61  78
ATOM     78  C   UNL A   1      44.232  28.345  34.828  1.00  0.00     0.057 A 
ATOM     79  C   UNL A   1      45.514  28.895  34.707  1.00  0.00     0.134 A 
ATOM     80  C   UNL A   1      44.090  27.203  35.630  1.00  0.00     0.134 A 
ATOM     81  F   UNL A   1      45.721  29.978  33.945  1.00  0.00    -0.206 F 
ATOM     82  C   UNL A   1      46.618  28.315  35.336  1.00  0.00     0.040 A 
ATOM     83  C   UNL A   1      45.180  26.634  36.289  1.00  0.00     0.040 A 
ATOM     84  F   UNL A   1      42.888  26.633  35.797  1.00  0.00    -0.206 F 
ATOM     85  C   UNL A   1      46.450  27.186  36.136  1.00  0.00     0.006 A 
ENDBRANCH  61  78
ENDBRANCH  35  36
ENDBRANCH  27  30
ENDBRANCH  25  26
ENDBRANCH  24  25
ENDBRANCH  23  24
ENDBRANCH   3  23
TORSDOF 15
ENDMDL
MODEL 2
REMARK VINA RESULT:     -11.3      0.325      6.352
REMARK SMILES CC1(CNS(=O)(=O)Cc2ccc(C(=O)NCCCNC(=O)c3ccc(-c4c5nc(c(-c6c(F)cccc6F)c6ccc([nH]6)c(-c6c(F)cccc6F)c6nc(c(-c7c(F)cccc7F)c7ccc4[nH]7)C=C6)C=C5)cc3)cc2)COC1
REMARK SMILES IDX 13 1 14 2 15 3 12 5 9 6 10 7 77 8 11 9 76 10 8 11 5 12 6 13
REMARK SMILES IDX 7 14 4 15 3 17 2 18 1 19 78 20 80 21 79 22 16 23 17 24 18 25
REMARK SMILES IDX 19 26 20 27 21 29 22 30 23 31 75 32 24 33 74 34 25 35 26 36
REMARK SMILES IDX 27 37 68 38 28 39 73 40 67 41 69 42 29 43 72 44 66 45 65 46
REMARK SMILES IDX 30 48 56 49 39 50 55 51 40 52 43 53 54 54 70 55 41 56 42 57
REMARK SMILES IDX 53 59 71 60 44 61 31 62 32 63 37 64 33 65 34 66 36 67 38 68
REMARK SMILES IDX 35 69 57 70 58 71 63 72 59 73 60 74 62 75 64 76 61 77 45 78
REMARK SMILES IDX 46 79 51 80 47 81 48 82 50 83 52 84 49 85
REMARK H PARENT 15 4 4 16 19 28 69 47 43 58
REMARK Flexibility Score: inf
ROOT
ATOM      1  C   UNL A   1      33.892  29.422  27.210  1.00  0.00     0.251 C 
ATOM      2  O   UNL A   1      34.891  29.382  27.927  1.00  0.00    -0.269 OA
ATOM      3  N   UNL A   1      32.878  30.279  27.563  1.00  0.00    -0.352 N 
ATOM      4  H   UNL A   1      33.035  30.758  28.408  1.00  0.00     0.163 HD
ENDROOT
BRANCH   1   5
ATOM      5  C   UNL A   1      33.848  28.589  25.978  1.00  0.00     0.039 A 
ATOM      6  C   UNL A   1      33.638  27.099  23.565  1.00  0.00    -0.032 A 
ATOM      7  C   UNL A   1      33.879  28.484  23.548  1.00  0.00     0.005 A 
ATOM      8  C   UNL A   1      33.544  26.488  24.813  1.00  0.00     0.005 A 
ATOM      9  C   UNL A   1      33.965  29.223  24.738  1.00  0.00     0.014 A 
ATOM     10  C   UNL A   1      33.709  27.207  25.994  1.00  0.00     0.014 A 
BRANCH   6  11
ATOM     11  C   UNL A   1      33.592  26.371  22.241  1.00  0.00     0.189 C 
BRANCH  11  12
ATOM     12  S   UNL A   1      31.964  25.946  21.596  1.00  0.00     0.215 S 
ATOM     13  O   UNL A   1      31.336  25.025  22.516  1.00  0.00    -0.212 OA
ATOM     14  O   UNL A   1      32.072  25.617  20.189  1.00  0.00    -0.212 OA
BRANCH  12  15
ATOM     15  N   UNL A   1      31.042  27.356  21.647  1.00  0.00    -0.214 NA
ATOM     16  H   UNL A   1      31.694  28.140  21.633  1.00  0.00     0.141 HD
BRANCH  15  17
ATOM     17  C   UNL A   1      30.128  27.573  22.782  1.00  0.00     0.110 C 
BRANCH  17  18
ATOM     18  C   UNL A   1      29.749  29.054  22.925  1.00  0.00     0.028 C 
ATOM     19  C   UNL A   1      30.300  29.737  24.170  1.00  0.00     0.018 C 
ATOM     20  C   UNL A   1      28.239  29.282  22.714  1.00  0.00     0.170 C 
ATOM     21  C   UNL A   1      29.882  29.874  21.628  1.00  0.00     0.170 C 
ATOM     22  O   UNL A   1      28.470  29.700  21.344  1.00  0.00    -0.380 OA
ENDBRANCH  17  18
ENDBRANCH  15  17
ENDBRANCH  12  15
ENDBRANCH  11  12
ENDBRANCH   6  11
ENDBRANCH   1   5
BRANCH   3  23
ATOM     23  C   UNL A   1      31.616  30.610  26.921  1.00  0.00     0.118 C 
BRANCH  23  24
ATOM     24  C   UNL A   1      31.409  32.125  26.869  1.00  0.00     0.042 C 
BRANCH  24  25
ATOM     25  C   UNL A   1      32.718  32.901  26.928  1.00  0.00     0.118 C 
BRANCH  25  26
ATOM     26  N   UNL A   1      32.542  34.197  27.567  1.00  0.00    -0.352 N 
ATOM     27  C   UNL A   1      33.109  34.703  28.707  1.00  0.00     0.251 C 
ATOM     28  H   UNL A   1      31.919  34.806  27.107  1.00  0.00     0.163 HD
ATOM     29  O   UNL A   1      32.644  35.720  29.214  1.00  0.00    -0.269 OA
BRANCH  27  30
ATOM     30  C   UNL A   1      34.267  34.030  29.332  1.00  0.00     0.039 A 
ATOM     31  C   UNL A   1      34.033  32.969  30.210  1.00  0.00     0.014 A 
ATOM     32  C   UNL A   1      35.573  34.469  29.095  1.00  0.00     0.014 A 
ATOM     33  C   UNL A   1      35.109  32.317  30.812  1.00  0.00     0.010 A 
ATOM     34  C   UNL A   1      36.648  33.768  29.634  1.00  0.00     0.010 A 
ATOM     35  C   UNL A   1      36.427  32.690  30.504  1.00  0.00    -0.014 A 
BRANCH  35  36
ATOM     36  C   UNL A   1      37.585  31.969  31.089  1.00  0.00     0.031 A 
ATOM     37  C   UNL A   1      38.087  32.333  32.461  1.00  0.00     0.074 A 
ATOM     38  C   UNL A   1      38.211  31.021  30.365  1.00  0.00     0.049 A 
ATOM     39  N   UNL A   1      39.126  31.870  33.109  1.00  0.00    -0.248 NA
ATOM     40  C   UNL A   1      37.339  33.370  33.191  1.00  0.00     0.031 C 
ATOM     41  C   UNL A   1      37.837  30.605  29.011  1.00  0.00     0.029 A 
ATOM     42  N   UNL A   1      39.298  30.239  30.664  1.00  0.00    -0.354 N 
ATOM     43  C   UNL A   1      39.154  32.555  34.317  1.00  0.00     0.074 A 
ATOM     44  C   UNL A   1      38.069  33.512  34.287  1.00  0.00     0.031 C 
ATOM     45  C   UNL A   1      38.668  29.631  28.605  1.00  0.00     0.029 A 
ATOM     46  C   UNL A   1      39.658  29.385  29.647  1.00  0.00     0.049 A 
ATOM     47  H   UNL A   1      39.775  30.285  31.523  1.00  0.00     0.167 HD
ATOM     48  C   UNL A   1      39.991  32.384  35.367  1.00  0.00     0.037 A 
ATOM     49  C   UNL A   1      40.681  28.514  29.563  1.00  0.00     0.037 A 
ATOM     50  C   UNL A   1      41.062  31.422  35.398  1.00  0.00     0.049 A 
ATOM     51  C   UNL A   1      41.620  28.377  30.732  1.00  0.00     0.074 A 
ATOM     52  C   UNL A   1      41.948  31.153  36.426  1.00  0.00     0.029 A 
ATOM     53  N   UNL A   1      41.389  30.571  34.353  1.00  0.00    -0.354 N 
ATOM     54  N   UNL A   1      41.599  28.993  31.889  1.00  0.00    -0.248 NA
ATOM     55  C   UNL A   1      42.722  27.415  30.585  1.00  0.00     0.031 C 
ATOM     56  C   UNL A   1      42.841  30.171  35.987  1.00  0.00     0.029 A 
ATOM     57  C   UNL A   1      42.475  29.787  34.708  1.00  0.00     0.049 A 
ATOM     58  H   UNL A   1      40.920  30.530  33.489  1.00  0.00     0.167 HD
ATOM     59  C   UNL A   1      42.658  28.466  32.619  1.00  0.00     0.074 A 
ATOM     60  C   UNL A   1      43.288  27.468  31.781  1.00  0.00     0.031 C 
ATOM     61  C   UNL A   1      43.074  28.781  33.869  1.00  0.00     0.037 A 
BRANCH  48  62
ATOM     62  C   UNL A   1      39.776  33.241  36.582  1.00  0.00     0.057 A 
ATOM     63  C   UNL A   1      40.440  34.464  36.742  1.00  0.00     0.134 A 
ATOM     64  C   UNL A   1      38.847  32.877  37.564  1.00  0.00     0.134 A 
ATOM     65  F   UNL A   1      41.351  34.867  35.844  1.00  0.00    -0.206 F 
ATOM     66  C   UNL A   1      40.200  35.287  37.845  1.00  0.00     0.040 A 
ATOM     67  C   UNL A   1      38.578  33.704  38.656  1.00  0.00     0.040 A 
ATOM     68  F   UNL A   1      38.171  31.722  37.468  1.00  0.00    -0.206 F 
ATOM     69  C   UNL A   1      39.257  34.911  38.800  1.00  0.00     0.006 A 
ENDBRANCH  48  62
BRANCH  49  70
ATOM     70  C   UNL A   1      40.885  27.701  28.335  1.00  0.00     0.057 A 
ATOM     71  C   UNL A   1      41.687  28.164  27.284  1.00  0.00     0.134 A 
ATOM     72  C   UNL A   1      40.240  26.471  28.157  1.00  0.00     0.134 A 
ATOM     73  F   UNL A   1      42.319  29.342  27.387  1.00  0.00    -0.206 F 
ATOM     74  C   UNL A   1      41.805  27.456  26.086  1.00  0.00     0.040 A 
ATOM     75  C   UNL A   1      40.377  25.737  26.978  1.00  0.00     0.040 A 
ATOM     76  F   UNL A   1      39.467  25.963  29.127  1.00  0.00    -0.206 F 
ATOM     77  C   UNL A   1      41.149  26.237  25.932  1.00  0.00     0.006 A 
ENDBRANCH  49  70
BRANCH  61  78
ATOM     78  C   UNL A   1      44.227  28.000  34.428  1.00  0.00     0.057 A 
ATOM     79  C   UNL A   1      44.045  26.798  35.124  1.00  0.00     0.134 A 
ATOM     80  C   UNL A   1      45.544  28.441  34.235  1.00  0.00     0.134 A 
ATOM     81  F   UNL A   1      42.811  26.326  35.355  1.00  0.00    -0.206 F 
ATOM     82  C   UNL A   1      45.128  26.079  35.634  1.00  0.00     0.040 A 
ATOM     83  C   UNL A   1      46.635  27.715  34.710  1.00  0.00     0.040 A 
ATOM     84  F   UNL A   1      45.790  29.579  33.567  1.00  0.00    -0.206 F 
ATOM     85  C   UNL A   1      46.428  26.534  35.420  1.00  0.00     0.006 A 
ENDBRANCH  61  78
ENDBRANCH  35  36
ENDBRANCH  27  30
ENDBRANCH  25  26
ENDBRANCH  24  25
ENDBRANCH  23  24
ENDBRANCH   3  23
TORSDOF 15
ENDMDL
MODEL 3
REMARK VINA RESULT:     -11.1      2.343      3.484
REMARK SMILES CC1(CNS(=O)(=O)Cc2ccc(C(=O)NCCCNC(=O)c3ccc(-c4c5nc(c(-c6c(F)cccc6F)c6ccc([nH]6)c(-c6c(F)cccc6F)c6nc(c(-c7c(F)cccc7F)c7ccc4[nH]7)C=C6)C=C5)cc3)cc2)COC1
REMARK SMILES IDX 13 1 14 2 15 3 12 5 9 6 10 7 77 8 11 9 76 10 8 11 5 12 6 13
REMARK SMILES IDX 7 14 4 15 3 17 2 18 1 19 78 20 80 21 79 22 16 23 17 24 18 25
REMARK SMILES IDX 19 26 20 27 21 29 22 30 23 31 75 32 24 33 74 34 25 35 26 36
REMARK SMILES IDX 27 37 68 38 28 39 73 40 67 41 69 42 29 43 72 44 66 45 65 46
REMARK SMILES IDX 30 48 56 49 39 50 55 51 40 52 43 53 54 54 70 55 41 56 42 57
REMARK SMILES IDX 53 59 71 60 44 61 31 62 32 63 37 64 33 65 34 66 36 67 38 68
REMARK SMILES IDX 35 69 57 70 58 71 63 72 59 73 60 74 62 75 64 76 61 77 45 78
REMARK SMILES IDX 46 79 51 80 47 81 48 82 50 83 52 84 49 85
REMARK H PARENT 15 4 4 16 19 28 69 47 43 58
REMARK Flexibility Score: inf
ROOT
ATOM      1  C   UNL A   1      33.595  29.123  26.904  1.00  0.00     0.251 C 
ATOM      2  O   UNL A   1      34.777  29.059  27.238  1.00  0.00    -0.269 OA
ATOM      3  N   UNL A   1      33.020  30.367  26.803  1.00  0.00    -0.352 N 
ATOM      4  H   UNL A   1      33.617  31.106  27.060  1.00  0.00     0.163 HD
ENDROOT
BRANCH   1   5
ATOM      5  C   UNL A   1      32.862  27.870  26.580  1.00  0.00     0.039 A 
ATOM      6  C   UNL A   1      31.498  25.501  25.795  1.00  0.00    -0.032 A 
ATOM      7  C   UNL A   1      32.845  25.716  25.452  1.00  0.00     0.005 A 
ATOM      8  C   UNL A   1      30.878  26.483  26.565  1.00  0.00     0.005 A 
ATOM      9  C   UNL A   1      33.514  26.891  25.824  1.00  0.00     0.014 A 
ATOM     10  C   UNL A   1      31.564  27.613  27.002  1.00  0.00     0.014 A 
BRANCH   6  11
ATOM     11  C   UNL A   1      30.861  24.194  25.385  1.00  0.00     0.189 C 
BRANCH  11  12
ATOM     12  S   UNL A   1      30.877  22.858  26.596  1.00  0.00     0.215 S 
ATOM     13  O   UNL A   1      29.535  22.688  27.103  1.00  0.00    -0.212 OA
ATOM     14  O   UNL A   1      31.987  23.046  27.508  1.00  0.00    -0.212 OA
BRANCH  12  15
ATOM     15  N   UNL A   1      31.238  21.446  25.751  1.00  0.00    -0.214 NA
ATOM     16  H   UNL A   1      31.537  20.755  26.439  1.00  0.00     0.141 HD
BRANCH  15  17
ATOM     17  C   UNL A   1      32.268  21.484  24.699  1.00  0.00     0.110 C 
BRANCH  17  18
ATOM     18  C   UNL A   1      33.218  20.281  24.796  1.00  0.00     0.028 C 
ATOM     19  C   UNL A   1      34.695  20.618  24.632  1.00  0.00     0.018 C 
ATOM     20  C   UNL A   1      32.751  19.109  23.910  1.00  0.00     0.170 C 
ATOM     21  C   UNL A   1      32.903  19.312  25.951  1.00  0.00     0.170 C 
ATOM     22  O   UNL A   1      32.153  18.450  25.057  1.00  0.00    -0.380 OA
ENDBRANCH  17  18
ENDBRANCH  15  17
ENDBRANCH  12  15
ENDBRANCH  11  12
ENDBRANCH   6  11
ENDBRANCH   1   5
BRANCH   3  23
ATOM     23  C   UNL A   1      31.695  30.794  26.385  1.00  0.00     0.118 C 
BRANCH  23  24
ATOM     24  C   UNL A   1      31.475  32.277  26.694  1.00  0.00     0.042 C 
BRANCH  24  25
ATOM     25  C   UNL A   1      32.773  33.019  26.981  1.00  0.00     0.118 C 
BRANCH  25  26
ATOM     26  N   UNL A   1      32.525  34.300  27.626  1.00  0.00    -0.352 N 
ATOM     27  C   UNL A   1      33.050  34.823  28.779  1.00  0.00     0.251 C 
ATOM     28  H   UNL A   1      31.881  34.881  27.161  1.00  0.00     0.163 HD
ATOM     29  O   UNL A   1      32.528  35.813  29.286  1.00  0.00    -0.269 OA
BRANCH  27  30
ATOM     30  C   UNL A   1      34.228  34.202  29.418  1.00  0.00     0.039 A 
ATOM     31  C   UNL A   1      34.029  33.342  30.501  1.00  0.00     0.014 A 
ATOM     32  C   UNL A   1      35.525  34.498  28.988  1.00  0.00     0.014 A 
ATOM     33  C   UNL A   1      35.125  32.742  31.121  1.00  0.00     0.010 A 
ATOM     34  C   UNL A   1      36.611  33.838  29.555  1.00  0.00     0.010 A 
ATOM     35  C   UNL A   1      36.424  32.960  30.633  1.00  0.00    -0.014 A 
BRANCH  35  36
ATOM     36  C   UNL A   1      37.595  32.283  31.242  1.00  0.00     0.031 A 
ATOM     37  C   UNL A   1      38.289  31.167  30.509  1.00  0.00     0.074 A 
ATOM     38  C   UNL A   1      38.002  32.642  32.476  1.00  0.00     0.049 A 
ATOM     39  N   UNL A   1      39.279  30.408  30.906  1.00  0.00    -0.248 NA
ATOM     40  C   UNL A   1      37.791  30.845  29.161  1.00  0.00     0.031 C 
ATOM     41  C   UNL A   1      37.388  33.686  33.299  1.00  0.00     0.029 A 
ATOM     42  N   UNL A   1      39.024  32.165  33.255  1.00  0.00    -0.354 N 
ATOM     43  C   UNL A   1      39.520  29.524  29.862  1.00  0.00     0.074 A 
ATOM     44  C   UNL A   1      38.534  29.796  28.840  1.00  0.00     0.031 C 
ATOM     45  C   UNL A   1      38.058  33.784  34.458  1.00  0.00     0.029 A 
ATOM     46  C   UNL A   1      39.118  32.782  34.481  1.00  0.00     0.049 A 
ATOM     47  H   UNL A   1      39.633  31.448  32.966  1.00  0.00     0.167 HD
ATOM     48  C   UNL A   1      40.494  28.589  29.753  1.00  0.00     0.037 A 
ATOM     49  C   UNL A   1      39.955  32.554  35.510  1.00  0.00     0.037 A 
ATOM     50  C   UNL A   1      41.482  28.330  30.768  1.00  0.00     0.049 A 
ATOM     51  C   UNL A   1      41.000  31.478  35.375  1.00  0.00     0.074 A 
ATOM     52  C   UNL A   1      42.526  27.423  30.742  1.00  0.00     0.029 A 
ATOM     53  N   UNL A   1      41.548  28.982  31.991  1.00  0.00    -0.354 N 
ATOM     54  N   UNL A   1      41.251  30.689  34.358  1.00  0.00    -0.248 NA
ATOM     55  C   UNL A   1      41.886  31.268  36.529  1.00  0.00     0.031 C 
ATOM     56  C   UNL A   1      43.197  27.493  31.966  1.00  0.00     0.029 A 
ATOM     57  C   UNL A   1      42.606  28.484  32.732  1.00  0.00     0.049 A 
ATOM     58  H   UNL A   1      40.934  29.692  32.287  1.00  0.00     0.167 HD
ATOM     59  C   UNL A   1      42.344  29.919  34.736  1.00  0.00     0.074 A 
ATOM     60  C   UNL A   1      42.718  30.348  36.067  1.00  0.00     0.031 C 
ATOM     61  C   UNL A   1      42.980  28.941  34.047  1.00  0.00     0.037 A 
BRANCH  48  62
ATOM     62  C   UNL A   1      40.555  27.785  28.487  1.00  0.00     0.057 A 
ATOM     63  C   UNL A   1      41.313  28.206  27.387  1.00  0.00     0.134 A 
ATOM     64  C   UNL A   1      39.908  26.547  28.389  1.00  0.00     0.134 A 
ATOM     65  F   UNL A   1      41.947  29.388  27.411  1.00  0.00    -0.206 F 
ATOM     66  C   UNL A   1      41.413  27.433  26.229  1.00  0.00     0.040 A 
ATOM     67  C   UNL A   1      40.024  25.751  27.247  1.00  0.00     0.040 A 
ATOM     68  F   UNL A   1      39.171  26.080  29.408  1.00  0.00    -0.206 F 
ATOM     69  C   UNL A   1      40.776  26.195  26.162  1.00  0.00     0.006 A 
ENDBRANCH  48  62
BRANCH  49  70
ATOM     70  C   UNL A   1      39.850  33.347  36.762  1.00  0.00     0.057 A 
ATOM     71  C   UNL A   1      38.935  33.001  37.765  1.00  0.00     0.134 A 
ATOM     72  C   UNL A   1      40.620  34.499  36.965  1.00  0.00     0.134 A 
ATOM     73  F   UNL A   1      38.158  31.918  37.624  1.00  0.00    -0.206 F 
ATOM     74  C   UNL A   1      38.757  33.795  38.900  1.00  0.00     0.040 A 
ATOM     75  C   UNL A   1      40.475  35.284  38.111  1.00  0.00     0.040 A 
ATOM     76  F   UNL A   1      41.524  34.881  36.052  1.00  0.00    -0.206 F 
ATOM     77  C   UNL A   1      39.530  34.940  39.075  1.00  0.00     0.006 A 
ENDBRANCH  49  70
BRANCH  61  78
ATOM     78  C   UNL A   1      44.179  28.310  34.692  1.00  0.00     0.057 A 
ATOM     79  C   UNL A   1      45.468  28.838  34.544  1.00  0.00     0.134 A 
ATOM     80  C   UNL A   1      44.033  27.178  35.505  1.00  0.00     0.134 A 
ATOM     81  F   UNL A   1      45.678  29.912  33.769  1.00  0.00    -0.206 F 
ATOM     82  C   UNL A   1      46.573  28.244  35.155  1.00  0.00     0.040 A 
ATOM     83  C   UNL A   1      45.125  26.595  36.148  1.00  0.00     0.040 A 
ATOM     84  F   UNL A   1      42.825  26.629  35.699  1.00  0.00    -0.206 F 
ATOM     85  C   UNL A   1      46.401  27.124  35.967  1.00  0.00     0.006 A 
ENDBRANCH  61  78
ENDBRANCH  35  36
ENDBRANCH  27  30
ENDBRANCH  25  26
ENDBRANCH  24  25
ENDBRANCH  23  24
ENDBRANCH   3  23
TORSDOF 15
ENDMDL
