MODEL 1
REMARK VINA RESULT:      -9.3      0.000      0.000
REMARK SMILES O=C(C[C@H]([NH2+]Cc1ccccc1C1CC1)c1cccs1)NCCCNC(=O)c1ccc(-c2c3nc(c(-c4c(F)cccc4F)c4ccc([nH]4)c(-c4c(F)cccc4F)c4nc(c(-c5c(F)cccc5F)c5ccc2[nH]5)C=C4)C=C3)cc1
REMARK SMILES IDX 1 1 2 2 21 3 3 5 4 6 16 7 17 8 20 9 18 10 19 11 5 12 6 15
REMARK SMILES IDX 7 16 8 17 12 18 9 19 11 20 10 21 13 22 14 23 15 24 22 25
REMARK SMILES IDX 23 26 24 27 25 28 26 29 27 31 28 32 29 33 81 34 30 35 80 36
REMARK SMILES IDX 31 37 32 38 33 39 74 40 34 41 79 42 73 43 75 44 35 45 78 46
REMARK SMILES IDX 72 47 71 48 36 50 62 51 45 52 61 53 46 54 49 55 60 56 76 57
REMARK SMILES IDX 47 58 48 59 59 61 77 62 50 63 37 64 38 65 43 66 39 67 40 68
REMARK SMILES IDX 42 69 44 70 41 71 63 72 64 73 69 74 65 75 66 76 68 77 70 78
REMARK SMILES IDX 67 79 51 80 52 81 57 82 53 83 54 84 56 85 58 86 55 87
REMARK H PARENT 21 4 5 13 5 14 25 30 75 49 49 60
REMARK Flexibility Score: inf
ROOT
ATOM      1  O   UNL A   1      36.364  34.795  32.972  1.00  0.00    -0.275 OA
ATOM      2  C   UNL A   1      35.761  34.601  34.025  1.00  0.00     0.226 C 
ATOM      3  N   UNL A   1      34.577  35.217  34.356  1.00  0.00    -0.356 N 
ATOM      4  H   UNL A   1      34.077  34.882  35.135  1.00  0.00     0.163 HD
ENDROOT
BRANCH   2   5
ATOM      5  C   UNL A   1      36.260  33.613  35.063  1.00  0.00     0.171 C 
BRANCH   5   6
ATOM      6  C   UNL A   1      37.785  33.429  35.027  1.00  0.00     0.233 C 
BRANCH   6   7
ATOM      7  C   UNL A   1      38.468  34.233  36.133  1.00  0.00     0.062 A 
ATOM      8  C   UNL A   1      39.243  35.374  35.975  1.00  0.00     0.021 A 
ATOM      9  S   UNL A   1      38.342  33.823  37.799  1.00  0.00    -0.143 S 
ATOM     10  C   UNL A   1      39.728  35.898  37.210  1.00  0.00     0.012 A 
ATOM     11  C   UNL A   1      39.321  35.139  38.281  1.00  0.00     0.065 A 
ENDBRANCH   6   7
BRANCH   6  12
ATOM     12  N   UNL A   1      38.037  31.980  35.057  1.00  0.00    -0.335 N 
ATOM     13  H   UNL A   1      37.226  31.513  34.652  1.00  0.00     0.347 HD
ATOM     14  H   UNL A   1      38.202  31.746  36.036  1.00  0.00     0.347 HD
BRANCH  12  15
ATOM     15  C   UNL A   1      39.216  31.534  34.336  1.00  0.00     0.298 C 
BRANCH  15  16
ATOM     16  C   UNL A   1      38.904  30.299  33.515  1.00  0.00     0.010 A 
ATOM     17  C   UNL A   1      37.573  30.189  33.036  1.00  0.00     0.010 A 
ATOM     18  C   UNL A   1      39.845  29.279  33.223  1.00  0.00    -0.036 A 
ATOM     19  C   UNL A   1      37.157  29.108  32.264  1.00  0.00     0.001 A 
ATOM     20  C   UNL A   1      39.368  28.196  32.439  1.00  0.00     0.004 A 
ATOM     21  C   UNL A   1      38.058  28.103  31.968  1.00  0.00     0.000 A 
BRANCH  18  22
ATOM     22  C   UNL A   1      41.316  29.184  33.624  1.00  0.00     0.020 C 
ATOM     23  C   UNL A   1      41.659  28.842  35.057  1.00  0.00     0.009 C 
ATOM     24  C   UNL A   1      42.145  27.973  33.936  1.00  0.00     0.009 C 
ENDBRANCH  18  22
ENDBRANCH  15  16
ENDBRANCH  12  15
ENDBRANCH   6  12
ENDBRANCH   5   6
ENDBRANCH   2   5
BRANCH   3  25
ATOM     25  C   UNL A   1      34.031  36.332  33.617  1.00  0.00     0.117 C 
BRANCH  25  26
ATOM     26  C   UNL A   1      33.124  35.884  32.481  1.00  0.00     0.042 C 
BRANCH  26  27
ATOM     27  C   UNL A   1      33.615  36.263  31.089  1.00  0.00     0.118 C 
BRANCH  27  28
ATOM     28  N   UNL A   1      32.890  35.597  30.014  1.00  0.00    -0.352 N 
ATOM     29  C   UNL A   1      33.278  34.576  29.192  1.00  0.00     0.251 C 
ATOM     30  H   UNL A   1      31.979  35.936  29.856  1.00  0.00     0.163 HD
ATOM     31  O   UNL A   1      32.546  34.241  28.247  1.00  0.00    -0.269 OA
BRANCH  29  32
ATOM     32  C   UNL A   1      34.567  33.877  29.384  1.00  0.00     0.039 A 
ATOM     33  C   UNL A   1      35.624  34.167  28.516  1.00  0.00     0.014 A 
ATOM     34  C   UNL A   1      34.742  32.922  30.389  1.00  0.00     0.014 A 
ATOM     35  C   UNL A   1      36.864  33.548  28.693  1.00  0.00     0.010 A 
ATOM     36  C   UNL A   1      35.999  32.363  30.615  1.00  0.00     0.010 A 
ATOM     37  C   UNL A   1      37.075  32.666  29.765  1.00  0.00    -0.014 A 
BRANCH  37  38
ATOM     38  C   UNL A   1      38.414  32.068  30.007  1.00  0.00     0.031 A 
ATOM     39  C   UNL A   1      39.453  32.807  30.807  1.00  0.00     0.074 A 
ATOM     40  C   UNL A   1      38.712  30.868  29.471  1.00  0.00     0.049 A 
ATOM     41  N   UNL A   1      40.673  32.442  31.116  1.00  0.00    -0.248 NA
ATOM     42  C   UNL A   1      39.084  34.142  31.306  1.00  0.00     0.031 C 
ATOM     43  C   UNL A   1      37.816  30.073  28.628  1.00  0.00     0.029 A 
ATOM     44  N   UNL A   1      39.851  30.107  29.555  1.00  0.00    -0.354 N 
ATOM     45  C   UNL A   1      41.215  33.498  31.836  1.00  0.00     0.074 A 
ATOM     46  C   UNL A   1      40.214  34.544  31.868  1.00  0.00     0.031 C 
ATOM     47  C   UNL A   1      38.426  28.924  28.301  1.00  0.00     0.029 A 
ATOM     48  C   UNL A   1      39.765  28.913  28.881  1.00  0.00     0.049 A 
ATOM     49  H   UNL A   1      40.652  30.389  30.052  1.00  0.00     0.167 HD
ATOM     50  C   UNL A   1      42.426  33.583  32.439  1.00  0.00     0.037 A 
ATOM     51  C   UNL A   1      40.663  27.918  28.746  1.00  0.00     0.037 A 
ATOM     52  C   UNL A   1      43.415  32.536  32.424  1.00  0.00     0.049 A 
ATOM     53  C   UNL A   1      42.000  28.036  29.425  1.00  0.00     0.074 A 
ATOM     54  C   UNL A   1      44.648  32.505  33.052  1.00  0.00     0.029 A 
ATOM     55  N   UNL A   1      43.287  31.337  31.739  1.00  0.00    -0.354 N 
ATOM     56  N   UNL A   1      42.468  29.009  30.167  1.00  0.00    -0.248 NA
ATOM     57  C   UNL A   1      42.928  26.909  29.255  1.00  0.00     0.031 C 
ATOM     58  C   UNL A   1      45.285  31.308  32.711  1.00  0.00     0.029 A 
ATOM     59  C   UNL A   1      44.428  30.569  31.912  1.00  0.00     0.049 A 
ATOM     60  H   UNL A   1      42.502  31.070  31.207  1.00  0.00     0.167 HD
ATOM     61  C   UNL A   1      43.731  28.601  30.578  1.00  0.00     0.074 A 
ATOM     62  C   UNL A   1      43.948  27.284  30.015  1.00  0.00     0.031 C 
ATOM     63  C   UNL A   1      44.631  29.258  31.350  1.00  0.00     0.037 A 
BRANCH  50  64
ATOM     64  C   UNL A   1      42.747  34.853  33.176  1.00  0.00     0.057 A 
ATOM     65  C   UNL A   1      43.235  35.988  32.515  1.00  0.00     0.134 A 
ATOM     66  C   UNL A   1      42.530  34.954  34.556  1.00  0.00     0.134 A 
ATOM     67  F   UNL A   1      43.476  35.956  31.195  1.00  0.00    -0.206 F 
ATOM     68  C   UNL A   1      43.522  37.168  33.203  1.00  0.00     0.040 A 
ATOM     69  C   UNL A   1      42.786  36.139  35.250  1.00  0.00     0.040 A 
ATOM     70  F   UNL A   1      42.057  33.909  35.251  1.00  0.00    -0.206 F 
ATOM     71  C   UNL A   1      43.290  37.248  34.575  1.00  0.00     0.006 A 
ENDBRANCH  50  64
BRANCH  51  72
ATOM     72  C   UNL A   1      40.320  26.707  27.958  1.00  0.00     0.057 A 
ATOM     73  C   UNL A   1      40.812  26.526  26.660  1.00  0.00     0.134 A 
ATOM     74  C   UNL A   1      39.487  25.709  28.477  1.00  0.00     0.134 A 
ATOM     75  F   UNL A   1      41.600  27.455  26.101  1.00  0.00    -0.206 F 
ATOM     76  C   UNL A   1      40.469  25.409  25.896  1.00  0.00     0.040 A 
ATOM     77  C   UNL A   1      39.157  24.573  27.735  1.00  0.00     0.040 A 
ATOM     78  F   UNL A   1      38.989  25.819  29.717  1.00  0.00    -0.206 F 
ATOM     79  C   UNL A   1      39.643  24.425  26.437  1.00  0.00     0.006 A 
ENDBRANCH  51  72
BRANCH  63  80
ATOM     80  C   UNL A   1      45.916  28.546  31.661  1.00  0.00     0.057 A 
ATOM     81  C   UNL A   1      47.034  28.630  30.822  1.00  0.00     0.134 A 
ATOM     82  C   UNL A   1      46.041  27.780  32.828  1.00  0.00     0.134 A 
ATOM     83  F   UNL A   1      46.977  29.337  29.683  1.00  0.00    -0.206 F 
ATOM     84  C   UNL A   1      48.219  27.954  31.115  1.00  0.00     0.040 A 
ATOM     85  C   UNL A   1      47.230  27.123  33.147  1.00  0.00     0.040 A 
ATOM     86  F   UNL A   1      45.012  27.663  33.681  1.00  0.00    -0.206 F 
ATOM     87  C   UNL A   1      48.321  27.202  32.284  1.00  0.00     0.006 A 
ENDBRANCH  63  80
ENDBRANCH  37  38
ENDBRANCH  29  32
ENDBRANCH  27  28
ENDBRANCH  26  27
ENDBRANCH  25  26
ENDBRANCH   3  25
TORSDOF 16
ENDMDL
MODEL 2
REMARK VINA RESULT:      -8.0      5.619     11.403
REMARK SMILES O=C(C[C@H]([NH2+]Cc1ccccc1C1CC1)c1cccs1)NCCCNC(=O)c1ccc(-c2c3nc(c(-c4c(F)cccc4F)c4ccc([nH]4)c(-c4c(F)cccc4F)c4nc(c(-c5c(F)cccc5F)c5ccc2[nH]5)C=C4)C=C3)cc1
REMARK SMILES IDX 1 1 2 2 21 3 3 5 4 6 16 7 17 8 20 9 18 10 19 11 5 12 6 15
REMARK SMILES IDX 7 16 8 17 12 18 9 19 11 20 10 21 13 22 14 23 15 24 22 25
REMARK SMILES IDX 23 26 24 27 25 28 26 29 27 31 28 32 29 33 81 34 30 35 80 36
REMARK SMILES IDX 31 37 32 38 33 39 74 40 34 41 79 42 73 43 75 44 35 45 78 46
REMARK SMILES IDX 72 47 71 48 36 50 62 51 45 52 61 53 46 54 49 55 60 56 76 57
REMARK SMILES IDX 47 58 48 59 59 61 77 62 50 63 37 64 38 65 43 66 39 67 40 68
REMARK SMILES IDX 42 69 44 70 41 71 63 72 64 73 69 74 65 75 66 76 68 77 70 78
REMARK SMILES IDX 67 79 51 80 52 81 57 82 53 83 54 84 56 85 58 86 55 87
REMARK H PARENT 21 4 5 13 5 14 25 30 75 49 49 60
REMARK Flexibility Score: inf
ROOT
ATOM      1  O   UNL A   1      37.632  24.236  26.098  1.00  0.00    -0.275 OA
ATOM      2  C   UNL A   1      36.917  23.249  25.942  1.00  0.00     0.226 C 
ATOM      3  N   UNL A   1      37.393  21.960  25.873  1.00  0.00    -0.356 N 
ATOM      4  H   UNL A   1      36.747  21.219  25.918  1.00  0.00     0.163 HD
ENDROOT
BRANCH   2   5
ATOM      5  C   UNL A   1      35.406  23.359  25.848  1.00  0.00     0.171 C 
BRANCH   5   6
ATOM      6  C   UNL A   1      34.912  23.556  24.406  1.00  0.00     0.233 C 
BRANCH   6   7
ATOM      7  C   UNL A   1      33.905  22.477  24.011  1.00  0.00     0.062 A 
ATOM      8  C   UNL A   1      32.913  22.579  23.045  1.00  0.00     0.021 A 
ATOM      9  S   UNL A   1      33.881  20.914  24.728  1.00  0.00    -0.143 S 
ATOM     10  C   UNL A   1      32.143  21.386  22.904  1.00  0.00     0.012 A 
ATOM     11  C   UNL A   1      32.559  20.405  23.773  1.00  0.00     0.065 A 
ENDBRANCH   6   7
BRANCH   6  12
ATOM     12  N   UNL A   1      34.421  24.939  24.313  1.00  0.00    -0.335 N 
ATOM     13  H   UNL A   1      33.815  25.002  23.495  1.00  0.00     0.347 HD
ATOM     14  H   UNL A   1      35.252  25.527  24.256  1.00  0.00     0.347 HD
BRANCH  12  15
ATOM     15  C   UNL A   1      33.673  25.417  25.462  1.00  0.00     0.298 C 
BRANCH  15  16
ATOM     16  C   UNL A   1      32.288  25.872  25.046  1.00  0.00     0.010 A 
ATOM     17  C   UNL A   1      32.237  26.921  24.092  1.00  0.00     0.010 A 
ATOM     18  C   UNL A   1      31.084  25.322  25.554  1.00  0.00    -0.036 A 
ATOM     19  C   UNL A   1      31.030  27.427  23.620  1.00  0.00     0.001 A 
ATOM     20  C   UNL A   1      29.880  25.878  25.045  1.00  0.00     0.004 A 
ATOM     21  C   UNL A   1      29.845  26.906  24.102  1.00  0.00     0.000 A 
BRANCH  18  22
ATOM     22  C   UNL A   1      30.893  24.199  26.571  1.00  0.00     0.020 C 
ATOM     23  C   UNL A   1      30.723  22.783  26.068  1.00  0.00     0.009 C 
ATOM     24  C   UNL A   1      31.849  23.124  26.997  1.00  0.00     0.009 C 
ENDBRANCH  18  22
ENDBRANCH  15  16
ENDBRANCH  12  15
ENDBRANCH   6  12
ENDBRANCH   5   6
ENDBRANCH   2   5
BRANCH   3  25
ATOM     25  C   UNL A   1      38.796  21.640  25.739  1.00  0.00     0.117 C 
BRANCH  25  26
ATOM     26  C   UNL A   1      39.022  20.190  25.341  1.00  0.00     0.042 C 
BRANCH  26  27
ATOM     27  C   UNL A   1      39.850  19.381  26.333  1.00  0.00     0.118 C 
BRANCH  27  28
ATOM     28  N   UNL A   1      41.155  18.988  25.817  1.00  0.00    -0.352 N 
ATOM     29  C   UNL A   1      42.318  19.703  25.725  1.00  0.00     0.251 C 
ATOM     30  H   UNL A   1      41.209  18.063  25.482  1.00  0.00     0.163 HD
ATOM     31  O   UNL A   1      43.289  19.215  25.128  1.00  0.00    -0.269 OA
BRANCH  29  32
ATOM     32  C   UNL A   1      42.434  21.062  26.297  1.00  0.00     0.039 A 
ATOM     33  C   UNL A   1      42.290  21.223  27.679  1.00  0.00     0.014 A 
ATOM     34  C   UNL A   1      42.655  22.181  25.491  1.00  0.00     0.014 A 
ATOM     35  C   UNL A   1      42.428  22.489  28.253  1.00  0.00     0.010 A 
ATOM     36  C   UNL A   1      42.871  23.432  26.070  1.00  0.00     0.010 A 
ATOM     37  C   UNL A   1      42.754  23.601  27.459  1.00  0.00    -0.014 A 
BRANCH  37  38
ATOM     38  C   UNL A   1      42.983  24.935  28.074  1.00  0.00     0.031 A 
ATOM     39  C   UNL A   1      44.354  25.341  28.543  1.00  0.00     0.074 A 
ATOM     40  C   UNL A   1      41.941  25.773  28.248  1.00  0.00     0.049 A 
ATOM     41  N   UNL A   1      44.738  26.461  29.103  1.00  0.00    -0.248 NA
ATOM     42  C   UNL A   1      45.431  24.351  28.384  1.00  0.00     0.031 C 
ATOM     43  C   UNL A   1      40.552  25.480  27.890  1.00  0.00     0.029 A 
ATOM     44  N   UNL A   1      41.890  27.041  28.768  1.00  0.00    -0.354 N 
ATOM     45  C   UNL A   1      46.093  26.308  29.368  1.00  0.00     0.074 A 
ATOM     46  C   UNL A   1      46.452  24.966  28.962  1.00  0.00     0.031 C 
ATOM     47  C   UNL A   1      39.791  26.550  28.171  1.00  0.00     0.029 A 
ATOM     48  C   UNL A   1      40.630  27.590  28.757  1.00  0.00     0.049 A 
ATOM     49  H   UNL A   1      42.680  27.514  29.116  1.00  0.00     0.167 HD
ATOM     50  C   UNL A   1      46.966  27.210  29.879  1.00  0.00     0.037 A 
ATOM     51  C   UNL A   1      40.197  28.796  29.171  1.00  0.00     0.037 A 
ATOM     52  C   UNL A   1      46.613  28.552  30.266  1.00  0.00     0.049 A 
ATOM     53  C   UNL A   1      41.186  29.780  29.734  1.00  0.00     0.074 A 
ATOM     54  C   UNL A   1      47.437  29.559  30.739  1.00  0.00     0.029 A 
ATOM     55  N   UNL A   1      45.328  29.074  30.229  1.00  0.00    -0.354 N 
ATOM     56  N   UNL A   1      42.478  29.648  29.905  1.00  0.00    -0.248 NA
ATOM     57  C   UNL A   1      40.654  31.085  30.149  1.00  0.00     0.031 C 
ATOM     58  C   UNL A   1      46.645  30.673  31.033  1.00  0.00     0.029 A 
ATOM     59  C   UNL A   1      45.335  30.380  30.693  1.00  0.00     0.049 A 
ATOM     60  H   UNL A   1      44.529  28.588  29.920  1.00  0.00     0.167 HD
ATOM     61  C   UNL A   1      42.920  30.861  30.419  1.00  0.00     0.074 A 
ATOM     62  C   UNL A   1      41.758  31.721  30.515  1.00  0.00     0.031 C 
ATOM     63  C   UNL A   1      44.173  31.229  30.781  1.00  0.00     0.037 A 
BRANCH  50  64
ATOM     64  C   UNL A   1      48.396  26.777  30.042  1.00  0.00     0.057 A 
ATOM     65  C   UNL A   1      48.840  26.113  31.193  1.00  0.00     0.134 A 
ATOM     66  C   UNL A   1      49.330  26.993  29.021  1.00  0.00     0.134 A 
ATOM     67  F   UNL A   1      48.000  25.884  32.213  1.00  0.00    -0.206 F 
ATOM     68  C   UNL A   1      50.167  25.703  31.334  1.00  0.00     0.040 A 
ATOM     69  C   UNL A   1      50.653  26.562  29.139  1.00  0.00     0.040 A 
ATOM     70  F   UNL A   1      48.972  27.616  27.888  1.00  0.00    -0.206 F 
ATOM     71  C   UNL A   1      51.077  25.921  30.301  1.00  0.00     0.006 A 
ENDBRANCH  50  64
BRANCH  51  72
ATOM     72  C   UNL A   1      38.761  29.157  29.042  1.00  0.00     0.057 A 
ATOM     73  C   UNL A   1      37.892  29.059  30.134  1.00  0.00     0.134 A 
ATOM     74  C   UNL A   1      38.224  29.597  27.827  1.00  0.00     0.134 A 
ATOM     75  F   UNL A   1      38.343  28.627  31.321  1.00  0.00    -0.206 F 
ATOM     76  C   UNL A   1      36.534  29.362  30.018  1.00  0.00     0.040 A 
ATOM     77  C   UNL A   1      36.874  29.929  27.702  1.00  0.00     0.040 A 
ATOM     78  F   UNL A   1      39.007  29.719  26.745  1.00  0.00    -0.206 F 
ATOM     79  C   UNL A   1      36.023  29.804  28.799  1.00  0.00     0.006 A 
ENDBRANCH  51  72
BRANCH  63  80
ATOM     80  C   UNL A   1      44.359  32.633  31.278  1.00  0.00     0.057 A 
ATOM     81  C   UNL A   1      44.286  32.955  32.639  1.00  0.00     0.134 A 
ATOM     82  C   UNL A   1      44.633  33.675  30.382  1.00  0.00     0.134 A 
ATOM     83  F   UNL A   1      44.013  32.007  33.549  1.00  0.00    -0.206 F 
ATOM     84  C   UNL A   1      44.448  34.267  33.089  1.00  0.00     0.040 A 
ATOM     85  C   UNL A   1      44.827  34.985  30.822  1.00  0.00     0.040 A 
ATOM     86  F   UNL A   1      44.726  33.436  29.065  1.00  0.00    -0.206 F 
ATOM     87  C   UNL A   1      44.725  35.286  32.179  1.00  0.00     0.006 A 
ENDBRANCH  63  80
ENDBRANCH  37  38
ENDBRANCH  29  32
ENDBRANCH  27  28
ENDBRANCH  26  27
ENDBRANCH  25  26
ENDBRANCH   3  25
TORSDOF 16
ENDMDL
MODEL 3
REMARK VINA RESULT:      -8.0      4.046      7.413
REMARK SMILES O=C(C[C@H]([NH2+]Cc1ccccc1C1CC1)c1cccs1)NCCCNC(=O)c1ccc(-c2c3nc(c(-c4c(F)cccc4F)c4ccc([nH]4)c(-c4c(F)cccc4F)c4nc(c(-c5c(F)cccc5F)c5ccc2[nH]5)C=C4)C=C3)cc1
REMARK SMILES IDX 1 1 2 2 21 3 3 5 4 6 16 7 17 8 20 9 18 10 19 11 5 12 6 15
REMARK SMILES IDX 7 16 8 17 12 18 9 19 11 20 10 21 13 22 14 23 15 24 22 25
REMARK SMILES IDX 23 26 24 27 25 28 26 29 27 31 28 32 29 33 81 34 30 35 80 36
REMARK SMILES IDX 31 37 32 38 33 39 74 40 34 41 79 42 73 43 75 44 35 45 78 46
REMARK SMILES IDX 72 47 71 48 36 50 62 51 45 52 61 53 46 54 49 55 60 56 76 57
REMARK SMILES IDX 47 58 48 59 59 61 77 62 50 63 37 64 38 65 43 66 39 67 40 68
REMARK SMILES IDX 42 69 44 70 41 71 63 72 64 73 69 74 65 75 66 76 68 77 70 78
REMARK SMILES IDX 67 79 51 80 52 81 57 82 53 83 54 84 56 85 58 86 55 87
REMARK H PARENT 21 4 5 13 5 14 25 30 75 49 49 60
REMARK Flexibility Score: inf
ROOT
ATOM      1  O   UNL A   1      34.375  29.177  27.168  1.00  0.00    -0.275 OA
ATOM      2  C   UNL A   1      33.633  29.020  26.202  1.00  0.00     0.226 C 
ATOM      3  N   UNL A   1      32.417  29.648  26.059  1.00  0.00    -0.356 N 
ATOM      4  H   UNL A   1      31.966  29.600  25.185  1.00  0.00     0.163 HD
ENDROOT
BRANCH   2   5
ATOM      5  C   UNL A   1      34.013  28.128  25.035  1.00  0.00     0.171 C 
BRANCH   5   6
ATOM      6  C   UNL A   1      33.190  26.831  24.982  1.00  0.00     0.233 C 
BRANCH   6   7
ATOM      7  C   UNL A   1      32.767  26.498  23.552  1.00  0.00     0.062 A 
ATOM      8  C   UNL A   1      33.592  26.085  22.515  1.00  0.00     0.021 A 
ATOM      9  S   UNL A   1      31.133  26.573  23.020  1.00  0.00    -0.143 S 
ATOM     10  C   UNL A   1      32.886  25.839  21.300  1.00  0.00     0.012 A 
ATOM     11  C   UNL A   1      31.540  26.080  21.435  1.00  0.00     0.065 A 
ENDBRANCH   6   7
BRANCH   6  12
ATOM     12  N   UNL A   1      33.987  25.797  25.658  1.00  0.00    -0.335 N 
ATOM     13  H   UNL A   1      34.028  26.030  26.650  1.00  0.00     0.347 HD
ATOM     14  H   UNL A   1      34.897  25.800  25.197  1.00  0.00     0.347 HD
BRANCH  12  15
ATOM     15  C   UNL A   1      33.485  24.439  25.538  1.00  0.00     0.298 C 
BRANCH  15  16
ATOM     16  C   UNL A   1      34.611  23.482  25.203  1.00  0.00     0.010 A 
ATOM     17  C   UNL A   1      35.919  24.030  25.213  1.00  0.00     0.010 A 
ATOM     18  C   UNL A   1      34.422  22.113  24.881  1.00  0.00    -0.036 A 
ATOM     19  C   UNL A   1      37.043  23.258  24.930  1.00  0.00     0.001 A 
ATOM     20  C   UNL A   1      35.599  21.372  24.595  1.00  0.00     0.004 A 
ATOM     21  C   UNL A   1      36.882  21.923  24.615  1.00  0.00     0.000 A 
BRANCH  18  22
ATOM     22  C   UNL A   1      33.125  21.312  24.812  1.00  0.00     0.020 C 
ATOM     23  C   UNL A   1      32.297  21.375  23.547  1.00  0.00     0.009 C 
ATOM     24  C   UNL A   1      32.815  20.060  24.045  1.00  0.00     0.009 C 
ENDBRANCH  18  22
ENDBRANCH  15  16
ENDBRANCH  12  15
ENDBRANCH   6  12
ENDBRANCH   5   6
ENDBRANCH   2   5
BRANCH   3  25
ATOM     25  C   UNL A   1      31.771  30.375  27.127  1.00  0.00     0.117 C 
BRANCH  25  26
ATOM     26  C   UNL A   1      31.513  31.828  26.763  1.00  0.00     0.042 C 
BRANCH  26  27
ATOM     27  C   UNL A   1      32.724  32.744  26.905  1.00  0.00     0.118 C 
BRANCH  27  28
ATOM     28  N   UNL A   1      32.451  33.958  27.662  1.00  0.00    -0.352 N 
ATOM     29  C   UNL A   1      33.149  34.530  28.690  1.00  0.00     0.251 C 
ATOM     30  H   UNL A   1      31.636  34.442  27.393  1.00  0.00     0.163 HD
ATOM     31  O   UNL A   1      32.668  35.505  29.287  1.00  0.00    -0.269 OA
BRANCH  29  32
ATOM     32  C   UNL A   1      34.456  33.994  29.127  1.00  0.00     0.039 A 
ATOM     33  C   UNL A   1      34.492  33.118  30.217  1.00  0.00     0.014 A 
ATOM     34  C   UNL A   1      35.648  34.362  28.498  1.00  0.00     0.014 A 
ATOM     35  C   UNL A   1      35.707  32.569  30.632  1.00  0.00     0.010 A 
ATOM     36  C   UNL A   1      36.850  33.754  28.862  1.00  0.00     0.010 A 
ATOM     37  C   UNL A   1      36.894  32.854  29.937  1.00  0.00    -0.014 A 
BRANCH  37  38
ATOM     38  C   UNL A   1      38.177  32.208  30.324  1.00  0.00     0.031 A 
ATOM     39  C   UNL A   1      39.093  32.858  31.325  1.00  0.00     0.074 A 
ATOM     40  C   UNL A   1      38.538  31.048  29.741  1.00  0.00     0.049 A 
ATOM     41  N   UNL A   1      40.249  32.442  31.780  1.00  0.00    -0.248 NA
ATOM     42  C   UNL A   1      38.668  34.156  31.872  1.00  0.00     0.031 C 
ATOM     43  C   UNL A   1      37.769  30.343  28.713  1.00  0.00     0.029 A 
ATOM     44  N   UNL A   1      39.644  30.258  29.929  1.00  0.00    -0.354 N 
ATOM     45  C   UNL A   1      40.689  33.425  32.656  1.00  0.00     0.074 A 
ATOM     46  C   UNL A   1      39.706  34.487  32.625  1.00  0.00     0.031 C 
ATOM     47  C   UNL A   1      38.409  29.210  28.386  1.00  0.00     0.029 A 
ATOM     48  C   UNL A   1      39.647  29.123  29.154  1.00  0.00     0.049 A 
ATOM     49  H   UNL A   1      40.365  30.481  30.559  1.00  0.00     0.167 HD
ATOM     50  C   UNL A   1      41.798  33.435  33.434  1.00  0.00     0.037 A 
ATOM     51  C   UNL A   1      40.544  28.122  29.071  1.00  0.00     0.037 A 
ATOM     52  C   UNL A   1      42.768  32.370  33.480  1.00  0.00     0.049 A 
ATOM     53  C   UNL A   1      41.767  28.156  29.947  1.00  0.00     0.074 A 
ATOM     54  C   UNL A   1      43.893  32.262  34.278  1.00  0.00     0.029 A 
ATOM     55  N   UNL A   1      42.731  31.232  32.688  1.00  0.00    -0.354 N 
ATOM     56  N   UNL A   1      42.129  29.056  30.827  1.00  0.00    -0.248 NA
ATOM     57  C   UNL A   1      42.698  27.025  29.823  1.00  0.00     0.031 C 
ATOM     58  C   UNL A   1      44.562  31.081  33.937  1.00  0.00     0.029 A 
ATOM     59  C   UNL A   1      43.825  30.428  32.963  1.00  0.00     0.049 A 
ATOM     60  H   UNL A   1      42.030  31.027  32.026  1.00  0.00     0.167 HD
ATOM     61  C   UNL A   1      43.313  28.588  31.384  1.00  0.00     0.074 A 
ATOM     62  C   UNL A   1      43.597  27.315  30.754  1.00  0.00     0.031 C 
ATOM     63  C   UNL A   1      44.096  29.161  32.332  1.00  0.00     0.037 A 
BRANCH  50  64
ATOM     64  C   UNL A   1      42.020  34.634  34.312  1.00  0.00     0.057 A 
ATOM     65  C   UNL A   1      41.578  34.669  35.642  1.00  0.00     0.134 A 
ATOM     66  C   UNL A   1      42.716  35.753  33.835  1.00  0.00     0.134 A 
ATOM     67  F   UNL A   1      40.896  33.636  36.159  1.00  0.00    -0.206 F 
ATOM     68  C   UNL A   1      41.797  35.781  36.456  1.00  0.00     0.040 A 
ATOM     69  C   UNL A   1      42.965  36.859  34.650  1.00  0.00     0.040 A 
ATOM     70  F   UNL A   1      43.173  35.784  32.575  1.00  0.00    -0.206 F 
ATOM     71  C   UNL A   1      42.499  36.879  35.962  1.00  0.00     0.006 A 
ENDBRANCH  50  64
BRANCH  51  72
ATOM     72  C   UNL A   1      40.309  26.985  28.145  1.00  0.00     0.057 A 
ATOM     73  C   UNL A   1      39.513  25.898  28.524  1.00  0.00     0.134 A 
ATOM     74  C   UNL A   1      40.880  26.951  26.868  1.00  0.00     0.134 A 
ATOM     75  F   UNL A   1      38.953  25.864  29.743  1.00  0.00    -0.206 F 
ATOM     76  C   UNL A   1      39.312  24.807  27.678  1.00  0.00     0.040 A 
ATOM     77  C   UNL A   1      40.666  25.879  25.999  1.00  0.00     0.040 A 
ATOM     78  F   UNL A   1      41.646  27.966  26.442  1.00  0.00    -0.206 F 
ATOM     79  C   UNL A   1      39.886  24.799  26.407  1.00  0.00     0.006 A 
ENDBRANCH  51  72
BRANCH  63  80
ATOM     80  C   UNL A   1      45.313  28.398  32.769  1.00  0.00     0.057 A 
ATOM     81  C   UNL A   1      45.264  27.450  33.799  1.00  0.00     0.134 A 
ATOM     82  C   UNL A   1      46.546  28.602  32.137  1.00  0.00     0.134 A 
ATOM     83  F   UNL A   1      44.117  27.216  34.455  1.00  0.00    -0.206 F 
ATOM     84  C   UNL A   1      46.405  26.756  34.206  1.00  0.00     0.040 A 
ATOM     85  C   UNL A   1      47.687  27.892  32.513  1.00  0.00     0.040 A 
ATOM     86  F   UNL A   1      46.662  29.488  31.135  1.00  0.00    -0.206 F 
ATOM     87  C   UNL A   1      47.620  26.972  33.558  1.00  0.00     0.006 A 
ENDBRANCH  63  80
ENDBRANCH  37  38
ENDBRANCH  29  32
ENDBRANCH  27  28
ENDBRANCH  26  27
ENDBRANCH  25  26
ENDBRANCH   3  25
TORSDOF 16
ENDMDL
