MODEL 1
REMARK VINA RESULT:     -12.8      0.000      0.000
REMARK SMILES COc1cccc(N2C(=O)/C(=C/c3ccccc3C(=O)NCCCNC(=O)c3ccc(-c4c5nc(c(-c6c(F)cccc6F)c6ccc([nH]6)c(-c6c(F)cccc6F)c6nc(c(-c7c(F)cccc7F)c7ccc4[nH]7)C=C6)C=C5)cc3)SC2=S)c1
REMARK SMILES IDX 22 1 21 2 19 3 20 4 18 6 13 7 14 8 15 9 17 10 16 11 12 12
REMARK SMILES IDX 8 13 9 14 83 15 10 16 11 17 82 18 84 19 7 20 3 21 4 22 85 23
REMARK SMILES IDX 5 24 6 25 2 26 1 27 23 28 24 29 25 30 26 31 27 33 28 34
REMARK SMILES IDX 29 35 81 36 30 37 80 38 31 39 32 40 33 41 74 42 34 43 79 44
REMARK SMILES IDX 73 45 75 46 35 47 78 48 72 49 71 50 36 52 62 53 45 54 61 55
REMARK SMILES IDX 46 56 49 57 60 58 76 59 47 60 48 61 59 63 77 64 50 65 37 66
REMARK SMILES IDX 38 67 43 68 39 69 40 70 42 71 44 72 41 73 63 74 64 75 69 76
REMARK SMILES IDX 65 77 66 78 68 79 70 80 67 81 51 82 52 83 57 84 53 85 54 86
REMARK SMILES IDX 56 87 58 88 55 89
REMARK H PARENT 21 5 25 32 75 51 49 62
REMARK Flexibility Score: inf
ROOT
ATOM      1  C   UNL A   1      36.101  23.207  25.349  1.00  0.00     0.118 C 
ENDROOT
BRANCH   1   2
ATOM      2  N   UNL A   1      35.523  22.781  26.595  1.00  0.00    -0.352 N 
ATOM      3  C   UNL A   1      34.581  21.786  26.767  1.00  0.00     0.251 C 
ATOM      4  O   UNL A   1      34.266  21.464  27.911  1.00  0.00    -0.269 OA
ATOM      5  H   UNL A   1      35.827  23.247  27.407  1.00  0.00     0.163 HD
BRANCH   3   6
ATOM      6  C   UNL A   1      33.843  21.192  25.608  1.00  0.00     0.047 A 
ATOM      7  C   UNL A   1      32.702  21.715  24.954  1.00  0.00    -0.012 A 
ATOM      8  C   UNL A   1      32.034  20.888  24.027  1.00  0.00     0.009 A 
ATOM      9  C   UNL A   1      32.528  19.627  23.682  1.00  0.00     0.001 A 
ATOM     10  C   UNL A   1      34.360  19.944  25.205  1.00  0.00     0.014 A 
ATOM     11  C   UNL A   1      33.710  19.169  24.247  1.00  0.00     0.001 A 
BRANCH   7  12
ATOM     12  C   UNL A   1      32.043  23.016  25.206  1.00  0.00     0.030 C 
ATOM     13  N   UNL A   1      32.219  26.494  24.363  1.00  0.00    -0.261 N 
ATOM     14  C   UNL A   1      31.618  25.444  25.050  1.00  0.00     0.270 C 
ATOM     15  C   UNL A   1      32.911  26.153  23.209  1.00  0.00     0.152 C 
ATOM     16  O   UNL A   1      30.919  25.493  26.056  1.00  0.00    -0.268 OA
ATOM     17  C   UNL A   1      32.084  24.143  24.477  1.00  0.00     0.081 C 
ATOM     18  S   UNL A   1      32.861  24.406  22.978  1.00  0.00    -0.054 SA
ATOM     19  S   UNL A   1      33.653  27.144  22.086  1.00  0.00    -0.051 S 
BRANCH  13  20
ATOM     20  C   UNL A   1      32.166  27.826  24.874  1.00  0.00     0.054 A 
ATOM     21  C   UNL A   1      33.085  29.607  26.245  1.00  0.00     0.120 A 
ATOM     22  C   UNL A   1      32.022  30.435  25.874  1.00  0.00     0.046 A 
ATOM     23  C   UNL A   1      33.183  28.318  25.705  1.00  0.00     0.073 A 
ATOM     24  C   UNL A   1      31.032  29.974  25.009  1.00  0.00     0.006 A 
ATOM     25  C   UNL A   1      31.089  28.664  24.535  1.00  0.00     0.027 A 
BRANCH  21  26
ATOM     26  O   UNL A   1      33.940  30.172  27.151  1.00  0.00    -0.497 OA
ATOM     27  C   UNL A   1      33.616  31.471  27.625  1.00  0.00     0.278 C 
ENDBRANCH  21  26
ENDBRANCH  13  20
ENDBRANCH   7  12
ENDBRANCH   3   6
ENDBRANCH   1   2
BRANCH   1  28
ATOM     28  C   UNL A   1      37.241  22.388  24.784  1.00  0.00     0.042 C 
BRANCH  28  29
ATOM     29  C   UNL A   1      38.396  22.128  25.751  1.00  0.00     0.118 C 
BRANCH  29  30
ATOM     30  N   UNL A   1      38.880  20.749  25.750  1.00  0.00    -0.352 N 
ATOM     31  C   UNL A   1      40.087  20.161  26.021  1.00  0.00     0.251 C 
ATOM     32  H   UNL A   1      38.185  20.099  25.499  1.00  0.00     0.163 HD
ATOM     33  O   UNL A   1      40.215  18.969  25.752  1.00  0.00    -0.269 OA
BRANCH  31  34
ATOM     34  C   UNL A   1      41.260  20.905  26.504  1.00  0.00     0.039 A 
ATOM     35  C   UNL A   1      42.028  21.560  25.533  1.00  0.00     0.014 A 
ATOM     36  C   UNL A   1      41.518  21.111  27.853  1.00  0.00     0.014 A 
ATOM     37  C   UNL A   1      42.860  22.602  25.908  1.00  0.00     0.010 A 
ATOM     38  C   UNL A   1      42.227  22.240  28.222  1.00  0.00     0.010 A 
ATOM     39  C   UNL A   1      42.831  23.032  27.237  1.00  0.00    -0.014 A 
BRANCH  39  40
ATOM     40  C   UNL A   1      43.276  24.394  27.579  1.00  0.00     0.031 A 
ATOM     41  C   UNL A   1      42.273  25.432  27.952  1.00  0.00     0.074 A 
ATOM     42  C   UNL A   1      44.586  24.684  27.425  1.00  0.00     0.049 A 
ATOM     43  N   UNL A   1      42.464  26.695  28.215  1.00  0.00    -0.248 NA
ATOM     44  C   UNL A   1      40.863  25.008  27.998  1.00  0.00     0.031 C 
ATOM     45  C   UNL A   1      45.616  23.743  26.961  1.00  0.00     0.029 A 
ATOM     46  N   UNL A   1      45.281  25.845  27.629  1.00  0.00    -0.354 N 
ATOM     47  C   UNL A   1      41.202  27.220  28.442  1.00  0.00     0.074 A 
ATOM     48  C   UNL A   1      40.246  26.157  28.233  1.00  0.00     0.031 C 
ATOM     49  C   UNL A   1      46.810  24.353  26.954  1.00  0.00     0.029 A 
ATOM     50  C   UNL A   1      46.627  25.738  27.360  1.00  0.00     0.049 A 
ATOM     51  H   UNL A   1      44.860  26.678  27.940  1.00  0.00     0.167 HD
ATOM     52  C   UNL A   1      40.885  28.478  28.818  1.00  0.00     0.037 A 
ATOM     53  C   UNL A   1      47.599  26.666  27.425  1.00  0.00     0.037 A 
ATOM     54  C   UNL A   1      41.867  29.503  29.039  1.00  0.00     0.049 A 
ATOM     55  C   UNL A   1      47.213  28.049  27.868  1.00  0.00     0.074 A 
ATOM     56  C   UNL A   1      41.679  30.789  29.506  1.00  0.00     0.029 A 
ATOM     57  N   UNL A   1      43.227  29.355  28.797  1.00  0.00    -0.354 N 
ATOM     58  N   UNL A   1      46.028  28.505  28.199  1.00  0.00    -0.248 NA
ATOM     59  C   UNL A   1      48.288  29.043  27.949  1.00  0.00     0.031 C 
ATOM     60  C   UNL A   1      42.916  31.438  29.493  1.00  0.00     0.029 A 
ATOM     61  C   UNL A   1      43.886  30.541  29.069  1.00  0.00     0.049 A 
ATOM     62  H   UNL A   1      43.658  28.529  28.480  1.00  0.00     0.167 HD
ATOM     63  C   UNL A   1      46.215  29.835  28.540  1.00  0.00     0.074 A 
ATOM     64  C   UNL A   1      47.635  30.101  28.407  1.00  0.00     0.031 C 
ATOM     65  C   UNL A   1      45.301  30.761  28.920  1.00  0.00     0.037 A 
BRANCH  52  66
ATOM     66  C   UNL A   1      39.436  28.805  29.007  1.00  0.00     0.057 A 
ATOM     67  C   UNL A   1      38.792  28.632  30.241  1.00  0.00     0.134 A 
ATOM     68  C   UNL A   1      38.681  29.331  27.953  1.00  0.00     0.134 A 
ATOM     69  F   UNL A   1      39.453  28.111  31.286  1.00  0.00    -0.206 F 
ATOM     70  C   UNL A   1      37.447  28.959  30.413  1.00  0.00     0.040 A 
ATOM     71  C   UNL A   1      37.342  29.687  28.120  1.00  0.00     0.040 A 
ATOM     72  F   UNL A   1      39.234  29.516  26.745  1.00  0.00    -0.206 F 
ATOM     73  C   UNL A   1      36.720  29.497  29.354  1.00  0.00     0.006 A 
ENDBRANCH  52  66
BRANCH  53  74
ATOM     74  C   UNL A   1      49.001  26.329  27.062  1.00  0.00     0.057 A 
ATOM     75  C   UNL A   1      49.443  26.382  25.734  1.00  0.00     0.134 A 
ATOM     76  C   UNL A   1      49.930  25.922  28.029  1.00  0.00     0.134 A 
ATOM     77  F   UNL A   1      48.601  26.755  24.759  1.00  0.00    -0.206 F 
ATOM     78  C   UNL A   1      50.741  26.011  25.377  1.00  0.00     0.040 A 
ATOM     79  C   UNL A   1      51.240  25.577  27.690  1.00  0.00     0.040 A 
ATOM     80  F   UNL A   1      49.581  25.861  29.323  1.00  0.00    -0.206 F 
ATOM     81  C   UNL A   1      51.645  25.608  26.357  1.00  0.00     0.006 A 
ENDBRANCH  53  74
BRANCH  65  82
ATOM     82  C   UNL A   1      45.819  32.134  29.218  1.00  0.00     0.057 A 
ATOM     83  C   UNL A   1      46.298  32.478  30.488  1.00  0.00     0.134 A 
ATOM     84  C   UNL A   1      45.887  33.104  28.211  1.00  0.00     0.134 A 
ATOM     85  F   UNL A   1      46.245  31.596  31.497  1.00  0.00    -0.206 F 
ATOM     86  C   UNL A   1      46.811  33.748  30.751  1.00  0.00     0.040 A 
ATOM     87  C   UNL A   1      46.426  34.367  28.453  1.00  0.00     0.040 A 
ATOM     88  F   UNL A   1      45.452  32.831  26.971  1.00  0.00    -0.206 F 
ATOM     89  C   UNL A   1      46.884  34.692  29.727  1.00  0.00     0.006 A 
ENDBRANCH  65  82
ENDBRANCH  39  40
ENDBRANCH  31  34
ENDBRANCH  29  30
ENDBRANCH  28  29
ENDBRANCH   1  28
TORSDOF 13
ENDMDL
MODEL 2
REMARK VINA RESULT:     -12.5      4.355      9.681
REMARK SMILES COc1cccc(N2C(=O)/C(=C/c3ccccc3C(=O)NCCCNC(=O)c3ccc(-c4c5nc(c(-c6c(F)cccc6F)c6ccc([nH]6)c(-c6c(F)cccc6F)c6nc(c(-c7c(F)cccc7F)c7ccc4[nH]7)C=C6)C=C5)cc3)SC2=S)c1
REMARK SMILES IDX 22 1 21 2 19 3 20 4 18 6 13 7 14 8 15 9 17 10 16 11 12 12
REMARK SMILES IDX 8 13 9 14 83 15 10 16 11 17 82 18 84 19 7 20 3 21 4 22 85 23
REMARK SMILES IDX 5 24 6 25 2 26 1 27 23 28 24 29 25 30 26 31 27 33 28 34
REMARK SMILES IDX 29 35 81 36 30 37 80 38 31 39 32 40 33 41 74 42 34 43 79 44
REMARK SMILES IDX 73 45 75 46 35 47 78 48 72 49 71 50 36 52 62 53 45 54 61 55
REMARK SMILES IDX 46 56 49 57 60 58 76 59 47 60 48 61 59 63 77 64 50 65 37 66
REMARK SMILES IDX 38 67 43 68 39 69 40 70 42 71 44 72 41 73 63 74 64 75 69 76
REMARK SMILES IDX 65 77 66 78 68 79 70 80 67 81 51 82 52 83 57 84 53 85 54 86
REMARK SMILES IDX 56 87 58 88 55 89
REMARK H PARENT 21 5 25 32 75 51 49 62
REMARK Flexibility Score: inf
ROOT
ATOM      1  C   UNL A   1      33.078  27.910  26.673  1.00  0.00     0.118 C 
ENDROOT
BRANCH   1   2
ATOM      2  N   UNL A   1      33.876  28.064  25.487  1.00  0.00    -0.352 N 
ATOM      3  C   UNL A   1      33.414  28.346  24.216  1.00  0.00     0.251 C 
ATOM      4  O   UNL A   1      34.234  28.556  23.324  1.00  0.00    -0.269 OA
ATOM      5  H   UNL A   1      34.849  27.957  25.590  1.00  0.00     0.163 HD
BRANCH   3   6
ATOM      6  C   UNL A   1      31.959  28.266  23.872  1.00  0.00     0.047 A 
ATOM      7  C   UNL A   1      31.258  27.154  23.347  1.00  0.00    -0.012 A 
ATOM      8  C   UNL A   1      29.940  27.360  22.889  1.00  0.00     0.009 A 
ATOM      9  C   UNL A   1      29.300  28.594  23.033  1.00  0.00     0.001 A 
ATOM     10  C   UNL A   1      31.279  29.486  24.063  1.00  0.00     0.014 A 
ATOM     11  C   UNL A   1      29.958  29.648  23.651  1.00  0.00     0.001 A 
BRANCH   7  12
ATOM     12  C   UNL A   1      31.785  25.791  23.115  1.00  0.00     0.030 C 
ATOM     13  N   UNL A   1      33.093  22.926  24.825  1.00  0.00    -0.261 N 
ATOM     14  C   UNL A   1      32.730  23.571  23.647  1.00  0.00     0.270 C 
ATOM     15  C   UNL A   1      32.452  23.356  25.979  1.00  0.00     0.152 C 
ATOM     16  O   UNL A   1      33.112  23.343  22.505  1.00  0.00    -0.268 OA
ATOM     17  C   UNL A   1      31.883  24.762  23.972  1.00  0.00     0.081 C 
ATOM     18  S   UNL A   1      31.358  24.684  25.596  1.00  0.00    -0.054 SA
ATOM     19  S   UNL A   1      32.550  22.749  27.534  1.00  0.00    -0.051 S 
BRANCH  13  20
ATOM     20  C   UNL A   1      34.116  21.931  24.827  1.00  0.00     0.054 A 
ATOM     21  C   UNL A   1      36.461  21.303  24.876  1.00  0.00     0.120 A 
ATOM     22  C   UNL A   1      36.096  19.955  24.808  1.00  0.00     0.046 A 
ATOM     23  C   UNL A   1      35.467  22.288  24.935  1.00  0.00     0.073 A 
ATOM     24  C   UNL A   1      34.755  19.585  24.751  1.00  0.00     0.006 A 
ATOM     25  C   UNL A   1      33.769  20.571  24.731  1.00  0.00     0.027 A 
BRANCH  21  26
ATOM     26  O   UNL A   1      37.812  21.516  24.856  1.00  0.00    -0.497 OA
ATOM     27  C   UNL A   1      38.354  22.332  25.884  1.00  0.00     0.278 C 
ENDBRANCH  21  26
ENDBRANCH  13  20
ENDBRANCH   7  12
ENDBRANCH   3   6
ENDBRANCH   1   2
BRANCH   1  28
ATOM     28  C   UNL A   1      32.606  29.165  27.375  1.00  0.00     0.042 C 
BRANCH  28  29
ATOM     29  C   UNL A   1      33.537  30.370  27.244  1.00  0.00     0.118 C 
BRANCH  29  30
ATOM     30  N   UNL A   1      32.845  31.649  27.099  1.00  0.00    -0.352 N 
ATOM     31  C   UNL A   1      33.039  32.903  27.614  1.00  0.00     0.251 C 
ATOM     32  H   UNL A   1      32.067  31.599  26.497  1.00  0.00     0.163 HD
ATOM     33  O   UNL A   1      32.157  33.740  27.429  1.00  0.00    -0.269 OA
BRANCH  31  34
ATOM     34  C   UNL A   1      34.183  33.261  28.467  1.00  0.00     0.039 A 
ATOM     35  C   UNL A   1      34.081  32.925  29.823  1.00  0.00     0.014 A 
ATOM     36  C   UNL A   1      35.380  33.744  27.957  1.00  0.00     0.014 A 
ATOM     37  C   UNL A   1      35.229  32.824  30.591  1.00  0.00     0.010 A 
ATOM     38  C   UNL A   1      36.542  33.505  28.668  1.00  0.00     0.010 A 
ATOM     39  C   UNL A   1      36.467  32.967  29.958  1.00  0.00    -0.014 A 
BRANCH  39  40
ATOM     40  C   UNL A   1      37.676  32.391  30.572  1.00  0.00     0.031 A 
ATOM     41  C   UNL A   1      38.307  31.179  29.975  1.00  0.00     0.074 A 
ATOM     42  C   UNL A   1      38.104  32.924  31.737  1.00  0.00     0.049 A 
ATOM     43  N   UNL A   1      39.326  30.492  30.410  1.00  0.00    -0.248 NA
ATOM     44  C   UNL A   1      37.690  30.642  28.750  1.00  0.00     0.031 C 
ATOM     45  C   UNL A   1      37.472  34.050  32.439  1.00  0.00     0.029 A 
ATOM     46  N   UNL A   1      39.158  32.593  32.545  1.00  0.00    -0.354 N 
ATOM     47  C   UNL A   1      39.464  29.435  29.524  1.00  0.00     0.074 A 
ATOM     48  C   UNL A   1      38.394  29.537  28.559  1.00  0.00     0.031 C 
ATOM     49  C   UNL A   1      38.172  34.338  33.546  1.00  0.00     0.029 A 
ATOM     50  C   UNL A   1      39.268  33.388  33.663  1.00  0.00     0.049 A 
ATOM     51  H   UNL A   1      39.780  31.857  32.346  1.00  0.00     0.167 HD
ATOM     52  C   UNL A   1      40.423  28.483  29.514  1.00  0.00     0.037 A 
ATOM     53  C   UNL A   1      40.153  33.341  34.675  1.00  0.00     0.037 A 
ATOM     54  C   UNL A   1      41.487  28.430  30.479  1.00  0.00     0.049 A 
ATOM     55  C   UNL A   1      41.219  32.283  34.619  1.00  0.00     0.074 A 
ATOM     56  C   UNL A   1      42.566  27.569  30.523  1.00  0.00     0.029 A 
ATOM     57  N   UNL A   1      41.596  29.272  31.578  1.00  0.00    -0.354 N 
ATOM     58  N   UNL A   1      41.413  31.359  33.708  1.00  0.00    -0.248 NA
ATOM     59  C   UNL A   1      42.186  32.257  35.722  1.00  0.00     0.031 C 
ATOM     60  C   UNL A   1      43.297  27.853  31.679  1.00  0.00     0.029 A 
ATOM     61  C   UNL A   1      42.705  28.926  32.329  1.00  0.00     0.049 A 
ATOM     62  H   UNL A   1      40.976  30.007  31.790  1.00  0.00     0.167 HD
ATOM     63  C   UNL A   1      42.531  30.650  34.119  1.00  0.00     0.074 A 
ATOM     64  C   UNL A   1      42.989  31.274  35.345  1.00  0.00     0.031 C 
ATOM     65  C   UNL A   1      43.123  29.574  33.545  1.00  0.00     0.037 A 
BRANCH  52  66
ATOM     66  C   UNL A   1      40.360  27.441  28.441  1.00  0.00     0.057 A 
ATOM     67  C   UNL A   1      39.621  26.260  28.597  1.00  0.00     0.134 A 
ATOM     68  C   UNL A   1      41.019  27.634  27.222  1.00  0.00     0.134 A 
ATOM     69  F   UNL A   1      38.984  26.003  29.750  1.00  0.00    -0.206 F 
ATOM     70  C   UNL A   1      39.552  25.304  27.584  1.00  0.00     0.040 A 
ATOM     71  C   UNL A   1      40.936  26.697  26.191  1.00  0.00     0.040 A 
ATOM     72  F   UNL A   1      41.750  28.739  27.010  1.00  0.00    -0.206 F 
ATOM     73  C   UNL A   1      40.203  25.526  26.372  1.00  0.00     0.006 A 
ENDBRANCH  52  66
BRANCH  53  74
ATOM     74  C   UNL A   1      40.069  34.300  35.808  1.00  0.00     0.057 A 
ATOM     75  C   UNL A   1      39.349  33.994  36.970  1.00  0.00     0.134 A 
ATOM     76  C   UNL A   1      40.685  35.557  35.751  1.00  0.00     0.134 A 
ATOM     77  F   UNL A   1      38.726  32.812  37.084  1.00  0.00    -0.206 F 
ATOM     78  C   UNL A   1      39.215  34.912  38.014  1.00  0.00     0.040 A 
ATOM     79  C   UNL A   1      40.586  36.473  36.801  1.00  0.00     0.040 A 
ATOM     80  F   UNL A   1      41.404  35.913  34.676  1.00  0.00    -0.206 F 
ATOM     81  C   UNL A   1      39.836  36.156  37.932  1.00  0.00     0.006 A 
ENDBRANCH  53  74
BRANCH  65  82
ATOM     82  C   UNL A   1      44.327  29.019  34.242  1.00  0.00     0.057 A 
ATOM     83  C   UNL A   1      45.612  29.516  33.994  1.00  0.00     0.134 A 
ATOM     84  C   UNL A   1      44.190  28.014  35.207  1.00  0.00     0.134 A 
ATOM     85  F   UNL A   1      45.807  30.468  33.069  1.00  0.00    -0.206 F 
ATOM     86  C   UNL A   1      46.725  29.018  34.671  1.00  0.00     0.040 A 
ATOM     87  C   UNL A   1      45.291  27.531  35.913  1.00  0.00     0.040 A 
ATOM     88  F   UNL A   1      42.983  27.505  35.495  1.00  0.00    -0.206 F 
ATOM     89  C   UNL A   1      46.563  28.029  35.640  1.00  0.00     0.006 A 
ENDBRANCH  65  82
ENDBRANCH  39  40
ENDBRANCH  31  34
ENDBRANCH  29  30
ENDBRANCH  28  29
ENDBRANCH   1  28
TORSDOF 13
ENDMDL
MODEL 3
REMARK VINA RESULT:     -12.5      4.151      9.037
REMARK SMILES COc1cccc(N2C(=O)/C(=C/c3ccccc3C(=O)NCCCNC(=O)c3ccc(-c4c5nc(c(-c6c(F)cccc6F)c6ccc([nH]6)c(-c6c(F)cccc6F)c6nc(c(-c7c(F)cccc7F)c7ccc4[nH]7)C=C6)C=C5)cc3)SC2=S)c1
REMARK SMILES IDX 22 1 21 2 19 3 20 4 18 6 13 7 14 8 15 9 17 10 16 11 12 12
REMARK SMILES IDX 8 13 9 14 83 15 10 16 11 17 82 18 84 19 7 20 3 21 4 22 85 23
REMARK SMILES IDX 5 24 6 25 2 26 1 27 23 28 24 29 25 30 26 31 27 33 28 34
REMARK SMILES IDX 29 35 81 36 30 37 80 38 31 39 32 40 33 41 74 42 34 43 79 44
REMARK SMILES IDX 73 45 75 46 35 47 78 48 72 49 71 50 36 52 62 53 45 54 61 55
REMARK SMILES IDX 46 56 49 57 60 58 76 59 47 60 48 61 59 63 77 64 50 65 37 66
REMARK SMILES IDX 38 67 43 68 39 69 40 70 42 71 44 72 41 73 63 74 64 75 69 76
REMARK SMILES IDX 65 77 66 78 68 79 70 80 67 81 51 82 52 83 57 84 53 85 54 86
REMARK SMILES IDX 56 87 58 88 55 89
REMARK H PARENT 21 5 25 32 75 51 49 62
REMARK Flexibility Score: inf
ROOT
ATOM      1  C   UNL A   1      33.115  28.541  26.411  1.00  0.00     0.118 C 
ENDROOT
BRANCH   1   2
ATOM      2  N   UNL A   1      33.795  28.843  25.181  1.00  0.00    -0.352 N 
ATOM      3  C   UNL A   1      33.214  28.997  23.937  1.00  0.00     0.251 C 
ATOM      4  O   UNL A   1      33.920  29.364  22.999  1.00  0.00    -0.269 OA
ATOM      5  H   UNL A   1      34.772  28.951  25.229  1.00  0.00     0.163 HD
BRANCH   3   6
ATOM      6  C   UNL A   1      31.795  28.598  23.676  1.00  0.00     0.047 A 
ATOM      7  C   UNL A   1      31.321  27.340  23.234  1.00  0.00    -0.012 A 
ATOM      8  C   UNL A   1      29.970  27.244  22.841  1.00  0.00     0.009 A 
ATOM      9  C   UNL A   1      29.092  28.322  22.972  1.00  0.00     0.001 A 
ATOM     10  C   UNL A   1      30.882  29.657  23.857  1.00  0.00     0.014 A 
ATOM     11  C   UNL A   1      29.540  29.520  23.511  1.00  0.00     0.001 A 
BRANCH   7  12
ATOM     12  C   UNL A   1      32.113  26.107  23.027  1.00  0.00     0.030 C 
ATOM     13  N   UNL A   1      33.558  23.336  24.780  1.00  0.00    -0.261 N 
ATOM     14  C   UNL A   1      33.315  24.026  23.597  1.00  0.00     0.270 C 
ATOM     15  C   UNL A   1      32.648  23.545  25.807  1.00  0.00     0.152 C 
ATOM     16  O   UNL A   1      33.938  23.972  22.542  1.00  0.00    -0.268 OA
ATOM     17  C   UNL A   1      32.228  25.029  23.819  1.00  0.00     0.081 C 
ATOM     18  S   UNL A   1      31.429  24.712  25.297  1.00  0.00    -0.054 SA
ATOM     19  S   UNL A   1      32.558  22.815  27.308  1.00  0.00    -0.051 S 
BRANCH  13  20
ATOM     20  C   UNL A   1      34.721  22.521  24.924  1.00  0.00     0.054 A 
ATOM     21  C   UNL A   1      37.095  22.276  25.372  1.00  0.00     0.120 A 
ATOM     22  C   UNL A   1      36.985  20.896  25.179  1.00  0.00     0.046 A 
ATOM     23  C   UNL A   1      35.952  23.082  25.293  1.00  0.00     0.073 A 
ATOM     24  C   UNL A   1      35.757  20.321  24.861  1.00  0.00     0.006 A 
ATOM     25  C   UNL A   1      34.635  21.134  24.706  1.00  0.00     0.027 A 
BRANCH  21  26
ATOM     26  O   UNL A   1      38.373  22.705  25.610  1.00  0.00    -0.497 OA
ATOM     27  C   UNL A   1      39.284  21.757  26.145  1.00  0.00     0.278 C 
ENDBRANCH  21  26
ENDBRANCH  13  20
ENDBRANCH   7  12
ENDBRANCH   3   6
ENDBRANCH   1   2
BRANCH   1  28
ATOM     28  C   UNL A   1      32.698  29.700  27.291  1.00  0.00     0.042 C 
BRANCH  28  29
ATOM     29  C   UNL A   1      33.667  30.881  27.311  1.00  0.00     0.118 C 
BRANCH  29  30
ATOM     30  N   UNL A   1      33.018  32.189  27.345  1.00  0.00    -0.352 N 
ATOM     31  C   UNL A   1      33.262  33.359  28.014  1.00  0.00     0.251 C 
ATOM     32  H   UNL A   1      32.230  32.242  26.756  1.00  0.00     0.163 HD
ATOM     33  O   UNL A   1      32.407  34.240  27.955  1.00  0.00    -0.269 OA
BRANCH  31  34
ATOM     34  C   UNL A   1      34.428  33.567  28.885  1.00  0.00     0.039 A 
ATOM     35  C   UNL A   1      34.320  33.092  30.199  1.00  0.00     0.014 A 
ATOM     36  C   UNL A   1      35.645  34.041  28.414  1.00  0.00     0.014 A 
ATOM     37  C   UNL A   1      35.468  32.853  30.936  1.00  0.00     0.010 A 
ATOM     38  C   UNL A   1      36.799  33.670  29.079  1.00  0.00     0.010 A 
ATOM     39  C   UNL A   1      36.707  33.001  30.306  1.00  0.00    -0.014 A 
BRANCH  39  40
ATOM     40  C   UNL A   1      37.890  32.304  30.839  1.00  0.00     0.031 A 
ATOM     41  C   UNL A   1      38.624  32.872  32.006  1.00  0.00     0.074 A 
ATOM     42  C   UNL A   1      38.339  31.224  30.164  1.00  0.00     0.049 A 
ATOM     43  N   UNL A   1      39.720  32.444  32.568  1.00  0.00    -0.248 NA
ATOM     44  C   UNL A   1      38.080  34.107  32.597  1.00  0.00     0.031 C 
ATOM     45  C   UNL A   1      37.731  30.669  28.947  1.00  0.00     0.029 A 
ATOM     46  N   UNL A   1      39.410  30.402  30.391  1.00  0.00    -0.354 N 
ATOM     47  C   UNL A   1      40.005  33.361  33.567  1.00  0.00     0.074 A 
ATOM     48  C   UNL A   1      39.003  34.399  33.502  1.00  0.00     0.031 C 
ATOM     49  C   UNL A   1      38.414  29.581  28.560  1.00  0.00     0.029 A 
ATOM     50  C   UNL A   1      39.536  29.390  29.467  1.00  0.00     0.049 A 
ATOM     51  H   UNL A   1      40.032  30.522  31.144  1.00  0.00     0.167 HD
ATOM     52  C   UNL A   1      41.008  33.314  34.471  1.00  0.00     0.037 A 
ATOM     53  C   UNL A   1      40.467  28.425  29.362  1.00  0.00     0.037 A 
ATOM     54  C   UNL A   1      41.974  32.251  34.519  1.00  0.00     0.049 A 
ATOM     55  C   UNL A   1      41.555  28.390  30.398  1.00  0.00     0.074 A 
ATOM     56  C   UNL A   1      42.981  32.044  35.441  1.00  0.00     0.029 A 
ATOM     57  N   UNL A   1      42.053  31.217  33.594  1.00  0.00    -0.354 N 
ATOM     58  N   UNL A   1      41.746  29.196  31.416  1.00  0.00    -0.248 NA
ATOM     59  C   UNL A   1      42.551  27.320  30.278  1.00  0.00     0.031 C 
ATOM     60  C   UNL A   1      43.707  30.919  35.042  1.00  0.00     0.029 A 
ATOM     61  C   UNL A   1      43.119  30.391  33.902  1.00  0.00     0.049 A 
ATOM     62  H   UNL A   1      41.441  31.092  32.833  1.00  0.00     0.167 HD
ATOM     63  C   UNL A   1      42.876  28.725  32.066  1.00  0.00     0.074 A 
ATOM     64  C   UNL A   1      43.306  27.542  31.344  1.00  0.00     0.031 C 
ATOM     65  C   UNL A   1      43.512  29.224  33.154  1.00  0.00     0.037 A 
BRANCH  52  66
ATOM     66  C   UNL A   1      41.105  34.431  35.463  1.00  0.00     0.057 A 
ATOM     67  C   UNL A   1      41.891  35.568  35.225  1.00  0.00     0.134 A 
ATOM     68  C   UNL A   1      40.379  34.387  36.658  1.00  0.00     0.134 A 
ATOM     69  F   UNL A   1      42.629  35.663  34.109  1.00  0.00    -0.206 F 
ATOM     70  C   UNL A   1      41.959  36.613  36.147  1.00  0.00     0.040 A 
ATOM     71  C   UNL A   1      40.418  35.437  37.576  1.00  0.00     0.040 A 
ATOM     72  F   UNL A   1      39.613  33.324  36.951  1.00  0.00    -0.206 F 
ATOM     73  C   UNL A   1      41.213  36.554  37.323  1.00  0.00     0.006 A 
ENDBRANCH  52  66
BRANCH  53  74
ATOM     74  C   UNL A   1      40.418  27.435  28.253  1.00  0.00     0.057 A 
ATOM     75  C   UNL A   1      39.725  26.225  28.387  1.00  0.00     0.134 A 
ATOM     76  C   UNL A   1      41.082  27.660  27.040  1.00  0.00     0.134 A 
ATOM     77  F   UNL A   1      39.077  25.943  29.526  1.00  0.00    -0.206 F 
ATOM     78  C   UNL A   1      39.724  25.264  27.374  1.00  0.00     0.040 A 
ATOM     79  C   UNL A   1      41.063  26.721  26.007  1.00  0.00     0.040 A 
ATOM     80  F   UNL A   1      41.754  28.803  26.836  1.00  0.00    -0.206 F 
ATOM     81  C   UNL A   1      40.393  25.511  26.178  1.00  0.00     0.006 A 
ENDBRANCH  53  74
BRANCH  65  82
ATOM     82  C   UNL A   1      44.728  28.486  33.619  1.00  0.00     0.057 A 
ATOM     83  C   UNL A   1      44.636  27.403  34.502  1.00  0.00     0.134 A 
ATOM     84  C   UNL A   1      45.997  28.830  33.138  1.00  0.00     0.134 A 
ATOM     85  F   UNL A   1      43.449  27.037  35.008  1.00  0.00    -0.206 F 
ATOM     86  C   UNL A   1      45.769  26.698  34.906  1.00  0.00     0.040 A 
ATOM     87  C   UNL A   1      47.134  28.113  33.509  1.00  0.00     0.040 A 
ATOM     88  F   UNL A   1      46.148  29.852  32.282  1.00  0.00    -0.206 F 
ATOM     89  C   UNL A   1      47.021  27.047  34.400  1.00  0.00     0.006 A 
ENDBRANCH  65  82
ENDBRANCH  39  40
ENDBRANCH  31  34
ENDBRANCH  29  30
ENDBRANCH  28  29
ENDBRANCH   1  28
TORSDOF 13
ENDMDL
