MODEL 1
REMARK VINA RESULT:     -13.4      0.000      0.000
REMARK SMILES Cc1ccc(C(=O)N2CCCC[C@@H]2C(=O)NCCCNC(=O)c2ccc(-c3c4nc(c(-c5c(F)cccc5F)c5ccc([nH]5)c(-c5c(F)cccc5F)c5nc(c(-c6c(F)cccc6F)c6ccc3[nH]6)C=C5)C=C4)cc2)cc1S(=O)(=O)N1CCCCC1
REMARK SMILES IDX 17 1 16 2 14 3 15 4 13 6 8 7 9 8 10 9 12 10 11 11 6 12 7 13
REMARK SMILES IDX 5 14 1 15 2 16 3 17 78 18 4 19 77 20 79 21 80 22 81 23 82 24
REMARK SMILES IDX 83 25 87 26 84 27 86 28 85 29 18 30 19 31 20 32 21 33 22 35
REMARK SMILES IDX 23 36 24 37 76 38 25 39 75 40 26 41 27 42 28 43 69 44 29 45
REMARK SMILES IDX 74 46 68 47 70 48 30 49 73 50 67 51 66 52 31 54 57 55 40 56
REMARK SMILES IDX 56 57 41 58 44 59 55 60 71 61 42 62 43 63 54 65 72 66 45 67
REMARK SMILES IDX 32 68 33 69 38 70 34 71 35 72 37 73 39 74 36 75 58 76 59 77
REMARK SMILES IDX 64 78 60 79 61 80 63 81 65 82 62 83 46 84 47 85 52 86 48 87
REMARK SMILES IDX 49 88 51 89 53 90 50 91
REMARK H PARENT 16 5 20 34 70 53 44 64
REMARK Flexibility Score: inf
ROOT
ATOM      1  C   UNL A   1      32.591  30.319  26.864  1.00  0.00     0.117 C 
ENDROOT
BRANCH   1   2
ATOM      2  N   UNL A   1      33.079  29.988  25.533  1.00  0.00    -0.354 N 
ATOM      3  C   UNL A   1      32.513  29.219  24.556  1.00  0.00     0.242 C 
ATOM      4  O   UNL A   1      33.235  28.900  23.607  1.00  0.00    -0.273 OA
ATOM      5  H   UNL A   1      33.953  30.378  25.301  1.00  0.00     0.163 HD
BRANCH   3   6
ATOM      6  C   UNL A   1      31.080  28.636  24.690  1.00  0.00     0.174 C 
ATOM      7  N   UNL A   1      31.033  27.227  25.164  1.00  0.00    -0.327 N 
ATOM      8  C   UNL A   1      29.809  26.475  24.917  1.00  0.00     0.120 C 
ATOM      9  C   UNL A   1      29.342  26.570  23.481  1.00  0.00     0.022 C 
ATOM     10  C   UNL A   1      30.415  28.815  23.304  1.00  0.00     0.035 C 
ATOM     11  C   UNL A   1      29.130  28.027  23.106  1.00  0.00     0.004 C 
BRANCH   7  12
ATOM     12  C   UNL A   1      31.886  26.659  26.114  1.00  0.00     0.254 C 
ATOM     13  O   UNL A   1      31.881  27.018  27.291  1.00  0.00    -0.269 OA
BRANCH  12  14
ATOM     14  C   UNL A   1      32.849  25.603  25.740  1.00  0.00     0.041 A 
ATOM     15  C   UNL A   1      35.516  22.700  24.021  1.00  0.00     0.046 C 
ATOM     16  C   UNL A   1      34.535  23.581  24.721  1.00  0.00    -0.031 A 
ATOM     17  C   UNL A   1      34.841  24.957  24.573  1.00  0.00     0.005 A 
ATOM     18  C   UNL A   1      33.374  23.226  25.435  1.00  0.00     0.086 A 
ATOM     19  C   UNL A   1      34.013  25.956  25.071  1.00  0.00     0.014 A 
ATOM     20  C   UNL A   1      32.531  24.257  25.907  1.00  0.00     0.035 A 
BRANCH  18  21
ATOM     21  S   UNL A   1      32.705  21.616  25.880  1.00  0.00     0.243 S 
ATOM     22  O   UNL A   1      33.514  21.163  27.001  1.00  0.00    -0.207 OA
ATOM     23  O   UNL A   1      31.287  21.831  26.048  1.00  0.00    -0.207 OA
BRANCH  21  24
ATOM     24  N   UNL A   1      32.887  20.481  24.642  1.00  0.00    -0.198 NA
ATOM     25  C   UNL A   1      33.235  19.111  25.065  1.00  0.00     0.102 C 
ATOM     26  C   UNL A   1      32.212  20.779  23.364  1.00  0.00     0.102 C 
ATOM     27  C   UNL A   1      33.346  18.111  23.927  1.00  0.00     0.017 C 
ATOM     28  C   UNL A   1      32.335  19.687  22.312  1.00  0.00     0.017 C 
ATOM     29  C   UNL A   1      32.263  18.281  22.880  1.00  0.00     0.003 C 
ENDBRANCH  21  24
ENDBRANCH  18  21
ENDBRANCH  12  14
ENDBRANCH   7  12
ENDBRANCH   3   6
ENDBRANCH   1   2
BRANCH   1  30
ATOM     30  C   UNL A   1      33.559  31.230  27.596  1.00  0.00     0.042 C 
BRANCH  30  31
ATOM     31  C   UNL A   1      34.964  30.675  27.638  1.00  0.00     0.118 C 
BRANCH  31  32
ATOM     32  N   UNL A   1      35.909  31.501  28.383  1.00  0.00    -0.352 N 
ATOM     33  C   UNL A   1      37.130  31.153  28.938  1.00  0.00     0.251 C 
ATOM     34  H   UNL A   1      35.641  32.440  28.508  1.00  0.00     0.163 HD
ATOM     35  O   UNL A   1      37.811  32.000  29.507  1.00  0.00    -0.269 OA
BRANCH  33  36
ATOM     36  C   UNL A   1      37.686  29.805  28.680  1.00  0.00     0.039 A 
ATOM     37  C   UNL A   1      37.789  28.945  29.779  1.00  0.00     0.014 A 
ATOM     38  C   UNL A   1      38.430  29.575  27.532  1.00  0.00     0.014 A 
ATOM     39  C   UNL A   1      38.877  28.092  29.855  1.00  0.00     0.010 A 
ATOM     40  C   UNL A   1      39.597  28.873  27.668  1.00  0.00     0.010 A 
ATOM     41  C   UNL A   1      39.840  28.188  28.858  1.00  0.00    -0.014 A 
BRANCH  41  42
ATOM     42  C   UNL A   1      41.122  27.524  28.904  1.00  0.00     0.031 A 
ATOM     43  C   UNL A   1      41.120  26.094  28.574  1.00  0.00     0.074 A 
ATOM     44  C   UNL A   1      42.233  28.260  29.111  1.00  0.00     0.049 A 
ATOM     45  N   UNL A   1      41.997  25.255  28.981  1.00  0.00    -0.248 NA
ATOM     46  C   UNL A   1      40.052  25.477  27.794  1.00  0.00     0.031 C 
ATOM     47  C   UNL A   1      43.628  27.867  28.965  1.00  0.00     0.029 A 
ATOM     48  N   UNL A   1      42.296  29.530  29.703  1.00  0.00    -0.354 N 
ATOM     49  C   UNL A   1      41.797  24.081  28.285  1.00  0.00     0.074 A 
ATOM     50  C   UNL A   1      40.512  24.232  27.655  1.00  0.00     0.031 C 
ATOM     51  C   UNL A   1      44.389  28.687  29.716  1.00  0.00     0.029 A 
ATOM     52  C   UNL A   1      43.483  29.541  30.468  1.00  0.00     0.049 A 
ATOM     53  H   UNL A   1      41.647  30.263  29.604  1.00  0.00     0.167 HD
ATOM     54  C   UNL A   1      42.833  23.201  28.211  1.00  0.00     0.037 A 
ATOM     55  C   UNL A   1      43.413  29.607  31.833  1.00  0.00     0.037 A 
ATOM     56  C   UNL A   1      43.953  23.711  29.004  1.00  0.00     0.049 A 
ATOM     57  C   UNL A   1      43.937  28.344  32.483  1.00  0.00     0.074 A 
ATOM     58  C   UNL A   1      45.053  24.479  28.658  1.00  0.00     0.029 A 
ATOM     59  N   UNL A   1      43.812  23.818  30.382  1.00  0.00    -0.354 N 
ATOM     60  N   UNL A   1      43.972  27.180  31.888  1.00  0.00    -0.248 NA
ATOM     61  C   UNL A   1      44.510  28.302  33.824  1.00  0.00     0.031 C 
ATOM     62  C   UNL A   1      45.527  25.113  29.836  1.00  0.00     0.029 A 
ATOM     63  C   UNL A   1      44.734  24.708  30.897  1.00  0.00     0.049 A 
ATOM     64  H   UNL A   1      43.147  23.326  30.918  1.00  0.00     0.167 HD
ATOM     65  C   UNL A   1      44.579  26.264  32.706  1.00  0.00     0.074 A 
ATOM     66  C   UNL A   1      44.897  27.015  33.907  1.00  0.00     0.031 C 
ATOM     67  C   UNL A   1      44.788  24.966  32.329  1.00  0.00     0.037 A 
BRANCH  54  68
ATOM     68  C   UNL A   1      42.967  22.067  27.219  1.00  0.00     0.057 A 
ATOM     69  C   UNL A   1      42.119  20.944  27.317  1.00  0.00     0.134 A 
ATOM     70  C   UNL A   1      43.911  21.980  26.180  1.00  0.00     0.134 A 
ATOM     71  F   UNL A   1      41.116  20.894  28.204  1.00  0.00    -0.206 F 
ATOM     72  C   UNL A   1      42.251  19.808  26.509  1.00  0.00     0.040 A 
ATOM     73  C   UNL A   1      44.077  20.835  25.385  1.00  0.00     0.040 A 
ATOM     74  F   UNL A   1      44.688  23.010  25.834  1.00  0.00    -0.206 F 
ATOM     75  C   UNL A   1      43.248  19.738  25.552  1.00  0.00     0.006 A 
ENDBRANCH  54  68
BRANCH  55  76
ATOM     76  C   UNL A   1      42.249  30.431  32.283  1.00  0.00     0.057 A 
ATOM     77  C   UNL A   1      41.133  29.740  32.803  1.00  0.00     0.134 A 
ATOM     78  C   UNL A   1      42.396  31.766  32.666  1.00  0.00     0.134 A 
ATOM     79  F   UNL A   1      40.905  28.465  32.448  1.00  0.00    -0.206 F 
ATOM     80  C   UNL A   1      40.332  30.280  33.814  1.00  0.00     0.040 A 
ATOM     81  C   UNL A   1      41.571  32.331  33.649  1.00  0.00     0.040 A 
ATOM     82  F   UNL A   1      43.415  32.503  32.203  1.00  0.00    -0.206 F 
ATOM     83  C   UNL A   1      40.584  31.567  34.275  1.00  0.00     0.006 A 
ENDBRANCH  55  76
BRANCH  67  84
ATOM     84  C   UNL A   1      45.143  23.813  33.243  1.00  0.00     0.057 A 
ATOM     85  C   UNL A   1      46.405  23.624  33.819  1.00  0.00     0.134 A 
ATOM     86  C   UNL A   1      44.138  22.934  33.717  1.00  0.00     0.134 A 
ATOM     87  F   UNL A   1      47.430  24.448  33.565  1.00  0.00    -0.206 F 
ATOM     88  C   UNL A   1      46.665  22.604  34.745  1.00  0.00     0.040 A 
ATOM     89  C   UNL A   1      44.367  21.966  34.697  1.00  0.00     0.040 A 
ATOM     90  F   UNL A   1      42.872  22.993  33.275  1.00  0.00    -0.206 F 
ATOM     91  C   UNL A   1      45.641  21.784  35.202  1.00  0.00     0.006 A 
ENDBRANCH  67  84
ENDBRANCH  41  42
ENDBRANCH  33  36
ENDBRANCH  31  32
ENDBRANCH  30  31
ENDBRANCH   1  30
TORSDOF 14
ENDMDL
MODEL 2
REMARK VINA RESULT:     -13.1      1.732      2.513
REMARK SMILES Cc1ccc(C(=O)N2CCCC[C@@H]2C(=O)NCCCNC(=O)c2ccc(-c3c4nc(c(-c5c(F)cccc5F)c5ccc([nH]5)c(-c5c(F)cccc5F)c5nc(c(-c6c(F)cccc6F)c6ccc3[nH]6)C=C5)C=C4)cc2)cc1S(=O)(=O)N1CCCCC1
REMARK SMILES IDX 17 1 16 2 14 3 15 4 13 6 8 7 9 8 10 9 12 10 11 11 6 12 7 13
REMARK SMILES IDX 5 14 1 15 2 16 3 17 78 18 4 19 77 20 79 21 80 22 81 23 82 24
REMARK SMILES IDX 83 25 87 26 84 27 86 28 85 29 18 30 19 31 20 32 21 33 22 35
REMARK SMILES IDX 23 36 24 37 76 38 25 39 75 40 26 41 27 42 28 43 69 44 29 45
REMARK SMILES IDX 74 46 68 47 70 48 30 49 73 50 67 51 66 52 31 54 57 55 40 56
REMARK SMILES IDX 56 57 41 58 44 59 55 60 71 61 42 62 43 63 54 65 72 66 45 67
REMARK SMILES IDX 32 68 33 69 38 70 34 71 35 72 37 73 39 74 36 75 58 76 59 77
REMARK SMILES IDX 64 78 60 79 61 80 63 81 65 82 62 83 46 84 47 85 52 86 48 87
REMARK SMILES IDX 49 88 51 89 53 90 50 91
REMARK H PARENT 16 5 20 34 70 53 44 64
REMARK Flexibility Score: inf
ROOT
ATOM      1  C   UNL A   1      31.761  28.590  26.192  1.00  0.00     0.117 C 
ENDROOT
BRANCH   1   2
ATOM      2  N   UNL A   1      31.166  27.373  26.724  1.00  0.00    -0.354 N 
ATOM      3  C   UNL A   1      30.902  26.182  26.108  1.00  0.00     0.242 C 
ATOM      4  O   UNL A   1      30.178  25.387  26.716  1.00  0.00    -0.273 OA
ATOM      5  H   UNL A   1      30.915  27.413  27.675  1.00  0.00     0.163 HD
BRANCH   3   6
ATOM      6  C   UNL A   1      31.351  25.888  24.651  1.00  0.00     0.174 C 
ATOM      7  N   UNL A   1      32.818  25.988  24.431  1.00  0.00    -0.327 N 
ATOM      8  C   UNL A   1      33.282  26.152  23.058  1.00  0.00     0.120 C 
ATOM      9  C   UNL A   1      32.555  27.256  22.322  1.00  0.00     0.022 C 
ATOM     10  C   UNL A   1      30.551  26.861  23.753  1.00  0.00     0.035 C 
ATOM     11  C   UNL A   1      31.061  26.979  22.326  1.00  0.00     0.004 C 
BRANCH   7  12
ATOM     12  C   UNL A   1      33.807  25.599  25.339  1.00  0.00     0.254 C 
ATOM     13  O   UNL A   1      34.318  26.396  26.126  1.00  0.00    -0.269 OA
BRANCH  12  14
ATOM     14  C   UNL A   1      34.297  24.206  25.383  1.00  0.00     0.041 A 
ATOM     15  C   UNL A   1      36.115  20.328  25.001  1.00  0.00     0.046 C 
ATOM     16  C   UNL A   1      35.333  21.591  25.143  1.00  0.00    -0.031 A 
ATOM     17  C   UNL A   1      36.135  22.679  25.571  1.00  0.00     0.005 A 
ATOM     18  C   UNL A   1      33.972  21.829  24.873  1.00  0.00     0.086 A 
ATOM     19  C   UNL A   1      35.630  23.969  25.689  1.00  0.00     0.014 A 
ATOM     20  C   UNL A   1      33.486  23.152  24.969  1.00  0.00     0.035 A 
BRANCH  18  21
ATOM     21  S   UNL A   1      32.651  20.710  24.383  1.00  0.00     0.243 S 
ATOM     22  O   UNL A   1      31.603  20.898  25.376  1.00  0.00    -0.207 OA
ATOM     23  O   UNL A   1      32.397  21.012  22.994  1.00  0.00    -0.207 OA
BRANCH  21  24
ATOM     24  N   UNL A   1      33.121  19.089  24.457  1.00  0.00    -0.198 NA
ATOM     25  C   UNL A   1      32.884  18.403  25.740  1.00  0.00     0.102 C 
ATOM     26  C   UNL A   1      33.230  18.371  23.171  1.00  0.00     0.102 C 
ATOM     27  C   UNL A   1      33.280  16.936  25.751  1.00  0.00     0.017 C 
ATOM     28  C   UNL A   1      33.572  16.894  23.296  1.00  0.00     0.017 C 
ATOM     29  C   UNL A   1      32.903  16.210  24.474  1.00  0.00     0.003 C 
ENDBRANCH  21  24
ENDBRANCH  18  21
ENDBRANCH  12  14
ENDBRANCH   7  12
ENDBRANCH   3   6
ENDBRANCH   1   2
BRANCH   1  30
ATOM     30  C   UNL A   1      32.372  29.434  27.295  1.00  0.00     0.042 C 
BRANCH  30  31
ATOM     31  C   UNL A   1      33.520  30.287  26.808  1.00  0.00     0.118 C 
BRANCH  31  32
ATOM     32  N   UNL A   1      34.013  31.243  27.794  1.00  0.00    -0.352 N 
ATOM     33  C   UNL A   1      35.066  31.121  28.686  1.00  0.00     0.251 C 
ATOM     34  H   UNL A   1      33.527  32.099  27.832  1.00  0.00     0.163 HD
ATOM     35  O   UNL A   1      35.358  32.053  29.426  1.00  0.00    -0.269 OA
BRANCH  33  36
ATOM     36  C   UNL A   1      35.947  29.932  28.607  1.00  0.00     0.039 A 
ATOM     37  C   UNL A   1      36.299  29.328  29.819  1.00  0.00     0.014 A 
ATOM     38  C   UNL A   1      36.695  29.703  27.461  1.00  0.00     0.014 A 
ATOM     39  C   UNL A   1      37.573  28.803  29.955  1.00  0.00     0.010 A 
ATOM     40  C   UNL A   1      38.008  29.351  27.626  1.00  0.00     0.010 A 
ATOM     41  C   UNL A   1      38.451  28.965  28.890  1.00  0.00    -0.014 A 
BRANCH  41  42
ATOM     42  C   UNL A   1      39.863  28.663  28.952  1.00  0.00     0.031 A 
ATOM     43  C   UNL A   1      40.256  27.323  28.504  1.00  0.00     0.074 A 
ATOM     44  C   UNL A   1      40.727  29.645  29.283  1.00  0.00     0.049 A 
ATOM     45  N   UNL A   1      41.313  26.711  28.887  1.00  0.00    -0.248 NA
ATOM     46  C   UNL A   1      39.418  26.523  27.615  1.00  0.00     0.031 C 
ATOM     47  C   UNL A   1      42.180  29.651  29.183  1.00  0.00     0.029 A 
ATOM     48  N   UNL A   1      40.427  30.822  29.982  1.00  0.00    -0.354 N 
ATOM     49  C   UNL A   1      41.459  25.599  28.084  1.00  0.00     0.074 A 
ATOM     50  C   UNL A   1      40.201  25.464  27.398  1.00  0.00     0.031 C 
ATOM     51  C   UNL A   1      42.668  30.567  30.042  1.00  0.00     0.029 A 
ATOM     52  C   UNL A   1      41.542  31.074  30.812  1.00  0.00     0.049 A 
ATOM     53  H   UNL A   1      39.608  31.363  29.910  1.00  0.00     0.167 HD
ATOM     54  C   UNL A   1      42.696  25.037  27.994  1.00  0.00     0.037 A 
ATOM     55  C   UNL A   1      41.415  30.988  32.170  1.00  0.00     0.037 A 
ATOM     56  C   UNL A   1      43.610  25.746  28.889  1.00  0.00     0.049 A 
ATOM     57  C   UNL A   1      42.238  29.852  32.740  1.00  0.00     0.074 A 
ATOM     58  C   UNL A   1      44.474  26.808  28.672  1.00  0.00     0.029 A 
ATOM     59  N   UNL A   1      43.403  25.679  30.262  1.00  0.00    -0.354 N 
ATOM     60  N   UNL A   1      42.604  28.803  32.052  1.00  0.00    -0.248 NA
ATOM     61  C   UNL A   1      42.759  29.835  34.103  1.00  0.00     0.031 C 
ATOM     62  C   UNL A   1      44.722  27.429  29.924  1.00  0.00     0.029 A 
ATOM     63  C   UNL A   1      44.034  26.728  30.901  1.00  0.00     0.049 A 
ATOM     64  H   UNL A   1      42.878  24.980  30.716  1.00  0.00     0.167 HD
ATOM     65  C   UNL A   1      43.409  28.005  32.823  1.00  0.00     0.074 A 
ATOM     66  C   UNL A   1      43.474  28.695  34.099  1.00  0.00     0.031 C 
ATOM     67  C   UNL A   1      43.972  26.852  32.351  1.00  0.00     0.037 A 
BRANCH  54  68
ATOM     68  C   UNL A   1      43.160  24.080  26.920  1.00  0.00     0.057 A 
ATOM     69  C   UNL A   1      43.687  24.582  25.711  1.00  0.00     0.134 A 
ATOM     70  C   UNL A   1      43.091  22.676  26.971  1.00  0.00     0.134 A 
ATOM     71  F   UNL A   1      43.892  25.893  25.523  1.00  0.00    -0.206 F 
ATOM     72  C   UNL A   1      44.036  23.768  24.627  1.00  0.00     0.040 A 
ATOM     73  C   UNL A   1      43.405  21.849  25.881  1.00  0.00     0.040 A 
ATOM     74  F   UNL A   1      42.771  22.019  28.089  1.00  0.00    -0.206 F 
ATOM     75  C   UNL A   1      43.874  22.395  24.699  1.00  0.00     0.006 A 
ENDBRANCH  54  68
BRANCH  55  76
ATOM     76  C   UNL A   1      40.057  31.426  32.622  1.00  0.00     0.057 A 
ATOM     77  C   UNL A   1      39.169  30.421  33.066  1.00  0.00     0.134 A 
ATOM     78  C   UNL A   1      39.818  32.723  33.080  1.00  0.00     0.134 A 
ATOM     79  F   UNL A   1      39.315  29.157  32.635  1.00  0.00    -0.206 F 
ATOM     80  C   UNL A   1      38.231  30.655  34.075  1.00  0.00     0.040 A 
ATOM     81  C   UNL A   1      38.849  32.975  34.062  1.00  0.00     0.040 A 
ATOM     82  F   UNL A   1      40.599  33.742  32.694  1.00  0.00    -0.206 F 
ATOM     83  C   UNL A   1      38.104  31.931  34.612  1.00  0.00     0.006 A 
ENDBRANCH  55  76
BRANCH  67  84
ATOM     84  C   UNL A   1      44.594  25.752  33.182  1.00  0.00     0.057 A 
ATOM     85  C   UNL A   1      45.951  25.404  33.140  1.00  0.00     0.134 A 
ATOM     86  C   UNL A   1      43.851  25.113  34.205  1.00  0.00     0.134 A 
ATOM     87  F   UNL A   1      46.811  26.007  32.310  1.00  0.00    -0.206 F 
ATOM     88  C   UNL A   1      46.511  24.452  34.003  1.00  0.00     0.040 A 
ATOM     89  C   UNL A   1      44.416  24.223  35.121  1.00  0.00     0.040 A 
ATOM     90  F   UNL A   1      42.542  25.346  34.388  1.00  0.00    -0.206 F 
ATOM     91  C   UNL A   1      45.749  23.872  35.009  1.00  0.00     0.006 A 
ENDBRANCH  67  84
ENDBRANCH  41  42
ENDBRANCH  33  36
ENDBRANCH  31  32
ENDBRANCH  30  31
ENDBRANCH   1  30
TORSDOF 14
ENDMDL
MODEL 3
REMARK VINA RESULT:     -13.0      2.645      4.322
REMARK SMILES Cc1ccc(C(=O)N2CCCC[C@@H]2C(=O)NCCCNC(=O)c2ccc(-c3c4nc(c(-c5c(F)cccc5F)c5ccc([nH]5)c(-c5c(F)cccc5F)c5nc(c(-c6c(F)cccc6F)c6ccc3[nH]6)C=C5)C=C4)cc2)cc1S(=O)(=O)N1CCCCC1
REMARK SMILES IDX 17 1 16 2 14 3 15 4 13 6 8 7 9 8 10 9 12 10 11 11 6 12 7 13
REMARK SMILES IDX 5 14 1 15 2 16 3 17 78 18 4 19 77 20 79 21 80 22 81 23 82 24
REMARK SMILES IDX 83 25 87 26 84 27 86 28 85 29 18 30 19 31 20 32 21 33 22 35
REMARK SMILES IDX 23 36 24 37 76 38 25 39 75 40 26 41 27 42 28 43 69 44 29 45
REMARK SMILES IDX 74 46 68 47 70 48 30 49 73 50 67 51 66 52 31 54 57 55 40 56
REMARK SMILES IDX 56 57 41 58 44 59 55 60 71 61 42 62 43 63 54 65 72 66 45 67
REMARK SMILES IDX 32 68 33 69 38 70 34 71 35 72 37 73 39 74 36 75 58 76 59 77
REMARK SMILES IDX 64 78 60 79 61 80 63 81 65 82 62 83 46 84 47 85 52 86 48 87
REMARK SMILES IDX 49 88 51 89 53 90 50 91
REMARK H PARENT 16 5 20 34 70 53 44 64
REMARK Flexibility Score: inf
ROOT
ATOM      1  C   UNL A   1      33.748  29.288  26.759  1.00  0.00     0.117 C 
ENDROOT
BRANCH   1   2
ATOM      2  N   UNL A   1      34.233  29.321  25.387  1.00  0.00    -0.354 N 
ATOM      3  C   UNL A   1      33.667  28.831  24.243  1.00  0.00     0.242 C 
ATOM      4  O   UNL A   1      34.387  28.778  23.242  1.00  0.00    -0.273 OA
ATOM      5  H   UNL A   1      35.103  29.764  25.263  1.00  0.00     0.163 HD
BRANCH   3   6
ATOM      6  C   UNL A   1      32.238  28.223  24.223  1.00  0.00     0.174 C 
ATOM      7  N   UNL A   1      32.072  27.079  23.289  1.00  0.00    -0.327 N 
ATOM      8  C   UNL A   1      30.715  26.730  22.888  1.00  0.00     0.120 C 
ATOM      9  C   UNL A   1      29.918  27.925  22.413  1.00  0.00     0.022 C 
ATOM     10  C   UNL A   1      31.280  29.395  23.898  1.00  0.00     0.035 C 
ATOM     11  C   UNL A   1      29.871  28.978  23.508  1.00  0.00     0.004 C 
BRANCH   7  12
ATOM     12  C   UNL A   1      33.029  26.094  23.029  1.00  0.00     0.254 C 
ATOM     13  O   UNL A   1      33.643  26.047  21.963  1.00  0.00    -0.269 OA
BRANCH  12  14
ATOM     14  C   UNL A   1      33.339  25.049  24.026  1.00  0.00     0.041 A 
ATOM     15  C   UNL A   1      34.429  22.511  27.322  1.00  0.00     0.046 C 
ATOM     16  C   UNL A   1      34.137  23.281  26.077  1.00  0.00    -0.031 A 
ATOM     17  C   UNL A   1      33.028  24.151  26.227  1.00  0.00     0.005 A 
ATOM     18  C   UNL A   1      34.826  23.280  24.849  1.00  0.00     0.086 A 
ATOM     19  C   UNL A   1      32.632  25.025  25.220  1.00  0.00     0.014 A 
ATOM     20  C   UNL A   1      34.427  24.197  23.851  1.00  0.00     0.035 A 
BRANCH  18  21
ATOM     21  S   UNL A   1      36.211  22.288  24.271  1.00  0.00     0.243 S 
ATOM     22  O   UNL A   1      35.868  20.916  24.615  1.00  0.00    -0.207 OA
ATOM     23  O   UNL A   1      36.394  22.666  22.889  1.00  0.00    -0.207 OA
BRANCH  21  24
ATOM     24  N   UNL A   1      37.648  22.659  25.078  1.00  0.00    -0.198 NA
ATOM     25  C   UNL A   1      37.691  23.968  25.756  1.00  0.00     0.102 C 
ATOM     26  C   UNL A   1      38.498  21.520  25.478  1.00  0.00     0.102 C 
ATOM     27  C   UNL A   1      38.983  24.245  26.506  1.00  0.00     0.017 C 
ATOM     28  C   UNL A   1      39.735  21.902  26.276  1.00  0.00     0.017 C 
ATOM     29  C   UNL A   1      39.504  23.036  27.257  1.00  0.00     0.003 C 
ENDBRANCH  21  24
ENDBRANCH  18  21
ENDBRANCH  12  14
ENDBRANCH   7  12
ENDBRANCH   3   6
ENDBRANCH   1   2
BRANCH   1  30
ATOM     30  C   UNL A   1      34.897  29.284  27.750  1.00  0.00     0.042 C 
BRANCH  30  31
ATOM     31  C   UNL A   1      35.462  30.664  27.993  1.00  0.00     0.118 C 
BRANCH  31  32
ATOM     32  N   UNL A   1      34.474  31.643  28.436  1.00  0.00    -0.352 N 
ATOM     33  C   UNL A   1      34.575  32.603  29.430  1.00  0.00     0.251 C 
ATOM     34  H   UNL A   1      33.612  31.617  27.961  1.00  0.00     0.163 HD
ATOM     35  O   UNL A   1      33.641  33.370  29.643  1.00  0.00    -0.269 OA
BRANCH  33  36
ATOM     36  C   UNL A   1      35.877  32.817  30.102  1.00  0.00     0.039 A 
ATOM     37  C   UNL A   1      36.868  33.469  29.360  1.00  0.00     0.014 A 
ATOM     38  C   UNL A   1      36.212  32.058  31.214  1.00  0.00     0.014 A 
ATOM     39  C   UNL A   1      38.186  33.071  29.517  1.00  0.00     0.010 A 
ATOM     40  C   UNL A   1      37.475  31.529  31.258  1.00  0.00     0.010 A 
ATOM     41  C   UNL A   1      38.436  31.997  30.363  1.00  0.00    -0.014 A 
BRANCH  41  42
ATOM     42  C   UNL A   1      39.714  31.333  30.472  1.00  0.00     0.031 A 
ATOM     43  C   UNL A   1      39.857  30.083  29.718  1.00  0.00     0.074 A 
ATOM     44  C   UNL A   1      40.717  31.949  31.131  1.00  0.00     0.049 A 
ATOM     45  N   UNL A   1      40.675  29.145  30.019  1.00  0.00    -0.248 NA
ATOM     46  C   UNL A   1      39.009  29.762  28.574  1.00  0.00     0.031 C 
ATOM     47  C   UNL A   1      42.131  31.602  31.171  1.00  0.00     0.029 A 
ATOM     48  N   UNL A   1      40.587  32.964  32.090  1.00  0.00    -0.354 N 
ATOM     49  C   UNL A   1      40.687  28.256  28.964  1.00  0.00     0.074 A 
ATOM     50  C   UNL A   1      39.554  28.619  28.154  1.00  0.00     0.031 C 
ATOM     51  C   UNL A   1      42.674  32.129  32.285  1.00  0.00     0.029 A 
ATOM     52  C   UNL A   1      41.587  32.714  33.055  1.00  0.00     0.049 A 
ATOM     53  H   UNL A   1      39.934  33.701  32.090  1.00  0.00     0.167 HD
ATOM     54  C   UNL A   1      41.763  27.429  28.841  1.00  0.00     0.037 A 
ATOM     55  C   UNL A   1      41.234  32.344  34.324  1.00  0.00     0.037 A 
ATOM     56  C   UNL A   1      42.664  27.644  29.973  1.00  0.00     0.049 A 
ATOM     57  C   UNL A   1      41.678  30.932  34.641  1.00  0.00     0.074 A 
ATOM     58  C   UNL A   1      43.769  28.466  30.129  1.00  0.00     0.029 A 
ATOM     59  N   UNL A   1      42.236  27.310  31.252  1.00  0.00    -0.354 N 
ATOM     60  N   UNL A   1      41.899  30.018  33.733  1.00  0.00    -0.248 NA
ATOM     61  C   UNL A   1      41.963  30.458  35.992  1.00  0.00     0.031 C 
ATOM     62  C   UNL A   1      43.954  28.686  31.519  1.00  0.00     0.029 A 
ATOM     63  C   UNL A   1      42.981  27.977  32.205  1.00  0.00     0.049 A 
ATOM     64  H   UNL A   1      41.502  26.684  31.452  1.00  0.00     0.167 HD
ATOM     65  C   UNL A   1      42.372  28.879  34.333  1.00  0.00     0.074 A 
ATOM     66  C   UNL A   1      42.392  29.206  35.747  1.00  0.00     0.031 C 
ATOM     67  C   UNL A   1      42.724  27.766  33.622  1.00  0.00     0.037 A 
BRANCH  54  68
ATOM     68  C   UNL A   1      42.159  26.668  27.597  1.00  0.00     0.057 A 
ATOM     69  C   UNL A   1      42.360  25.273  27.660  1.00  0.00     0.134 A 
ATOM     70  C   UNL A   1      42.401  27.221  26.326  1.00  0.00     0.134 A 
ATOM     71  F   UNL A   1      42.104  24.574  28.775  1.00  0.00    -0.206 F 
ATOM     72  C   UNL A   1      42.833  24.514  26.583  1.00  0.00     0.040 A 
ATOM     73  C   UNL A   1      42.907  26.480  25.247  1.00  0.00     0.040 A 
ATOM     74  F   UNL A   1      42.111  28.492  26.035  1.00  0.00    -0.206 F 
ATOM     75  C   UNL A   1      43.132  25.119  25.374  1.00  0.00     0.006 A 
ENDBRANCH  54  68
BRANCH  55  76
ATOM     76  C   UNL A   1      39.958  32.999  34.750  1.00  0.00     0.057 A 
ATOM     77  C   UNL A   1      38.823  32.171  34.893  1.00  0.00     0.134 A 
ATOM     78  C   UNL A   1      39.951  34.204  35.457  1.00  0.00     0.134 A 
ATOM     79  F   UNL A   1      38.743  31.016  34.213  1.00  0.00    -0.206 F 
ATOM     80  C   UNL A   1      37.837  32.425  35.851  1.00  0.00     0.040 A 
ATOM     81  C   UNL A   1      38.943  34.488  36.389  1.00  0.00     0.040 A 
ATOM     82  F   UNL A   1      40.977  35.060  35.363  1.00  0.00    -0.206 F 
ATOM     83  C   UNL A   1      37.923  33.567  36.639  1.00  0.00     0.006 A 
ENDBRANCH  55  76
BRANCH  67  84
ATOM     84  C   UNL A   1      42.943  26.377  34.182  1.00  0.00     0.057 A 
ATOM     85  C   UNL A   1      41.981  25.657  34.902  1.00  0.00     0.134 A 
ATOM     86  C   UNL A   1      44.106  25.640  33.848  1.00  0.00     0.134 A 
ATOM     87  F   UNL A   1      40.779  26.173  35.190  1.00  0.00    -0.206 F 
ATOM     88  C   UNL A   1      42.183  24.331  35.311  1.00  0.00     0.040 A 
ATOM     89  C   UNL A   1      44.284  24.296  34.182  1.00  0.00     0.040 A 
ATOM     90  F   UNL A   1      45.117  26.181  33.151  1.00  0.00    -0.206 F 
ATOM     91  C   UNL A   1      43.328  23.641  34.936  1.00  0.00     0.006 A 
ENDBRANCH  67  84
ENDBRANCH  41  42
ENDBRANCH  33  36
ENDBRANCH  31  32
ENDBRANCH  30  31
ENDBRANCH   1  30
TORSDOF 14
ENDMDL
