MODEL 1
REMARK VINA RESULT:     -13.4      0.000      0.000
REMARK SMILES C[C@H](C(=O)NCCCNC(=O)c1ccc(-c2c3nc(c(-c4c(F)cccc4F)c4ccc([nH]4)c(-c4c(F)cccc4F)c4nc(c(-c5c(F)cccc5F)c5ccc2[nH]5)C=C4)C=C3)cc1)c1ccc2c3cc(Cl)ccc3n(C(=O)c3cocn3)c2c1
REMARK SMILES IDX 6 1 5 2 3 3 4 4 2 6 1 7 66 8 67 9 86 10 68 11 85 12 69 13
REMARK SMILES IDX 77 14 70 15 76 16 71 17 75 18 72 19 74 20 73 21 78 22 79 23
REMARK SMILES IDX 80 24 81 25 84 26 82 27 83 28 7 29 8 30 9 31 10 32 11 34
REMARK SMILES IDX 12 35 13 36 65 37 14 38 64 39 15 40 16 41 17 42 58 43 18 44
REMARK SMILES IDX 63 45 57 46 59 47 19 48 62 49 56 50 55 51 20 53 46 54 29 55
REMARK SMILES IDX 45 56 30 57 33 58 44 59 60 60 31 61 32 62 43 64 61 65 34 66
REMARK SMILES IDX 21 67 22 68 27 69 23 70 24 71 26 72 28 73 25 74 47 75 48 76
REMARK SMILES IDX 53 77 49 78 50 79 52 80 54 81 51 82 35 83 36 84 41 85 37 86
REMARK SMILES IDX 38 87 40 88 42 89 39 90
REMARK H PARENT 5 5 9 33 59 52 33 63
REMARK Flexibility Score: inf
ROOT
ATOM      1  C   UNL A   1      34.870  20.121  24.925  1.00  0.00     0.117 C 
ENDROOT
BRANCH   1   2
ATOM      2  N   UNL A   1      33.502  20.327  25.368  1.00  0.00    -0.356 N 
ATOM      3  C   UNL A   1      32.542  21.172  24.889  1.00  0.00     0.227 C 
ATOM      4  O   UNL A   1      31.391  21.002  25.306  1.00  0.00    -0.274 OA
ATOM      5  H   UNL A   1      33.224  19.771  26.132  1.00  0.00     0.163 HD
BRANCH   3   6
ATOM      6  C   UNL A   1      32.863  22.341  23.951  1.00  0.00     0.105 C 
ATOM      7  C   UNL A   1      32.008  22.192  22.683  1.00  0.00     0.023 C 
BRANCH   6   8
ATOM      8  C   UNL A   1      32.830  23.751  24.545  1.00  0.00    -0.034 A 
ATOM      9  C   UNL A   1      33.728  24.094  25.561  1.00  0.00     0.005 A 
ATOM     10  C   UNL A   1      31.924  24.728  24.101  1.00  0.00     0.032 A 
ATOM     11  C   UNL A   1      33.804  25.401  26.058  1.00  0.00     0.011 A 
ATOM     12  C   UNL A   1      32.080  26.070  24.508  1.00  0.00     0.058 A 
ATOM     13  C   UNL A   1      33.001  26.412  25.492  1.00  0.00     0.008 A 
ATOM     14  N   UNL A   1      31.507  27.257  24.019  1.00  0.00    -0.274 N 
ATOM     15  C   UNL A   1      32.872  27.807  25.735  1.00  0.00     0.009 A 
ATOM     16  C   UNL A   1      31.911  28.310  24.852  1.00  0.00     0.057 A 
ATOM     17  C   UNL A   1      33.491  28.677  26.659  1.00  0.00     0.031 A 
ATOM     18  C   UNL A   1      31.501  29.657  24.928  1.00  0.00     0.029 A 
ATOM     19  C   UNL A   1      33.112  30.017  26.701  1.00  0.00     0.041 A 
ATOM     20  C   UNL A   1      32.125  30.501  25.854  1.00  0.00     0.023 A 
ATOM     21  Cl  UNL A   1      33.859  31.074  27.835  1.00  0.00    -0.084 Cl
BRANCH  14  22
ATOM     22  C   UNL A   1      30.707  27.345  22.843  1.00  0.00     0.284 C 
ATOM     23  O   UNL A   1      31.189  26.883  21.810  1.00  0.00    -0.266 OA
BRANCH  22  24
ATOM     24  C   UNL A   1      29.410  28.012  22.788  1.00  0.00     0.167 A 
ATOM     25  C   UNL A   1      28.260  27.699  23.483  1.00  0.00     0.231 A 
ATOM     26  N   UNL A   1      29.195  29.186  22.085  1.00  0.00    -0.211 NA
ATOM     27  O   UNL A   1      27.320  28.649  23.211  1.00  0.00    -0.451 OA
ATOM     28  C   UNL A   1      27.961  29.517  22.383  1.00  0.00     0.308 A 
ENDBRANCH  22  24
ENDBRANCH  14  22
ENDBRANCH   6   8
ENDBRANCH   3   6
ENDBRANCH   1   2
BRANCH   1  29
ATOM     29  C   UNL A   1      35.866  21.073  25.563  1.00  0.00     0.042 C 
BRANCH  29  30
ATOM     30  C   UNL A   1      37.192  21.198  24.823  1.00  0.00     0.118 C 
BRANCH  30  31
ATOM     31  N   UNL A   1      38.164  20.168  25.172  1.00  0.00    -0.352 N 
ATOM     32  C   UNL A   1      39.373  20.255  25.823  1.00  0.00     0.251 C 
ATOM     33  H   UNL A   1      37.912  19.257  24.896  1.00  0.00     0.163 HD
ATOM     34  O   UNL A   1      40.086  19.260  25.916  1.00  0.00    -0.269 OA
BRANCH  32  35
ATOM     35  C   UNL A   1      39.855  21.543  26.373  1.00  0.00     0.039 A 
ATOM     36  C   UNL A   1      40.950  21.528  27.245  1.00  0.00     0.014 A 
ATOM     37  C   UNL A   1      39.250  22.758  26.045  1.00  0.00     0.014 A 
ATOM     38  C   UNL A   1      41.501  22.730  27.697  1.00  0.00     0.010 A 
ATOM     39  C   UNL A   1      39.851  23.957  26.423  1.00  0.00     0.010 A 
ATOM     40  C   UNL A   1      40.992  23.955  27.239  1.00  0.00    -0.014 A 
BRANCH  40  41
ATOM     41  C   UNL A   1      41.648  25.245  27.575  1.00  0.00     0.031 A 
ATOM     42  C   UNL A   1      40.907  26.292  28.358  1.00  0.00     0.074 A 
ATOM     43  C   UNL A   1      42.875  25.517  27.087  1.00  0.00     0.049 A 
ATOM     44  N   UNL A   1      41.242  27.533  28.600  1.00  0.00    -0.248 NA
ATOM     45  C   UNL A   1      39.600  25.902  28.910  1.00  0.00     0.031 C 
ATOM     46  C   UNL A   1      43.685  24.613  26.266  1.00  0.00     0.029 A 
ATOM     47  N   UNL A   1      43.649  26.644  27.199  1.00  0.00    -0.354 N 
ATOM     48  C   UNL A   1      40.167  28.088  29.282  1.00  0.00     0.074 A 
ATOM     49  C   UNL A   1      39.164  27.050  29.408  1.00  0.00     0.031 C 
ATOM     50  C   UNL A   1      44.850  25.211  25.972  1.00  0.00     0.029 A 
ATOM     51  C   UNL A   1      44.855  26.551  26.548  1.00  0.00     0.049 A 
ATOM     52  H   UNL A   1      43.368  27.444  27.700  1.00  0.00     0.167 HD
ATOM     53  C   UNL A   1      40.028  29.345  29.765  1.00  0.00     0.037 A 
ATOM     54  C   UNL A   1      45.850  27.447  26.421  1.00  0.00     0.037 A 
ATOM     55  C   UNL A   1      41.047  30.358  29.706  1.00  0.00     0.049 A 
ATOM     56  C   UNL A   1      45.712  28.803  27.048  1.00  0.00     0.074 A 
ATOM     57  C   UNL A   1      41.020  31.642  30.225  1.00  0.00     0.029 A 
ATOM     58  N   UNL A   1      42.285  30.193  29.106  1.00  0.00    -0.354 N 
ATOM     59  N   UNL A   1      44.695  29.306  27.705  1.00  0.00    -0.248 NA
ATOM     60  C   UNL A   1      46.856  29.716  26.915  1.00  0.00     0.031 C 
ATOM     61  C   UNL A   1      42.245  32.255  29.934  1.00  0.00     0.029 A 
ATOM     62  C   UNL A   1      43.036  31.348  29.249  1.00  0.00     0.049 A 
ATOM     63  H   UNL A   1      42.586  29.376  28.647  1.00  0.00     0.167 HD
ATOM     64  C   UNL A   1      45.081  30.586  28.075  1.00  0.00     0.074 A 
ATOM     65  C   UNL A   1      46.427  30.781  27.580  1.00  0.00     0.031 C 
ATOM     66  C   UNL A   1      44.377  31.518  28.762  1.00  0.00     0.037 A 
BRANCH  53  67
ATOM     67  C   UNL A   1      38.719  29.690  30.406  1.00  0.00     0.057 A 
ATOM     68  C   UNL A   1      37.664  30.244  29.672  1.00  0.00     0.134 A 
ATOM     69  C   UNL A   1      38.509  29.454  31.769  1.00  0.00     0.134 A 
ATOM     70  F   UNL A   1      37.811  30.508  28.365  1.00  0.00    -0.206 F 
ATOM     71  C   UNL A   1      36.449  30.568  30.277  1.00  0.00     0.040 A 
ATOM     72  C   UNL A   1      37.294  29.757  32.382  1.00  0.00     0.040 A 
ATOM     73  F   UNL A   1      39.483  28.925  32.526  1.00  0.00    -0.206 F 
ATOM     74  C   UNL A   1      36.260  30.321  31.636  1.00  0.00     0.006 A 
ENDBRANCH  53  67
BRANCH  54  75
ATOM     75  C   UNL A   1      47.084  27.079  25.691  1.00  0.00     0.057 A 
ATOM     76  C   UNL A   1      47.256  27.442  24.350  1.00  0.00     0.134 A 
ATOM     77  C   UNL A   1      48.118  26.368  26.310  1.00  0.00     0.134 A 
ATOM     78  F   UNL A   1      46.288  28.109  23.704  1.00  0.00    -0.206 F 
ATOM     79  C   UNL A   1      48.409  27.101  23.644  1.00  0.00     0.040 A 
ATOM     80  C   UNL A   1      49.284  26.033  25.620  1.00  0.00     0.040 A 
ATOM     81  F   UNL A   1      48.012  26.000  27.594  1.00  0.00    -0.206 F 
ATOM     82  C   UNL A   1      49.430  26.396  24.282  1.00  0.00     0.006 A 
ENDBRANCH  54  75
BRANCH  66  83
ATOM     83  C   UNL A   1      45.065  32.817  29.040  1.00  0.00     0.057 A 
ATOM     84  C   UNL A   1      45.854  32.997  30.181  1.00  0.00     0.134 A 
ATOM     85  C   UNL A   1      44.962  33.884  28.140  1.00  0.00     0.134 A 
ATOM     86  F   UNL A   1      45.977  32.013  31.085  1.00  0.00    -0.206 F 
ATOM     87  C   UNL A   1      46.513  34.203  30.424  1.00  0.00     0.040 A 
ATOM     88  C   UNL A   1      45.626  35.090  28.366  1.00  0.00     0.040 A 
ATOM     89  F   UNL A   1      44.219  33.769  27.030  1.00  0.00    -0.206 F 
ATOM     90  C   UNL A   1      46.403  35.251  29.512  1.00  0.00     0.006 A 
ENDBRANCH  66  83
ENDBRANCH  40  41
ENDBRANCH  32  35
ENDBRANCH  30  31
ENDBRANCH  29  30
ENDBRANCH   1  29
TORSDOF 13
ENDMDL
MODEL 2
REMARK VINA RESULT:     -13.4      3.135      7.718
REMARK SMILES C[C@H](C(=O)NCCCNC(=O)c1ccc(-c2c3nc(c(-c4c(F)cccc4F)c4ccc([nH]4)c(-c4c(F)cccc4F)c4nc(c(-c5c(F)cccc5F)c5ccc2[nH]5)C=C4)C=C3)cc1)c1ccc2c3cc(Cl)ccc3n(C(=O)c3cocn3)c2c1
REMARK SMILES IDX 6 1 5 2 3 3 4 4 2 6 1 7 66 8 67 9 86 10 68 11 85 12 69 13
REMARK SMILES IDX 77 14 70 15 76 16 71 17 75 18 72 19 74 20 73 21 78 22 79 23
REMARK SMILES IDX 80 24 81 25 84 26 82 27 83 28 7 29 8 30 9 31 10 32 11 34
REMARK SMILES IDX 12 35 13 36 65 37 14 38 64 39 15 40 16 41 17 42 58 43 18 44
REMARK SMILES IDX 63 45 57 46 59 47 19 48 62 49 56 50 55 51 20 53 46 54 29 55
REMARK SMILES IDX 45 56 30 57 33 58 44 59 60 60 31 61 32 62 43 64 61 65 34 66
REMARK SMILES IDX 21 67 22 68 27 69 23 70 24 71 26 72 28 73 25 74 47 75 48 76
REMARK SMILES IDX 53 77 49 78 50 79 52 80 54 81 51 82 35 83 36 84 41 85 37 86
REMARK SMILES IDX 38 87 40 88 42 89 39 90
REMARK H PARENT 5 5 9 33 59 52 33 63
REMARK Flexibility Score: inf
ROOT
ATOM      1  C   UNL A   1      33.817  27.976  24.790  1.00  0.00     0.117 C 
ENDROOT
BRANCH   1   2
ATOM      2  N   UNL A   1      32.854  27.371  23.886  1.00  0.00    -0.356 N 
ATOM      3  C   UNL A   1      31.819  26.519  24.149  1.00  0.00     0.227 C 
ATOM      4  O   UNL A   1      31.015  26.319  23.231  1.00  0.00    -0.274 OA
ATOM      5  H   UNL A   1      32.965  27.613  22.938  1.00  0.00     0.163 HD
BRANCH   3   6
ATOM      6  C   UNL A   1      31.686  25.764  25.475  1.00  0.00     0.105 C 
ATOM      7  C   UNL A   1      30.305  26.077  26.074  1.00  0.00     0.023 C 
BRANCH   6   8
ATOM      8  C   UNL A   1      32.024  24.272  25.474  1.00  0.00    -0.034 A 
ATOM      9  C   UNL A   1      31.000  23.330  25.625  1.00  0.00     0.005 A 
ATOM     10  C   UNL A   1      33.340  23.803  25.321  1.00  0.00     0.032 A 
ATOM     11  C   UNL A   1      31.251  21.957  25.524  1.00  0.00     0.011 A 
ATOM     12  C   UNL A   1      33.578  22.430  25.096  1.00  0.00     0.058 A 
ATOM     13  C   UNL A   1      32.547  21.503  25.210  1.00  0.00     0.008 A 
ATOM     14  N   UNL A   1      34.726  21.752  24.653  1.00  0.00    -0.274 N 
ATOM     15  C   UNL A   1      33.107  20.213  25.003  1.00  0.00     0.009 A 
ATOM     16  C   UNL A   1      34.465  20.375  24.707  1.00  0.00     0.057 A 
ATOM     17  C   UNL A   1      32.560  18.913  25.065  1.00  0.00     0.031 A 
ATOM     18  C   UNL A   1      35.304  19.254  24.547  1.00  0.00     0.029 A 
ATOM     19  C   UNL A   1      33.386  17.809  24.864  1.00  0.00     0.041 A 
ATOM     20  C   UNL A   1      34.741  17.974  24.617  1.00  0.00     0.023 A 
ATOM     21  Cl  UNL A   1      32.719  16.224  24.952  1.00  0.00    -0.084 Cl
BRANCH  14  22
ATOM     22  C   UNL A   1      35.911  22.388  24.182  1.00  0.00     0.284 C 
ATOM     23  O   UNL A   1      35.901  22.783  23.018  1.00  0.00    -0.266 OA
BRANCH  22  24
ATOM     24  C   UNL A   1      37.133  22.517  24.970  1.00  0.00     0.167 A 
ATOM     25  C   UNL A   1      37.556  23.597  25.717  1.00  0.00     0.231 A 
ATOM     26  N   UNL A   1      38.012  21.466  25.176  1.00  0.00    -0.211 NA
ATOM     27  O   UNL A   1      38.698  23.245  26.375  1.00  0.00    -0.451 OA
ATOM     28  C   UNL A   1      38.896  21.948  26.017  1.00  0.00     0.308 A 
ENDBRANCH  22  24
ENDBRANCH  14  22
ENDBRANCH   6   8
ENDBRANCH   3   6
ENDBRANCH   1   2
BRANCH   1  29
ATOM     29  C   UNL A   1      33.201  28.966  25.762  1.00  0.00     0.042 C 
BRANCH  29  30
ATOM     30  C   UNL A   1      33.774  28.916  27.173  1.00  0.00     0.118 C 
BRANCH  30  31
ATOM     31  N   UNL A   1      33.853  30.217  27.826  1.00  0.00    -0.352 N 
ATOM     32  C   UNL A   1      34.880  30.816  28.520  1.00  0.00     0.251 C 
ATOM     33  H   UNL A   1      33.033  30.760  27.759  1.00  0.00     0.163 HD
ATOM     34  O   UNL A   1      34.687  31.889  29.086  1.00  0.00    -0.269 OA
BRANCH  32  35
ATOM     35  C   UNL A   1      36.203  30.164  28.639  1.00  0.00     0.039 A 
ATOM     36  C   UNL A   1      37.095  30.263  27.565  1.00  0.00     0.014 A 
ATOM     37  C   UNL A   1      36.580  29.460  29.785  1.00  0.00     0.014 A 
ATOM     38  C   UNL A   1      38.392  29.756  27.683  1.00  0.00     0.010 A 
ATOM     39  C   UNL A   1      37.897  29.033  29.937  1.00  0.00     0.010 A 
ATOM     40  C   UNL A   1      38.821  29.191  28.893  1.00  0.00    -0.014 A 
BRANCH  40  41
ATOM     41  C   UNL A   1      40.234  28.783  29.105  1.00  0.00     0.031 A 
ATOM     42  C   UNL A   1      41.224  29.753  29.686  1.00  0.00     0.074 A 
ATOM     43  C   UNL A   1      40.651  27.574  28.680  1.00  0.00     0.049 A 
ATOM     44  N   UNL A   1      42.524  29.645  29.788  1.00  0.00    -0.248 NA
ATOM     45  C   UNL A   1      40.685  31.028  30.184  1.00  0.00     0.031 C 
ATOM     46  C   UNL A   1      39.808  26.556  28.048  1.00  0.00     0.029 A 
ATOM     47  N   UNL A   1      41.899  27.003  28.701  1.00  0.00    -0.354 N 
ATOM     48  C   UNL A   1      42.964  30.855  30.308  1.00  0.00     0.074 A 
ATOM     49  C   UNL A   1      41.793  31.687  30.493  1.00  0.00     0.031 C 
ATOM     50  C   UNL A   1      40.557  25.478  27.767  1.00  0.00     0.029 A 
ATOM     51  C   UNL A   1      41.937  25.742  28.161  1.00  0.00     0.049 A 
ATOM     52  H   UNL A   1      42.693  27.455  29.070  1.00  0.00     0.167 HD
ATOM     53  C   UNL A   1      44.227  31.238  30.611  1.00  0.00     0.037 A 
ATOM     54  C   UNL A   1      42.968  24.894  27.993  1.00  0.00     0.037 A 
ATOM     55  C   UNL A   1      45.384  30.392  30.496  1.00  0.00     0.049 A 
ATOM     56  C   UNL A   1      44.344  25.306  28.424  1.00  0.00     0.074 A 
ATOM     57  C   UNL A   1      46.696  30.672  30.838  1.00  0.00     0.029 A 
ATOM     58  N   UNL A   1      45.363  29.092  30.018  1.00  0.00    -0.354 N 
ATOM     59  N   UNL A   1      44.740  26.448  28.931  1.00  0.00    -0.248 NA
ATOM     60  C   UNL A   1      45.416  24.314  28.259  1.00  0.00     0.031 C 
ATOM     61  C   UNL A   1      47.471  29.539  30.563  1.00  0.00     0.029 A 
ATOM     62  C   UNL A   1      46.637  28.552  30.065  1.00  0.00     0.049 A 
ATOM     63  H   UNL A   1      44.561  28.622  29.694  1.00  0.00     0.167 HD
ATOM     64  C   UNL A   1      46.101  26.308  29.158  1.00  0.00     0.074 A 
ATOM     65  C   UNL A   1      46.464  24.968  28.744  1.00  0.00     0.031 C 
ATOM     66  C   UNL A   1      46.974  27.214  29.662  1.00  0.00     0.037 A 
BRANCH  53  67
ATOM     67  C   UNL A   1      44.417  32.640  31.099  1.00  0.00     0.057 A 
ATOM     68  C   UNL A   1      44.673  33.699  30.220  1.00  0.00     0.134 A 
ATOM     69  C   UNL A   1      44.330  32.936  32.465  1.00  0.00     0.134 A 
ATOM     70  F   UNL A   1      44.784  33.474  28.902  1.00  0.00    -0.206 F 
ATOM     71  C   UNL A   1      44.855  35.002  30.683  1.00  0.00     0.040 A 
ATOM     72  C   UNL A   1      44.492  34.238  32.939  1.00  0.00     0.040 A 
ATOM     73  F   UNL A   1      44.087  31.965  33.358  1.00  0.00    -0.206 F 
ATOM     74  C   UNL A   1      44.761  35.275  32.048  1.00  0.00     0.006 A 
ENDBRANCH  53  67
BRANCH  54  75
ATOM     75  C   UNL A   1      42.731  23.553  27.412  1.00  0.00     0.057 A 
ATOM     76  C   UNL A   1      42.376  22.473  28.229  1.00  0.00     0.134 A 
ATOM     77  C   UNL A   1      42.845  23.318  26.038  1.00  0.00     0.134 A 
ATOM     78  F   UNL A   1      42.270  22.639  29.556  1.00  0.00    -0.206 F 
ATOM     79  C   UNL A   1      42.153  21.202  27.702  1.00  0.00     0.040 A 
ATOM     80  C   UNL A   1      42.611  22.054  25.494  1.00  0.00     0.040 A 
ATOM     81  F   UNL A   1      43.176  24.315  25.206  1.00  0.00    -0.206 F 
ATOM     82  C   UNL A   1      42.267  20.991  26.329  1.00  0.00     0.006 A 
ENDBRANCH  54  75
BRANCH  66  83
ATOM     83  C   UNL A   1      48.394  26.772  29.818  1.00  0.00     0.057 A 
ATOM     84  C   UNL A   1      49.349  27.012  28.824  1.00  0.00     0.134 A 
ATOM     85  C   UNL A   1      48.816  26.130  30.990  1.00  0.00     0.134 A 
ATOM     86  F   UNL A   1      48.998  27.611  27.676  1.00  0.00    -0.206 F 
ATOM     87  C   UNL A   1      50.678  26.619  28.985  1.00  0.00     0.040 A 
ATOM     88  C   UNL A   1      50.145  25.744  31.167  1.00  0.00     0.040 A 
ATOM     89  F   UNL A   1      47.945  25.874  31.976  1.00  0.00    -0.206 F 
ATOM     90  C   UNL A   1      51.079  25.987  30.161  1.00  0.00     0.006 A 
ENDBRANCH  66  83
ENDBRANCH  40  41
ENDBRANCH  32  35
ENDBRANCH  30  31
ENDBRANCH  29  30
ENDBRANCH   1  29
TORSDOF 13
ENDMDL
MODEL 3
REMARK VINA RESULT:     -13.4      0.514      6.052
REMARK SMILES C[C@H](C(=O)NCCCNC(=O)c1ccc(-c2c3nc(c(-c4c(F)cccc4F)c4ccc([nH]4)c(-c4c(F)cccc4F)c4nc(c(-c5c(F)cccc5F)c5ccc2[nH]5)C=C4)C=C3)cc1)c1ccc2c3cc(Cl)ccc3n(C(=O)c3cocn3)c2c1
REMARK SMILES IDX 6 1 5 2 3 3 4 4 2 6 1 7 66 8 67 9 86 10 68 11 85 12 69 13
REMARK SMILES IDX 77 14 70 15 76 16 71 17 75 18 72 19 74 20 73 21 78 22 79 23
REMARK SMILES IDX 80 24 81 25 84 26 82 27 83 28 7 29 8 30 9 31 10 32 11 34
REMARK SMILES IDX 12 35 13 36 65 37 14 38 64 39 15 40 16 41 17 42 58 43 18 44
REMARK SMILES IDX 63 45 57 46 59 47 19 48 62 49 56 50 55 51 20 53 46 54 29 55
REMARK SMILES IDX 45 56 30 57 33 58 44 59 60 60 31 61 32 62 43 64 61 65 34 66
REMARK SMILES IDX 21 67 22 68 27 69 23 70 24 71 26 72 28 73 25 74 47 75 48 76
REMARK SMILES IDX 53 77 49 78 50 79 52 80 54 81 51 82 35 83 36 84 41 85 37 86
REMARK SMILES IDX 38 87 40 88 42 89 39 90
REMARK H PARENT 5 5 9 33 59 52 33 63
REMARK Flexibility Score: inf
ROOT
ATOM      1  C   UNL A   1      35.237  19.996  24.934  1.00  0.00     0.117 C 
ENDROOT
BRANCH   1   2
ATOM      2  N   UNL A   1      33.860  20.142  25.377  1.00  0.00    -0.356 N 
ATOM      3  C   UNL A   1      32.859  20.930  24.884  1.00  0.00     0.227 C 
ATOM      4  O   UNL A   1      31.718  20.711  25.306  1.00  0.00    -0.274 OA
ATOM      5  H   UNL A   1      33.612  19.588  26.152  1.00  0.00     0.163 HD
BRANCH   3   6
ATOM      6  C   UNL A   1      33.121  22.095  23.923  1.00  0.00     0.105 C 
ATOM      7  C   UNL A   1      32.181  21.946  22.716  1.00  0.00     0.023 C 
BRANCH   6   8
ATOM      8  C   UNL A   1      33.134  23.506  24.514  1.00  0.00    -0.034 A 
ATOM      9  C   UNL A   1      34.032  23.818  25.540  1.00  0.00     0.005 A 
ATOM     10  C   UNL A   1      32.271  24.516  24.057  1.00  0.00     0.032 A 
ATOM     11  C   UNL A   1      34.151  25.122  26.035  1.00  0.00     0.011 A 
ATOM     12  C   UNL A   1      32.472  25.852  24.464  1.00  0.00     0.058 A 
ATOM     13  C   UNL A   1      33.394  26.162  25.458  1.00  0.00     0.008 A 
ATOM     14  N   UNL A   1      31.950  27.058  23.966  1.00  0.00    -0.274 N 
ATOM     15  C   UNL A   1      33.315  27.561  25.697  1.00  0.00     0.009 A 
ATOM     16  C   UNL A   1      32.383  28.098  24.801  1.00  0.00     0.057 A 
ATOM     17  C   UNL A   1      33.955  28.409  26.626  1.00  0.00     0.031 A 
ATOM     18  C   UNL A   1      32.024  29.459  24.870  1.00  0.00     0.029 A 
ATOM     19  C   UNL A   1      33.626  29.762  26.661  1.00  0.00     0.041 A 
ATOM     20  C   UNL A   1      32.668  30.281  25.802  1.00  0.00     0.023 A 
ATOM     21  Cl  UNL A   1      34.400  30.793  27.802  1.00  0.00    -0.084 Cl
BRANCH  14  22
ATOM     22  C   UNL A   1      31.167  27.174  22.780  1.00  0.00     0.284 C 
ATOM     23  O   UNL A   1      31.655  26.712  21.749  1.00  0.00    -0.266 OA
BRANCH  22  24
ATOM     24  C   UNL A   1      29.885  27.868  22.715  1.00  0.00     0.167 A 
ATOM     25  C   UNL A   1      28.727  27.586  23.409  1.00  0.00     0.231 A 
ATOM     26  N   UNL A   1      29.697  29.039  21.998  1.00  0.00    -0.211 NA
ATOM     27  O   UNL A   1      27.808  28.554  23.125  1.00  0.00    -0.451 OA
ATOM     28  C   UNL A   1      28.470  29.399  22.290  1.00  0.00     0.308 A 
ENDBRANCH  22  24
ENDBRANCH  14  22
ENDBRANCH   6   8
ENDBRANCH   3   6
ENDBRANCH   1   2
BRANCH   1  29
ATOM     29  C   UNL A   1      36.177  21.037  25.517  1.00  0.00     0.042 C 
BRANCH  29  30
ATOM     30  C   UNL A   1      37.544  21.106  24.848  1.00  0.00     0.118 C 
BRANCH  30  31
ATOM     31  N   UNL A   1      38.524  20.184  25.411  1.00  0.00    -0.352 N 
ATOM     32  C   UNL A   1      39.648  20.419  26.170  1.00  0.00     0.251 C 
ATOM     33  H   UNL A   1      38.352  19.234  25.216  1.00  0.00     0.163 HD
ATOM     34  O   UNL A   1      40.399  19.488  26.449  1.00  0.00    -0.269 OA
BRANCH  32  35
ATOM     35  C   UNL A   1      39.998  21.787  26.616  1.00  0.00     0.039 A 
ATOM     36  C   UNL A   1      41.062  21.945  27.513  1.00  0.00     0.014 A 
ATOM     37  C   UNL A   1      39.301  22.911  26.168  1.00  0.00     0.014 A 
ATOM     38  C   UNL A   1      41.491  23.225  27.870  1.00  0.00     0.010 A 
ATOM     39  C   UNL A   1      39.783  24.186  26.454  1.00  0.00     0.010 A 
ATOM     40  C   UNL A   1      40.892  24.356  27.295  1.00  0.00    -0.014 A 
BRANCH  40  41
ATOM     41  C   UNL A   1      41.423  25.724  27.532  1.00  0.00     0.031 A 
ATOM     42  C   UNL A   1      42.785  26.107  27.024  1.00  0.00     0.074 A 
ATOM     43  C   UNL A   1      40.723  26.589  28.292  1.00  0.00     0.049 A 
ATOM     44  N   UNL A   1      43.486  27.183  27.274  1.00  0.00    -0.248 NA
ATOM     45  C   UNL A   1      43.462  25.136  26.152  1.00  0.00     0.031 C 
ATOM     46  C   UNL A   1      39.413  26.328  28.893  1.00  0.00     0.029 A 
ATOM     47  N   UNL A   1      41.027  27.863  28.702  1.00  0.00    -0.354 N 
ATOM     48  C   UNL A   1      44.706  26.995  26.638  1.00  0.00     0.074 A 
ATOM     49  C   UNL A   1      44.653  25.697  25.997  1.00  0.00     0.031 C 
ATOM     50  C   UNL A   1      39.016  27.416  29.572  1.00  0.00     0.029 A 
ATOM     51  C   UNL A   1      40.056  28.434  29.488  1.00  0.00     0.049 A 
ATOM     52  H   UNL A   1      41.861  28.325  28.456  1.00  0.00     0.167 HD
ATOM     53  C   UNL A   1      45.771  27.828  26.585  1.00  0.00     0.037 A 
ATOM     54  C   UNL A   1      40.011  29.641  30.081  1.00  0.00     0.037 A 
ATOM     55  C   UNL A   1      45.804  29.146  27.159  1.00  0.00     0.049 A 
ATOM     56  C   UNL A   1      41.167  30.586  29.928  1.00  0.00     0.074 A 
ATOM     57  C   UNL A   1      46.817  30.088  27.103  1.00  0.00     0.029 A 
ATOM     58  N   UNL A   1      44.766  29.716  27.879  1.00  0.00    -0.354 N 
ATOM     59  N   UNL A   1      42.306  30.399  29.308  1.00  0.00    -0.248 NA
ATOM     60  C   UNL A   1      41.033  31.906  30.560  1.00  0.00     0.031 C 
ATOM     61  C   UNL A   1      46.392  31.229  27.794  1.00  0.00     0.029 A 
ATOM     62  C   UNL A   1      45.110  31.000  28.266  1.00  0.00     0.049 A 
ATOM     63  H   UNL A   1      43.912  29.273  28.085  1.00  0.00     0.167 HD
ATOM     64  C   UNL A   1      43.018  31.580  29.461  1.00  0.00     0.074 A 
ATOM     65  C   UNL A   1      42.180  32.482  30.224  1.00  0.00     0.031 C 
ATOM     66  C   UNL A   1      44.258  31.886  29.011  1.00  0.00     0.037 A 
BRANCH  53  67
ATOM     67  C   UNL A   1      46.993  27.332  25.876  1.00  0.00     0.057 A 
ATOM     68  C   UNL A   1      48.014  26.654  26.553  1.00  0.00     0.134 A 
ATOM     69  C   UNL A   1      47.142  27.523  24.497  1.00  0.00     0.134 A 
ATOM     70  F   UNL A   1      47.935  26.456  27.877  1.00  0.00    -0.206 F 
ATOM     71  C   UNL A   1      49.151  26.200  25.885  1.00  0.00     0.040 A 
ATOM     72  C   UNL A   1      48.266  27.057  23.815  1.00  0.00     0.040 A 
ATOM     73  F   UNL A   1      46.198  28.165  23.792  1.00  0.00    -0.206 F 
ATOM     74  C   UNL A   1      49.278  26.398  24.510  1.00  0.00     0.006 A 
ENDBRANCH  53  67
BRANCH  54  75
ATOM     75  C   UNL A   1      38.812  30.038  30.853  1.00  0.00     0.057 A 
ATOM     76  C   UNL A   1      37.757  30.718  30.234  1.00  0.00     0.134 A 
ATOM     77  C   UNL A   1      38.687  29.745  32.215  1.00  0.00     0.134 A 
ATOM     78  F   UNL A   1      37.833  31.038  28.933  1.00  0.00    -0.206 F 
ATOM     79  C   UNL A   1      36.621  31.103  30.945  1.00  0.00     0.040 A 
ATOM     80  C   UNL A   1      37.549  30.113  32.936  1.00  0.00     0.040 A 
ATOM     81  F   UNL A   1      39.663  29.091  32.859  1.00  0.00    -0.206 F 
ATOM     82  C   UNL A   1      36.514  30.797  32.301  1.00  0.00     0.006 A 
ENDBRANCH  54  75
BRANCH  66  83
ATOM     83  C   UNL A   1      44.767  33.261  29.310  1.00  0.00     0.057 A 
ATOM     84  C   UNL A   1      44.516  34.336  28.450  1.00  0.00     0.134 A 
ATOM     85  C   UNL A   1      45.484  33.516  30.485  1.00  0.00     0.134 A 
ATOM     86  F   UNL A   1      43.845  34.147  27.304  1.00  0.00    -0.206 F 
ATOM     87  C   UNL A   1      44.972  35.621  28.745  1.00  0.00     0.040 A 
ATOM     88  C   UNL A   1      45.934  34.799  30.796  1.00  0.00     0.040 A 
ATOM     89  F   UNL A   1      45.754  32.524  31.346  1.00  0.00    -0.206 F 
ATOM     90  C   UNL A   1      45.679  35.855  29.924  1.00  0.00     0.006 A 
ENDBRANCH  66  83
ENDBRANCH  40  41
ENDBRANCH  32  35
ENDBRANCH  30  31
ENDBRANCH  29  30
ENDBRANCH   1  29
TORSDOF 13
ENDMDL
