MODEL 1
REMARK VINA RESULT:      -9.0      0.000      0.000
REMARK SMILES C[C@H](CNS(=O)(=O)CCC(=O)NCCCNC(=O)c1ccc(-c2c3nc(c(-c4c(F)cccc4F)c4ccc([nH]4)c(-c4c(F)cccc4F)c4nc(c(-c5c(F)cccc5F)c5ccc2[nH]5)C=C4)C=C3)cc1)c1ccccc1
REMARK SMILES IDX 10 1 11 2 12 3 9 5 8 6 5 7 6 8 7 9 4 10 3 12 2 13 1 14 73 15
REMARK SMILES IDX 74 16 78 17 75 18 77 19 76 20 13 21 14 22 15 23 16 24 17 25
REMARK SMILES IDX 18 27 19 28 20 29 72 30 21 31 71 32 22 33 23 34 24 35 65 36
REMARK SMILES IDX 25 37 70 38 64 39 66 40 26 41 69 42 63 43 62 44 27 46 53 47
REMARK SMILES IDX 36 48 52 49 37 50 40 51 51 52 67 53 38 54 39 55 50 57 68 58
REMARK SMILES IDX 41 59 28 60 29 61 34 62 30 63 31 64 33 65 35 66 32 67 54 68
REMARK SMILES IDX 55 69 60 70 56 71 57 72 59 73 61 74 58 75 42 76 43 77 48 78
REMARK SMILES IDX 44 79 45 80 47 81 49 82 46 83
REMARK H PARENT 12 4 4 11 16 26 66 45 40 56
REMARK Flexibility Score: inf
ROOT
ATOM      1  C   UNL A   1      34.134  34.155  33.028  1.00  0.00     0.221 C 
ATOM      2  O   UNL A   1      33.584  33.080  33.275  1.00  0.00    -0.275 OA
ATOM      3  N   UNL A   1      33.429  35.067  32.301  1.00  0.00    -0.356 N 
ATOM      4  H   UNL A   1      32.563  34.727  31.976  1.00  0.00     0.163 HD
ENDROOT
BRANCH   1   5
ATOM      5  C   UNL A   1      35.570  34.378  33.429  1.00  0.00     0.117 C 
BRANCH   5   6
ATOM      6  C   UNL A   1      36.239  33.063  33.804  1.00  0.00     0.164 C 
BRANCH   6   7
ATOM      7  S   UNL A   1      37.523  33.255  35.032  1.00  0.00     0.212 S 
ATOM      8  O   UNL A   1      37.018  32.793  36.299  1.00  0.00    -0.212 OA
ATOM      9  O   UNL A   1      38.057  34.594  34.883  1.00  0.00    -0.212 OA
BRANCH   7  10
ATOM     10  N   UNL A   1      38.721  32.187  34.525  1.00  0.00    -0.215 NA
ATOM     11  H   UNL A   1      38.319  31.605  33.791  1.00  0.00     0.141 HD
BRANCH  10  12
ATOM     12  C   UNL A   1      39.313  31.278  35.532  1.00  0.00     0.106 C 
BRANCH  12  13
ATOM     13  C   UNL A   1      40.828  31.012  35.328  1.00  0.00     0.031 C 
ATOM     14  C   UNL A   1      41.749  31.730  36.319  1.00  0.00     0.014 C 
BRANCH  13  15
ATOM     15  C   UNL A   1      41.209  29.552  35.137  1.00  0.00    -0.044 A 
ATOM     16  C   UNL A   1      41.691  28.741  36.170  1.00  0.00     0.004 A 
ATOM     17  C   UNL A   1      41.013  28.970  33.870  1.00  0.00     0.004 A 
ATOM     18  C   UNL A   1      41.879  27.373  35.968  1.00  0.00     0.000 A 
ATOM     19  C   UNL A   1      41.217  27.606  33.666  1.00  0.00     0.000 A 
ATOM     20  C   UNL A   1      41.624  26.801  34.723  1.00  0.00     0.000 A 
ENDBRANCH  13  15
ENDBRANCH  12  13
ENDBRANCH  10  12
ENDBRANCH   7  10
ENDBRANCH   6   7
ENDBRANCH   5   6
ENDBRANCH   1   5
BRANCH   3  21
ATOM     21  C   UNL A   1      33.702  36.449  31.907  1.00  0.00     0.117 C 
BRANCH  21  22
ATOM     22  C   UNL A   1      32.850  36.985  30.737  1.00  0.00     0.042 C 
BRANCH  22  23
ATOM     23  C   UNL A   1      33.368  36.757  29.308  1.00  0.00     0.118 C 
BRANCH  23  24
ATOM     24  N   UNL A   1      32.656  35.706  28.608  1.00  0.00    -0.352 N 
ATOM     25  C   UNL A   1      33.026  34.416  28.309  1.00  0.00     0.251 C 
ATOM     26  H   UNL A   1      31.757  35.958  28.293  1.00  0.00     0.163 HD
ATOM     27  O   UNL A   1      32.276  33.732  27.614  1.00  0.00    -0.269 OA
BRANCH  25  28
ATOM     28  C   UNL A   1      34.301  33.812  28.773  1.00  0.00     0.039 A 
ATOM     29  C   UNL A   1      35.469  34.091  28.056  1.00  0.00     0.014 A 
ATOM     30  C   UNL A   1      34.350  32.850  29.781  1.00  0.00     0.014 A 
ATOM     31  C   UNL A   1      36.682  33.452  28.375  1.00  0.00     0.010 A 
ATOM     32  C   UNL A   1      35.578  32.234  30.110  1.00  0.00     0.010 A 
ATOM     33  C   UNL A   1      36.782  32.540  29.442  1.00  0.00    -0.014 A 
BRANCH  33  34
ATOM     34  C   UNL A   1      38.127  31.983  29.870  1.00  0.00     0.031 A 
ATOM     35  C   UNL A   1      39.103  32.763  30.739  1.00  0.00     0.074 A 
ATOM     36  C   UNL A   1      38.549  30.774  29.422  1.00  0.00     0.049 A 
ATOM     37  N   UNL A   1      40.305  32.419  31.151  1.00  0.00    -0.248 NA
ATOM     38  C   UNL A   1      38.701  34.107  31.172  1.00  0.00     0.031 C 
ATOM     39  C   UNL A   1      37.818  29.907  28.496  1.00  0.00     0.029 A 
ATOM     40  N   UNL A   1      39.711  30.066  29.669  1.00  0.00    -0.354 N 
ATOM     41  C   UNL A   1      40.805  33.507  31.864  1.00  0.00     0.074 A 
ATOM     42  C   UNL A   1      39.798  34.544  31.779  1.00  0.00     0.031 C 
ATOM     43  C   UNL A   1      38.526  28.789  28.273  1.00  0.00     0.029 A 
ATOM     44  C   UNL A   1      39.785  28.858  29.011  1.00  0.00     0.049 A 
ATOM     45  H   UNL A   1      40.424  30.398  30.261  1.00  0.00     0.167 HD
ATOM     46  C   UNL A   1      41.968  33.635  32.553  1.00  0.00     0.037 A 
ATOM     47  C   UNL A   1      40.739  27.902  28.982  1.00  0.00     0.037 A 
ATOM     48  C   UNL A   1      42.965  32.604  32.720  1.00  0.00     0.049 A 
ATOM     49  C   UNL A   1      42.004  28.052  29.787  1.00  0.00     0.074 A 
ATOM     50  C   UNL A   1      44.099  32.628  33.520  1.00  0.00     0.029 A 
ATOM     51  N   UNL A   1      42.961  31.376  32.082  1.00  0.00    -0.354 N 
ATOM     52  N   UNL A   1      42.378  29.035  30.567  1.00  0.00    -0.248 NA
ATOM     53  C   UNL A   1      42.977  26.948  29.719  1.00  0.00     0.031 C 
ATOM     54  C   UNL A   1      44.810  31.442  33.321  1.00  0.00     0.029 A 
ATOM     55  C   UNL A   1      44.089  30.652  32.446  1.00  0.00     0.049 A 
ATOM     56  H   UNL A   1      42.264  31.065  31.462  1.00  0.00     0.167 HD
ATOM     57  C   UNL A   1      43.600  28.648  31.107  1.00  0.00     0.074 A 
ATOM     58  C   UNL A   1      43.901  27.336  30.584  1.00  0.00     0.031 C 
ATOM     59  C   UNL A   1      44.397  29.332  31.962  1.00  0.00     0.037 A 
BRANCH  46  60
ATOM     60  C   UNL A   1      42.244  34.948  33.238  1.00  0.00     0.057 A 
ATOM     61  C   UNL A   1      41.781  35.216  34.533  1.00  0.00     0.134 A 
ATOM     62  C   UNL A   1      43.079  35.905  32.642  1.00  0.00     0.134 A 
ATOM     63  F   UNL A   1      40.988  34.338  35.165  1.00  0.00    -0.206 F 
ATOM     64  C   UNL A   1      42.112  36.397  35.198  1.00  0.00     0.040 A 
ATOM     65  C   UNL A   1      43.442  37.077  33.310  1.00  0.00     0.040 A 
ATOM     66  F   UNL A   1      43.583  35.703  31.415  1.00  0.00    -0.206 F 
ATOM     67  C   UNL A   1      42.954  37.328  34.591  1.00  0.00     0.006 A 
ENDBRANCH  46  60
BRANCH  47  68
ATOM     68  C   UNL A   1      40.555  26.677  28.155  1.00  0.00     0.057 A 
ATOM     69  C   UNL A   1      41.199  26.531  26.919  1.00  0.00     0.134 A 
ATOM     70  C   UNL A   1      39.668  25.664  28.540  1.00  0.00     0.134 A 
ATOM     71  F   UNL A   1      42.039  27.481  26.480  1.00  0.00    -0.206 F 
ATOM     72  C   UNL A   1      40.933  25.451  26.076  1.00  0.00     0.040 A 
ATOM     73  C   UNL A   1      39.419  24.561  27.722  1.00  0.00     0.040 A 
ATOM     74  F   UNL A   1      39.023  25.739  29.713  1.00  0.00    -0.206 F 
ATOM     75  C   UNL A   1      40.040  24.460  26.478  1.00  0.00     0.006 A 
ENDBRANCH  47  68
BRANCH  59  76
ATOM     76  C   UNL A   1      45.653  28.663  32.450  1.00  0.00     0.057 A 
ATOM     77  C   UNL A   1      45.702  27.946  33.653  1.00  0.00     0.134 A 
ATOM     78  C   UNL A   1      46.825  28.701  31.680  1.00  0.00     0.134 A 
ATOM     79  F   UNL A   1      44.623  27.876  34.447  1.00  0.00    -0.206 F 
ATOM     80  C   UNL A   1      46.872  27.312  34.083  1.00  0.00     0.040 A 
ATOM     81  C   UNL A   1      47.991  28.047  32.084  1.00  0.00     0.040 A 
ATOM     82  F   UNL A   1      46.853  29.362  30.514  1.00  0.00    -0.206 F 
ATOM     83  C   UNL A   1      48.018  27.354  33.292  1.00  0.00     0.006 A 
ENDBRANCH  59  76
ENDBRANCH  33  34
ENDBRANCH  25  28
ENDBRANCH  23  24
ENDBRANCH  22  23
ENDBRANCH  21  22
ENDBRANCH   3  21
TORSDOF 16
ENDMDL
MODEL 2
REMARK VINA RESULT:      -8.6      5.116     10.252
REMARK SMILES C[C@H](CNS(=O)(=O)CCC(=O)NCCCNC(=O)c1ccc(-c2c3nc(c(-c4c(F)cccc4F)c4ccc([nH]4)c(-c4c(F)cccc4F)c4nc(c(-c5c(F)cccc5F)c5ccc2[nH]5)C=C4)C=C3)cc1)c1ccccc1
REMARK SMILES IDX 10 1 11 2 12 3 9 5 8 6 5 7 6 8 7 9 4 10 3 12 2 13 1 14 73 15
REMARK SMILES IDX 74 16 78 17 75 18 77 19 76 20 13 21 14 22 15 23 16 24 17 25
REMARK SMILES IDX 18 27 19 28 20 29 72 30 21 31 71 32 22 33 23 34 24 35 65 36
REMARK SMILES IDX 25 37 70 38 64 39 66 40 26 41 69 42 63 43 62 44 27 46 53 47
REMARK SMILES IDX 36 48 52 49 37 50 40 51 51 52 67 53 38 54 39 55 50 57 68 58
REMARK SMILES IDX 41 59 28 60 29 61 34 62 30 63 31 64 33 65 35 66 32 67 54 68
REMARK SMILES IDX 55 69 60 70 56 71 57 72 59 73 61 74 58 75 42 76 43 77 48 78
REMARK SMILES IDX 44 79 45 80 47 81 49 82 46 83
REMARK H PARENT 12 4 4 11 16 26 66 45 40 56
REMARK Flexibility Score: inf
ROOT
ATOM      1  C   UNL A   1      33.006  20.476  25.041  1.00  0.00     0.221 C 
ATOM      2  O   UNL A   1      32.173  19.582  25.199  1.00  0.00    -0.275 OA
ATOM      3  N   UNL A   1      34.305  20.180  25.331  1.00  0.00    -0.356 N 
ATOM      4  H   UNL A   1      34.427  19.284  25.721  1.00  0.00     0.163 HD
ENDROOT
BRANCH   1   5
ATOM      5  C   UNL A   1      32.562  21.863  24.652  1.00  0.00     0.117 C 
BRANCH   5   6
ATOM      6  C   UNL A   1      31.339  22.285  25.455  1.00  0.00     0.164 C 
BRANCH   6   7
ATOM      7  S   UNL A   1      31.740  23.343  26.838  1.00  0.00     0.212 S 
ATOM      8  O   UNL A   1      32.502  22.579  27.793  1.00  0.00    -0.212 OA
ATOM      9  O   UNL A   1      30.519  24.018  27.225  1.00  0.00    -0.212 OA
BRANCH   7  10
ATOM     10  N   UNL A   1      32.756  24.505  26.168  1.00  0.00    -0.215 NA
ATOM     11  H   UNL A   1      33.650  24.445  26.655  1.00  0.00     0.141 HD
BRANCH  10  12
ATOM     12  C   UNL A   1      32.323  25.920  26.219  1.00  0.00     0.106 C 
BRANCH  12  13
ATOM     13  C   UNL A   1      33.368  26.919  25.657  1.00  0.00     0.031 C 
ATOM     14  C   UNL A   1      33.360  27.074  24.133  1.00  0.00     0.014 C 
BRANCH  13  15
ATOM     15  C   UNL A   1      33.433  28.259  26.374  1.00  0.00    -0.044 A 
ATOM     16  C   UNL A   1      34.577  28.725  27.030  1.00  0.00     0.004 A 
ATOM     17  C   UNL A   1      32.304  29.099  26.328  1.00  0.00     0.004 A 
ATOM     18  C   UNL A   1      34.623  30.024  27.538  1.00  0.00     0.000 A 
ATOM     19  C   UNL A   1      32.346  30.391  26.851  1.00  0.00     0.000 A 
ATOM     20  C   UNL A   1      33.517  30.864  27.432  1.00  0.00     0.000 A 
ENDBRANCH  13  15
ENDBRANCH  12  13
ENDBRANCH  10  12
ENDBRANCH   7  10
ENDBRANCH   6   7
ENDBRANCH   5   6
ENDBRANCH   1   5
BRANCH   3  21
ATOM     21  C   UNL A   1      35.552  20.929  25.178  1.00  0.00     0.117 C 
BRANCH  21  22
ATOM     22  C   UNL A   1      35.626  22.261  25.954  1.00  0.00     0.042 C 
BRANCH  22  23
ATOM     23  C   UNL A   1      36.953  23.036  25.925  1.00  0.00     0.118 C 
BRANCH  23  24
ATOM     24  N   UNL A   1      38.113  22.177  26.071  1.00  0.00    -0.352 N 
ATOM     25  C   UNL A   1      39.411  22.473  26.418  1.00  0.00     0.251 C 
ATOM     26  H   UNL A   1      37.944  21.224  25.891  1.00  0.00     0.163 HD
ATOM     27  O   UNL A   1      40.250  21.576  26.383  1.00  0.00    -0.269 OA
BRANCH  25  28
ATOM     28  C   UNL A   1      39.851  23.835  26.816  1.00  0.00     0.039 A 
ATOM     29  C   UNL A   1      39.635  24.245  28.135  1.00  0.00     0.014 A 
ATOM     30  C   UNL A   1      40.310  24.773  25.892  1.00  0.00     0.014 A 
ATOM     31  C   UNL A   1      39.920  25.564  28.538  1.00  0.00     0.010 A 
ATOM     32  C   UNL A   1      40.617  26.086  26.311  1.00  0.00     0.010 A 
ATOM     33  C   UNL A   1      40.464  26.509  27.648  1.00  0.00    -0.014 A 
BRANCH  33  34
ATOM     34  C   UNL A   1      40.911  27.874  28.137  1.00  0.00     0.031 A 
ATOM     35  C   UNL A   1      42.374  28.286  28.207  1.00  0.00     0.074 A 
ATOM     36  C   UNL A   1      40.008  28.768  28.612  1.00  0.00     0.049 A 
ATOM     37  N   UNL A   1      42.900  29.413  28.639  1.00  0.00    -0.248 NA
ATOM     38  C   UNL A   1      43.377  27.305  27.771  1.00  0.00     0.031 C 
ATOM     39  C   UNL A   1      38.567  28.538  28.736  1.00  0.00     0.029 A 
ATOM     40  N   UNL A   1      40.168  30.051  29.103  1.00  0.00    -0.354 N 
ATOM     41  C   UNL A   1      44.282  29.264  28.551  1.00  0.00     0.074 A 
ATOM     42  C   UNL A   1      44.515  27.916  28.077  1.00  0.00     0.031 C 
ATOM     43  C   UNL A   1      37.979  29.636  29.238  1.00  0.00     0.029 A 
ATOM     44  C   UNL A   1      38.995  30.649  29.509  1.00  0.00     0.049 A 
ATOM     45  H   UNL A   1      41.044  30.498  29.158  1.00  0.00     0.167 HD
ATOM     46  C   UNL A   1      45.272  30.160  28.802  1.00  0.00     0.037 A 
ATOM     47  C   UNL A   1      38.738  31.863  30.044  1.00  0.00     0.037 A 
ATOM     48  C   UNL A   1      45.080  31.532  29.209  1.00  0.00     0.049 A 
ATOM     49  C   UNL A   1      39.850  32.853  30.277  1.00  0.00     0.074 A 
ATOM     50  C   UNL A   1      46.038  32.527  29.347  1.00  0.00     0.029 A 
ATOM     51  N   UNL A   1      43.867  32.105  29.548  1.00  0.00    -0.354 N 
ATOM     52  N   UNL A   1      41.132  32.728  30.045  1.00  0.00    -0.248 NA
ATOM     53  C   UNL A   1      39.474  34.163  30.836  1.00  0.00     0.031 C 
ATOM     54  C   UNL A   1      45.414  33.683  29.826  1.00  0.00     0.029 A 
ATOM     55  C   UNL A   1      44.059  33.428  29.926  1.00  0.00     0.049 A 
ATOM     56  H   UNL A   1      42.999  31.643  29.526  1.00  0.00     0.167 HD
ATOM     57  C   UNL A   1      41.702  33.950  30.389  1.00  0.00     0.074 A 
ATOM     58  C   UNL A   1      40.629  34.811  30.830  1.00  0.00     0.031 C 
ATOM     59  C   UNL A   1      43.004  34.315  30.341  1.00  0.00     0.037 A 
BRANCH  46  60
ATOM     60  C   UNL A   1      46.697  29.712  28.616  1.00  0.00     0.057 A 
ATOM     61  C   UNL A   1      47.356  29.843  27.386  1.00  0.00     0.134 A 
ATOM     62  C   UNL A   1      47.453  29.253  29.704  1.00  0.00     0.134 A 
ATOM     63  F   UNL A   1      46.695  30.287  26.306  1.00  0.00    -0.206 F 
ATOM     64  C   UNL A   1      48.703  29.508  27.238  1.00  0.00     0.040 A 
ATOM     65  C   UNL A   1      48.809  28.944  29.575  1.00  0.00     0.040 A 
ATOM     66  F   UNL A   1      46.896  29.129  30.918  1.00  0.00    -0.206 F 
ATOM     67  C   UNL A   1      49.437  29.067  28.337  1.00  0.00     0.006 A 
ENDBRANCH  46  60
BRANCH  47  68
ATOM     68  C   UNL A   1      37.346  32.248  30.407  1.00  0.00     0.057 A 
ATOM     69  C   UNL A   1      36.811  31.937  31.665  1.00  0.00     0.134 A 
ATOM     70  C   UNL A   1      36.492  32.857  29.479  1.00  0.00     0.134 A 
ATOM     71  F   UNL A   1      37.570  31.327  32.588  1.00  0.00    -0.206 F 
ATOM     72  C   UNL A   1      35.470  32.173  31.971  1.00  0.00     0.040 A 
ATOM     73  C   UNL A   1      35.157  33.130  29.784  1.00  0.00     0.040 A 
ATOM     74  F   UNL A   1      36.940  33.184  28.260  1.00  0.00    -0.206 F 
ATOM     75  C   UNL A   1      34.638  32.773  31.027  1.00  0.00     0.006 A 
ENDBRANCH  47  68
BRANCH  59  76
ATOM     76  C   UNL A   1      43.360  35.728  30.715  1.00  0.00     0.057 A 
ATOM     77  C   UNL A   1      43.649  36.104  32.034  1.00  0.00     0.134 A 
ATOM     78  C   UNL A   1      43.457  36.722  29.731  1.00  0.00     0.134 A 
ATOM     79  F   UNL A   1      43.565  35.210  33.030  1.00  0.00    -0.206 F 
ATOM     80  C   UNL A   1      43.999  37.417  32.362  1.00  0.00     0.040 A 
ATOM     81  C   UNL A   1      43.835  38.031  30.042  1.00  0.00     0.040 A 
ATOM     82  F   UNL A   1      43.202  36.436  28.445  1.00  0.00    -0.206 F 
ATOM     83  C   UNL A   1      44.101  38.382  31.362  1.00  0.00     0.006 A 
ENDBRANCH  59  76
ENDBRANCH  33  34
ENDBRANCH  25  28
ENDBRANCH  23  24
ENDBRANCH  22  23
ENDBRANCH  21  22
ENDBRANCH   3  21
TORSDOF 16
ENDMDL
MODEL 3
REMARK VINA RESULT:      -8.5      5.097      9.954
REMARK SMILES C[C@H](CNS(=O)(=O)CCC(=O)NCCCNC(=O)c1ccc(-c2c3nc(c(-c4c(F)cccc4F)c4ccc([nH]4)c(-c4c(F)cccc4F)c4nc(c(-c5c(F)cccc5F)c5ccc2[nH]5)C=C4)C=C3)cc1)c1ccccc1
REMARK SMILES IDX 10 1 11 2 12 3 9 5 8 6 5 7 6 8 7 9 4 10 3 12 2 13 1 14 73 15
REMARK SMILES IDX 74 16 78 17 75 18 77 19 76 20 13 21 14 22 15 23 16 24 17 25
REMARK SMILES IDX 18 27 19 28 20 29 72 30 21 31 71 32 22 33 23 34 24 35 65 36
REMARK SMILES IDX 25 37 70 38 64 39 66 40 26 41 69 42 63 43 62 44 27 46 53 47
REMARK SMILES IDX 36 48 52 49 37 50 40 51 51 52 67 53 38 54 39 55 50 57 68 58
REMARK SMILES IDX 41 59 28 60 29 61 34 62 30 63 31 64 33 65 35 66 32 67 54 68
REMARK SMILES IDX 55 69 60 70 56 71 57 72 59 73 61 74 58 75 42 76 43 77 48 78
REMARK SMILES IDX 44 79 45 80 47 81 49 82 46 83
REMARK H PARENT 12 4 4 11 16 26 66 45 40 56
REMARK Flexibility Score: inf
ROOT
ATOM      1  C   UNL A   1      32.985  20.456  25.035  1.00  0.00     0.221 C 
ATOM      2  O   UNL A   1      32.151  19.559  25.176  1.00  0.00    -0.275 OA
ATOM      3  N   UNL A   1      34.284  20.153  25.314  1.00  0.00    -0.356 N 
ATOM      4  H   UNL A   1      34.407  19.248  25.684  1.00  0.00     0.163 HD
ENDROOT
BRANCH   1   5
ATOM      5  C   UNL A   1      32.540  21.851  24.678  1.00  0.00     0.117 C 
BRANCH   5   6
ATOM      6  C   UNL A   1      31.304  22.246  25.475  1.00  0.00     0.164 C 
BRANCH   6   7
ATOM      7  S   UNL A   1      31.677  23.291  26.875  1.00  0.00     0.212 S 
ATOM      8  O   UNL A   1      32.413  22.517  27.842  1.00  0.00    -0.212 OA
ATOM      9  O   UNL A   1      30.450  23.970  27.239  1.00  0.00    -0.212 OA
BRANCH   7  10
ATOM     10  N   UNL A   1      32.714  24.455  26.238  1.00  0.00    -0.215 NA
ATOM     11  H   UNL A   1      33.587  24.402  26.762  1.00  0.00     0.141 HD
BRANCH  10  12
ATOM     12  C   UNL A   1      32.272  25.868  26.262  1.00  0.00     0.106 C 
BRANCH  12  13
ATOM     13  C   UNL A   1      33.305  26.860  25.667  1.00  0.00     0.031 C 
ATOM     14  C   UNL A   1      33.290  26.970  24.139  1.00  0.00     0.014 C 
BRANCH  13  15
ATOM     15  C   UNL A   1      33.359  28.221  26.344  1.00  0.00    -0.044 A 
ATOM     16  C   UNL A   1      34.494  28.707  27.002  1.00  0.00     0.004 A 
ATOM     17  C   UNL A   1      32.231  29.058  26.257  1.00  0.00     0.004 A 
ATOM     18  C   UNL A   1      34.532  30.021  27.472  1.00  0.00     0.000 A 
ATOM     19  C   UNL A   1      32.265  30.365  26.741  1.00  0.00     0.000 A 
ATOM     20  C   UNL A   1      33.427  30.856  27.325  1.00  0.00     0.000 A 
ENDBRANCH  13  15
ENDBRANCH  12  13
ENDBRANCH  10  12
ENDBRANCH   7  10
ENDBRANCH   6   7
ENDBRANCH   5   6
ENDBRANCH   1   5
BRANCH   3  21
ATOM     21  C   UNL A   1      35.531  20.903  25.174  1.00  0.00     0.117 C 
BRANCH  21  22
ATOM     22  C   UNL A   1      35.608  22.219  25.979  1.00  0.00     0.042 C 
BRANCH  22  23
ATOM     23  C   UNL A   1      36.926  23.009  25.937  1.00  0.00     0.118 C 
BRANCH  23  24
ATOM     24  N   UNL A   1      38.099  22.162  26.043  1.00  0.00    -0.352 N 
ATOM     25  C   UNL A   1      39.395  22.463  26.390  1.00  0.00     0.251 C 
ATOM     26  H   UNL A   1      37.940  21.213  25.832  1.00  0.00     0.163 HD
ATOM     27  O   UNL A   1      40.246  21.579  26.318  1.00  0.00    -0.269 OA
BRANCH  25  28
ATOM     28  C   UNL A   1      39.821  23.816  26.831  1.00  0.00     0.039 A 
ATOM     29  C   UNL A   1      39.603  24.181  28.164  1.00  0.00     0.014 A 
ATOM     30  C   UNL A   1      40.266  24.789  25.937  1.00  0.00     0.014 A 
ATOM     31  C   UNL A   1      39.873  25.489  28.608  1.00  0.00     0.010 A 
ATOM     32  C   UNL A   1      40.559  26.091  26.399  1.00  0.00     0.010 A 
ATOM     33  C   UNL A   1      40.404  26.469  27.748  1.00  0.00    -0.014 A 
BRANCH  33  34
ATOM     34  C   UNL A   1      40.837  27.823  28.281  1.00  0.00     0.031 A 
ATOM     35  C   UNL A   1      39.847  28.882  28.741  1.00  0.00     0.074 A 
ATOM     36  C   UNL A   1      42.148  28.171  28.296  1.00  0.00     0.049 A 
ATOM     37  N   UNL A   1      40.082  30.099  29.188  1.00  0.00    -0.248 NA
ATOM     38  C   UNL A   1      38.418  28.557  28.661  1.00  0.00     0.031 C 
ATOM     39  C   UNL A   1      43.254  27.349  27.802  1.00  0.00     0.029 A 
ATOM     40  N   UNL A   1      42.779  29.325  28.727  1.00  0.00    -0.354 N 
ATOM     41  C   UNL A   1      38.838  30.683  29.413  1.00  0.00     0.074 A 
ATOM     42  C   UNL A   1      37.851  29.708  29.000  1.00  0.00     0.031 C 
ATOM     43  C   UNL A   1      44.413  28.002  27.976  1.00  0.00     0.029 A 
ATOM     44  C   UNL A   1      44.147  29.312  28.566  1.00  0.00     0.049 A 
ATOM     45  H   UNL A   1      42.292  30.088  29.113  1.00  0.00     0.167 HD
ATOM     46  C   UNL A   1      38.529  31.896  29.942  1.00  0.00     0.037 A 
ATOM     47  C   UNL A   1      45.098  30.230  28.845  1.00  0.00     0.037 A 
ATOM     48  C   UNL A   1      39.479  32.868  30.428  1.00  0.00     0.049 A 
ATOM     49  C   UNL A   1      44.732  31.553  29.467  1.00  0.00     0.074 A 
ATOM     50  C   UNL A   1      39.225  34.056  31.099  1.00  0.00     0.029 A 
ATOM     51  N   UNL A   1      40.854  32.779  30.297  1.00  0.00    -0.354 N 
ATOM     52  N   UNL A   1      43.553  32.013  29.801  1.00  0.00    -0.248 NA
ATOM     53  C   UNL A   1      45.836  32.482  29.765  1.00  0.00     0.031 C 
ATOM     54  C   UNL A   1      40.438  34.712  31.320  1.00  0.00     0.029 A 
ATOM     55  C   UNL A   1      41.455  33.905  30.845  1.00  0.00     0.049 A 
ATOM     56  H   UNL A   1      41.333  32.029  29.877  1.00  0.00     0.167 HD
ATOM     57  C   UNL A   1      43.780  33.257  30.381  1.00  0.00     0.074 A 
ATOM     58  C   UNL A   1      45.208  33.477  30.371  1.00  0.00     0.031 C 
ATOM     59  C   UNL A   1      42.875  34.135  30.874  1.00  0.00     0.037 A 
BRANCH  46  60
ATOM     60  C   UNL A   1      37.074  32.263  30.069  1.00  0.00     0.057 A 
ATOM     61  C   UNL A   1      36.330  31.944  31.213  1.00  0.00     0.134 A 
ATOM     62  C   UNL A   1      36.443  33.045  29.090  1.00  0.00     0.134 A 
ATOM     63  F   UNL A   1      36.877  31.209  32.194  1.00  0.00    -0.206 F 
ATOM     64  C   UNL A   1      35.008  32.361  31.367  1.00  0.00     0.040 A 
ATOM     65  C   UNL A   1      35.130  33.494  29.246  1.00  0.00     0.040 A 
ATOM     66  F   UNL A   1      37.103  33.413  27.981  1.00  0.00    -0.206 F 
ATOM     67  C   UNL A   1      34.406  33.148  30.385  1.00  0.00     0.006 A 
ENDBRANCH  46  60
BRANCH  47  68
ATOM     68  C   UNL A   1      46.530  29.947  28.549  1.00  0.00     0.057 A 
ATOM     69  C   UNL A   1      47.073  30.202  27.282  1.00  0.00     0.134 A 
ATOM     70  C   UNL A   1      47.364  29.338  29.494  1.00  0.00     0.134 A 
ATOM     71  F   UNL A   1      46.317  30.758  26.323  1.00  0.00    -0.206 F 
ATOM     72  C   UNL A   1      48.375  29.820  26.951  1.00  0.00     0.040 A 
ATOM     73  C   UNL A   1      48.679  28.982  29.188  1.00  0.00     0.040 A 
ATOM     74  F   UNL A   1      46.909  29.071  30.726  1.00  0.00    -0.206 F 
ATOM     75  C   UNL A   1      49.183  29.208  27.908  1.00  0.00     0.006 A 
ENDBRANCH  47  68
BRANCH  59  76
ATOM     76  C   UNL A   1      43.385  35.399  31.509  1.00  0.00     0.057 A 
ATOM     77  C   UNL A   1      43.668  36.552  30.763  1.00  0.00     0.134 A 
ATOM     78  C   UNL A   1      43.556  35.480  32.899  1.00  0.00     0.134 A 
ATOM     79  F   UNL A   1      43.538  36.546  29.428  1.00  0.00    -0.206 F 
ATOM     80  C   UNL A   1      44.121  37.726  31.370  1.00  0.00     0.040 A 
ATOM     81  C   UNL A   1      43.980  36.657  33.521  1.00  0.00     0.040 A 
ATOM     82  F   UNL A   1      43.300  34.420  33.679  1.00  0.00    -0.206 F 
ATOM     83  C   UNL A   1      44.269  37.783  32.755  1.00  0.00     0.006 A 
ENDBRANCH  59  76
ENDBRANCH  33  34
ENDBRANCH  25  28
ENDBRANCH  23  24
ENDBRANCH  22  23
ENDBRANCH  21  22
ENDBRANCH   3  21
TORSDOF 16
ENDMDL
