MODEL 1
REMARK VINA RESULT:     -12.0      0.000      0.000
REMARK SMILES CN(c1ccccc1)c1nc(OCC(=O)NCCCNC(=O)c2ccc(-c3c4nc(c(-c5c(F)cccc5F)c5ccc([nH]5)c(-c5c(F)cccc5F)c5nc(c(-c6c(F)cccc6F)c6ccc3[nH]6)C=C5)C=C4)cc2)cc(-c2ccncc2)n1
REMARK SMILES IDX 17 1 16 2 14 3 15 4 13 6 12 7 11 8 9 9 10 10 85 11 78 12
REMARK SMILES IDX 77 13 2 14 1 15 3 16 4 17 8 18 5 19 7 20 6 21 79 22 80 23
REMARK SMILES IDX 84 24 81 25 83 26 82 27 18 28 19 29 20 30 21 31 22 33 23 34
REMARK SMILES IDX 24 35 76 36 25 37 75 38 26 39 27 40 28 41 69 42 29 43 74 44
REMARK SMILES IDX 68 45 70 46 30 47 73 48 67 49 66 50 31 52 57 53 40 54 56 55
REMARK SMILES IDX 41 56 44 57 55 58 71 59 42 60 43 61 54 63 72 64 45 65 32 66
REMARK SMILES IDX 33 67 38 68 34 69 35 70 37 71 39 72 36 73 58 74 59 75 64 76
REMARK SMILES IDX 60 77 61 78 63 79 65 80 62 81 46 82 47 83 52 84 48 85 49 86
REMARK SMILES IDX 51 87 53 88 50 89
REMARK H PARENT 16 5 20 32 70 51 44 62
REMARK Flexibility Score: inf
ROOT
ATOM      1  C   UNL A   1      32.285  26.634  26.314  1.00  0.00     0.117 C 
ENDROOT
BRANCH   1   2
ATOM      2  N   UNL A   1      30.932  26.156  26.523  1.00  0.00    -0.353 N 
ATOM      3  C   UNL A   1      30.498  24.873  26.672  1.00  0.00     0.258 C 
ATOM      4  O   UNL A   1      29.292  24.673  26.825  1.00  0.00    -0.271 OA
ATOM      5  H   UNL A   1      30.234  26.849  26.561  1.00  0.00     0.163 HD
BRANCH   3   6
ATOM      6  C   UNL A   1      31.504  23.715  26.655  1.00  0.00     0.331 C 
BRANCH   6   7
ATOM      7  O   UNL A   1      31.181  22.604  25.840  1.00  0.00    -0.467 OA
BRANCH   7   8
ATOM      8  C   UNL A   1      32.196  21.783  25.439  1.00  0.00     0.219 A 
ATOM      9  C   UNL A   1      34.334  21.780  24.563  1.00  0.00     0.233 A 
ATOM     10  N   UNL A   1      33.286  22.462  25.059  1.00  0.00    -0.177 NA
ATOM     11  N   UNL A   1      34.324  20.444  24.417  1.00  0.00    -0.212 NA
ATOM     12  C   UNL A   1      33.239  19.781  24.863  1.00  0.00     0.080 A 
ATOM     13  C   UNL A   1      32.145  20.417  25.403  1.00  0.00     0.097 A 
BRANCH   9  14
ATOM     14  N   UNL A   1      35.476  22.508  24.203  1.00  0.00    -0.314 N 
ATOM     15  C   UNL A   1      35.381  23.220  22.938  1.00  0.00     0.153 C 
BRANCH  14  16
ATOM     16  C   UNL A   1      36.684  22.527  24.916  1.00  0.00     0.043 A 
ATOM     17  C   UNL A   1      37.051  23.668  25.651  1.00  0.00     0.026 A 
ATOM     18  C   UNL A   1      37.565  21.436  24.932  1.00  0.00     0.026 A 
ATOM     19  C   UNL A   1      38.236  23.713  26.391  1.00  0.00     0.002 A 
ATOM     20  C   UNL A   1      38.763  21.482  25.656  1.00  0.00     0.002 A 
ATOM     21  C   UNL A   1      39.094  22.619  26.390  1.00  0.00     0.000 A 
ENDBRANCH  14  16
ENDBRANCH   9  14
BRANCH  12  22
ATOM     22  C   UNL A   1      33.273  18.319  24.779  1.00  0.00     0.004 A 
ATOM     23  C   UNL A   1      32.540  17.529  25.672  1.00  0.00     0.030 A 
ATOM     24  C   UNL A   1      34.106  17.674  23.858  1.00  0.00     0.030 A 
ATOM     25  C   UNL A   1      32.682  16.153  25.621  1.00  0.00     0.111 A 
ATOM     26  C   UNL A   1      34.188  16.292  23.892  1.00  0.00     0.111 A 
ATOM     27  N   UNL A   1      33.498  15.517  24.755  1.00  0.00    -0.265 NA
ENDBRANCH  12  22
ENDBRANCH   7   8
ENDBRANCH   6   7
ENDBRANCH   3   6
ENDBRANCH   1   2
BRANCH   1  28
ATOM     28  C   UNL A   1      32.418  28.132  26.566  1.00  0.00     0.042 C 
BRANCH  28  29
ATOM     29  C   UNL A   1      33.751  28.560  27.177  1.00  0.00     0.118 C 
BRANCH  29  30
ATOM     30  N   UNL A   1      33.751  29.939  27.651  1.00  0.00    -0.352 N 
ATOM     31  C   UNL A   1      34.718  30.658  28.307  1.00  0.00     0.251 C 
ATOM     32  H   UNL A   1      32.921  30.437  27.471  1.00  0.00     0.163 HD
ATOM     33  O   UNL A   1      34.447  31.773  28.755  1.00  0.00    -0.269 OA
BRANCH  31  34
ATOM     34  C   UNL A   1      36.074  30.104  28.506  1.00  0.00     0.039 A 
ATOM     35  C   UNL A   1      36.999  30.199  27.462  1.00  0.00     0.014 A 
ATOM     36  C   UNL A   1      36.434  29.476  29.701  1.00  0.00     0.014 A 
ATOM     37  C   UNL A   1      38.306  29.741  27.647  1.00  0.00     0.010 A 
ATOM     38  C   UNL A   1      37.756  29.090  29.911  1.00  0.00     0.010 A 
ATOM     39  C   UNL A   1      38.708  29.227  28.889  1.00  0.00    -0.014 A 
BRANCH  39  40
ATOM     40  C   UNL A   1      40.122  28.851  29.149  1.00  0.00     0.031 A 
ATOM     41  C   UNL A   1      41.058  29.818  29.818  1.00  0.00     0.074 A 
ATOM     42  C   UNL A   1      40.582  27.662  28.716  1.00  0.00     0.049 A 
ATOM     43  N   UNL A   1      42.340  29.696  30.060  1.00  0.00    -0.248 NA
ATOM     44  C   UNL A   1      40.483  31.099  30.253  1.00  0.00     0.031 C 
ATOM     45  C   UNL A   1      39.786  26.646  28.025  1.00  0.00     0.029 A 
ATOM     46  N   UNL A   1      41.836  27.106  28.787  1.00  0.00    -0.354 N 
ATOM     47  C   UNL A   1      42.724  30.885  30.667  1.00  0.00     0.074 A 
ATOM     48  C   UNL A   1      41.554  31.736  30.701  1.00  0.00     0.031 C 
ATOM     49  C   UNL A   1      40.560  25.581  27.764  1.00  0.00     0.029 A 
ATOM     50  C   UNL A   1      41.917  25.856  28.225  1.00  0.00     0.049 A 
ATOM     51  H   UNL A   1      42.604  27.562  29.201  1.00  0.00     0.167 HD
ATOM     52  C   UNL A   1      43.934  31.228  31.171  1.00  0.00     0.037 A 
ATOM     53  C   UNL A   1      42.969  25.027  28.086  1.00  0.00     0.037 A 
ATOM     54  C   UNL A   1      45.096  30.378  31.138  1.00  0.00     0.049 A 
ATOM     55  C   UNL A   1      44.316  25.454  28.599  1.00  0.00     0.074 A 
ATOM     56  C   UNL A   1      46.355  30.617  31.660  1.00  0.00     0.029 A 
ATOM     57  N   UNL A   1      45.145  29.129  30.537  1.00  0.00    -0.354 N 
ATOM     58  N   UNL A   1      44.652  26.556  29.225  1.00  0.00    -0.248 NA
ATOM     59  C   UNL A   1      45.432  24.523  28.379  1.00  0.00     0.031 C 
ATOM     60  C   UNL A   1      47.180  29.536  31.328  1.00  0.00     0.029 A 
ATOM     61  C   UNL A   1      46.420  28.598  30.646  1.00  0.00     0.049 A 
ATOM     62  H   UNL A   1      44.384  28.684  30.097  1.00  0.00     0.167 HD
ATOM     63  C   UNL A   1      46.008  26.439  29.501  1.00  0.00     0.074 A 
ATOM     64  C   UNL A   1      46.430  25.153  28.985  1.00  0.00     0.031 C 
ATOM     65  C   UNL A   1      46.829  27.318  30.127  1.00  0.00     0.037 A 
BRANCH  52  66
ATOM     66  C   UNL A   1      44.055  32.589  31.797  1.00  0.00     0.057 A 
ATOM     67  C   UNL A   1      44.363  33.727  31.039  1.00  0.00     0.134 A 
ATOM     68  C   UNL A   1      43.854  32.769  33.171  1.00  0.00     0.134 A 
ATOM     69  F   UNL A   1      44.577  33.627  29.718  1.00  0.00    -0.206 F 
ATOM     70  C   UNL A   1      44.508  34.984  31.630  1.00  0.00     0.040 A 
ATOM     71  C   UNL A   1      43.964  34.026  33.769  1.00  0.00     0.040 A 
ATOM     72  F   UNL A   1      43.546  31.725  33.958  1.00  0.00    -0.206 F 
ATOM     73  C   UNL A   1      44.303  35.136  33.000  1.00  0.00     0.006 A 
ENDBRANCH  52  66
BRANCH  53  74
ATOM     74  C   UNL A   1      42.787  23.696  27.455  1.00  0.00     0.057 A 
ATOM     75  C   UNL A   1      42.517  22.565  28.234  1.00  0.00     0.134 A 
ATOM     76  C   UNL A   1      42.881  23.517  26.069  1.00  0.00     0.134 A 
ATOM     77  F   UNL A   1      42.435  22.670  29.569  1.00  0.00    -0.206 F 
ATOM     78  C   UNL A   1      42.360  21.302  27.663  1.00  0.00     0.040 A 
ATOM     79  C   UNL A   1      42.700  22.263  25.480  1.00  0.00     0.040 A 
ATOM     80  F   UNL A   1      43.132  24.560  25.266  1.00  0.00    -0.206 F 
ATOM     81  C   UNL A   1      42.445  21.150  26.280  1.00  0.00     0.006 A 
ENDBRANCH  53  74
BRANCH  65  82
ATOM     82  C   UNL A   1      48.262  26.908  30.311  1.00  0.00     0.057 A 
ATOM     83  C   UNL A   1      48.672  26.113  31.390  1.00  0.00     0.134 A 
ATOM     84  C   UNL A   1      49.237  27.282  29.377  1.00  0.00     0.134 A 
ATOM     85  F   UNL A   1      47.792  25.734  32.328  1.00  0.00    -0.206 F 
ATOM     86  C   UNL A   1      50.004  25.723  31.544  1.00  0.00     0.040 A 
ATOM     87  C   UNL A   1      50.566  26.874  29.506  1.00  0.00     0.040 A 
ATOM     88  F   UNL A   1      48.912  28.036  28.317  1.00  0.00    -0.206 F 
ATOM     89  C   UNL A   1      50.954  26.097  30.596  1.00  0.00     0.006 A 
ENDBRANCH  65  82
ENDBRANCH  39  40
ENDBRANCH  31  34
ENDBRANCH  29  30
ENDBRANCH  28  29
ENDBRANCH   1  28
TORSDOF 15
ENDMDL
MODEL 2
REMARK VINA RESULT:     -11.9      3.187      7.356
REMARK SMILES CN(c1ccccc1)c1nc(OCC(=O)NCCCNC(=O)c2ccc(-c3c4nc(c(-c5c(F)cccc5F)c5ccc([nH]5)c(-c5c(F)cccc5F)c5nc(c(-c6c(F)cccc6F)c6ccc3[nH]6)C=C5)C=C4)cc2)cc(-c2ccncc2)n1
REMARK SMILES IDX 17 1 16 2 14 3 15 4 13 6 12 7 11 8 9 9 10 10 85 11 78 12
REMARK SMILES IDX 77 13 2 14 1 15 3 16 4 17 8 18 5 19 7 20 6 21 79 22 80 23
REMARK SMILES IDX 84 24 81 25 83 26 82 27 18 28 19 29 20 30 21 31 22 33 23 34
REMARK SMILES IDX 24 35 76 36 25 37 75 38 26 39 27 40 28 41 69 42 29 43 74 44
REMARK SMILES IDX 68 45 70 46 30 47 73 48 67 49 66 50 31 52 57 53 40 54 56 55
REMARK SMILES IDX 41 56 44 57 55 58 71 59 42 60 43 61 54 63 72 64 45 65 32 66
REMARK SMILES IDX 33 67 38 68 34 69 35 70 37 71 39 72 36 73 58 74 59 75 64 76
REMARK SMILES IDX 60 77 61 78 63 79 65 80 62 81 46 82 47 83 52 84 48 85 49 86
REMARK SMILES IDX 51 87 53 88 50 89
REMARK H PARENT 16 5 20 32 70 51 44 62
REMARK Flexibility Score: inf
ROOT
ATOM      1  C   UNL A   1      31.913  27.809  23.303  1.00  0.00     0.117 C 
ENDROOT
BRANCH   1   2
ATOM      2  N   UNL A   1      32.220  27.254  21.998  1.00  0.00    -0.353 N 
ATOM      3  C   UNL A   1      33.000  26.179  21.694  1.00  0.00     0.258 C 
ATOM      4  O   UNL A   1      33.149  25.876  20.509  1.00  0.00    -0.271 OA
ATOM      5  H   UNL A   1      31.811  27.715  21.231  1.00  0.00     0.163 HD
BRANCH   3   6
ATOM      6  C   UNL A   1      33.664  25.370  22.816  1.00  0.00     0.331 C 
BRANCH   6   7
ATOM      7  O   UNL A   1      34.469  24.276  22.420  1.00  0.00    -0.467 OA
BRANCH   7   8
ATOM      8  C   UNL A   1      34.989  23.473  23.394  1.00  0.00     0.219 A 
ATOM      9  C   UNL A   1      34.517  21.651  24.734  1.00  0.00     0.233 A 
ATOM     10  N   UNL A   1      34.166  22.471  23.728  1.00  0.00    -0.177 NA
ATOM     11  N   UNL A   1      35.656  21.808  25.431  1.00  0.00    -0.212 NA
ATOM     12  C   UNL A   1      36.493  22.786  25.035  1.00  0.00     0.080 A 
ATOM     13  C   UNL A   1      36.204  23.643  23.998  1.00  0.00     0.097 A 
BRANCH   9  14
ATOM     14  N   UNL A   1      33.656  20.589  25.043  1.00  0.00    -0.314 N 
ATOM     15  C   UNL A   1      32.753  20.831  26.158  1.00  0.00     0.153 C 
BRANCH  14  16
ATOM     16  C   UNL A   1      33.665  19.330  24.425  1.00  0.00     0.043 A 
ATOM     17  C   UNL A   1      32.635  18.974  23.536  1.00  0.00     0.026 A 
ATOM     18  C   UNL A   1      34.676  18.387  24.655  1.00  0.00     0.026 A 
ATOM     19  C   UNL A   1      32.625  17.737  22.885  1.00  0.00     0.002 A 
ATOM     20  C   UNL A   1      34.661  17.139  24.020  1.00  0.00     0.002 A 
ATOM     21  C   UNL A   1      33.638  16.818  23.130  1.00  0.00     0.000 A 
ENDBRANCH  14  16
ENDBRANCH   9  14
BRANCH  12  22
ATOM     22  C   UNL A   1      37.770  22.894  25.744  1.00  0.00     0.004 A 
ATOM     23  C   UNL A   1      38.632  21.795  25.849  1.00  0.00     0.030 A 
ATOM     24  C   UNL A   1      38.122  24.074  26.409  1.00  0.00     0.030 A 
ATOM     25  C   UNL A   1      39.779  21.915  26.614  1.00  0.00     0.111 A 
ATOM     26  C   UNL A   1      39.287  24.092  27.159  1.00  0.00     0.111 A 
ATOM     27  N   UNL A   1      40.121  23.038  27.279  1.00  0.00    -0.265 NA
ENDBRANCH  12  22
ENDBRANCH   7   8
ENDBRANCH   6   7
ENDBRANCH   3   6
ENDBRANCH   1   2
BRANCH   1  28
ATOM     28  C   UNL A   1      32.866  28.932  23.696  1.00  0.00     0.042 C 
BRANCH  28  29
ATOM     29  C   UNL A   1      33.149  29.034  25.193  1.00  0.00     0.118 C 
BRANCH  29  30
ATOM     30  N   UNL A   1      32.544  30.205  25.817  1.00  0.00    -0.352 N 
ATOM     31  C   UNL A   1      32.963  30.970  26.876  1.00  0.00     0.251 C 
ATOM     32  H   UNL A   1      31.695  30.494  25.412  1.00  0.00     0.163 HD
ATOM     33  O   UNL A   1      32.212  31.829  27.338  1.00  0.00    -0.269 OA
BRANCH  31  34
ATOM     34  C   UNL A   1      34.293  30.762  27.485  1.00  0.00     0.039 A 
ATOM     35  C   UNL A   1      35.133  31.866  27.661  1.00  0.00     0.014 A 
ATOM     36  C   UNL A   1      34.727  29.489  27.864  1.00  0.00     0.014 A 
ATOM     37  C   UNL A   1      36.368  31.707  28.293  1.00  0.00     0.010 A 
ATOM     38  C   UNL A   1      35.924  29.344  28.562  1.00  0.00     0.010 A 
ATOM     39  C   UNL A   1      36.754  30.453  28.792  1.00  0.00    -0.014 A 
BRANCH  39  40
ATOM     40  C   UNL A   1      38.004  30.284  29.577  1.00  0.00     0.031 A 
ATOM     41  C   UNL A   1      39.162  29.511  29.012  1.00  0.00     0.074 A 
ATOM     42  C   UNL A   1      38.068  30.768  30.832  1.00  0.00     0.049 A 
ATOM     43  N   UNL A   1      40.301  29.196  29.577  1.00  0.00    -0.248 NA
ATOM     44  C   UNL A   1      39.011  29.007  27.640  1.00  0.00     0.031 C 
ATOM     45  C   UNL A   1      37.002  31.509  31.510  1.00  0.00     0.029 A 
ATOM     46  N   UNL A   1      39.072  30.704  31.767  1.00  0.00    -0.354 N 
ATOM     47  C   UNL A   1      40.997  28.453  28.633  1.00  0.00     0.074 A 
ATOM     48  C   UNL A   1      40.129  28.313  27.484  1.00  0.00     0.031 C 
ATOM     49  C   UNL A   1      37.420  31.857  32.737  1.00  0.00     0.029 A 
ATOM     50  C   UNL A   1      38.761  31.325  32.952  1.00  0.00     0.049 A 
ATOM     51  H   UNL A   1      39.932  30.255  31.603  1.00  0.00     0.167 HD
ATOM     52  C   UNL A   1      42.254  27.952  28.706  1.00  0.00     0.037 A 
ATOM     53  C   UNL A   1      39.473  31.443  34.089  1.00  0.00     0.037 A 
ATOM     54  C   UNL A   1      43.118  28.094  29.850  1.00  0.00     0.049 A 
ATOM     55  C   UNL A   1      40.841  30.826  34.169  1.00  0.00     0.074 A 
ATOM     56  C   UNL A   1      44.423  27.661  30.006  1.00  0.00     0.029 A 
ATOM     57  N   UNL A   1      42.758  28.707  31.041  1.00  0.00    -0.354 N 
ATOM     58  N   UNL A   1      41.512  30.178  33.248  1.00  0.00    -0.248 NA
ATOM     59  C   UNL A   1      41.549  30.954  35.451  1.00  0.00     0.031 C 
ATOM     60  C   UNL A   1      44.833  27.963  31.309  1.00  0.00     0.029 A 
ATOM     61  C   UNL A   1      43.803  28.635  31.948  1.00  0.00     0.049 A 
ATOM     62  H   UNL A   1      41.886  29.132  31.216  1.00  0.00     0.167 HD
ATOM     63  C   UNL A   1      42.731  29.847  33.826  1.00  0.00     0.074 A 
ATOM     64  C   UNL A   1      42.711  30.376  35.174  1.00  0.00     0.031 C 
ATOM     65  C   UNL A   1      43.772  29.165  33.288  1.00  0.00     0.037 A 
BRANCH  52  66
ATOM     66  C   UNL A   1      42.762  27.197  27.510  1.00  0.00     0.057 A 
ATOM     67  C   UNL A   1      42.714  25.797  27.443  1.00  0.00     0.134 A 
ATOM     68  C   UNL A   1      43.299  27.874  26.408  1.00  0.00     0.134 A 
ATOM     69  F   UNL A   1      42.220  25.085  28.467  1.00  0.00    -0.206 F 
ATOM     70  C   UNL A   1      43.218  25.099  26.345  1.00  0.00     0.040 A 
ATOM     71  C   UNL A   1      43.777  27.188  25.289  1.00  0.00     0.040 A 
ATOM     72  F   UNL A   1      43.368  29.214  26.398  1.00  0.00    -0.206 F 
ATOM     73  C   UNL A   1      43.748  25.796  25.261  1.00  0.00     0.006 A 
ENDBRANCH  52  66
BRANCH  53  74
ATOM     74  C   UNL A   1      38.915  32.198  35.239  1.00  0.00     0.057 A 
ATOM     75  C   UNL A   1      39.006  33.593  35.291  1.00  0.00     0.134 A 
ATOM     76  C   UNL A   1      38.284  31.552  36.310  1.00  0.00     0.134 A 
ATOM     77  F   UNL A   1      39.616  34.266  34.304  1.00  0.00    -0.206 F 
ATOM     78  C   UNL A   1      38.503  34.321  36.371  1.00  0.00     0.040 A 
ATOM     79  C   UNL A   1      37.753  32.269  37.385  1.00  0.00     0.040 A 
ATOM     80  F   UNL A   1      38.159  30.217  36.319  1.00  0.00    -0.206 F 
ATOM     81  C   UNL A   1      37.868  33.658  37.419  1.00  0.00     0.006 A 
ENDBRANCH  53  74
BRANCH  65  82
ATOM     82  C   UNL A   1      44.987  28.975  34.149  1.00  0.00     0.057 A 
ATOM     83  C   UNL A   1      45.157  27.838  34.950  1.00  0.00     0.134 A 
ATOM     84  C   UNL A   1      46.018  29.924  34.148  1.00  0.00     0.134 A 
ATOM     85  F   UNL A   1      44.201  26.899  35.009  1.00  0.00    -0.206 F 
ATOM     86  C   UNL A   1      46.299  27.663  35.735  1.00  0.00     0.040 A 
ATOM     87  C   UNL A   1      47.176  29.746  34.906  1.00  0.00     0.040 A 
ATOM     88  F   UNL A   1      45.923  31.032  33.398  1.00  0.00    -0.206 F 
ATOM     89  C   UNL A   1      47.316  28.615  35.708  1.00  0.00     0.006 A 
ENDBRANCH  65  82
ENDBRANCH  39  40
ENDBRANCH  31  34
ENDBRANCH  29  30
ENDBRANCH  28  29
ENDBRANCH   1  28
TORSDOF 15
ENDMDL
MODEL 3
REMARK VINA RESULT:     -11.9      3.433      8.834
REMARK SMILES CN(c1ccccc1)c1nc(OCC(=O)NCCCNC(=O)c2ccc(-c3c4nc(c(-c5c(F)cccc5F)c5ccc([nH]5)c(-c5c(F)cccc5F)c5nc(c(-c6c(F)cccc6F)c6ccc3[nH]6)C=C5)C=C4)cc2)cc(-c2ccncc2)n1
REMARK SMILES IDX 17 1 16 2 14 3 15 4 13 6 12 7 11 8 9 9 10 10 85 11 78 12
REMARK SMILES IDX 77 13 2 14 1 15 3 16 4 17 8 18 5 19 7 20 6 21 79 22 80 23
REMARK SMILES IDX 84 24 81 25 83 26 82 27 18 28 19 29 20 30 21 31 22 33 23 34
REMARK SMILES IDX 24 35 76 36 25 37 75 38 26 39 27 40 28 41 69 42 29 43 74 44
REMARK SMILES IDX 68 45 70 46 30 47 73 48 67 49 66 50 31 52 57 53 40 54 56 55
REMARK SMILES IDX 41 56 44 57 55 58 71 59 42 60 43 61 54 63 72 64 45 65 32 66
REMARK SMILES IDX 33 67 38 68 34 69 35 70 37 71 39 72 36 73 58 74 59 75 64 76
REMARK SMILES IDX 60 77 61 78 63 79 65 80 62 81 46 82 47 83 52 84 48 85 49 86
REMARK SMILES IDX 51 87 53 88 50 89
REMARK H PARENT 16 5 20 32 70 51 44 62
REMARK Flexibility Score: inf
ROOT
ATOM      1  C   UNL A   1      34.189  24.473  24.701  1.00  0.00     0.117 C 
ENDROOT
BRANCH   1   2
ATOM      2  N   UNL A   1      34.177  24.009  23.327  1.00  0.00    -0.353 N 
ATOM      3  C   UNL A   1      33.204  24.165  22.386  1.00  0.00     0.258 C 
ATOM      4  O   UNL A   1      33.381  23.676  21.269  1.00  0.00    -0.271 OA
ATOM      5  H   UNL A   1      34.977  23.514  23.035  1.00  0.00     0.163 HD
BRANCH   3   6
ATOM      6  C   UNL A   1      31.926  24.943  22.725  1.00  0.00     0.331 C 
BRANCH   6   7
ATOM      7  O   UNL A   1      31.709  26.149  22.017  1.00  0.00    -0.467 OA
BRANCH   7   8
ATOM      8  C   UNL A   1      31.315  27.248  22.725  1.00  0.00     0.219 A 
ATOM      9  C   UNL A   1      31.370  28.213  24.823  1.00  0.00     0.233 A 
ATOM     10  N   UNL A   1      31.754  27.230  23.989  1.00  0.00    -0.177 NA
ATOM     11  N   UNL A   1      30.548  29.206  24.441  1.00  0.00    -0.212 NA
ATOM     12  C   UNL A   1      30.170  29.233  23.149  1.00  0.00     0.080 A 
ATOM     13  C   UNL A   1      30.548  28.271  22.239  1.00  0.00     0.097 A 
BRANCH   9  14
ATOM     14  N   UNL A   1      31.869  28.192  26.133  1.00  0.00    -0.314 N 
ATOM     15  C   UNL A   1      31.209  27.256  27.030  1.00  0.00     0.153 C 
BRANCH  14  16
ATOM     16  C   UNL A   1      32.869  29.038  26.634  1.00  0.00     0.043 A 
ATOM     17  C   UNL A   1      34.198  28.586  26.720  1.00  0.00     0.026 A 
ATOM     18  C   UNL A   1      32.602  30.345  27.063  1.00  0.00     0.026 A 
ATOM     19  C   UNL A   1      35.223  29.410  27.193  1.00  0.00     0.002 A 
ATOM     20  C   UNL A   1      33.622  31.169  27.556  1.00  0.00     0.002 A 
ATOM     21  C   UNL A   1      34.933  30.702  27.614  1.00  0.00     0.000 A 
ENDBRANCH  14  16
ENDBRANCH   9  14
BRANCH  12  22
ATOM     22  C   UNL A   1      29.345  30.365  22.722  1.00  0.00     0.004 A 
ATOM     23  C   UNL A   1      28.861  30.450  21.411  1.00  0.00     0.030 A 
ATOM     24  C   UNL A   1      29.089  31.432  23.590  1.00  0.00     0.030 A 
ATOM     25  C   UNL A   1      28.172  31.587  21.024  1.00  0.00     0.111 A 
ATOM     26  C   UNL A   1      28.398  32.531  23.106  1.00  0.00     0.111 A 
ATOM     27  N   UNL A   1      27.938  32.634  21.842  1.00  0.00    -0.265 NA
ENDBRANCH  12  22
ENDBRANCH   7   8
ENDBRANCH   6   7
ENDBRANCH   3   6
ENDBRANCH   1   2
BRANCH   1  28
ATOM     28  C   UNL A   1      35.056  23.600  25.602  1.00  0.00     0.042 C 
BRANCH  28  29
ATOM     29  C   UNL A   1      36.512  24.047  25.713  1.00  0.00     0.118 C 
BRANCH  29  30
ATOM     30  N   UNL A   1      37.440  22.942  25.924  1.00  0.00    -0.352 N 
ATOM     31  C   UNL A   1      38.737  22.937  26.372  1.00  0.00     0.251 C 
ATOM     32  H   UNL A   1      37.076  22.052  25.709  1.00  0.00     0.163 HD
ATOM     33  O   UNL A   1      39.390  21.894  26.327  1.00  0.00    -0.269 OA
BRANCH  31  34
ATOM     34  C   UNL A   1      39.368  24.170  26.885  1.00  0.00     0.039 A 
ATOM     35  C   UNL A   1      40.021  25.017  25.985  1.00  0.00     0.014 A 
ATOM     36  C   UNL A   1      39.340  24.489  28.246  1.00  0.00     0.014 A 
ATOM     37  C   UNL A   1      40.569  26.221  26.433  1.00  0.00     0.010 A 
ATOM     38  C   UNL A   1      39.819  25.724  28.678  1.00  0.00     0.010 A 
ATOM     39  C   UNL A   1      40.431  26.607  27.775  1.00  0.00    -0.014 A 
BRANCH  39  40
ATOM     40  C   UNL A   1      40.894  27.937  28.249  1.00  0.00     0.031 A 
ATOM     41  C   UNL A   1      42.358  28.275  28.263  1.00  0.00     0.074 A 
ATOM     42  C   UNL A   1      39.997  28.816  28.734  1.00  0.00     0.049 A 
ATOM     43  N   UNL A   1      42.955  29.352  28.709  1.00  0.00    -0.248 NA
ATOM     44  C   UNL A   1      43.274  27.259  27.725  1.00  0.00     0.031 C 
ATOM     45  C   UNL A   1      38.551  28.599  28.806  1.00  0.00     0.029 A 
ATOM     46  N   UNL A   1      40.169  30.070  29.267  1.00  0.00    -0.354 N 
ATOM     47  C   UNL A   1      44.313  29.141  28.513  1.00  0.00     0.074 A 
ATOM     48  C   UNL A   1      44.455  27.809  27.964  1.00  0.00     0.031 C 
ATOM     49  C   UNL A   1      37.966  29.692  29.321  1.00  0.00     0.029 A 
ATOM     50  C   UNL A   1      38.996  30.667  29.661  1.00  0.00     0.049 A 
ATOM     51  H   UNL A   1      41.051  30.499  29.360  1.00  0.00     0.167 HD
ATOM     52  C   UNL A   1      45.346  29.986  28.746  1.00  0.00     0.037 A 
ATOM     53  C   UNL A   1      38.777  31.863  30.240  1.00  0.00     0.037 A 
ATOM     54  C   UNL A   1      45.201  31.311  29.292  1.00  0.00     0.049 A 
ATOM     55  C   UNL A   1      39.944  32.759  30.546  1.00  0.00     0.074 A 
ATOM     56  C   UNL A   1      46.181  32.261  29.524  1.00  0.00     0.029 A 
ATOM     57  N   UNL A   1      43.999  31.871  29.701  1.00  0.00    -0.354 N 
ATOM     58  N   UNL A   1      41.218  32.572  30.299  1.00  0.00    -0.248 NA
ATOM     59  C   UNL A   1      39.642  34.031  31.216  1.00  0.00     0.031 C 
ATOM     60  C   UNL A   1      45.580  33.373  30.125  1.00  0.00     0.029 A 
ATOM     61  C   UNL A   1      44.216  33.139  30.216  1.00  0.00     0.049 A 
ATOM     62  H   UNL A   1      43.121  31.431  29.635  1.00  0.00     0.167 HD
ATOM     63  C   UNL A   1      41.866  33.713  30.755  1.00  0.00     0.074 A 
ATOM     64  C   UNL A   1      40.842  34.591  31.282  1.00  0.00     0.031 C 
ATOM     65  C   UNL A   1      43.190  34.005  30.739  1.00  0.00     0.037 A 
BRANCH  52  66
ATOM     66  C   UNL A   1      46.726  29.491  28.416  1.00  0.00     0.057 A 
ATOM     67  C   UNL A   1      47.292  29.671  27.146  1.00  0.00     0.134 A 
ATOM     68  C   UNL A   1      47.502  28.833  29.377  1.00  0.00     0.134 A 
ATOM     69  F   UNL A   1      46.600  30.285  26.174  1.00  0.00    -0.206 F 
ATOM     70  C   UNL A   1      48.561  29.179  26.834  1.00  0.00     0.040 A 
ATOM     71  C   UNL A   1      48.786  28.365  29.087  1.00  0.00     0.040 A 
ATOM     72  F   UNL A   1      47.029  28.634  30.618  1.00  0.00    -0.206 F 
ATOM     73  C   UNL A   1      49.313  28.527  27.808  1.00  0.00     0.006 A 
ENDBRANCH  52  66
BRANCH  53  74
ATOM     74  C   UNL A   1      37.390  32.295  30.547  1.00  0.00     0.057 A 
ATOM     75  C   UNL A   1      36.767  31.905  31.739  1.00  0.00     0.134 A 
ATOM     76  C   UNL A   1      36.654  33.097  29.667  1.00  0.00     0.134 A 
ATOM     77  F   UNL A   1      37.415  31.121  32.613  1.00  0.00    -0.206 F 
ATOM     78  C   UNL A   1      35.459  32.286  32.040  1.00  0.00     0.040 A 
ATOM     79  C   UNL A   1      35.353  33.508  29.966  1.00  0.00     0.040 A 
ATOM     80  F   UNL A   1      37.195  33.509  28.511  1.00  0.00    -0.206 F 
ATOM     81  C   UNL A   1      34.750  33.096  31.154  1.00  0.00     0.006 A 
ENDBRANCH  53  74
BRANCH  65  82
ATOM     82  C   UNL A   1      43.605  35.341  31.283  1.00  0.00     0.057 A 
ATOM     83  C   UNL A   1      43.717  36.472  30.464  1.00  0.00     0.134 A 
ATOM     84  C   UNL A   1      43.860  35.507  32.651  1.00  0.00     0.134 A 
ATOM     85  F   UNL A   1      43.503  36.379  29.143  1.00  0.00    -0.206 F 
ATOM     86  C   UNL A   1      44.089  37.715  30.982  1.00  0.00     0.040 A 
ATOM     87  C   UNL A   1      44.204  36.750  33.185  1.00  0.00     0.040 A 
ATOM     88  F   UNL A   1      43.764  34.468  33.493  1.00  0.00    -0.206 F 
ATOM     89  C   UNL A   1      44.325  37.858  32.348  1.00  0.00     0.006 A 
ENDBRANCH  65  82
ENDBRANCH  39  40
ENDBRANCH  31  34
ENDBRANCH  29  30
ENDBRANCH  28  29
ENDBRANCH   1  28
TORSDOF 15
ENDMDL
