MODEL 1
REMARK VINA RESULT:     -12.6      0.000      0.000
REMARK SMILES CC(C)N(c1cc2c(cc1Cl)C=C(C(=O)NCCCNC(=O)c1ccc(-c3c4nc(c(-c5c(F)cccc5F)c5ccc([nH]5)c(-c5c(F)cccc5F)c5nc(c(-c6c(F)cccc6F)c6ccc3[nH]6)C=C5)C=C4)cc1)[C@@H](C(F)(F)F)O2)C(C)C
REMARK SMILES IDX 18 1 17 2 16 3 14 4 15 5 13 7 5 8 6 9 10 10 7 11 9 12 11 13
REMARK SMILES IDX 8 14 82 15 12 16 77 17 4 18 2 19 1 20 3 21 83 22 84 23 85 24
REMARK SMILES IDX 78 25 79 26 80 27 81 28 19 29 20 30 21 31 22 33 23 34 24 35
REMARK SMILES IDX 76 36 25 37 75 38 26 39 27 40 28 41 69 42 29 43 74 44 68 45
REMARK SMILES IDX 70 46 30 47 73 48 67 49 66 50 31 52 57 53 40 54 56 55 41 56
REMARK SMILES IDX 44 57 55 58 71 59 42 60 43 61 54 63 72 64 45 65 32 66 33 67
REMARK SMILES IDX 38 68 34 69 35 70 37 71 39 72 36 73 58 74 59 75 64 76 60 77
REMARK SMILES IDX 61 78 63 79 65 80 62 81 46 82 47 83 52 84 48 85 49 86 51 87
REMARK SMILES IDX 53 88 50 89
REMARK H PARENT 16 6 20 32 70 51 44 62
REMARK Flexibility Score: inf
ROOT
ATOM      1  C   UNL A   1      37.881  19.727  24.969  1.00  0.00     0.042 C 
ENDROOT
BRANCH   1   2
ATOM      2  C   UNL A   1      36.635  20.557  25.239  1.00  0.00     0.118 C 
BRANCH   2   3
ATOM      3  N   UNL A   1      35.422  19.844  24.872  1.00  0.00    -0.352 N 
ATOM      4  C   UNL A   1      34.109  20.131  24.718  1.00  0.00     0.251 C 
ATOM      5  O   UNL A   1      33.400  19.173  24.392  1.00  0.00    -0.270 OA
ATOM      6  H   UNL A   1      35.606  18.895  24.683  1.00  0.00     0.163 HD
BRANCH   4   7
ATOM      7  C   UNL A   1      33.495  21.474  24.912  1.00  0.00     0.067 C 
ATOM      8  C   UNL A   1      31.974  26.279  24.374  1.00  0.00     0.060 A 
ATOM      9  C   UNL A   1      31.594  25.192  25.186  1.00  0.00     0.074 A 
ATOM     10  C   UNL A   1      32.952  26.019  23.383  1.00  0.00     0.065 A 
ATOM     11  C   UNL A   1      32.180  23.935  25.046  1.00  0.00     0.130 A 
ATOM     12  C   UNL A   1      33.496  24.735  23.209  1.00  0.00     0.034 A 
ATOM     13  Cl  UNL A   1      33.627  27.257  22.375  1.00  0.00    -0.082 Cl
ATOM     14  C   UNL A   1      33.117  23.691  24.049  1.00  0.00     0.019 A 
ATOM     15  O   UNL A   1      31.773  22.962  25.916  1.00  0.00    -0.475 OA
ATOM     16  C   UNL A   1      33.670  22.350  23.904  1.00  0.00     0.025 C 
ATOM     17  C   UNL A   1      32.744  21.899  26.143  1.00  0.00     0.314 C 
BRANCH   8  18
ATOM     18  N   UNL A   1      31.386  27.540  24.603  1.00  0.00    -0.365 N 
BRANCH  18  19
ATOM     19  C   UNL A   1      31.908  28.328  25.741  1.00  0.00     0.076 C 
ATOM     20  C   UNL A   1      31.349  27.872  27.089  1.00  0.00     0.030 C 
ATOM     21  C   UNL A   1      33.433  28.394  25.780  1.00  0.00     0.030 C 
ENDBRANCH  18  19
BRANCH  18  22
ATOM     22  C   UNL A   1      30.412  28.006  23.587  1.00  0.00     0.076 C 
ATOM     23  C   UNL A   1      29.108  27.216  23.615  1.00  0.00     0.030 C 
ATOM     24  C   UNL A   1      30.153  29.509  23.630  1.00  0.00     0.030 C 
ENDBRANCH  18  22
ENDBRANCH   8  18
BRANCH  17  25
ATOM     25  C   UNL A   1      33.683  22.284  27.306  1.00  0.00     0.429 C 
ATOM     26  F   UNL A   1      32.964  22.766  28.351  1.00  0.00    -0.167 F 
ATOM     27  F   UNL A   1      34.381  21.224  27.780  1.00  0.00    -0.167 F 
ATOM     28  F   UNL A   1      34.588  23.226  26.966  1.00  0.00    -0.167 F 
ENDBRANCH  17  25
ENDBRANCH   4   7
ENDBRANCH   2   3
ENDBRANCH   1   2
BRANCH   1  29
ATOM     29  C   UNL A   1      39.082  20.209  25.772  1.00  0.00     0.118 C 
BRANCH  29  30
ATOM     30  N   UNL A   1      40.123  19.188  25.875  1.00  0.00    -0.352 N 
ATOM     31  C   UNL A   1      41.473  19.309  26.099  1.00  0.00     0.251 C 
ATOM     32  H   UNL A   1      39.805  18.262  25.766  1.00  0.00     0.163 HD
ATOM     33  O   UNL A   1      42.211  18.343  25.929  1.00  0.00    -0.269 OA
BRANCH  31  34
ATOM     34  C   UNL A   1      42.040  20.605  26.524  1.00  0.00     0.039 A 
ATOM     35  C   UNL A   1      42.158  20.910  27.878  1.00  0.00     0.014 A 
ATOM     36  C   UNL A   1      42.457  21.527  25.559  1.00  0.00     0.014 A 
ATOM     37  C   UNL A   1      42.491  22.199  28.265  1.00  0.00     0.010 A 
ATOM     38  C   UNL A   1      42.906  22.791  25.956  1.00  0.00     0.010 A 
ATOM     39  C   UNL A   1      42.874  23.155  27.311  1.00  0.00    -0.014 A 
BRANCH  39  40
ATOM     40  C   UNL A   1      43.234  24.521  27.772  1.00  0.00     0.031 A 
ATOM     41  C   UNL A   1      44.666  24.980  27.784  1.00  0.00     0.074 A 
ATOM     42  C   UNL A   1      42.247  25.375  28.106  1.00  0.00     0.049 A 
ATOM     43  N   UNL A   1      45.154  26.148  28.120  1.00  0.00    -0.248 NA
ATOM     44  C   UNL A   1      45.688  24.004  27.375  1.00  0.00     0.031 C 
ATOM     45  C   UNL A   1      40.819  25.045  28.130  1.00  0.00     0.029 A 
ATOM     46  N   UNL A   1      42.285  26.700  28.452  1.00  0.00    -0.354 N 
ATOM     47  C   UNL A   1      46.533  26.039  27.991  1.00  0.00     0.074 A 
ATOM     48  C   UNL A   1      46.810  24.683  27.568  1.00  0.00     0.031 C 
ATOM     49  C   UNL A   1      40.116  26.154  28.402  1.00  0.00     0.029 A 
ATOM     50  C   UNL A   1      41.043  27.251  28.646  1.00  0.00     0.049 A 
ATOM     51  H   UNL A   1      43.123  27.208  28.552  1.00  0.00     0.167 HD
ATOM     52  C   UNL A   1      47.481  26.984  28.196  1.00  0.00     0.037 A 
ATOM     53  C   UNL A   1      40.687  28.500  28.996  1.00  0.00     0.037 A 
ATOM     54  C   UNL A   1      47.200  28.342  28.589  1.00  0.00     0.049 A 
ATOM     55  C   UNL A   1      41.758  29.522  29.233  1.00  0.00     0.074 A 
ATOM     56  C   UNL A   1      48.089  29.381  28.801  1.00  0.00     0.029 A 
ATOM     57  N   UNL A   1      45.930  28.848  28.825  1.00  0.00    -0.354 N 
ATOM     58  N   UNL A   1      43.057  29.400  29.106  1.00  0.00    -0.248 NA
ATOM     59  C   UNL A   1      41.315  30.849  29.677  1.00  0.00     0.031 C 
ATOM     60  C   UNL A   1      47.359  30.507  29.201  1.00  0.00     0.029 A 
ATOM     61  C   UNL A   1      46.013  30.179  29.198  1.00  0.00     0.049 A 
ATOM     62  H   UNL A   1      45.094  28.337  28.740  1.00  0.00     0.167 HD
ATOM     63  C   UNL A   1      43.587  30.635  29.450  1.00  0.00     0.074 A 
ATOM     64  C   UNL A   1      42.466  31.500  29.760  1.00  0.00     0.031 C 
ATOM     65  C   UNL A   1      44.885  31.019  29.511  1.00  0.00     0.037 A 
BRANCH  52  66
ATOM     66  C   UNL A   1      48.916  26.577  28.020  1.00  0.00     0.057 A 
ATOM     67  C   UNL A   1      49.522  26.634  26.759  1.00  0.00     0.134 A 
ATOM     68  C   UNL A   1      49.689  26.103  29.088  1.00  0.00     0.134 A 
ATOM     69  F   UNL A   1      48.837  27.074  25.694  1.00  0.00    -0.206 F 
ATOM     70  C   UNL A   1      50.845  26.233  26.566  1.00  0.00     0.040 A 
ATOM     71  C   UNL A   1      51.022  25.721  28.911  1.00  0.00     0.040 A 
ATOM     72  F   UNL A   1      49.174  26.038  30.325  1.00  0.00    -0.206 F 
ATOM     73  C   UNL A   1      51.601  25.781  27.645  1.00  0.00     0.006 A 
ENDBRANCH  52  66
BRANCH  53  74
ATOM     74  C   UNL A   1      39.253  28.843  29.160  1.00  0.00     0.057 A 
ATOM     75  C   UNL A   1      38.501  29.354  28.095  1.00  0.00     0.134 A 
ATOM     76  C   UNL A   1      38.600  28.668  30.385  1.00  0.00     0.134 A 
ATOM     77  F   UNL A   1      39.071  29.550  26.897  1.00  0.00    -0.206 F 
ATOM     78  C   UNL A   1      37.156  29.692  28.245  1.00  0.00     0.040 A 
ATOM     79  C   UNL A   1      37.248  28.976  30.542  1.00  0.00     0.040 A 
ATOM     80  F   UNL A   1      39.263  28.166  31.437  1.00  0.00    -0.206 F 
ATOM     81  C   UNL A   1      36.523  29.495  29.470  1.00  0.00     0.006 A 
ENDBRANCH  53  74
BRANCH  65  82
ATOM     82  C   UNL A   1      45.148  32.437  29.919  1.00  0.00     0.057 A 
ATOM     83  C   UNL A   1      45.184  33.461  28.964  1.00  0.00     0.134 A 
ATOM     84  C   UNL A   1      45.366  32.789  31.257  1.00  0.00     0.134 A 
ATOM     85  F   UNL A   1      44.989  33.188  27.665  1.00  0.00    -0.206 F 
ATOM     86  C   UNL A   1      45.422  34.786  29.327  1.00  0.00     0.040 A 
ATOM     87  C   UNL A   1      45.580  34.115  31.636  1.00  0.00     0.040 A 
ATOM     88  F   UNL A   1      45.325  31.856  32.221  1.00  0.00    -0.206 F 
ATOM     89  C   UNL A   1      45.613  35.117  30.667  1.00  0.00     0.006 A 
ENDBRANCH  65  82
ENDBRANCH  39  40
ENDBRANCH  31  34
ENDBRANCH  29  30
ENDBRANCH   1  29
TORSDOF 14
ENDMDL
MODEL 2
REMARK VINA RESULT:     -12.5      0.384      1.598
REMARK SMILES CC(C)N(c1cc2c(cc1Cl)C=C(C(=O)NCCCNC(=O)c1ccc(-c3c4nc(c(-c5c(F)cccc5F)c5ccc([nH]5)c(-c5c(F)cccc5F)c5nc(c(-c6c(F)cccc6F)c6ccc3[nH]6)C=C5)C=C4)cc1)[C@@H](C(F)(F)F)O2)C(C)C
REMARK SMILES IDX 18 1 17 2 16 3 14 4 15 5 13 7 5 8 6 9 10 10 7 11 9 12 11 13
REMARK SMILES IDX 8 14 82 15 12 16 77 17 4 18 2 19 1 20 3 21 83 22 84 23 85 24
REMARK SMILES IDX 78 25 79 26 80 27 81 28 19 29 20 30 21 31 22 33 23 34 24 35
REMARK SMILES IDX 76 36 25 37 75 38 26 39 27 40 28 41 69 42 29 43 74 44 68 45
REMARK SMILES IDX 70 46 30 47 73 48 67 49 66 50 31 52 57 53 40 54 56 55 41 56
REMARK SMILES IDX 44 57 55 58 71 59 42 60 43 61 54 63 72 64 45 65 32 66 33 67
REMARK SMILES IDX 38 68 34 69 35 70 37 71 39 72 36 73 58 74 59 75 64 76 60 77
REMARK SMILES IDX 61 78 63 79 65 80 62 81 46 82 47 83 52 84 48 85 49 86 51 87
REMARK SMILES IDX 53 88 50 89
REMARK H PARENT 16 6 20 32 70 51 44 62
REMARK Flexibility Score: inf
ROOT
ATOM      1  C   UNL A   1      37.961  19.665  24.912  1.00  0.00     0.042 C 
ENDROOT
BRANCH   1   2
ATOM      2  C   UNL A   1      36.713  20.494  25.169  1.00  0.00     0.118 C 
BRANCH   2   3
ATOM      3  N   UNL A   1      35.499  19.730  24.934  1.00  0.00    -0.352 N 
ATOM      4  C   UNL A   1      34.173  19.978  24.830  1.00  0.00     0.251 C 
ATOM      5  O   UNL A   1      33.470  18.983  24.628  1.00  0.00    -0.270 OA
ATOM      6  H   UNL A   1      35.694  18.772  24.819  1.00  0.00     0.163 HD
BRANCH   4   7
ATOM      7  C   UNL A   1      33.539  21.322  24.941  1.00  0.00     0.067 C 
ATOM      8  C   UNL A   1      31.971  26.071  24.118  1.00  0.00     0.060 A 
ATOM      9  C   UNL A   1      31.589  25.024  24.980  1.00  0.00     0.074 A 
ATOM     10  C   UNL A   1      32.971  25.770  23.160  1.00  0.00     0.065 A 
ATOM     11  C   UNL A   1      32.192  23.769  24.918  1.00  0.00     0.130 A 
ATOM     12  C   UNL A   1      33.533  24.487  23.065  1.00  0.00     0.034 A 
ATOM     13  Cl  UNL A   1      33.649  26.962  22.099  1.00  0.00    -0.082 Cl
ATOM     14  C   UNL A   1      33.151  23.485  23.952  1.00  0.00     0.019 A 
ATOM     15  O   UNL A   1      31.782  22.839  25.832  1.00  0.00    -0.475 OA
ATOM     16  C   UNL A   1      33.722  22.145  23.890  1.00  0.00     0.025 C 
ATOM     17  C   UNL A   1      32.760  21.802  26.133  1.00  0.00     0.314 C 
BRANCH   8  18
ATOM     18  N   UNL A   1      31.364  27.334  24.268  1.00  0.00    -0.365 N 
BRANCH  18  19
ATOM     19  C   UNL A   1      31.873  28.199  25.356  1.00  0.00     0.076 C 
ATOM     20  C   UNL A   1      31.330  27.810  26.731  1.00  0.00     0.030 C 
ATOM     21  C   UNL A   1      33.395  28.302  25.382  1.00  0.00     0.030 C 
ENDBRANCH  18  19
BRANCH  18  22
ATOM     22  C   UNL A   1      30.385  27.722  23.225  1.00  0.00     0.076 C 
ATOM     23  C   UNL A   1      28.956  27.321  23.579  1.00  0.00     0.030 C 
ATOM     24  C   UNL A   1      30.466  29.191  22.823  1.00  0.00     0.030 C 
ENDBRANCH  18  22
ENDBRANCH   8  18
BRANCH  17  25
ATOM     25  C   UNL A   1      33.673  22.261  27.290  1.00  0.00     0.429 C 
ATOM     26  F   UNL A   1      32.927  22.614  28.367  1.00  0.00    -0.167 F 
ATOM     27  F   UNL A   1      34.509  21.281  27.710  1.00  0.00    -0.167 F 
ATOM     28  F   UNL A   1      34.446  23.320  26.967  1.00  0.00    -0.167 F 
ENDBRANCH  17  25
ENDBRANCH   4   7
ENDBRANCH   2   3
ENDBRANCH   1   2
BRANCH   1  29
ATOM     29  C   UNL A   1      39.138  20.106  25.772  1.00  0.00     0.118 C 
BRANCH  29  30
ATOM     30  N   UNL A   1      40.162  19.069  25.881  1.00  0.00    -0.352 N 
ATOM     31  C   UNL A   1      41.516  19.171  26.094  1.00  0.00     0.251 C 
ATOM     32  H   UNL A   1      39.828  18.147  25.786  1.00  0.00     0.163 HD
ATOM     33  O   UNL A   1      42.236  18.190  25.932  1.00  0.00    -0.269 OA
BRANCH  31  34
ATOM     34  C   UNL A   1      42.107  20.462  26.499  1.00  0.00     0.039 A 
ATOM     35  C   UNL A   1      42.089  20.855  27.836  1.00  0.00     0.014 A 
ATOM     36  C   UNL A   1      42.684  21.292  25.533  1.00  0.00     0.014 A 
ATOM     37  C   UNL A   1      42.452  22.149  28.176  1.00  0.00     0.010 A 
ATOM     38  C   UNL A   1      43.160  22.555  25.899  1.00  0.00     0.010 A 
ATOM     39  C   UNL A   1      42.997  23.015  27.214  1.00  0.00    -0.014 A 
BRANCH  39  40
ATOM     40  C   UNL A   1      43.383  24.389  27.627  1.00  0.00     0.031 A 
ATOM     41  C   UNL A   1      44.813  24.848  27.542  1.00  0.00     0.074 A 
ATOM     42  C   UNL A   1      42.417  25.249  28.004  1.00  0.00     0.049 A 
ATOM     43  N   UNL A   1      45.319  26.022  27.826  1.00  0.00    -0.248 NA
ATOM     44  C   UNL A   1      45.808  23.864  27.091  1.00  0.00     0.031 C 
ATOM     45  C   UNL A   1      40.994  24.920  28.122  1.00  0.00     0.029 A 
ATOM     46  N   UNL A   1      42.475  26.581  28.321  1.00  0.00    -0.354 N 
ATOM     47  C   UNL A   1      46.688  25.910  27.615  1.00  0.00     0.074 A 
ATOM     48  C   UNL A   1      46.940  24.547  27.201  1.00  0.00     0.031 C 
ATOM     49  C   UNL A   1      40.307  26.034  28.415  1.00  0.00     0.029 A 
ATOM     50  C   UNL A   1      41.246  27.136  28.581  1.00  0.00     0.049 A 
ATOM     51  H   UNL A   1      43.317  27.090  28.361  1.00  0.00     0.167 HD
ATOM     52  C   UNL A   1      47.645  26.859  27.743  1.00  0.00     0.037 A 
ATOM     53  C   UNL A   1      40.911  28.391  28.928  1.00  0.00     0.037 A 
ATOM     54  C   UNL A   1      47.387  28.224  28.127  1.00  0.00     0.049 A 
ATOM     55  C   UNL A   1      41.993  29.417  29.080  1.00  0.00     0.074 A 
ATOM     56  C   UNL A   1      48.287  29.267  28.264  1.00  0.00     0.029 A 
ATOM     57  N   UNL A   1      46.134  28.735  28.430  1.00  0.00    -0.354 N 
ATOM     58  N   UNL A   1      43.283  29.293  28.875  1.00  0.00    -0.248 NA
ATOM     59  C   UNL A   1      41.577  30.753  29.524  1.00  0.00     0.031 C 
ATOM     60  C   UNL A   1      47.581  30.400  28.687  1.00  0.00     0.029 A 
ATOM     61  C   UNL A   1      46.238  30.073  28.772  1.00  0.00     0.049 A 
ATOM     62  H   UNL A   1      45.294  28.222  28.406  1.00  0.00     0.167 HD
ATOM     63  C   UNL A   1      43.832  30.534  29.163  1.00  0.00     0.074 A 
ATOM     64  C   UNL A   1      42.730  31.404  29.524  1.00  0.00     0.031 C 
ATOM     65  C   UNL A   1      45.130  30.918  29.138  1.00  0.00     0.037 A 
BRANCH  52  66
ATOM     66  C   UNL A   1      49.067  26.449  27.488  1.00  0.00     0.057 A 
ATOM     67  C   UNL A   1      49.862  25.951  28.528  1.00  0.00     0.134 A 
ATOM     68  C   UNL A   1      49.660  26.571  26.224  1.00  0.00     0.134 A 
ATOM     69  F   UNL A   1      49.358  25.812  29.763  1.00  0.00    -0.206 F 
ATOM     70  C   UNL A   1      51.195  25.591  28.321  1.00  0.00     0.040 A 
ATOM     71  C   UNL A   1      50.985  26.192  26.000  1.00  0.00     0.040 A 
ATOM     72  F   UNL A   1      48.949  27.027  25.182  1.00  0.00    -0.206 F 
ATOM     73  C   UNL A   1      51.758  25.706  27.052  1.00  0.00     0.006 A 
ENDBRANCH  52  66
BRANCH  53  74
ATOM     74  C   UNL A   1      39.489  28.737  29.173  1.00  0.00     0.057 A 
ATOM     75  C   UNL A   1      38.909  28.570  30.437  1.00  0.00     0.134 A 
ATOM     76  C   UNL A   1      38.677  29.242  28.152  1.00  0.00     0.134 A 
ATOM     77  F   UNL A   1      39.633  28.085  31.456  1.00  0.00    -0.206 F 
ATOM     78  C   UNL A   1      37.569  28.879  30.673  1.00  0.00     0.040 A 
ATOM     79  C   UNL A   1      37.343  29.581  28.380  1.00  0.00     0.040 A 
ATOM     80  F   UNL A   1      39.181  29.440  26.925  1.00  0.00    -0.206 F 
ATOM     81  C   UNL A   1      36.784  29.394  29.644  1.00  0.00     0.006 A 
ENDBRANCH  53  74
BRANCH  65  82
ATOM     82  C   UNL A   1      45.416  32.345  29.501  1.00  0.00     0.057 A 
ATOM     83  C   UNL A   1      45.711  32.701  30.822  1.00  0.00     0.134 A 
ATOM     84  C   UNL A   1      45.400  33.364  28.542  1.00  0.00     0.134 A 
ATOM     85  F   UNL A   1      45.737  31.770  31.789  1.00  0.00    -0.206 F 
ATOM     86  C   UNL A   1      45.985  34.022  31.176  1.00  0.00     0.040 A 
ATOM     87  C   UNL A   1      45.696  34.686  28.878  1.00  0.00     0.040 A 
ATOM     88  F   UNL A   1      45.142  33.084  27.254  1.00  0.00    -0.206 F 
ATOM     89  C   UNL A   1      45.986  35.017  30.201  1.00  0.00     0.006 A 
ENDBRANCH  65  82
ENDBRANCH  39  40
ENDBRANCH  31  34
ENDBRANCH  29  30
ENDBRANCH   1  29
TORSDOF 14
ENDMDL
MODEL 3
REMARK VINA RESULT:     -12.4      4.900      9.927
REMARK SMILES CC(C)N(c1cc2c(cc1Cl)C=C(C(=O)NCCCNC(=O)c1ccc(-c3c4nc(c(-c5c(F)cccc5F)c5ccc([nH]5)c(-c5c(F)cccc5F)c5nc(c(-c6c(F)cccc6F)c6ccc3[nH]6)C=C5)C=C4)cc1)[C@@H](C(F)(F)F)O2)C(C)C
REMARK SMILES IDX 18 1 17 2 16 3 14 4 15 5 13 7 5 8 6 9 10 10 7 11 9 12 11 13
REMARK SMILES IDX 8 14 82 15 12 16 77 17 4 18 2 19 1 20 3 21 83 22 84 23 85 24
REMARK SMILES IDX 78 25 79 26 80 27 81 28 19 29 20 30 21 31 22 33 23 34 24 35
REMARK SMILES IDX 76 36 25 37 75 38 26 39 27 40 28 41 69 42 29 43 74 44 68 45
REMARK SMILES IDX 70 46 30 47 73 48 67 49 66 50 31 52 57 53 40 54 56 55 41 56
REMARK SMILES IDX 44 57 55 58 71 59 42 60 43 61 54 63 72 64 45 65 32 66 33 67
REMARK SMILES IDX 38 68 34 69 35 70 37 71 39 72 36 73 58 74 59 75 64 76 60 77
REMARK SMILES IDX 61 78 63 79 65 80 62 81 46 82 47 83 52 84 48 85 49 86 51 87
REMARK SMILES IDX 53 88 50 89
REMARK H PARENT 16 6 20 32 70 51 44 62
REMARK Flexibility Score: inf
ROOT
ATOM      1  C   UNL A   1      31.400  31.882  26.470  1.00  0.00     0.042 C 
ENDROOT
BRANCH   1   2
ATOM      2  C   UNL A   1      31.725  30.569  25.775  1.00  0.00     0.118 C 
BRANCH   2   3
ATOM      3  N   UNL A   1      30.797  30.287  24.692  1.00  0.00    -0.352 N 
ATOM      4  C   UNL A   1      30.567  29.280  23.817  1.00  0.00     0.251 C 
ATOM      5  O   UNL A   1      29.638  29.478  23.027  1.00  0.00    -0.270 OA
ATOM      6  H   UNL A   1      30.164  31.029  24.559  1.00  0.00     0.163 HD
BRANCH   4   7
ATOM      7  C   UNL A   1      31.334  28.005  23.755  1.00  0.00     0.067 C 
ATOM      8  C   UNL A   1      33.257  23.405  24.671  1.00  0.00     0.060 A 
ATOM      9  C   UNL A   1      33.201  24.265  23.556  1.00  0.00     0.074 A 
ATOM     10  C   UNL A   1      32.551  23.820  25.827  1.00  0.00     0.065 A 
ATOM     11  C   UNL A   1      32.518  25.479  23.603  1.00  0.00     0.130 A 
ATOM     12  C   UNL A   1      31.818  25.018  25.848  1.00  0.00     0.034 A 
ATOM     13  Cl  UNL A   1      32.606  22.953  27.327  1.00  0.00    -0.082 Cl
ATOM     14  C   UNL A   1      31.808  25.856  24.737  1.00  0.00     0.019 A 
ATOM     15  O   UNL A   1      32.567  26.261  22.481  1.00  0.00    -0.475 OA
ATOM     16  C   UNL A   1      31.068  27.112  24.727  1.00  0.00     0.025 C 
ATOM     17  C   UNL A   1      32.374  27.685  22.718  1.00  0.00     0.314 C 
BRANCH   8  18
ATOM     18  N   UNL A   1      34.011  22.218  24.579  1.00  0.00    -0.365 N 
BRANCH  18  19
ATOM     19  C   UNL A   1      35.474  22.335  24.766  1.00  0.00     0.076 C 
ATOM     20  C   UNL A   1      36.217  22.656  23.469  1.00  0.00     0.030 C 
ATOM     21  C   UNL A   1      35.864  23.313  25.871  1.00  0.00     0.030 C 
ENDBRANCH  18  19
BRANCH  18  22
ATOM     22  C   UNL A   1      33.241  20.957  24.457  1.00  0.00     0.076 C 
ATOM     23  C   UNL A   1      32.406  20.897  23.182  1.00  0.00     0.030 C 
ATOM     24  C   UNL A   1      34.090  19.701  24.626  1.00  0.00     0.030 C 
ENDBRANCH  18  22
ENDBRANCH   8  18
BRANCH  17  25
ATOM     25  C   UNL A   1      33.731  28.357  23.016  1.00  0.00     0.429 C 
ATOM     26  F   UNL A   1      34.604  28.125  22.003  1.00  0.00    -0.167 F 
ATOM     27  F   UNL A   1      33.629  29.703  23.132  1.00  0.00    -0.167 F 
ATOM     28  F   UNL A   1      34.304  27.911  24.155  1.00  0.00    -0.167 F 
ENDBRANCH  17  25
ENDBRANCH   4   7
ENDBRANCH   2   3
ENDBRANCH   1   2
BRANCH   1  29
ATOM     29  C   UNL A   1      32.592  32.446  27.231  1.00  0.00     0.118 C 
BRANCH  29  30
ATOM     30  N   UNL A   1      32.426  33.863  27.548  1.00  0.00    -0.352 N 
ATOM     31  C   UNL A   1      33.039  34.643  28.498  1.00  0.00     0.251 C 
ATOM     32  H   UNL A   1      31.766  34.336  26.990  1.00  0.00     0.163 HD
ATOM     33  O   UNL A   1      32.597  35.760  28.751  1.00  0.00    -0.269 OA
BRANCH  31  34
ATOM     34  C   UNL A   1      34.215  34.131  29.229  1.00  0.00     0.039 A 
ATOM     35  C   UNL A   1      35.502  34.398  28.765  1.00  0.00     0.014 A 
ATOM     36  C   UNL A   1      34.033  33.375  30.391  1.00  0.00     0.014 A 
ATOM     37  C   UNL A   1      36.586  33.744  29.332  1.00  0.00     0.010 A 
ATOM     38  C   UNL A   1      35.140  32.810  31.032  1.00  0.00     0.010 A 
ATOM     39  C   UNL A   1      36.421  32.946  30.475  1.00  0.00    -0.014 A 
BRANCH  39  40
ATOM     40  C   UNL A   1      37.612  32.274  31.055  1.00  0.00     0.031 A 
ATOM     41  C   UNL A   1      38.074  32.589  32.451  1.00  0.00     0.074 A 
ATOM     42  C   UNL A   1      38.229  31.313  30.339  1.00  0.00     0.049 A 
ATOM     43  N   UNL A   1      39.070  32.071  33.126  1.00  0.00    -0.248 NA
ATOM     44  C   UNL A   1      37.332  33.625  33.186  1.00  0.00     0.031 C 
ATOM     45  C   UNL A   1      37.869  30.917  28.974  1.00  0.00     0.029 A 
ATOM     46  N   UNL A   1      39.259  30.472  30.666  1.00  0.00    -0.354 N 
ATOM     47  C   UNL A   1      39.091  32.734  34.347  1.00  0.00     0.074 A 
ATOM     48  C   UNL A   1      38.023  33.710  34.315  1.00  0.00     0.031 C 
ATOM     49  C   UNL A   1      38.617  29.865  28.610  1.00  0.00     0.029 A 
ATOM     50  C   UNL A   1      39.558  29.563  29.681  1.00  0.00     0.049 A 
ATOM     51  H   UNL A   1      39.740  30.515  31.524  1.00  0.00     0.167 HD
ATOM     52  C   UNL A   1      39.917  32.540  35.402  1.00  0.00     0.037 A 
ATOM     53  C   UNL A   1      40.495  28.599  29.637  1.00  0.00     0.037 A 
ATOM     54  C   UNL A   1      40.961  31.547  35.443  1.00  0.00     0.049 A 
ATOM     55  C   UNL A   1      41.407  28.419  30.812  1.00  0.00     0.074 A 
ATOM     56  C   UNL A   1      41.838  31.257  36.474  1.00  0.00     0.029 A 
ATOM     57  N   UNL A   1      41.264  30.679  34.404  1.00  0.00    -0.354 N 
ATOM     58  N   UNL A   1      41.412  29.055  31.959  1.00  0.00    -0.248 NA
ATOM     59  C   UNL A   1      42.453  27.397  30.683  1.00  0.00     0.031 C 
ATOM     60  C   UNL A   1      42.696  30.238  36.045  1.00  0.00     0.029 A 
ATOM     61  C   UNL A   1      42.326  29.865  34.763  1.00  0.00     0.049 A 
ATOM     62  H   UNL A   1      40.794  30.645  33.540  1.00  0.00     0.167 HD
ATOM     63  C   UNL A   1      42.457  28.508  32.689  1.00  0.00     0.074 A 
ATOM     64  C   UNL A   1      43.042  27.468  31.867  1.00  0.00     0.031 C 
ATOM     65  C   UNL A   1      42.899  28.842  33.926  1.00  0.00     0.037 A 
BRANCH  52  66
ATOM     66  C   UNL A   1      39.741  33.436  36.595  1.00  0.00     0.057 A 
ATOM     67  C   UNL A   1      38.847  33.092  37.616  1.00  0.00     0.134 A 
ATOM     68  C   UNL A   1      40.432  34.648  36.721  1.00  0.00     0.134 A 
ATOM     69  F   UNL A   1      38.150  31.949  37.555  1.00  0.00    -0.206 F 
ATOM     70  C   UNL A   1      38.644  33.923  38.719  1.00  0.00     0.040 A 
ATOM     71  C   UNL A   1      40.256  35.476  37.833  1.00  0.00     0.040 A 
ATOM     72  F   UNL A   1      41.316  35.028  35.786  1.00  0.00    -0.206 F 
ATOM     73  C   UNL A   1      39.354  35.116  38.833  1.00  0.00     0.006 A 
ENDBRANCH  52  66
BRANCH  53  74
ATOM     74  C   UNL A   1      40.626  27.748  28.429  1.00  0.00     0.057 A 
ATOM     75  C   UNL A   1      41.403  28.153  27.336  1.00  0.00     0.134 A 
ATOM     76  C   UNL A   1      39.978  26.512  28.336  1.00  0.00     0.134 A 
ATOM     77  F   UNL A   1      42.045  29.331  27.361  1.00  0.00    -0.206 F 
ATOM     78  C   UNL A   1      41.520  27.366  26.191  1.00  0.00     0.040 A 
ATOM     79  C   UNL A   1      40.108  25.702  27.208  1.00  0.00     0.040 A 
ATOM     80  F   UNL A   1      39.233  26.063  29.358  1.00  0.00    -0.206 F 
ATOM     81  C   UNL A   1      40.878  26.132  26.128  1.00  0.00     0.006 A 
ENDBRANCH  53  74
BRANCH  65  82
ATOM     82  C   UNL A   1      44.063  28.060  34.457  1.00  0.00     0.057 A 
ATOM     83  C   UNL A   1      45.374  28.510  34.265  1.00  0.00     0.134 A 
ATOM     84  C   UNL A   1      43.884  26.862  35.159  1.00  0.00     0.134 A 
ATOM     85  F   UNL A   1      45.613  29.648  33.595  1.00  0.00    -0.206 F 
ATOM     86  C   UNL A   1      46.468  27.798  34.757  1.00  0.00     0.040 A 
ATOM     87  C   UNL A   1      44.967  26.153  35.678  1.00  0.00     0.040 A 
ATOM     88  F   UNL A   1      42.650  26.388  35.392  1.00  0.00    -0.206 F 
ATOM     89  C   UNL A   1      46.265  26.620  35.473  1.00  0.00     0.006 A 
ENDBRANCH  65  82
ENDBRANCH  39  40
ENDBRANCH  31  34
ENDBRANCH  29  30
ENDBRANCH   1  29
TORSDOF 14
ENDMDL
