MODEL 1
REMARK VINA RESULT:     -11.4      0.000      0.000
REMARK SMILES CC[NH+](CC)C[C@H](C)NC(=O)N[C@H]1C=C[C@@H](C(=O)NCCCNC(=O)c2ccc(-c3c4nc(c(-c5c(F)cccc5F)c5ccc([nH]5)c(-c5c(F)cccc5F)c5nc(c(-c6c(F)cccc6F)c6ccc3[nH]6)C=C5)C=C4)cc2)C1
REMARK SMILES IDX 17 1 18 2 19 3 16 5 13 6 14 7 80 8 15 9 12 10 9 11 10 12
REMARK SMILES IDX 11 14 7 16 8 17 6 18 3 19 2 21 1 22 4 23 5 24 20 25 21 26
REMARK SMILES IDX 22 27 23 28 24 29 25 31 26 32 27 33 79 34 28 35 78 36 29 37
REMARK SMILES IDX 30 38 31 39 72 40 32 41 77 42 71 43 73 44 33 45 76 46 70 47
REMARK SMILES IDX 69 48 34 50 60 51 43 52 59 53 44 54 47 55 58 56 74 57 45 58
REMARK SMILES IDX 46 59 57 61 75 62 48 63 35 64 36 65 41 66 37 67 38 68 40 69
REMARK SMILES IDX 42 70 39 71 61 72 62 73 67 74 63 75 64 76 66 77 68 78 65 79
REMARK SMILES IDX 49 80 50 81 55 82 51 83 52 84 54 85 56 86 53 87
REMARK H PARENT 19 4 9 13 12 15 3 20 23 30 73 49 47 60
REMARK Flexibility Score: inf
ROOT
ATOM      1  C   UNL A   1      30.885  29.302  24.195  1.00  0.00     0.227 C 
ATOM      2  O   UNL A   1      30.210  29.336  23.161  1.00  0.00    -0.274 OA
ATOM      3  N   UNL A   1      30.978  30.456  24.914  1.00  0.00    -0.356 N 
ATOM      4  H   UNL A   1      30.507  31.223  24.515  1.00  0.00     0.163 HD
ENDROOT
BRANCH   1   5
ATOM      5  C   UNL A   1      31.597  28.011  24.607  1.00  0.00     0.103 C 
ATOM      6  C   UNL A   1      32.755  26.292  23.303  1.00  0.00     0.107 C 
ATOM      7  C   UNL A   1      33.711  27.266  23.906  1.00  0.00    -0.006 C 
ATOM      8  C   UNL A   1      31.370  26.862  23.620  1.00  0.00     0.047 C 
ATOM      9  C   UNL A   1      33.085  28.158  24.681  1.00  0.00    -0.016 C 
BRANCH   6  10
ATOM     10  N   UNL A   1      32.940  26.158  21.883  1.00  0.00    -0.332 N 
ATOM     11  N   UNL A   1      32.924  23.821  21.501  1.00  0.00    -0.330 N 
ATOM     12  C   UNL A   1      32.951  25.089  21.075  1.00  0.00     0.315 C 
ATOM     13  H   UNL A   1      32.862  23.179  20.756  1.00  0.00     0.165 HD
ATOM     14  O   UNL A   1      32.998  25.288  19.858  1.00  0.00    -0.249 OA
ATOM     15  H   UNL A   1      33.085  27.013  21.417  1.00  0.00     0.165 HD
BRANCH  11  16
ATOM     16  C   UNL A   1      32.966  23.155  22.799  1.00  0.00     0.135 C 
ATOM     17  C   UNL A   1      32.207  21.825  22.714  1.00  0.00     0.037 C 
BRANCH  16  18
ATOM     18  C   UNL A   1      34.392  22.958  23.414  1.00  0.00     0.287 C 
BRANCH  18  19
ATOM     19  N   UNL A   1      34.663  23.036  24.848  1.00  0.00    -0.334 N 
ATOM     20  H   UNL A   1      33.764  23.467  25.069  1.00  0.00     0.348 HD
BRANCH  19  21
ATOM     21  C   UNL A   1      34.531  21.841  25.668  1.00  0.00     0.258 C 
ATOM     22  C   UNL A   1      34.871  20.550  24.931  1.00  0.00     0.071 C 
ENDBRANCH  19  21
BRANCH  19  23
ATOM     23  C   UNL A   1      35.569  24.068  25.333  1.00  0.00     0.258 C 
ATOM     24  C   UNL A   1      37.057  23.744  25.314  1.00  0.00     0.071 C 
ENDBRANCH  19  23
ENDBRANCH  18  19
ENDBRANCH  16  18
ENDBRANCH  11  16
ENDBRANCH   6  10
ENDBRANCH   1   5
BRANCH   3  25
ATOM     25  C   UNL A   1      31.652  30.752  26.165  1.00  0.00     0.117 C 
BRANCH  25  26
ATOM     26  C   UNL A   1      31.404  32.171  26.640  1.00  0.00     0.042 C 
BRANCH  26  27
ATOM     27  C   UNL A   1      32.630  32.798  27.276  1.00  0.00     0.118 C 
BRANCH  27  28
ATOM     28  N   UNL A   1      32.419  34.201  27.613  1.00  0.00    -0.352 N 
ATOM     29  C   UNL A   1      33.003  34.964  28.592  1.00  0.00     0.251 C 
ATOM     30  H   UNL A   1      31.760  34.672  27.055  1.00  0.00     0.163 HD
ATOM     31  O   UNL A   1      32.547  36.066  28.869  1.00  0.00    -0.269 OA
BRANCH  29  32
ATOM     32  C   UNL A   1      34.180  34.442  29.314  1.00  0.00     0.039 A 
ATOM     33  C   UNL A   1      34.002  33.820  30.551  1.00  0.00     0.014 A 
ATOM     34  C   UNL A   1      35.457  34.568  28.763  1.00  0.00     0.014 A 
ATOM     35  C   UNL A   1      35.104  33.271  31.207  1.00  0.00     0.010 A 
ATOM     36  C   UNL A   1      36.530  33.926  29.360  1.00  0.00     0.010 A 
ATOM     37  C   UNL A   1      36.369  33.290  30.598  1.00  0.00    -0.014 A 
BRANCH  37  38
ATOM     38  C   UNL A   1      37.554  32.685  31.248  1.00  0.00     0.031 A 
ATOM     39  C   UNL A   1      38.230  31.504  30.611  1.00  0.00     0.074 A 
ATOM     40  C   UNL A   1      37.967  33.145  32.444  1.00  0.00     0.049 A 
ATOM     41  N   UNL A   1      39.221  30.777  31.058  1.00  0.00    -0.248 NA
ATOM     42  C   UNL A   1      37.693  31.056  29.316  1.00  0.00     0.031 C 
ATOM     43  C   UNL A   1      37.362  34.255  33.181  1.00  0.00     0.029 A 
ATOM     44  N   UNL A   1      38.992  32.726  33.252  1.00  0.00    -0.354 N 
ATOM     45  C   UNL A   1      39.408  29.776  30.112  1.00  0.00     0.074 A 
ATOM     46  C   UNL A   1      38.386  29.949  29.104  1.00  0.00     0.031 C 
ATOM     47  C   UNL A   1      38.050  34.454  34.315  1.00  0.00     0.029 A 
ATOM     48  C   UNL A   1      39.113  33.459  34.406  1.00  0.00     0.049 A 
ATOM     49  H   UNL A   1      39.585  31.974  33.026  1.00  0.00     0.167 HD
ATOM     50  C   UNL A   1      40.361  28.816  30.073  1.00  0.00     0.037 A 
ATOM     51  C   UNL A   1      39.984  33.336  35.426  1.00  0.00     0.037 A 
ATOM     52  C   UNL A   1      41.387  28.667  31.071  1.00  0.00     0.049 A 
ATOM     53  C   UNL A   1      41.023  32.252  35.372  1.00  0.00     0.074 A 
ATOM     54  C   UNL A   1      42.442  27.772  31.095  1.00  0.00     0.029 A 
ATOM     55  N   UNL A   1      41.480  29.430  32.226  1.00  0.00    -0.354 N 
ATOM     56  N   UNL A   1      41.238  31.356  34.438  1.00  0.00    -0.248 NA
ATOM     57  C   UNL A   1      41.943  32.164  36.513  1.00  0.00     0.031 C 
ATOM     58  C   UNL A   1      43.140  27.956  32.295  1.00  0.00     0.029 A 
ATOM     59  C   UNL A   1      42.557  29.006  32.987  1.00  0.00     0.049 A 
ATOM     60  H   UNL A   1      40.871  30.163  32.468  1.00  0.00     0.167 HD
ATOM     61  C   UNL A   1      42.337  30.619  34.863  1.00  0.00     0.074 A 
ATOM     62  C   UNL A   1      42.747  31.181  36.134  1.00  0.00     0.031 C 
ATOM     63  C   UNL A   1      42.954  29.579  34.250  1.00  0.00     0.037 A 
BRANCH  50  64
ATOM     64  C   UNL A   1      40.319  27.853  28.919  1.00  0.00     0.057 A 
ATOM     65  C   UNL A   1      39.591  26.656  28.974  1.00  0.00     0.134 A 
ATOM     66  C   UNL A   1      41.029  28.120  27.742  1.00  0.00     0.134 A 
ATOM     67  F   UNL A   1      38.899  26.331  30.077  1.00  0.00    -0.206 F 
ATOM     68  C   UNL A   1      39.609  25.739  27.921  1.00  0.00     0.040 A 
ATOM     69  C   UNL A   1      41.026  27.228  26.668  1.00  0.00     0.040 A 
ATOM     70  F   UNL A   1      41.741  29.249  27.616  1.00  0.00    -0.206 F 
ATOM     71  C   UNL A   1      40.326  26.027  26.762  1.00  0.00     0.006 A 
ENDBRANCH  50  64
BRANCH  51  72
ATOM     72  C   UNL A   1      39.937  34.297  36.555  1.00  0.00     0.057 A 
ATOM     73  C   UNL A   1      40.560  35.547  36.456  1.00  0.00     0.134 A 
ATOM     74  C   UNL A   1      39.254  34.008  37.741  1.00  0.00     0.134 A 
ATOM     75  F   UNL A   1      41.243  35.875  35.349  1.00  0.00    -0.206 F 
ATOM     76  C   UNL A   1      40.516  36.470  37.501  1.00  0.00     0.040 A 
ATOM     77  C   UNL A   1      39.180  34.932  38.785  1.00  0.00     0.040 A 
ATOM     78  F   UNL A   1      38.629  32.831  37.894  1.00  0.00    -0.206 F 
ATOM     79  C   UNL A   1      39.817  36.166  38.667  1.00  0.00     0.006 A 
ENDBRANCH  51  72
BRANCH  63  80
ATOM     80  C   UNL A   1      44.165  29.003  34.926  1.00  0.00     0.057 A 
ATOM     81  C   UNL A   1      45.460  29.458  34.646  1.00  0.00     0.134 A 
ATOM     82  C   UNL A   1      44.026  28.010  35.904  1.00  0.00     0.134 A 
ATOM     83  F   UNL A   1      45.664  30.398  33.711  1.00  0.00    -0.206 F 
ATOM     84  C   UNL A   1      46.574  28.929  35.299  1.00  0.00     0.040 A 
ATOM     85  C   UNL A   1      45.129  27.496  36.585  1.00  0.00     0.040 A 
ATOM     86  F   UNL A   1      42.813  27.536  36.227  1.00  0.00    -0.206 F 
ATOM     87  C   UNL A   1      46.409  27.951  36.279  1.00  0.00     0.006 A 
ENDBRANCH  63  80
ENDBRANCH  37  38
ENDBRANCH  29  32
ENDBRANCH  27  28
ENDBRANCH  26  27
ENDBRANCH  25  26
ENDBRANCH   3  25
TORSDOF 16
ENDMDL
MODEL 2
REMARK VINA RESULT:     -11.2      0.850      6.277
REMARK SMILES CC[NH+](CC)C[C@H](C)NC(=O)N[C@H]1C=C[C@@H](C(=O)NCCCNC(=O)c2ccc(-c3c4nc(c(-c5c(F)cccc5F)c5ccc([nH]5)c(-c5c(F)cccc5F)c5nc(c(-c6c(F)cccc6F)c6ccc3[nH]6)C=C5)C=C4)cc2)C1
REMARK SMILES IDX 17 1 18 2 19 3 16 5 13 6 14 7 80 8 15 9 12 10 9 11 10 12
REMARK SMILES IDX 11 14 7 16 8 17 6 18 3 19 2 21 1 22 4 23 5 24 20 25 21 26
REMARK SMILES IDX 22 27 23 28 24 29 25 31 26 32 27 33 79 34 28 35 78 36 29 37
REMARK SMILES IDX 30 38 31 39 72 40 32 41 77 42 71 43 73 44 33 45 76 46 70 47
REMARK SMILES IDX 69 48 34 50 60 51 43 52 59 53 44 54 47 55 58 56 74 57 45 58
REMARK SMILES IDX 46 59 57 61 75 62 48 63 35 64 36 65 41 66 37 67 38 68 40 69
REMARK SMILES IDX 42 70 39 71 61 72 62 73 67 74 63 75 64 76 66 77 68 78 65 79
REMARK SMILES IDX 49 80 50 81 55 82 51 83 52 84 54 85 56 86 53 87
REMARK H PARENT 19 4 9 13 12 15 3 20 23 30 73 49 47 60
REMARK Flexibility Score: inf
ROOT
ATOM      1  C   UNL A   1      30.982  29.540  24.244  1.00  0.00     0.227 C 
ATOM      2  O   UNL A   1      30.419  29.512  23.146  1.00  0.00    -0.274 OA
ATOM      3  N   UNL A   1      30.863  30.684  24.974  1.00  0.00    -0.356 N 
ATOM      4  H   UNL A   1      30.348  31.397  24.532  1.00  0.00     0.163 HD
ENDROOT
BRANCH   1   5
ATOM      5  C   UNL A   1      31.797  28.334  24.722  1.00  0.00     0.103 C 
ATOM      6  C   UNL A   1      33.026  26.602  23.503  1.00  0.00     0.107 C 
ATOM      7  C   UNL A   1      33.932  27.681  23.993  1.00  0.00    -0.006 C 
ATOM      8  C   UNL A   1      31.616  27.101  23.832  1.00  0.00     0.047 C 
ATOM      9  C   UNL A   1      33.273  28.586  24.724  1.00  0.00    -0.016 C 
BRANCH   6  10
ATOM     10  N   UNL A   1      33.168  26.372  22.091  1.00  0.00    -0.332 N 
ATOM     11  N   UNL A   1      32.429  24.143  21.776  1.00  0.00    -0.330 N 
ATOM     12  C   UNL A   1      32.852  25.326  21.314  1.00  0.00     0.315 C 
ATOM     13  H   UNL A   1      32.176  23.529  21.049  1.00  0.00     0.165 HD
ATOM     14  O   UNL A   1      32.967  25.462  20.093  1.00  0.00    -0.249 OA
ATOM     15  H   UNL A   1      33.575  27.124  21.603  1.00  0.00     0.165 HD
BRANCH  11  16
ATOM     16  C   UNL A   1      32.254  23.539  23.093  1.00  0.00     0.135 C 
ATOM     17  C   UNL A   1      30.763  23.519  23.449  1.00  0.00     0.037 C 
BRANCH  16  18
ATOM     18  C   UNL A   1      32.904  22.128  23.284  1.00  0.00     0.287 C 
BRANCH  18  19
ATOM     19  N   UNL A   1      33.887  21.834  24.324  1.00  0.00    -0.334 N 
ATOM     20  H   UNL A   1      33.309  22.208  25.078  1.00  0.00     0.348 HD
BRANCH  19  21
ATOM     21  C   UNL A   1      34.022  20.472  24.817  1.00  0.00     0.258 C 
ATOM     22  C   UNL A   1      32.745  19.648  24.705  1.00  0.00     0.071 C 
ENDBRANCH  19  21
BRANCH  19  23
ATOM     23  C   UNL A   1      35.056  22.695  24.445  1.00  0.00     0.258 C 
ATOM     24  C   UNL A   1      35.011  23.774  25.518  1.00  0.00     0.071 C 
ENDBRANCH  19  23
ENDBRANCH  18  19
ENDBRANCH  16  18
ENDBRANCH  11  16
ENDBRANCH   6  10
ENDBRANCH   1   5
BRANCH   3  25
ATOM     25  C   UNL A   1      31.364  31.036  26.290  1.00  0.00     0.117 C 
BRANCH  25  26
ATOM     26  C   UNL A   1      31.295  32.527  26.562  1.00  0.00     0.042 C 
BRANCH  26  27
ATOM     27  C   UNL A   1      32.583  33.075  27.147  1.00  0.00     0.118 C 
BRANCH  27  28
ATOM     28  N   UNL A   1      32.415  34.420  27.685  1.00  0.00    -0.352 N 
ATOM     29  C   UNL A   1      33.040  35.023  28.747  1.00  0.00     0.251 C 
ATOM     30  H   UNL A   1      31.755  34.979  27.216  1.00  0.00     0.163 HD
ATOM     31  O   UNL A   1      32.617  36.084  29.188  1.00  0.00    -0.269 OA
BRANCH  29  32
ATOM     32  C   UNL A   1      34.219  34.379  29.357  1.00  0.00     0.039 A 
ATOM     33  C   UNL A   1      34.046  33.540  30.459  1.00  0.00     0.014 A 
ATOM     34  C   UNL A   1      35.494  34.605  28.834  1.00  0.00     0.014 A 
ATOM     35  C   UNL A   1      35.149  32.881  31.000  1.00  0.00     0.010 A 
ATOM     36  C   UNL A   1      36.570  33.866  29.299  1.00  0.00     0.010 A 
ATOM     37  C   UNL A   1      36.413  33.013  30.401  1.00  0.00    -0.014 A 
BRANCH  37  38
ATOM     38  C   UNL A   1      37.600  32.300  30.925  1.00  0.00     0.031 A 
ATOM     39  C   UNL A   1      38.257  32.778  32.189  1.00  0.00     0.074 A 
ATOM     40  C   UNL A   1      38.131  31.282  30.224  1.00  0.00     0.049 A 
ATOM     41  N   UNL A   1      39.350  32.351  32.767  1.00  0.00    -0.248 NA
ATOM     42  C   UNL A   1      37.620  33.914  32.875  1.00  0.00     0.031 C 
ATOM     43  C   UNL A   1      37.608  30.759  28.960  1.00  0.00     0.029 A 
ATOM     44  N   UNL A   1      39.234  30.509  30.474  1.00  0.00    -0.354 N 
ATOM     45  C   UNL A   1      39.542  33.181  33.866  1.00  0.00     0.074 A 
ATOM     46  C   UNL A   1      38.493  34.175  33.835  1.00  0.00     0.031 C 
ATOM     47  C   UNL A   1      38.369  29.728  28.565  1.00  0.00     0.029 A 
ATOM     48  C   UNL A   1      39.457  29.546  29.521  1.00  0.00     0.049 A 
ATOM     49  H   UNL A   1      39.812  30.632  31.262  1.00  0.00     0.167 HD
ATOM     50  C   UNL A   1      40.491  33.104  34.828  1.00  0.00     0.037 A 
ATOM     51  C   UNL A   1      40.433  28.624  29.429  1.00  0.00     0.037 A 
ATOM     52  C   UNL A   1      41.518  32.097  34.860  1.00  0.00     0.049 A 
ATOM     53  C   UNL A   1      41.487  28.567  30.498  1.00  0.00     0.074 A 
ATOM     54  C   UNL A   1      42.488  31.886  35.823  1.00  0.00     0.029 A 
ATOM     55  N   UNL A   1      41.710  31.135  33.879  1.00  0.00    -0.354 N 
ATOM     56  N   UNL A   1      41.619  29.309  31.572  1.00  0.00    -0.248 NA
ATOM     57  C   UNL A   1      42.528  27.543  30.343  1.00  0.00     0.031 C 
ATOM     58  C   UNL A   1      43.304  30.832  35.395  1.00  0.00     0.029 A 
ATOM     59  C   UNL A   1      42.804  30.347  34.196  1.00  0.00     0.049 A 
ATOM     60  H   UNL A   1      41.152  31.030  33.075  1.00  0.00     0.167 HD
ATOM     61  C   UNL A   1      42.736  28.821  32.238  1.00  0.00     0.074 A 
ATOM     62  C   UNL A   1      43.239  27.715  31.449  1.00  0.00     0.031 C 
ATOM     63  C   UNL A   1      43.289  29.246  33.401  1.00  0.00     0.037 A 
BRANCH  50  64
ATOM     64  C   UNL A   1      40.459  34.150  35.907  1.00  0.00     0.057 A 
ATOM     65  C   UNL A   1      39.708  33.987  37.080  1.00  0.00     0.134 A 
ATOM     66  C   UNL A   1      41.179  35.342  35.766  1.00  0.00     0.134 A 
ATOM     67  F   UNL A   1      38.982  32.874  37.275  1.00  0.00    -0.206 F 
ATOM     68  C   UNL A   1      39.635  34.990  38.049  1.00  0.00     0.040 A 
ATOM     69  C   UNL A   1      41.144  36.338  36.744  1.00  0.00     0.040 A 
ATOM     70  F   UNL A   1      41.926  35.563  34.674  1.00  0.00    -0.206 F 
ATOM     71  C   UNL A   1      40.359  36.169  37.883  1.00  0.00     0.006 A 
ENDBRANCH  50  64
BRANCH  51  72
ATOM     72  C   UNL A   1      40.424  27.651  28.309  1.00  0.00     0.057 A 
ATOM     73  C   UNL A   1      41.074  27.942  27.103  1.00  0.00     0.134 A 
ATOM     74  C   UNL A   1      39.794  26.406  28.419  1.00  0.00     0.134 A 
ATOM     75  F   UNL A   1      41.681  29.126  26.934  1.00  0.00    -0.206 F 
ATOM     76  C   UNL A   1      41.089  27.036  26.044  1.00  0.00     0.040 A 
ATOM     77  C   UNL A   1      39.823  25.479  27.375  1.00  0.00     0.040 A 
ATOM     78  F   UNL A   1      39.162  26.063  29.551  1.00  0.00    -0.206 F 
ATOM     79  C   UNL A   1      40.468  25.797  26.181  1.00  0.00     0.006 A 
ENDBRANCH  51  72
BRANCH  63  80
ATOM     80  C   UNL A   1      44.478  28.487  33.914  1.00  0.00     0.057 A 
ATOM     81  C   UNL A   1      44.344  27.349  34.720  1.00  0.00     0.134 A 
ATOM     82  C   UNL A   1      45.776  28.877  33.559  1.00  0.00     0.134 A 
ATOM     83  F   UNL A   1      43.130  26.930  35.108  1.00  0.00    -0.206 F 
ATOM     84  C   UNL A   1      45.458  26.640  35.171  1.00  0.00     0.040 A 
ATOM     85  C   UNL A   1      46.896  28.160  33.978  1.00  0.00     0.040 A 
ATOM     86  F   UNL A   1      45.975  29.953  32.782  1.00  0.00    -0.206 F 
ATOM     87  C   UNL A   1      46.739  27.040  34.792  1.00  0.00     0.006 A 
ENDBRANCH  63  80
ENDBRANCH  37  38
ENDBRANCH  29  32
ENDBRANCH  27  28
ENDBRANCH  26  27
ENDBRANCH  25  26
ENDBRANCH   3  25
TORSDOF 16
ENDMDL
MODEL 3
REMARK VINA RESULT:     -10.9      1.828      2.619
REMARK SMILES CC[NH+](CC)C[C@H](C)NC(=O)N[C@H]1C=C[C@@H](C(=O)NCCCNC(=O)c2ccc(-c3c4nc(c(-c5c(F)cccc5F)c5ccc([nH]5)c(-c5c(F)cccc5F)c5nc(c(-c6c(F)cccc6F)c6ccc3[nH]6)C=C5)C=C4)cc2)C1
REMARK SMILES IDX 17 1 18 2 19 3 16 5 13 6 14 7 80 8 15 9 12 10 9 11 10 12
REMARK SMILES IDX 11 14 7 16 8 17 6 18 3 19 2 21 1 22 4 23 5 24 20 25 21 26
REMARK SMILES IDX 22 27 23 28 24 29 25 31 26 32 27 33 79 34 28 35 78 36 29 37
REMARK SMILES IDX 30 38 31 39 72 40 32 41 77 42 71 43 73 44 33 45 76 46 70 47
REMARK SMILES IDX 69 48 34 50 60 51 43 52 59 53 44 54 47 55 58 56 74 57 45 58
REMARK SMILES IDX 46 59 57 61 75 62 48 63 35 64 36 65 41 66 37 67 38 68 40 69
REMARK SMILES IDX 42 70 39 71 61 72 62 73 67 74 63 75 64 76 66 77 68 78 65 79
REMARK SMILES IDX 49 80 50 81 55 82 51 83 52 84 54 85 56 86 53 87
REMARK H PARENT 19 4 9 13 12 15 3 20 23 30 73 49 47 60
REMARK Flexibility Score: inf
ROOT
ATOM      1  C   UNL A   1      30.272  28.217  23.833  1.00  0.00     0.227 C 
ATOM      2  O   UNL A   1      29.214  28.036  23.221  1.00  0.00    -0.274 OA
ATOM      3  N   UNL A   1      30.466  29.447  24.385  1.00  0.00    -0.356 N 
ATOM      4  H   UNL A   1      29.738  30.088  24.218  1.00  0.00     0.163 HD
ENDROOT
BRANCH   1   5
ATOM      5  C   UNL A   1      31.311  27.096  23.922  1.00  0.00     0.103 C 
ATOM      6  C   UNL A   1      31.292  24.933  25.071  1.00  0.00     0.107 C 
ATOM      7  C   UNL A   1      30.950  24.794  23.626  1.00  0.00    -0.006 C 
ATOM      8  C   UNL A   1      31.369  26.444  25.307  1.00  0.00     0.047 C 
ATOM      9  C   UNL A   1      31.035  25.963  22.982  1.00  0.00    -0.016 C 
BRANCH   6  10
ATOM     10  N   UNL A   1      30.301  24.334  25.924  1.00  0.00    -0.332 N 
ATOM     11  N   UNL A   1      31.445  22.565  27.008  1.00  0.00    -0.330 N 
ATOM     12  C   UNL A   1      30.371  23.341  26.822  1.00  0.00     0.315 C 
ATOM     13  H   UNL A   1      31.328  21.943  27.763  1.00  0.00     0.165 HD
ATOM     14  O   UNL A   1      29.374  23.123  27.516  1.00  0.00    -0.249 OA
ATOM     15  H   UNL A   1      29.403  24.727  25.831  1.00  0.00     0.165 HD
BRANCH  11  16
ATOM     16  C   UNL A   1      32.746  22.413  26.365  1.00  0.00     0.135 C 
ATOM     17  C   UNL A   1      33.850  22.832  27.344  1.00  0.00     0.037 C 
BRANCH  16  18
ATOM     18  C   UNL A   1      33.038  21.004  25.749  1.00  0.00     0.287 C 
BRANCH  18  19
ATOM     19  N   UNL A   1      32.993  20.734  24.313  1.00  0.00    -0.334 N 
ATOM     20  H   UNL A   1      34.000  20.588  24.235  1.00  0.00     0.348 HD
BRANCH  19  21
ATOM     21  C   UNL A   1      32.552  19.430  23.844  1.00  0.00     0.258 C 
ATOM     22  C   UNL A   1      32.638  18.334  24.900  1.00  0.00     0.071 C 
ENDBRANCH  19  21
BRANCH  19  23
ATOM     23  C   UNL A   1      32.824  21.854  23.396  1.00  0.00     0.258 C 
ATOM     24  C   UNL A   1      34.030  22.759  23.182  1.00  0.00     0.071 C 
ENDBRANCH  19  23
ENDBRANCH  18  19
ENDBRANCH  16  18
ENDBRANCH  11  16
ENDBRANCH   6  10
ENDBRANCH   1   5
BRANCH   3  25
ATOM     25  C   UNL A   1      31.560  29.978  25.178  1.00  0.00     0.117 C 
BRANCH  25  26
ATOM     26  C   UNL A   1      31.196  31.271  25.884  1.00  0.00     0.042 C 
BRANCH  26  27
ATOM     27  C   UNL A   1      32.253  31.711  26.879  1.00  0.00     0.118 C 
BRANCH  27  28
ATOM     28  N   UNL A   1      32.156  33.131  27.193  1.00  0.00    -0.352 N 
ATOM     29  C   UNL A   1      32.939  33.903  28.014  1.00  0.00     0.251 C 
ATOM     30  H   UNL A   1      31.419  33.610  26.749  1.00  0.00     0.163 HD
ATOM     31  O   UNL A   1      32.580  35.030  28.327  1.00  0.00    -0.269 OA
BRANCH  29  32
ATOM     32  C   UNL A   1      34.213  33.358  28.524  1.00  0.00     0.039 A 
ATOM     33  C   UNL A   1      35.411  33.745  27.920  1.00  0.00     0.014 A 
ATOM     34  C   UNL A   1      34.218  32.468  29.600  1.00  0.00     0.014 A 
ATOM     35  C   UNL A   1      36.620  33.282  28.437  1.00  0.00     0.010 A 
ATOM     36  C   UNL A   1      35.420  32.097  30.180  1.00  0.00     0.010 A 
ATOM     37  C   UNL A   1      36.633  32.482  29.592  1.00  0.00    -0.014 A 
BRANCH  37  38
ATOM     38  C   UNL A   1      37.900  32.002  30.191  1.00  0.00     0.031 A 
ATOM     39  C   UNL A   1      38.574  30.783  29.627  1.00  0.00     0.074 A 
ATOM     40  C   UNL A   1      38.393  32.610  31.285  1.00  0.00     0.049 A 
ATOM     41  N   UNL A   1      39.636  30.151  30.055  1.00  0.00    -0.248 NA
ATOM     42  C   UNL A   1      37.947  30.171  28.444  1.00  0.00     0.031 C 
ATOM     43  C   UNL A   1      37.801  33.772  31.950  1.00  0.00     0.029 A 
ATOM     44  N   UNL A   1      39.505  32.326  32.035  1.00  0.00    -0.354 N 
ATOM     45  C   UNL A   1      39.788  29.058  29.211  1.00  0.00     0.074 A 
ATOM     46  C   UNL A   1      38.673  29.075  28.291  1.00  0.00     0.031 C 
ATOM     47  C   UNL A   1      38.576  34.125  32.987  1.00  0.00     0.029 A 
ATOM     48  C   UNL A   1      39.691  33.189  33.086  1.00  0.00     0.049 A 
ATOM     49  H   UNL A   1      40.112  31.576  31.838  1.00  0.00     0.167 HD
ATOM     50  C   UNL A   1      40.780  28.138  29.188  1.00  0.00     0.037 A 
ATOM     51  C   UNL A   1      40.654  33.217  34.027  1.00  0.00     0.037 A 
ATOM     52  C   UNL A   1      41.896  28.143  30.096  1.00  0.00     0.049 A 
ATOM     53  C   UNL A   1      41.736  32.176  33.995  1.00  0.00     0.074 A 
ATOM     54  C   UNL A   1      42.992  27.299  30.120  1.00  0.00     0.029 A 
ATOM     55  N   UNL A   1      42.053  29.035  31.148  1.00  0.00    -0.354 N 
ATOM     56  N   UNL A   1      41.912  31.189  33.149  1.00  0.00    -0.248 NA
ATOM     57  C   UNL A   1      42.757  32.254  35.049  1.00  0.00     0.031 C 
ATOM     58  C   UNL A   1      43.783  27.645  31.222  1.00  0.00     0.029 A 
ATOM     59  C   UNL A   1      43.213  28.743  31.847  1.00  0.00     0.049 A 
ATOM     60  H   UNL A   1      41.432  29.767  31.364  1.00  0.00     0.167 HD
ATOM     61  C   UNL A   1      43.079  30.548  33.547  1.00  0.00     0.074 A 
ATOM     62  C   UNL A   1      43.572  31.266  34.706  1.00  0.00     0.031 C 
ATOM     63  C   UNL A   1      43.691  29.470  32.997  1.00  0.00     0.037 A 
BRANCH  50  64
ATOM     64  C   UNL A   1      40.684  27.050  28.156  1.00  0.00     0.057 A 
ATOM     65  C   UNL A   1      41.396  27.103  26.949  1.00  0.00     0.134 A 
ATOM     66  C   UNL A   1      39.857  25.940  28.365  1.00  0.00     0.134 A 
ATOM     67  F   UNL A   1      42.197  28.146  26.677  1.00  0.00    -0.206 F 
ATOM     68  C   UNL A   1      41.252  26.118  25.969  1.00  0.00     0.040 A 
ATOM     69  C   UNL A   1      39.732  24.930  27.408  1.00  0.00     0.040 A 
ATOM     70  F   UNL A   1      39.152  25.818  29.499  1.00  0.00    -0.206 F 
ATOM     71  C   UNL A   1      40.420  25.026  26.200  1.00  0.00     0.006 A 
ENDBRANCH  50  64
BRANCH  51  72
ATOM     72  C   UNL A   1      40.659  34.297  35.044  1.00  0.00     0.057 A 
ATOM     73  C   UNL A   1      41.295  35.518  34.787  1.00  0.00     0.134 A 
ATOM     74  C   UNL A   1      40.015  34.151  36.278  1.00  0.00     0.134 A 
ATOM     75  F   UNL A   1      41.942  35.710  33.628  1.00  0.00    -0.206 F 
ATOM     76  C   UNL A   1      41.299  36.551  35.725  1.00  0.00     0.040 A 
ATOM     77  C   UNL A   1      39.990  35.186  37.215  1.00  0.00     0.040 A 
ATOM     78  F   UNL A   1      39.380  33.010  36.581  1.00  0.00    -0.206 F 
ATOM     79  C   UNL A   1      40.639  36.389  36.940  1.00  0.00     0.006 A 
ENDBRANCH  51  72
BRANCH  63  80
ATOM     80  C   UNL A   1      44.983  29.023  33.615  1.00  0.00     0.057 A 
ATOM     81  C   UNL A   1      46.219  29.553  33.222  1.00  0.00     0.134 A 
ATOM     82  C   UNL A   1      44.985  28.081  34.652  1.00  0.00     0.134 A 
ATOM     83  F   UNL A   1      46.289  30.449  32.227  1.00  0.00    -0.206 F 
ATOM     84  C   UNL A   1      47.411  29.144  33.822  1.00  0.00     0.040 A 
ATOM     85  C   UNL A   1      46.166  27.687  35.280  1.00  0.00     0.040 A 
ATOM     86  F   UNL A   1      43.835  27.540  35.084  1.00  0.00    -0.206 F 
ATOM     87  C   UNL A   1      47.385  28.215  34.861  1.00  0.00     0.006 A 
ENDBRANCH  63  80
ENDBRANCH  37  38
ENDBRANCH  29  32
ENDBRANCH  27  28
ENDBRANCH  26  27
ENDBRANCH  25  26
ENDBRANCH   3  25
TORSDOF 16
ENDMDL
