MODEL 1
REMARK VINA RESULT:     -10.7      0.000      0.000
REMARK SMILES COC(=O)[C@@H](NC(=O)CCC(=O)NCCCNC(=O)c1ccc(-c2c3nc(c(-c4c(F)cccc4F)c4ccc([nH]4)c(-c4c(F)cccc4F)c4nc(c(-c5c(F)cccc5F)c5ccc2[nH]5)C=C4)C=C3)cc1)c1cccc2ccccc12
REMARK SMILES IDX 11 1 12 2 13 3 10 5 9 6 7 7 6 8 8 10 5 11 3 12 4 13 2 14
REMARK SMILES IDX 1 15 74 16 75 17 83 18 76 19 78 20 82 21 77 22 79 23 81 24
REMARK SMILES IDX 80 25 14 26 15 27 16 28 17 29 18 30 19 32 20 33 21 34 73 35
REMARK SMILES IDX 22 36 72 37 23 38 24 39 25 40 66 41 26 42 71 43 65 44 67 45
REMARK SMILES IDX 27 46 70 47 64 48 63 49 28 51 54 52 37 53 53 54 38 55 41 56
REMARK SMILES IDX 52 57 68 58 39 59 40 60 51 62 69 63 42 64 29 65 30 66 35 67
REMARK SMILES IDX 31 68 32 69 34 70 36 71 33 72 55 73 56 74 61 75 57 76 58 77
REMARK SMILES IDX 60 78 62 79 59 80 43 81 44 82 49 83 45 84 46 85 48 86 50 87
REMARK SMILES IDX 47 88
REMARK H PARENT 13 4 6 9 17 31 67 50 41 61
REMARK Flexibility Score: inf
ROOT
ATOM      1  C   UNL A   1      33.213  36.883  29.781  1.00  0.00     0.220 C 
ATOM      2  O   UNL A   1      32.915  38.051  30.035  1.00  0.00    -0.275 OA
ATOM      3  N   UNL A   1      33.868  36.624  28.620  1.00  0.00    -0.356 N 
ATOM      4  H   UNL A   1      33.791  37.332  27.940  1.00  0.00     0.163 HD
ENDROOT
BRANCH   1   5
ATOM      5  C   UNL A   1      32.797  35.766  30.699  1.00  0.00     0.110 C 
BRANCH   5   6
ATOM      6  C   UNL A   1      32.684  36.197  32.155  1.00  0.00     0.110 C 
BRANCH   6   7
ATOM      7  C   UNL A   1      33.988  36.553  32.817  1.00  0.00     0.221 C 
ATOM      8  N   UNL A   1      35.141  35.854  32.772  1.00  0.00    -0.339 N 
ATOM      9  H   UNL A   1      35.881  36.416  33.098  1.00  0.00     0.164 HD
ATOM     10  O   UNL A   1      34.028  37.603  33.474  1.00  0.00    -0.275 OA
BRANCH   8  11
ATOM     11  C   UNL A   1      35.664  34.506  32.390  1.00  0.00     0.224 C 
BRANCH  11  12
ATOM     12  C   UNL A   1      34.829  33.212  32.506  1.00  0.00     0.333 C 
ATOM     13  O   UNL A   1      33.857  33.122  33.254  1.00  0.00    -0.249 OA
BRANCH  12  14
ATOM     14  O   UNL A   1      35.285  32.197  31.732  1.00  0.00    -0.467 OA
ATOM     15  C   UNL A   1      35.976  31.145  32.420  1.00  0.00     0.282 C 
ENDBRANCH  12  14
ENDBRANCH  11  12
BRANCH  11  16
ATOM     16  C   UNL A   1      37.120  34.272  32.751  1.00  0.00    -0.007 A 
ATOM     17  C   UNL A   1      37.472  34.161  34.104  1.00  0.00     0.007 A 
ATOM     18  C   UNL A   1      38.149  34.217  31.778  1.00  0.00    -0.013 A 
ATOM     19  C   UNL A   1      38.786  34.343  34.513  1.00  0.00     0.001 A 
ATOM     20  C   UNL A   1      39.481  34.442  32.198  1.00  0.00    -0.018 A 
ATOM     21  C   UNL A   1      37.935  33.897  30.417  1.00  0.00     0.009 A 
ATOM     22  C   UNL A   1      39.773  34.568  33.563  1.00  0.00     0.009 A 
ATOM     23  C   UNL A   1      40.512  34.498  31.252  1.00  0.00     0.009 A 
ATOM     24  C   UNL A   1      38.987  33.858  29.502  1.00  0.00     0.001 A 
ATOM     25  C   UNL A   1      40.269  34.197  29.912  1.00  0.00     0.001 A 
ENDBRANCH  11  16
ENDBRANCH   8  11
ENDBRANCH   6   7
ENDBRANCH   5   6
ENDBRANCH   1   5
BRANCH   3  26
ATOM     26  C   UNL A   1      34.664  35.483  28.211  1.00  0.00     0.117 C 
BRANCH  26  27
ATOM     27  C   UNL A   1      33.907  34.169  28.010  1.00  0.00     0.042 C 
BRANCH  27  28
ATOM     28  C   UNL A   1      34.684  32.873  28.207  1.00  0.00     0.118 C 
BRANCH  28  29
ATOM     29  N   UNL A   1      33.958  31.703  27.748  1.00  0.00    -0.352 N 
ATOM     30  C   UNL A   1      34.396  30.424  27.553  1.00  0.00     0.251 C 
ATOM     31  H   UNL A   1      33.006  31.854  27.547  1.00  0.00     0.163 HD
ATOM     32  O   UNL A   1      33.660  29.619  26.964  1.00  0.00    -0.269 OA
BRANCH  30  33
ATOM     33  C   UNL A   1      35.731  29.976  28.007  1.00  0.00     0.039 A 
ATOM     34  C   UNL A   1      35.836  29.388  29.270  1.00  0.00     0.014 A 
ATOM     35  C   UNL A   1      36.887  30.202  27.251  1.00  0.00     0.014 A 
ATOM     36  C   UNL A   1      37.085  29.002  29.761  1.00  0.00     0.010 A 
ATOM     37  C   UNL A   1      38.134  29.770  27.725  1.00  0.00     0.010 A 
ATOM     38  C   UNL A   1      38.248  29.172  28.990  1.00  0.00    -0.014 A 
BRANCH  38  39
ATOM     39  C   UNL A   1      39.561  28.711  29.522  1.00  0.00     0.031 A 
ATOM     40  C   UNL A   1      40.186  29.361  30.729  1.00  0.00     0.074 A 
ATOM     41  C   UNL A   1      40.188  27.676  28.930  1.00  0.00     0.049 A 
ATOM     42  N   UNL A   1      41.280  29.028  31.371  1.00  0.00    -0.248 NA
ATOM     43  C   UNL A   1      39.505  30.542  31.279  1.00  0.00     0.031 C 
ATOM     44  C   UNL A   1      39.721  26.983  27.727  1.00  0.00     0.029 A 
ATOM     45  N   UNL A   1      41.346  27.017  29.265  1.00  0.00    -0.354 N 
ATOM     46  C   UNL A   1      41.411  29.947  32.405  1.00  0.00     0.074 A 
ATOM     47  C   UNL A   1      40.315  30.885  32.272  1.00  0.00     0.031 C 
ATOM     48  C   UNL A   1      40.567  25.980  27.442  1.00  0.00     0.029 A 
ATOM     49  C   UNL A   1      41.644  25.967  28.428  1.00  0.00     0.049 A 
ATOM     50  H   UNL A   1      41.909  27.272  30.031  1.00  0.00     0.167 HD
ATOM     51  C   UNL A   1      42.338  29.991  33.393  1.00  0.00     0.037 A 
ATOM     52  C   UNL A   1      42.664  25.088  28.455  1.00  0.00     0.037 A 
ATOM     53  C   UNL A   1      43.430  29.060  33.537  1.00  0.00     0.049 A 
ATOM     54  C   UNL A   1      43.679  25.161  29.561  1.00  0.00     0.074 A 
ATOM     55  C   UNL A   1      44.402  29.015  34.522  1.00  0.00     0.029 A 
ATOM     56  N   UNL A   1      43.693  28.010  32.672  1.00  0.00    -0.354 N 
ATOM     57  N   UNL A   1      43.746  25.994  30.571  1.00  0.00    -0.248 NA
ATOM     58  C   UNL A   1      44.754  24.157  29.541  1.00  0.00     0.031 C 
ATOM     59  C   UNL A   1      45.272  27.958  34.236  1.00  0.00     0.029 A 
ATOM     60  C   UNL A   1      44.819  27.319  33.095  1.00  0.00     0.049 A 
ATOM     61  H   UNL A   1      43.160  27.786  31.876  1.00  0.00     0.167 HD
ATOM     62  C   UNL A   1      44.853  25.604  31.313  1.00  0.00     0.074 A 
ATOM     63  C   UNL A   1      45.411  24.441  30.655  1.00  0.00     0.031 C 
ATOM     64  C   UNL A   1      45.366  26.162  32.436  1.00  0.00     0.037 A 
BRANCH  51  65
ATOM     65  C   UNL A   1      42.208  31.078  34.421  1.00  0.00     0.057 A 
ATOM     66  C   UNL A   1      41.501  30.872  35.613  1.00  0.00     0.134 A 
ATOM     67  C   UNL A   1      42.852  32.311  34.256  1.00  0.00     0.134 A 
ATOM     68  F   UNL A   1      40.858  29.715  35.831  1.00  0.00    -0.206 F 
ATOM     69  C   UNL A   1      41.427  31.859  36.598  1.00  0.00     0.040 A 
ATOM     70  C   UNL A   1      42.803  33.297  35.243  1.00  0.00     0.040 A 
ATOM     71  F   UNL A   1      43.553  32.569  33.142  1.00  0.00    -0.206 F 
ATOM     72  C   UNL A   1      42.087  33.072  36.417  1.00  0.00     0.006 A 
ENDBRANCH  51  65
BRANCH  52  73
ATOM     73  C   UNL A   1      42.773  24.040  27.408  1.00  0.00     0.057 A 
ATOM     74  C   UNL A   1      43.406  24.297  26.186  1.00  0.00     0.134 A 
ATOM     75  C   UNL A   1      42.212  22.771  27.590  1.00  0.00     0.134 A 
ATOM     76  F   UNL A   1      43.943  25.501  25.944  1.00  0.00    -0.206 F 
ATOM     77  C   UNL A   1      43.450  23.340  25.170  1.00  0.00     0.040 A 
ATOM     78  C   UNL A   1      42.273  21.796  26.594  1.00  0.00     0.040 A 
ATOM     79  F   UNL A   1      41.596  22.461  28.741  1.00  0.00    -0.206 F 
ATOM     80  C   UNL A   1      42.883  22.083  25.375  1.00  0.00     0.006 A 
ENDBRANCH  52  73
BRANCH  64  81
ATOM     81  C   UNL A   1      46.577  25.506  33.032  1.00  0.00     0.057 A 
ATOM     82  C   UNL A   1      46.472  24.538  34.040  1.00  0.00     0.134 A 
ATOM     83  C   UNL A   1      47.864  25.842  32.592  1.00  0.00     0.134 A 
ATOM     84  F   UNL A   1      45.269  24.181  34.515  1.00  0.00    -0.206 F 
ATOM     85  C   UNL A   1      47.603  23.953  34.612  1.00  0.00     0.040 A 
ATOM     86  C   UNL A   1      49.001  25.244  33.138  1.00  0.00     0.040 A 
ATOM     87  F   UNL A   1      48.037  26.755  31.624  1.00  0.00    -0.206 F 
ATOM     88  C   UNL A   1      48.873  24.304  34.158  1.00  0.00     0.006 A 
ENDBRANCH  64  81
ENDBRANCH  38  39
ENDBRANCH  30  33
ENDBRANCH  28  29
ENDBRANCH  27  28
ENDBRANCH  26  27
ENDBRANCH   3  26
TORSDOF 16
ENDMDL
MODEL 2
REMARK VINA RESULT:     -10.6      3.847      7.600
REMARK SMILES COC(=O)[C@@H](NC(=O)CCC(=O)NCCCNC(=O)c1ccc(-c2c3nc(c(-c4c(F)cccc4F)c4ccc([nH]4)c(-c4c(F)cccc4F)c4nc(c(-c5c(F)cccc5F)c5ccc2[nH]5)C=C4)C=C3)cc1)c1cccc2ccccc12
REMARK SMILES IDX 11 1 12 2 13 3 10 5 9 6 7 7 6 8 8 10 5 11 3 12 4 13 2 14
REMARK SMILES IDX 1 15 74 16 75 17 83 18 76 19 78 20 82 21 77 22 79 23 81 24
REMARK SMILES IDX 80 25 14 26 15 27 16 28 17 29 18 30 19 32 20 33 21 34 73 35
REMARK SMILES IDX 22 36 72 37 23 38 24 39 25 40 66 41 26 42 71 43 65 44 67 45
REMARK SMILES IDX 27 46 70 47 64 48 63 49 28 51 54 52 37 53 53 54 38 55 41 56
REMARK SMILES IDX 52 57 68 58 39 59 40 60 51 62 69 63 42 64 29 65 30 66 35 67
REMARK SMILES IDX 31 68 32 69 34 70 36 71 33 72 55 73 56 74 61 75 57 76 58 77
REMARK SMILES IDX 60 78 62 79 59 80 43 81 44 82 49 83 45 84 46 85 48 86 50 87
REMARK SMILES IDX 47 88
REMARK H PARENT 13 4 6 9 17 31 67 50 41 61
REMARK Flexibility Score: inf
ROOT
ATOM      1  C   UNL A   1      30.386  29.310  22.848  1.00  0.00     0.220 C 
ATOM      2  O   UNL A   1      29.464  29.336  22.031  1.00  0.00    -0.275 OA
ATOM      3  N   UNL A   1      30.441  30.291  23.786  1.00  0.00    -0.356 N 
ATOM      4  H   UNL A   1      29.927  31.100  23.563  1.00  0.00     0.163 HD
ENDROOT
BRANCH   1   5
ATOM      5  C   UNL A   1      31.462  28.262  22.762  1.00  0.00     0.110 C 
BRANCH   5   6
ATOM      6  C   UNL A   1      30.937  26.898  22.335  1.00  0.00     0.110 C 
BRANCH   6   7
ATOM      7  C   UNL A   1      31.924  26.039  21.592  1.00  0.00     0.221 C 
ATOM      8  N   UNL A   1      32.915  25.292  22.123  1.00  0.00    -0.339 N 
ATOM      9  H   UNL A   1      33.258  24.668  21.444  1.00  0.00     0.164 HD
ATOM     10  O   UNL A   1      31.828  25.995  20.358  1.00  0.00    -0.275 OA
BRANCH   8  11
ATOM     11  C   UNL A   1      33.661  25.101  23.405  1.00  0.00     0.224 C 
BRANCH  11  12
ATOM     12  C   UNL A   1      34.816  24.089  23.568  1.00  0.00     0.333 C 
ATOM     13  O   UNL A   1      35.124  23.295  22.679  1.00  0.00    -0.249 OA
BRANCH  12  14
ATOM     14  O   UNL A   1      35.426  24.147  24.776  1.00  0.00    -0.467 OA
ATOM     15  C   UNL A   1      36.641  23.394  24.902  1.00  0.00     0.282 C 
ENDBRANCH  12  14
ENDBRANCH  11  12
BRANCH  11  16
ATOM     16  C   UNL A   1      32.797  25.176  24.651  1.00  0.00    -0.007 A 
ATOM     17  C   UNL A   1      31.863  24.158  24.889  1.00  0.00     0.007 A 
ATOM     18  C   UNL A   1      32.857  26.264  25.558  1.00  0.00    -0.013 A 
ATOM     19  C   UNL A   1      30.801  24.358  25.761  1.00  0.00     0.001 A 
ATOM     20  C   UNL A   1      31.753  26.482  26.415  1.00  0.00    -0.018 A 
ATOM     21  C   UNL A   1      33.976  27.117  25.698  1.00  0.00     0.009 A 
ATOM     22  C   UNL A   1      30.704  25.555  26.456  1.00  0.00     0.009 A 
ATOM     23  C   UNL A   1      31.730  27.606  27.251  1.00  0.00     0.009 A 
ATOM     24  C   UNL A   1      33.979  28.174  26.608  1.00  0.00     0.001 A 
ATOM     25  C   UNL A   1      32.841  28.442  27.355  1.00  0.00     0.001 A 
ENDBRANCH  11  16
ENDBRANCH   8  11
ENDBRANCH   6   7
ENDBRANCH   5   6
ENDBRANCH   1   5
BRANCH   3  26
ATOM     26  C   UNL A   1      31.129  30.349  25.061  1.00  0.00     0.117 C 
BRANCH  26  27
ATOM     27  C   UNL A   1      30.982  31.652  25.850  1.00  0.00     0.042 C 
BRANCH  27  28
ATOM     28  C   UNL A   1      32.131  32.050  26.768  1.00  0.00     0.118 C 
BRANCH  28  29
ATOM     29  N   UNL A   1      32.085  33.447  27.158  1.00  0.00    -0.352 N 
ATOM     30  C   UNL A   1      32.881  34.139  28.027  1.00  0.00     0.251 C 
ATOM     31  H   UNL A   1      31.372  33.976  26.733  1.00  0.00     0.163 HD
ATOM     32  O   UNL A   1      32.546  35.281  28.370  1.00  0.00    -0.269 OA
BRANCH  30  33
ATOM     33  C   UNL A   1      34.121  33.557  28.584  1.00  0.00     0.039 A 
ATOM     34  C   UNL A   1      34.057  32.281  29.150  1.00  0.00     0.014 A 
ATOM     35  C   UNL A   1      35.320  34.277  28.638  1.00  0.00     0.014 A 
ATOM     36  C   UNL A   1      35.191  31.716  29.738  1.00  0.00     0.010 A 
ATOM     37  C   UNL A   1      36.470  33.691  29.187  1.00  0.00     0.010 A 
ATOM     38  C   UNL A   1      36.416  32.406  29.750  1.00  0.00    -0.014 A 
BRANCH  38  39
ATOM     39  C   UNL A   1      37.619  31.762  30.346  1.00  0.00     0.031 A 
ATOM     40  C   UNL A   1      38.042  32.055  31.762  1.00  0.00     0.074 A 
ATOM     41  C   UNL A   1      38.328  30.879  29.614  1.00  0.00     0.049 A 
ATOM     42  N   UNL A   1      39.013  31.517  32.461  1.00  0.00    -0.248 NA
ATOM     43  C   UNL A   1      37.288  33.091  32.483  1.00  0.00     0.031 C 
ATOM     44  C   UNL A   1      38.061  30.537  28.216  1.00  0.00     0.029 A 
ATOM     45  N   UNL A   1      39.410  30.102  29.946  1.00  0.00    -0.354 N 
ATOM     46  C   UNL A   1      38.977  32.138  33.704  1.00  0.00     0.074 A 
ATOM     47  C   UNL A   1      37.925  33.132  33.645  1.00  0.00     0.031 C 
ATOM     48  C   UNL A   1      38.935  29.597  27.820  1.00  0.00     0.029 A 
ATOM     49  C   UNL A   1      39.835  29.283  28.926  1.00  0.00     0.049 A 
ATOM     50  H   UNL A   1      39.841  30.127  30.831  1.00  0.00     0.167 HD
ATOM     51  C   UNL A   1      39.730  31.886  34.803  1.00  0.00     0.037 A 
ATOM     52  C   UNL A   1      40.830  28.376  28.886  1.00  0.00     0.037 A 
ATOM     53  C   UNL A   1      40.776  30.896  34.873  1.00  0.00     0.049 A 
ATOM     54  C   UNL A   1      41.649  28.118  30.120  1.00  0.00     0.074 A 
ATOM     55  C   UNL A   1      41.571  30.556  35.954  1.00  0.00     0.029 A 
ATOM     56  N   UNL A   1      41.170  30.086  33.820  1.00  0.00    -0.354 N 
ATOM     57  N   UNL A   1      41.555  28.665  31.307  1.00  0.00    -0.248 NA
ATOM     58  C   UNL A   1      42.706  27.100  30.012  1.00  0.00     0.031 C 
ATOM     59  C   UNL A   1      42.470  29.563  35.548  1.00  0.00     0.029 A 
ATOM     60  C   UNL A   1      42.206  29.256  34.223  1.00  0.00     0.049 A 
ATOM     61  H   UNL A   1      40.774  30.097  32.920  1.00  0.00     0.167 HD
ATOM     62  C   UNL A   1      42.521  28.046  32.089  1.00  0.00     0.074 A 
ATOM     63  C   UNL A   1      43.172  27.061  31.252  1.00  0.00     0.031 C 
ATOM     64  C   UNL A   1      42.846  28.277  33.384  1.00  0.00     0.037 A 
BRANCH  51  65
ATOM     65  C   UNL A   1      39.439  32.682  36.042  1.00  0.00     0.057 A 
ATOM     66  C   UNL A   1      40.044  33.925  36.269  1.00  0.00     0.134 A 
ATOM     67  C   UNL A   1      38.497  32.242  36.981  1.00  0.00     0.134 A 
ATOM     68  F   UNL A   1      40.959  34.402  35.411  1.00  0.00    -0.206 F 
ATOM     69  C   UNL A   1      39.734  34.696  37.390  1.00  0.00     0.040 A 
ATOM     70  C   UNL A   1      38.162  33.014  38.095  1.00  0.00     0.040 A 
ATOM     71  F   UNL A   1      37.874  31.065  36.819  1.00  0.00    -0.206 F 
ATOM     72  C   UNL A   1      38.782  34.244  38.302  1.00  0.00     0.006 A 
ENDBRANCH  51  65
BRANCH  52  73
ATOM     73  C   UNL A   1      41.103  27.622  27.636  1.00  0.00     0.057 A 
ATOM     74  C   UNL A   1      40.543  26.359  27.414  1.00  0.00     0.134 A 
ATOM     75  C   UNL A   1      41.963  28.130  26.656  1.00  0.00     0.134 A 
ATOM     76  F   UNL A   1      39.729  25.810  28.327  1.00  0.00    -0.206 F 
ATOM     77  C   UNL A   1      40.851  25.613  26.274  1.00  0.00     0.040 A 
ATOM     78  C   UNL A   1      42.258  27.407  25.499  1.00  0.00     0.040 A 
ATOM     79  F   UNL A   1      42.528  29.336  26.808  1.00  0.00    -0.206 F 
ATOM     80  C   UNL A   1      41.710  26.140  25.311  1.00  0.00     0.006 A 
ENDBRANCH  52  73
BRANCH  64  81
ATOM     81  C   UNL A   1      43.937  27.433  33.975  1.00  0.00     0.057 A 
ATOM     82  C   UNL A   1      45.283  27.820  33.920  1.00  0.00     0.134 A 
ATOM     83  C   UNL A   1      43.640  26.222  34.612  1.00  0.00     0.134 A 
ATOM     84  F   UNL A   1      45.636  28.963  33.312  1.00  0.00    -0.206 F 
ATOM     85  C   UNL A   1      46.297  27.017  34.445  1.00  0.00     0.040 A 
ATOM     86  C   UNL A   1      44.643  25.423  35.165  1.00  0.00     0.040 A 
ATOM     87  F   UNL A   1      42.372  25.795  34.709  1.00  0.00    -0.206 F 
ATOM     88  C   UNL A   1      45.977  25.815  35.073  1.00  0.00     0.006 A 
ENDBRANCH  64  81
ENDBRANCH  38  39
ENDBRANCH  30  33
ENDBRANCH  28  29
ENDBRANCH  27  28
ENDBRANCH  26  27
ENDBRANCH   3  26
TORSDOF 16
ENDMDL
MODEL 3
REMARK VINA RESULT:     -10.4      4.798     10.262
REMARK SMILES COC(=O)[C@@H](NC(=O)CCC(=O)NCCCNC(=O)c1ccc(-c2c3nc(c(-c4c(F)cccc4F)c4ccc([nH]4)c(-c4c(F)cccc4F)c4nc(c(-c5c(F)cccc5F)c5ccc2[nH]5)C=C4)C=C3)cc1)c1cccc2ccccc12
REMARK SMILES IDX 11 1 12 2 13 3 10 5 9 6 7 7 6 8 8 10 5 11 3 12 4 13 2 14
REMARK SMILES IDX 1 15 74 16 75 17 83 18 76 19 78 20 82 21 77 22 79 23 81 24
REMARK SMILES IDX 80 25 14 26 15 27 16 28 17 29 18 30 19 32 20 33 21 34 73 35
REMARK SMILES IDX 22 36 72 37 23 38 24 39 25 40 66 41 26 42 71 43 65 44 67 45
REMARK SMILES IDX 27 46 70 47 64 48 63 49 28 51 54 52 37 53 53 54 38 55 41 56
REMARK SMILES IDX 52 57 68 58 39 59 40 60 51 62 69 63 42 64 29 65 30 66 35 67
REMARK SMILES IDX 31 68 32 69 34 70 36 71 33 72 55 73 56 74 61 75 57 76 58 77
REMARK SMILES IDX 60 78 62 79 59 80 43 81 44 82 49 83 45 84 46 85 48 86 50 87
REMARK SMILES IDX 47 88
REMARK H PARENT 13 4 6 9 17 31 67 50 41 61
REMARK Flexibility Score: inf
ROOT
ATOM      1  C   UNL A   1      35.290  22.398  25.561  1.00  0.00     0.220 C 
ATOM      2  O   UNL A   1      35.226  23.184  26.508  1.00  0.00    -0.275 OA
ATOM      3  N   UNL A   1      36.151  21.351  25.651  1.00  0.00    -0.356 N 
ATOM      4  H   UNL A   1      36.863  21.463  26.322  1.00  0.00     0.163 HD
ENDROOT
BRANCH   1   5
ATOM      5  C   UNL A   1      34.490  22.634  24.309  1.00  0.00     0.110 C 
BRANCH   5   6
ATOM      6  C   UNL A   1      34.752  23.995  23.678  1.00  0.00     0.110 C 
BRANCH   6   7
ATOM      7  C   UNL A   1      33.613  24.550  22.866  1.00  0.00     0.221 C 
ATOM      8  N   UNL A   1      32.554  25.252  23.322  1.00  0.00    -0.339 N 
ATOM      9  H   UNL A   1      32.089  25.676  22.565  1.00  0.00     0.164 HD
ATOM     10  O   UNL A   1      33.636  24.358  21.642  1.00  0.00    -0.275 OA
BRANCH   8  11
ATOM     11  C   UNL A   1      31.856  25.596  24.599  1.00  0.00     0.224 C 
BRANCH  11  12
ATOM     12  C   UNL A   1      31.061  24.567  25.431  1.00  0.00     0.333 C 
ATOM     13  O   UNL A   1      30.553  24.851  26.516  1.00  0.00    -0.249 OA
BRANCH  12  14
ATOM     14  O   UNL A   1      31.003  23.336  24.868  1.00  0.00    -0.467 OA
ATOM     15  C   UNL A   1      30.996  22.228  25.779  1.00  0.00     0.282 C 
ENDBRANCH  12  14
ENDBRANCH  11  12
BRANCH  11  16
ATOM     16  C   UNL A   1      31.188  26.960  24.600  1.00  0.00    -0.007 A 
ATOM     17  C   UNL A   1      30.132  27.197  23.709  1.00  0.00     0.007 A 
ATOM     18  C   UNL A   1      31.625  28.023  25.429  1.00  0.00    -0.013 A 
ATOM     19  C   UNL A   1      29.754  28.493  23.385  1.00  0.00     0.001 A 
ATOM     20  C   UNL A   1      31.267  29.343  25.069  1.00  0.00    -0.018 A 
ATOM     21  C   UNL A   1      32.354  27.844  26.628  1.00  0.00     0.009 A 
ATOM     22  C   UNL A   1      30.384  29.564  24.004  1.00  0.00     0.009 A 
ATOM     23  C   UNL A   1      31.765  30.427  25.804  1.00  0.00     0.009 A 
ATOM     24  C   UNL A   1      32.759  28.929  27.405  1.00  0.00     0.001 A 
ATOM     25  C   UNL A   1      32.498  30.221  26.972  1.00  0.00     0.001 A 
ENDBRANCH  11  16
ENDBRANCH   8  11
ENDBRANCH   6   7
ENDBRANCH   5   6
ENDBRANCH   1   5
BRANCH   3  26
ATOM     26  C   UNL A   1      36.199  20.094  24.929  1.00  0.00     0.117 C 
BRANCH  26  27
ATOM     27  C   UNL A   1      37.552  19.380  24.904  1.00  0.00     0.042 C 
BRANCH  27  28
ATOM     28  C   UNL A   1      38.723  20.070  25.593  1.00  0.00     0.118 C 
BRANCH  28  29
ATOM     29  N   UNL A   1      39.900  19.226  25.685  1.00  0.00    -0.352 N 
ATOM     30  C   UNL A   1      41.186  19.554  26.012  1.00  0.00     0.251 C 
ATOM     31  H   UNL A   1      39.750  18.275  25.482  1.00  0.00     0.163 HD
ATOM     32  O   UNL A   1      42.083  18.717  25.837  1.00  0.00    -0.269 OA
BRANCH  30  33
ATOM     33  C   UNL A   1      41.543  20.885  26.549  1.00  0.00     0.039 A 
ATOM     34  C   UNL A   1      41.335  21.125  27.910  1.00  0.00     0.014 A 
ATOM     35  C   UNL A   1      41.993  21.923  25.725  1.00  0.00     0.014 A 
ATOM     36  C   UNL A   1      41.606  22.385  28.449  1.00  0.00     0.010 A 
ATOM     37  C   UNL A   1      42.308  23.173  26.276  1.00  0.00     0.010 A 
ATOM     38  C   UNL A   1      42.110  23.420  27.643  1.00  0.00    -0.014 A 
BRANCH  38  39
ATOM     39  C   UNL A   1      42.430  24.741  28.254  1.00  0.00     0.031 A 
ATOM     40  C   UNL A   1      43.838  25.093  28.660  1.00  0.00     0.074 A 
ATOM     41  C   UNL A   1      41.448  25.648  28.422  1.00  0.00     0.049 A 
ATOM     42  N   UNL A   1      44.302  26.228  29.127  1.00  0.00    -0.248 NA
ATOM     43  C   UNL A   1      44.852  24.036  28.540  1.00  0.00     0.031 C 
ATOM     44  C   UNL A   1      40.033  25.424  28.118  1.00  0.00     0.029 A 
ATOM     45  N   UNL A   1      41.489  26.942  28.879  1.00  0.00    -0.354 N 
ATOM     46  C   UNL A   1      45.660  26.025  29.341  1.00  0.00     0.074 A 
ATOM     47  C   UNL A   1      45.934  24.642  29.007  1.00  0.00     0.031 C 
ATOM     48  C   UNL A   1      39.347  26.552  28.367  1.00  0.00     0.029 A 
ATOM     49  C   UNL A   1      40.266  27.571  28.865  1.00  0.00     0.049 A 
ATOM     50  H   UNL A   1      42.316  27.379  29.186  1.00  0.00     0.167 HD
ATOM     51  C   UNL A   1      46.599  26.913  29.751  1.00  0.00     0.037 A 
ATOM     52  C   UNL A   1      39.922  28.828  29.207  1.00  0.00     0.037 A 
ATOM     53  C   UNL A   1      46.337  28.292  30.082  1.00  0.00     0.049 A 
ATOM     54  C   UNL A   1      40.985  29.791  29.658  1.00  0.00     0.074 A 
ATOM     55  C   UNL A   1      47.233  29.269  30.481  1.00  0.00     0.029 A 
ATOM     56  N   UNL A   1      45.086  28.889  30.050  1.00  0.00    -0.354 N 
ATOM     57  N   UNL A   1      42.275  29.601  29.788  1.00  0.00    -0.248 NA
ATOM     58  C   UNL A   1      40.543  31.153  29.996  1.00  0.00     0.031 C 
ATOM     59  C   UNL A   1      46.521  30.449  30.723  1.00  0.00     0.029 A 
ATOM     60  C   UNL A   1      45.187  30.218  30.435  1.00  0.00     0.049 A 
ATOM     61  H   UNL A   1      44.251  28.437  29.793  1.00  0.00     0.167 HD
ATOM     62  C   UNL A   1      42.799  30.819  30.201  1.00  0.00     0.074 A 
ATOM     63  C   UNL A   1      41.693  31.750  30.272  1.00  0.00     0.031 C 
ATOM     64  C   UNL A   1      44.081  31.137  30.501  1.00  0.00     0.037 A 
BRANCH  51  65
ATOM     65  C   UNL A   1      48.017  26.430  29.848  1.00  0.00     0.057 A 
ATOM     66  C   UNL A   1      48.502  25.821  31.013  1.00  0.00     0.134 A 
ATOM     67  C   UNL A   1      48.884  26.508  28.750  1.00  0.00     0.134 A 
ATOM     68  F   UNL A   1      47.724  25.721  32.101  1.00  0.00    -0.206 F 
ATOM     69  C   UNL A   1      49.802  25.318  31.088  1.00  0.00     0.040 A 
ATOM     70  C   UNL A   1      50.179  25.988  28.806  1.00  0.00     0.040 A 
ATOM     71  F   UNL A   1      48.480  27.070  27.602  1.00  0.00    -0.206 F 
ATOM     72  C   UNL A   1      50.641  25.393  29.978  1.00  0.00     0.006 A 
ENDBRANCH  51  65
BRANCH  52  73
ATOM     73  C   UNL A   1      38.506  29.265  29.119  1.00  0.00     0.057 A 
ATOM     74  C   UNL A   1      37.965  29.736  27.917  1.00  0.00     0.134 A 
ATOM     75  C   UNL A   1      37.674  29.259  30.244  1.00  0.00     0.134 A 
ATOM     76  F   UNL A   1      38.719  29.786  26.810  1.00  0.00    -0.206 F 
ATOM     77  C   UNL A   1      36.655  30.215  27.844  1.00  0.00     0.040 A 
ATOM     78  C   UNL A   1      36.355  29.710  30.179  1.00  0.00     0.040 A 
ATOM     79  F   UNL A   1      38.132  28.816  31.424  1.00  0.00    -0.206 F 
ATOM     80  C   UNL A   1      35.845  30.200  28.978  1.00  0.00     0.006 A 
ENDBRANCH  52  73
BRANCH  64  81
ATOM     81  C   UNL A   1      44.355  32.555  30.909  1.00  0.00     0.057 A 
ATOM     82  C   UNL A   1      44.325  32.956  32.252  1.00  0.00     0.134 A 
ATOM     83  C   UNL A   1      44.658  33.532  29.951  1.00  0.00     0.134 A 
ATOM     84  F   UNL A   1      44.029  32.073  33.218  1.00  0.00    -0.206 F 
ATOM     85  C   UNL A   1      44.551  34.283  32.624  1.00  0.00     0.040 A 
ATOM     86  C   UNL A   1      44.912  34.856  30.313  1.00  0.00     0.040 A 
ATOM     87  F   UNL A   1      44.712  33.215  28.649  1.00  0.00    -0.206 F 
ATOM     88  C   UNL A   1      44.849  35.236  31.652  1.00  0.00     0.006 A 
ENDBRANCH  64  81
ENDBRANCH  38  39
ENDBRANCH  30  33
ENDBRANCH  28  29
ENDBRANCH  27  28
ENDBRANCH  26  27
ENDBRANCH   3  26
TORSDOF 16
ENDMDL
