MODEL 1
REMARK VINA RESULT:     -10.7      0.000      0.000
REMARK SMILES COc1cc([C@H]([NH3+])C(=O)NCCCNC(=O)c2ccc(-c3c4nc(c(-c5c(F)cccc5F)c5ccc([nH]5)c(-c5c(F)cccc5F)c5nc(c(-c6c(F)cccc6F)c6ccc3[nH]6)C=C5)C=C4)cc2)cc(I)c1OC
REMARK SMILES IDX 12 1 11 2 10 3 8 4 9 5 6 7 5 8 3 9 4 10 74 11 72 12 71 13
REMARK SMILES IDX 73 14 2 15 1 16 75 17 76 18 7 19 13 23 14 24 15 25 16 27
REMARK SMILES IDX 17 28 18 29 70 30 19 31 69 32 20 33 21 34 22 35 63 36 23 37
REMARK SMILES IDX 68 38 62 39 64 40 24 41 67 42 61 43 60 44 25 46 51 47 34 48
REMARK SMILES IDX 50 49 35 50 38 51 49 52 65 53 36 54 37 55 48 57 66 58 39 59
REMARK SMILES IDX 26 60 27 61 32 62 28 63 29 64 31 65 33 66 30 67 52 68 53 69
REMARK SMILES IDX 58 70 54 71 55 72 57 73 59 74 56 75 40 76 41 77 46 78 42 79
REMARK SMILES IDX 43 80 45 81 47 82 44 83
REMARK H PARENT 10 6 7 20 7 21 7 22 14 26 64 45 38 56
REMARK Flexibility Score: inf
ROOT
ATOM      1  C   UNL A   1      37.395  21.034  24.646  1.00  0.00     0.042 C 
ENDROOT
BRANCH   1   2
ATOM      2  C   UNL A   1      35.990  20.794  25.163  1.00  0.00     0.118 C 
BRANCH   2   3
ATOM      3  N   UNL A   1      35.651  21.651  26.285  1.00  0.00    -0.351 N 
ATOM      4  C   UNL A   1      34.553  22.441  26.496  1.00  0.00     0.283 C 
ATOM      5  O   UNL A   1      34.419  22.906  27.633  1.00  0.00    -0.268 OA
ATOM      6  H   UNL A   1      36.317  21.668  27.010  1.00  0.00     0.163 HD
BRANCH   4   7
ATOM      7  C   UNL A   1      33.523  22.747  25.379  1.00  0.00     0.302 C 
BRANCH   7   8
ATOM      8  C   UNL A   1      33.537  24.161  24.804  1.00  0.00     0.024 A 
ATOM      9  C   UNL A   1      33.605  25.631  22.849  1.00  0.00     0.162 A 
ATOM     10  C   UNL A   1      33.599  24.346  23.415  1.00  0.00     0.061 A 
ATOM     11  C   UNL A   1      33.526  26.787  23.668  1.00  0.00     0.174 A 
ATOM     12  C   UNL A   1      33.497  26.612  25.057  1.00  0.00     0.059 A 
ATOM     13  C   UNL A   1      33.546  25.313  25.599  1.00  0.00     0.029 A 
ATOM     14  I   UNL A   1      33.460  28.119  26.533  1.00  0.00    -0.040 I 
BRANCH   9  15
ATOM     15  O   UNL A   1      33.702  25.860  21.495  1.00  0.00    -0.493 OA
ATOM     16  C   UNL A   1      32.579  25.553  20.681  1.00  0.00     0.278 C 
ENDBRANCH   9  15
BRANCH  11  17
ATOM     17  O   UNL A   1      33.612  27.964  22.970  1.00  0.00    -0.492 OA
ATOM     18  C   UNL A   1      32.459  28.772  22.802  1.00  0.00     0.278 C 
ENDBRANCH  11  17
ENDBRANCH   7   8
BRANCH   7  19
ATOM     19  N   UNL A   1      32.177  22.325  25.825  1.00  0.00    -0.343 N 
ATOM     20  H   UNL A   1      31.469  22.835  25.296  1.00  0.00     0.345 HD
ATOM     21  H   UNL A   1      32.070  22.525  26.818  1.00  0.00     0.345 HD
ATOM     22  H   UNL A   1      32.064  21.325  25.665  1.00  0.00     0.345 HD
ENDBRANCH   7  19
ENDBRANCH   4   7
ENDBRANCH   2   3
ENDBRANCH   1   2
BRANCH   1  23
ATOM     23  C   UNL A   1      38.451  21.054  25.744  1.00  0.00     0.118 C 
BRANCH  23  24
ATOM     24  N   UNL A   1      39.364  19.915  25.692  1.00  0.00    -0.352 N 
ATOM     25  C   UNL A   1      40.704  19.852  25.996  1.00  0.00     0.251 C 
ATOM     26  H   UNL A   1      38.960  19.068  25.396  1.00  0.00     0.163 HD
ATOM     27  O   UNL A   1      41.349  18.836  25.759  1.00  0.00    -0.269 OA
BRANCH  25  28
ATOM     28  C   UNL A   1      41.369  21.033  26.579  1.00  0.00     0.039 A 
ATOM     29  C   UNL A   1      41.925  21.995  25.731  1.00  0.00     0.014 A 
ATOM     30  C   UNL A   1      41.395  21.212  27.963  1.00  0.00     0.014 A 
ATOM     31  C   UNL A   1      42.415  23.186  26.271  1.00  0.00     0.010 A 
ATOM     32  C   UNL A   1      41.789  22.435  28.487  1.00  0.00     0.010 A 
ATOM     33  C   UNL A   1      42.301  23.436  27.647  1.00  0.00    -0.014 A 
BRANCH  33  34
ATOM     34  C   UNL A   1      42.717  24.725  28.254  1.00  0.00     0.031 A 
ATOM     35  C   UNL A   1      41.684  25.791  28.499  1.00  0.00     0.074 A 
ATOM     36  C   UNL A   1      44.021  24.979  28.476  1.00  0.00     0.049 A 
ATOM     37  N   UNL A   1      41.851  27.045  28.833  1.00  0.00    -0.248 NA
ATOM     38  C   UNL A   1      40.278  25.404  28.297  1.00  0.00     0.031 C 
ATOM     39  C   UNL A   1      45.125  24.045  28.239  1.00  0.00     0.029 A 
ATOM     40  N   UNL A   1      44.642  26.115  28.933  1.00  0.00    -0.354 N 
ATOM     41  C   UNL A   1      40.579  27.602  28.843  1.00  0.00     0.074 A 
ATOM     42  C   UNL A   1      39.656  26.564  28.435  1.00  0.00     0.031 C 
ATOM     43  C   UNL A   1      46.282  24.639  28.570  1.00  0.00     0.029 A 
ATOM     44  C   UNL A   1      46.011  26.007  28.997  1.00  0.00     0.049 A 
ATOM     45  H   UNL A   1      44.153  26.929  29.191  1.00  0.00     0.167 HD
ATOM     46  C   UNL A   1      40.209  28.858  29.184  1.00  0.00     0.037 A 
ATOM     47  C   UNL A   1      46.941  26.916  29.348  1.00  0.00     0.037 A 
ATOM     48  C   UNL A   1      41.122  29.869  29.642  1.00  0.00     0.049 A 
ATOM     49  C   UNL A   1      46.503  28.299  29.745  1.00  0.00     0.074 A 
ATOM     50  C   UNL A   1      40.841  31.155  30.069  1.00  0.00     0.029 A 
ATOM     51  N   UNL A   1      42.494  29.702  29.743  1.00  0.00    -0.354 N 
ATOM     52  N   UNL A   1      45.292  28.801  29.789  1.00  0.00    -0.248 NA
ATOM     53  C   UNL A   1      47.558  29.242  30.141  1.00  0.00     0.031 C 
ATOM     54  C   UNL A   1      42.048  31.775  30.407  1.00  0.00     0.029 A 
ATOM     55  C   UNL A   1      43.075  30.863  30.223  1.00  0.00     0.049 A 
ATOM     56  H   UNL A   1      42.983  28.880  29.508  1.00  0.00     0.167 HD
ATOM     57  C   UNL A   1      45.436  30.102  30.249  1.00  0.00     0.074 A 
ATOM     58  C   UNL A   1      46.851  30.313  30.474  1.00  0.00     0.031 C 
ATOM     59  C   UNL A   1      44.483  31.040  30.466  1.00  0.00     0.037 A 
BRANCH  46  60
ATOM     60  C   UNL A   1      38.751  29.199  29.089  1.00  0.00     0.057 A 
ATOM     61  C   UNL A   1      37.901  29.118  30.200  1.00  0.00     0.134 A 
ATOM     62  C   UNL A   1      38.195  29.633  27.879  1.00  0.00     0.134 A 
ATOM     63  F   UNL A   1      38.369  28.695  31.383  1.00  0.00    -0.206 F 
ATOM     64  C   UNL A   1      36.545  29.432  30.105  1.00  0.00     0.040 A 
ATOM     65  C   UNL A   1      36.846  29.975  27.778  1.00  0.00     0.040 A 
ATOM     66  F   UNL A   1      38.955  29.734  26.777  1.00  0.00    -0.206 F 
ATOM     67  C   UNL A   1      36.015  29.869  28.893  1.00  0.00     0.006 A 
ENDBRANCH  46  60
BRANCH  47  68
ATOM     68  C   UNL A   1      48.378  26.546  29.365  1.00  0.00     0.057 A 
ATOM     69  C   UNL A   1      49.197  26.801  28.258  1.00  0.00     0.134 A 
ATOM     70  C   UNL A   1      48.964  25.919  30.471  1.00  0.00     0.134 A 
ATOM     71  F   UNL A   1      48.687  27.381  27.163  1.00  0.00    -0.206 F 
ATOM     72  C   UNL A   1      50.542  26.428  28.241  1.00  0.00     0.040 A 
ATOM     73  C   UNL A   1      50.314  25.562  30.476  1.00  0.00     0.040 A 
ATOM     74  F   UNL A   1      48.236  25.655  31.565  1.00  0.00    -0.206 F 
ATOM     75  C   UNL A   1      51.105  25.809  29.356  1.00  0.00     0.006 A 
ENDBRANCH  47  68
BRANCH  59  76
ATOM     76  C   UNL A   1      44.928  32.357  31.024  1.00  0.00     0.057 A 
ATOM     77  C   UNL A   1      45.260  33.436  30.198  1.00  0.00     0.134 A 
ATOM     78  C   UNL A   1      44.960  32.563  32.409  1.00  0.00     0.134 A 
ATOM     79  F   UNL A   1      45.258  33.296  28.863  1.00  0.00    -0.206 F 
ATOM     80  C   UNL A   1      45.622  34.674  30.729  1.00  0.00     0.040 A 
ATOM     81  C   UNL A   1      45.299  33.803  32.953  1.00  0.00     0.040 A 
ATOM     82  F   UNL A   1      44.645  31.571  33.254  1.00  0.00    -0.206 F 
ATOM     83  C   UNL A   1      45.634  34.862  32.111  1.00  0.00     0.006 A 
ENDBRANCH  59  76
ENDBRANCH  33  34
ENDBRANCH  25  28
ENDBRANCH  23  24
ENDBRANCH   1  23
TORSDOF 14
ENDMDL
MODEL 2
REMARK VINA RESULT:     -10.7      4.561      9.022
REMARK SMILES COc1cc([C@H]([NH3+])C(=O)NCCCNC(=O)c2ccc(-c3c4nc(c(-c5c(F)cccc5F)c5ccc([nH]5)c(-c5c(F)cccc5F)c5nc(c(-c6c(F)cccc6F)c6ccc3[nH]6)C=C5)C=C4)cc2)cc(I)c1OC
REMARK SMILES IDX 12 1 11 2 10 3 8 4 9 5 6 7 5 8 3 9 4 10 74 11 72 12 71 13
REMARK SMILES IDX 73 14 2 15 1 16 75 17 76 18 7 19 13 23 14 24 15 25 16 27
REMARK SMILES IDX 17 28 18 29 70 30 19 31 69 32 20 33 21 34 22 35 63 36 23 37
REMARK SMILES IDX 68 38 62 39 64 40 24 41 67 42 61 43 60 44 25 46 51 47 34 48
REMARK SMILES IDX 50 49 35 50 38 51 49 52 65 53 36 54 37 55 48 57 66 58 39 59
REMARK SMILES IDX 26 60 27 61 32 62 28 63 29 64 31 65 33 66 30 67 52 68 53 69
REMARK SMILES IDX 58 70 54 71 55 72 57 73 59 74 56 75 40 76 41 77 46 78 42 79
REMARK SMILES IDX 43 80 45 81 47 82 44 83
REMARK H PARENT 10 6 7 20 7 21 7 22 14 26 64 45 38 56
REMARK Flexibility Score: inf
ROOT
ATOM      1  C   UNL A   1      31.403  32.021  26.531  1.00  0.00     0.042 C 
ENDROOT
BRANCH   1   2
ATOM      2  C   UNL A   1      31.695  30.606  26.069  1.00  0.00     0.118 C 
BRANCH   2   3
ATOM      3  N   UNL A   1      32.891  30.053  26.679  1.00  0.00    -0.351 N 
ATOM      4  C   UNL A   1      33.691  29.017  26.281  1.00  0.00     0.283 C 
ATOM      5  O   UNL A   1      34.767  28.890  26.876  1.00  0.00    -0.268 OA
ATOM      6  H   UNL A   1      33.172  30.494  27.514  1.00  0.00     0.163 HD
BRANCH   4   7
ATOM      7  C   UNL A   1      33.284  28.043  25.146  1.00  0.00     0.302 C 
BRANCH   7   8
ATOM      8  C   UNL A   1      33.328  26.552  25.475  1.00  0.00     0.024 A 
ATOM      9  C   UNL A   1      32.280  24.600  26.512  1.00  0.00     0.162 A 
ATOM     10  C   UNL A   1      32.278  25.968  26.198  1.00  0.00     0.061 A 
ATOM     11  C   UNL A   1      33.338  23.757  26.083  1.00  0.00     0.174 A 
ATOM     12  C   UNL A   1      34.405  24.337  25.389  1.00  0.00     0.059 A 
ATOM     13  C   UNL A   1      34.403  25.723  25.135  1.00  0.00     0.029 A 
ATOM     14  I   UNL A   1      36.150  23.377  24.693  1.00  0.00    -0.040 I 
BRANCH   9  15
ATOM     15  O   UNL A   1      31.290  23.992  27.251  1.00  0.00    -0.493 OA
ATOM     16  C   UNL A   1      30.123  23.549  26.573  1.00  0.00     0.278 C 
ENDBRANCH   9  15
BRANCH  11  17
ATOM     17  O   UNL A   1      33.226  22.464  26.527  1.00  0.00    -0.492 OA
ATOM     18  C   UNL A   1      34.005  22.024  27.626  1.00  0.00     0.278 C 
ENDBRANCH  11  17
ENDBRANCH   7   8
BRANCH   7  19
ATOM     19  N   UNL A   1      34.037  28.379  23.917  1.00  0.00    -0.343 N 
ATOM     20  H   UNL A   1      34.439  29.312  24.010  1.00  0.00     0.345 HD
ATOM     21  H   UNL A   1      33.406  28.358  23.117  1.00  0.00     0.345 HD
ATOM     22  H   UNL A   1      34.783  27.699  23.780  1.00  0.00     0.345 HD
ENDBRANCH   7  19
ENDBRANCH   4   7
ENDBRANCH   2   3
ENDBRANCH   1   2
BRANCH   1  23
ATOM     23  C   UNL A   1      32.574  32.678  27.251  1.00  0.00     0.118 C 
BRANCH  23  24
ATOM     24  N   UNL A   1      32.342  34.083  27.576  1.00  0.00    -0.352 N 
ATOM     25  C   UNL A   1      32.950  34.876  28.520  1.00  0.00     0.251 C 
ATOM     26  H   UNL A   1      31.647  34.528  27.038  1.00  0.00     0.163 HD
ATOM     27  O   UNL A   1      32.528  36.005  28.751  1.00  0.00    -0.269 OA
BRANCH  25  28
ATOM     28  C   UNL A   1      34.096  34.344  29.281  1.00  0.00     0.039 A 
ATOM     29  C   UNL A   1      33.867  33.665  30.481  1.00  0.00     0.014 A 
ATOM     30  C   UNL A   1      35.392  34.471  28.778  1.00  0.00     0.014 A 
ATOM     31  C   UNL A   1      34.930  33.026  31.124  1.00  0.00     0.010 A 
ATOM     32  C   UNL A   1      36.425  33.752  29.362  1.00  0.00     0.010 A 
ATOM     33  C   UNL A   1      36.206  33.020  30.539  1.00  0.00    -0.014 A 
BRANCH  33  34
ATOM     34  C   UNL A   1      37.343  32.273  31.131  1.00  0.00     0.031 A 
ATOM     35  C   UNL A   1      37.968  32.769  32.407  1.00  0.00     0.074 A 
ATOM     36  C   UNL A   1      37.885  31.230  30.472  1.00  0.00     0.049 A 
ATOM     37  N   UNL A   1      39.077  32.392  32.988  1.00  0.00    -0.248 NA
ATOM     38  C   UNL A   1      37.270  33.867  33.095  1.00  0.00     0.031 C 
ATOM     39  C   UNL A   1      37.401  30.679  29.203  1.00  0.00     0.029 A 
ATOM     40  N   UNL A   1      38.980  30.458  30.770  1.00  0.00    -0.354 N 
ATOM     41  C   UNL A   1      39.228  33.230  34.084  1.00  0.00     0.074 A 
ATOM     42  C   UNL A   1      38.125  34.166  34.061  1.00  0.00     0.031 C 
ATOM     43  C   UNL A   1      38.183  29.648  28.844  1.00  0.00     0.029 A 
ATOM     44  C   UNL A   1      39.249  29.494  29.828  1.00  0.00     0.049 A 
ATOM     45  H   UNL A   1      39.522  30.584  31.582  1.00  0.00     0.167 HD
ATOM     46  C   UNL A   1      40.187  33.208  35.039  1.00  0.00     0.037 A 
ATOM     47  C   UNL A   1      40.252  28.597  29.761  1.00  0.00     0.037 A 
ATOM     48  C   UNL A   1      41.251  32.242  35.089  1.00  0.00     0.049 A 
ATOM     49  C   UNL A   1      41.293  28.578  30.846  1.00  0.00     0.074 A 
ATOM     50  C   UNL A   1      42.238  32.096  36.047  1.00  0.00     0.029 A 
ATOM     51  N   UNL A   1      41.455  31.249  34.144  1.00  0.00    -0.354 N 
ATOM     52  N   UNL A   1      41.402  29.351  31.900  1.00  0.00    -0.248 NA
ATOM     53  C   UNL A   1      42.350  27.564  30.734  1.00  0.00     0.031 C 
ATOM     54  C   UNL A   1      43.056  31.027  35.669  1.00  0.00     0.029 A 
ATOM     55  C   UNL A   1      42.557  30.487  34.495  1.00  0.00     0.049 A 
ATOM     56  H   UNL A   1      40.900  31.107  33.343  1.00  0.00     0.167 HD
ATOM     57  C   UNL A   1      42.515  28.895  32.593  1.00  0.00     0.074 A 
ATOM     58  C   UNL A   1      43.046  27.775  31.843  1.00  0.00     0.031 C 
ATOM     59  C   UNL A   1      43.050  29.360  33.747  1.00  0.00     0.037 A 
BRANCH  46  60
ATOM     60  C   UNL A   1      40.116  34.252  36.114  1.00  0.00     0.057 A 
ATOM     61  C   UNL A   1      40.766  35.487  35.986  1.00  0.00     0.134 A 
ATOM     62  C   UNL A   1      39.372  34.031  37.280  1.00  0.00     0.134 A 
ATOM     63  F   UNL A   1      41.507  35.754  34.900  1.00  0.00    -0.206 F 
ATOM     64  C   UNL A   1      40.701  36.453  36.990  1.00  0.00     0.040 A 
ATOM     65  C   UNL A   1      39.278  35.000  38.279  1.00  0.00     0.040 A 
ATOM     66  F   UNL A   1      38.723  32.871  37.464  1.00  0.00    -0.206 F 
ATOM     67  C   UNL A   1      39.950  36.213  38.138  1.00  0.00     0.006 A 
ENDBRANCH  46  60
BRANCH  47  68
ATOM     68  C   UNL A   1      40.311  27.626  28.641  1.00  0.00     0.057 A 
ATOM     69  C   UNL A   1      41.052  27.908  27.486  1.00  0.00     0.134 A 
ATOM     70  C   UNL A   1      39.624  26.408  28.685  1.00  0.00     0.134 A 
ATOM     71  F   UNL A   1      41.716  29.068  27.378  1.00  0.00    -0.206 F 
ATOM     72  C   UNL A   1      41.092  27.023  26.408  1.00  0.00     0.040 A 
ATOM     73  C   UNL A   1      39.673  25.503  27.622  1.00  0.00     0.040 A 
ATOM     74  F   UNL A   1      38.903  26.075  29.765  1.00  0.00    -0.206 F 
ATOM     75  C   UNL A   1      40.403  25.814  26.476  1.00  0.00     0.006 A 
ENDBRANCH  47  68
BRANCH  59  76
ATOM     76  C   UNL A   1      44.235  28.630  34.299  1.00  0.00     0.057 A 
ATOM     77  C   UNL A   1      45.546  29.003  33.985  1.00  0.00     0.134 A 
ATOM     78  C   UNL A   1      44.058  27.580  35.209  1.00  0.00     0.134 A 
ATOM     79  F   UNL A   1      45.780  29.994  33.110  1.00  0.00    -0.206 F 
ATOM     80  C   UNL A   1      46.643  28.349  34.547  1.00  0.00     0.040 A 
ATOM     81  C   UNL A   1      45.146  26.932  35.796  1.00  0.00     0.040 A 
ATOM     82  F   UNL A   1      42.826  27.180  35.558  1.00  0.00    -0.206 F 
ATOM     83  C   UNL A   1      46.443  27.315  35.462  1.00  0.00     0.006 A 
ENDBRANCH  59  76
ENDBRANCH  33  34
ENDBRANCH  25  28
ENDBRANCH  23  24
ENDBRANCH   1  23
TORSDOF 14
ENDMDL
MODEL 3
REMARK VINA RESULT:     -10.7      1.167      6.519
REMARK SMILES COc1cc([C@H]([NH3+])C(=O)NCCCNC(=O)c2ccc(-c3c4nc(c(-c5c(F)cccc5F)c5ccc([nH]5)c(-c5c(F)cccc5F)c5nc(c(-c6c(F)cccc6F)c6ccc3[nH]6)C=C5)C=C4)cc2)cc(I)c1OC
REMARK SMILES IDX 12 1 11 2 10 3 8 4 9 5 6 7 5 8 3 9 4 10 74 11 72 12 71 13
REMARK SMILES IDX 73 14 2 15 1 16 75 17 76 18 7 19 13 23 14 24 15 25 16 27
REMARK SMILES IDX 17 28 18 29 70 30 19 31 69 32 20 33 21 34 22 35 63 36 23 37
REMARK SMILES IDX 68 38 62 39 64 40 24 41 67 42 61 43 60 44 25 46 51 47 34 48
REMARK SMILES IDX 50 49 35 50 38 51 49 52 65 53 36 54 37 55 48 57 66 58 39 59
REMARK SMILES IDX 26 60 27 61 32 62 28 63 29 64 31 65 33 66 30 67 52 68 53 69
REMARK SMILES IDX 58 70 54 71 55 72 57 73 59 74 56 75 40 76 41 77 46 78 42 79
REMARK SMILES IDX 43 80 45 81 47 82 44 83
REMARK H PARENT 10 6 7 20 7 21 7 22 14 26 64 45 38 56
REMARK Flexibility Score: inf
ROOT
ATOM      1  C   UNL A   1      37.927  19.654  24.995  1.00  0.00     0.042 C 
ENDROOT
BRANCH   1   2
ATOM      2  C   UNL A   1      36.818  20.690  24.974  1.00  0.00     0.118 C 
BRANCH   2   3
ATOM      3  N   UNL A   1      37.292  22.024  25.293  1.00  0.00    -0.351 N 
ATOM      4  C   UNL A   1      36.604  23.137  25.695  1.00  0.00     0.283 C 
ATOM      5  O   UNL A   1      37.281  24.088  26.102  1.00  0.00    -0.268 OA
ATOM      6  H   UNL A   1      38.265  22.150  25.207  1.00  0.00     0.163 HD
BRANCH   4   7
ATOM      7  C   UNL A   1      35.057  23.218  25.649  1.00  0.00     0.302 C 
BRANCH   7   8
ATOM      8  C   UNL A   1      34.455  24.493  25.063  1.00  0.00     0.024 A 
ATOM      9  C   UNL A   1      33.829  25.808  23.097  1.00  0.00     0.162 A 
ATOM     10  C   UNL A   1      34.383  24.653  23.672  1.00  0.00     0.061 A 
ATOM     11  C   UNL A   1      33.301  26.843  23.911  1.00  0.00     0.174 A 
ATOM     12  C   UNL A   1      33.400  26.707  25.301  1.00  0.00     0.059 A 
ATOM     13  C   UNL A   1      34.008  25.561  25.849  1.00  0.00     0.029 A 
ATOM     14  I   UNL A   1      32.787  28.095  26.767  1.00  0.00    -0.040 I 
BRANCH   9  15
ATOM     15  O   UNL A   1      33.771  26.023  21.739  1.00  0.00    -0.493 OA
ATOM     16  C   UNL A   1      32.721  25.407  21.006  1.00  0.00     0.278 C 
ENDBRANCH   9  15
BRANCH  11  17
ATOM     17  O   UNL A   1      32.860  27.931  23.201  1.00  0.00    -0.492 OA
ATOM     18  C   UNL A   1      33.733  29.022  22.964  1.00  0.00     0.278 C 
ENDBRANCH  11  17
ENDBRANCH   7   8
BRANCH   7  19
ATOM     19  N   UNL A   1      34.508  22.887  26.983  1.00  0.00    -0.343 N 
ATOM     20  H   UNL A   1      35.123  22.218  27.446  1.00  0.00     0.345 HD
ATOM     21  H   UNL A   1      33.580  22.480  26.876  1.00  0.00     0.345 HD
ATOM     22  H   UNL A   1      34.445  23.736  27.544  1.00  0.00     0.345 HD
ENDBRANCH   7  19
ENDBRANCH   4   7
ENDBRANCH   2   3
ENDBRANCH   1   2
BRANCH   1  23
ATOM     23  C   UNL A   1      39.167  20.108  25.754  1.00  0.00     0.118 C 
BRANCH  23  24
ATOM     24  N   UNL A   1      40.183  19.067  25.881  1.00  0.00    -0.352 N 
ATOM     25  C   UNL A   1      41.530  19.185  26.132  1.00  0.00     0.251 C 
ATOM     26  H   UNL A   1      39.855  18.146  25.771  1.00  0.00     0.163 HD
ATOM     27  O   UNL A   1      42.264  18.203  26.066  1.00  0.00    -0.269 OA
BRANCH  25  28
ATOM     28  C   UNL A   1      42.094  20.511  26.449  1.00  0.00     0.039 A 
ATOM     29  C   UNL A   1      42.531  21.336  25.410  1.00  0.00     0.014 A 
ATOM     30  C   UNL A   1      42.139  20.956  27.771  1.00  0.00     0.014 A 
ATOM     31  C   UNL A   1      42.918  22.649  25.690  1.00  0.00     0.010 A 
ATOM     32  C   UNL A   1      42.427  22.288  28.035  1.00  0.00     0.010 A 
ATOM     33  C   UNL A   1      42.817  23.149  26.998  1.00  0.00    -0.014 A 
BRANCH  33  34
ATOM     34  C   UNL A   1      43.122  24.563  27.329  1.00  0.00     0.031 A 
ATOM     35  C   UNL A   1      44.556  25.014  27.389  1.00  0.00     0.074 A 
ATOM     36  C   UNL A   1      42.131  25.404  27.685  1.00  0.00     0.049 A 
ATOM     37  N   UNL A   1      45.054  26.135  27.842  1.00  0.00    -0.248 NA
ATOM     38  C   UNL A   1      45.567  24.053  26.916  1.00  0.00     0.031 C 
ATOM     39  C   UNL A   1      40.703  25.077  27.711  1.00  0.00     0.029 A 
ATOM     40  N   UNL A   1      42.179  26.706  28.116  1.00  0.00    -0.354 N 
ATOM     41  C   UNL A   1      46.433  25.999  27.744  1.00  0.00     0.074 A 
ATOM     42  C   UNL A   1      46.694  24.670  27.234  1.00  0.00     0.031 C 
ATOM     43  C   UNL A   1      40.012  26.154  28.117  1.00  0.00     0.029 A 
ATOM     44  C   UNL A   1      40.948  27.231  28.424  1.00  0.00     0.049 A 
ATOM     45  H   UNL A   1      43.018  27.216  28.197  1.00  0.00     0.167 HD
ATOM     46  C   UNL A   1      47.394  26.907  28.029  1.00  0.00     0.037 A 
ATOM     47  C   UNL A   1      40.613  28.441  28.912  1.00  0.00     0.037 A 
ATOM     48  C   UNL A   1      47.128  28.245  28.483  1.00  0.00     0.049 A 
ATOM     49  C   UNL A   1      41.698  29.442  29.200  1.00  0.00     0.074 A 
ATOM     50  C   UNL A   1      48.029  29.262  28.743  1.00  0.00     0.029 A 
ATOM     51  N   UNL A   1      45.863  28.753  28.730  1.00  0.00    -0.354 N 
ATOM     52  N   UNL A   1      42.996  29.314  29.065  1.00  0.00    -0.248 NA
ATOM     53  C   UNL A   1      41.275  30.753  29.710  1.00  0.00     0.031 C 
ATOM     54  C   UNL A   1      47.309  30.382  29.172  1.00  0.00     0.029 A 
ATOM     55  C   UNL A   1      45.959  30.071  29.145  1.00  0.00     0.049 A 
ATOM     56  H   UNL A   1      45.022  28.252  28.628  1.00  0.00     0.167 HD
ATOM     57  C   UNL A   1      43.540  30.536  29.437  1.00  0.00     0.074 A 
ATOM     58  C   UNL A   1      42.432  31.394  29.801  1.00  0.00     0.031 C 
ATOM     59  C   UNL A   1      44.840  30.914  29.475  1.00  0.00     0.037 A 
BRANCH  46  60
ATOM     60  C   UNL A   1      48.822  26.484  27.844  1.00  0.00     0.057 A 
ATOM     61  C   UNL A   1      49.485  26.648  26.620  1.00  0.00     0.134 A 
ATOM     62  C   UNL A   1      49.547  25.927  28.904  1.00  0.00     0.134 A 
ATOM     63  F   UNL A   1      48.841  27.161  25.562  1.00  0.00    -0.206 F 
ATOM     64  C   UNL A   1      50.811  26.248  26.451  1.00  0.00     0.040 A 
ATOM     65  C   UNL A   1      50.883  25.549  28.754  1.00  0.00     0.040 A 
ATOM     66  F   UNL A   1      48.972  25.746  30.103  1.00  0.00    -0.206 F 
ATOM     67  C   UNL A   1      51.516  25.704  27.522  1.00  0.00     0.006 A 
ENDBRANCH  46  60
BRANCH  47  68
ATOM     68  C   UNL A   1      39.188  28.788  29.138  1.00  0.00     0.057 A 
ATOM     69  C   UNL A   1      38.419  29.360  28.117  1.00  0.00     0.134 A 
ATOM     70  C   UNL A   1      38.565  28.573  30.373  1.00  0.00     0.134 A 
ATOM     71  F   UNL A   1      38.966  29.606  26.919  1.00  0.00    -0.206 F 
ATOM     72  C   UNL A   1      37.087  29.725  28.321  1.00  0.00     0.040 A 
ATOM     73  C   UNL A   1      37.227  28.913  30.583  1.00  0.00     0.040 A 
ATOM     74  F   UNL A   1      39.244  28.021  31.388  1.00  0.00    -0.206 F 
ATOM     75  C   UNL A   1      36.487  29.498  29.557  1.00  0.00     0.006 A 
ENDBRANCH  47  68
BRANCH  59  76
ATOM     76  C   UNL A   1      45.134  32.329  29.868  1.00  0.00     0.057 A 
ATOM     77  C   UNL A   1      45.472  32.676  31.181  1.00  0.00     0.134 A 
ATOM     78  C   UNL A   1      45.140  33.345  28.904  1.00  0.00     0.134 A 
ATOM     79  F   UNL A   1      45.472  31.749  32.151  1.00  0.00    -0.206 F 
ATOM     80  C   UNL A   1      45.795  33.989  31.525  1.00  0.00     0.040 A 
ATOM     81  C   UNL A   1      45.483  34.658  29.231  1.00  0.00     0.040 A 
ATOM     82  F   UNL A   1      44.833  33.075  27.627  1.00  0.00    -0.206 F 
ATOM     83  C   UNL A   1      45.809  34.983  30.546  1.00  0.00     0.006 A 
ENDBRANCH  59  76
ENDBRANCH  33  34
ENDBRANCH  25  28
ENDBRANCH  23  24
ENDBRANCH   1  23
TORSDOF 14
ENDMDL
