MODEL 1
REMARK VINA RESULT:     -12.6      0.000      0.000
REMARK SMILES Cc1cc2cc(-c3ccc([C@@H](C)C(=O)NCCCNC(=O)c4ccc(-c5c6nc(c(-c7c(F)cccc7F)c7ccc([nH]7)c(-c7c(F)cccc7F)c7nc(c(-c8c(F)cccc8F)c8ccc5[nH]8)C=C7)C=C6)cc4)cc3)ccc2[nH]1
REMARK SMILES IDX 17 1 16 2 15 3 13 4 14 5 11 7 12 8 10 9 7 10 8 11 77 12 9 13
REMARK SMILES IDX 76 14 6 15 1 16 2 17 3 18 81 19 4 20 80 21 5 23 79 24 78 25
REMARK SMILES IDX 18 26 19 27 20 28 21 30 22 31 23 32 75 33 24 34 74 35 25 36
REMARK SMILES IDX 26 37 27 38 68 39 28 40 73 41 67 42 69 43 29 44 72 45 66 46
REMARK SMILES IDX 65 47 30 49 56 50 39 51 55 52 40 53 43 54 54 55 70 56 41 57
REMARK SMILES IDX 42 58 53 60 71 61 44 62 31 63 32 64 37 65 33 66 34 67 36 68
REMARK SMILES IDX 38 69 35 70 57 71 58 72 63 73 59 74 60 75 62 76 64 77 61 78
REMARK SMILES IDX 45 79 46 80 51 81 47 82 48 83 50 84 52 85 49 86
REMARK H PARENT 15 6 81 22 19 29 69 48 43 59
REMARK Flexibility Score: inf
ROOT
ATOM      1  C   UNL A   1      33.419  28.812  23.385  1.00  0.00     0.042 C 
ENDROOT
BRANCH   1   2
ATOM      2  C   UNL A   1      32.319  27.850  22.940  1.00  0.00     0.117 C 
BRANCH   2   3
ATOM      3  N   UNL A   1      32.665  27.128  21.730  1.00  0.00    -0.356 N 
ATOM      4  C   UNL A   1      32.788  25.800  21.459  1.00  0.00     0.227 C 
ATOM      5  O   UNL A   1      33.159  25.514  20.314  1.00  0.00    -0.274 OA
ATOM      6  H   UNL A   1      32.845  27.711  20.958  1.00  0.00     0.163 HD
BRANCH   4   7
ATOM      7  C   UNL A   1      32.497  24.680  22.469  1.00  0.00     0.105 C 
ATOM      8  C   UNL A   1      31.204  24.864  23.263  1.00  0.00     0.023 C 
BRANCH   7   9
ATOM      9  C   UNL A   1      33.716  24.270  23.279  1.00  0.00    -0.036 A 
ATOM     10  C   UNL A   1      36.109  23.568  24.677  1.00  0.00    -0.018 A 
ATOM     11  C   UNL A   1      35.210  24.524  25.178  1.00  0.00     0.009 A 
ATOM     12  C   UNL A   1      35.767  22.952  23.464  1.00  0.00     0.009 A 
ATOM     13  C   UNL A   1      34.023  24.842  24.513  1.00  0.00     0.005 A 
ATOM     14  C   UNL A   1      34.602  23.309  22.768  1.00  0.00     0.005 A 
BRANCH  10  15
ATOM     15  C   UNL A   1      37.350  23.246  25.416  1.00  0.00    -0.018 A 
ATOM     16  C   UNL A   1      42.036  19.833  27.422  1.00  0.00     0.064 C 
ATOM     17  C   UNL A   1      40.907  20.694  27.000  1.00  0.00     0.013 A 
ATOM     18  C   UNL A   1      39.871  20.443  26.125  1.00  0.00     0.031 A 
ATOM     19  N   UNL A   1      40.752  21.983  27.455  1.00  0.00    -0.359 N 
ATOM     20  C   UNL A   1      39.087  21.622  26.027  1.00  0.00     0.000 A 
ATOM     21  C   UNL A   1      39.653  22.571  26.871  1.00  0.00     0.046 A 
ATOM     22  H   UNL A   1      41.345  22.422  28.107  1.00  0.00     0.166 HD
ATOM     23  C   UNL A   1      37.941  21.971  25.288  1.00  0.00     0.019 A 
ATOM     24  C   UNL A   1      39.120  23.854  27.017  1.00  0.00     0.027 A 
ATOM     25  C   UNL A   1      37.963  24.167  26.282  1.00  0.00     0.011 A 
ENDBRANCH  10  15
ENDBRANCH   7   9
ENDBRANCH   4   7
ENDBRANCH   2   3
ENDBRANCH   1   2
BRANCH   1  26
ATOM     26  C   UNL A   1      33.565  28.939  24.897  1.00  0.00     0.118 C 
BRANCH  26  27
ATOM     27  N   UNL A   1      32.827  30.075  25.433  1.00  0.00    -0.352 N 
ATOM     28  C   UNL A   1      33.022  30.825  26.567  1.00  0.00     0.251 C 
ATOM     29  H   UNL A   1      32.056  30.354  24.888  1.00  0.00     0.163 HD
ATOM     30  O   UNL A   1      32.143  31.608  26.919  1.00  0.00    -0.269 OA
BRANCH  28  31
ATOM     31  C   UNL A   1      34.254  30.704  27.381  1.00  0.00     0.039 A 
ATOM     32  C   UNL A   1      34.542  29.469  27.976  1.00  0.00     0.014 A 
ATOM     33  C   UNL A   1      35.092  31.795  27.625  1.00  0.00     0.014 A 
ATOM     34  C   UNL A   1      35.692  29.315  28.756  1.00  0.00     0.010 A 
ATOM     35  C   UNL A   1      36.276  31.623  28.344  1.00  0.00     0.010 A 
ATOM     36  C   UNL A   1      36.589  30.382  28.917  1.00  0.00    -0.014 A 
BRANCH  36  37
ATOM     37  C   UNL A   1      37.862  30.211  29.666  1.00  0.00     0.031 A 
ATOM     38  C   UNL A   1      38.998  29.418  29.080  1.00  0.00     0.074 A 
ATOM     39  C   UNL A   1      37.974  30.717  30.910  1.00  0.00     0.049 A 
ATOM     40  N   UNL A   1      40.146  29.095  29.621  1.00  0.00    -0.248 NA
ATOM     41  C   UNL A   1      38.811  28.902  27.716  1.00  0.00     0.031 C 
ATOM     42  C   UNL A   1      36.931  31.467  31.614  1.00  0.00     0.029 A 
ATOM     43  N   UNL A   1      39.010  30.665  31.809  1.00  0.00    -0.354 N 
ATOM     44  C   UNL A   1      40.809  28.325  28.674  1.00  0.00     0.074 A 
ATOM     45  C   UNL A   1      39.920  28.196  27.539  1.00  0.00     0.031 C 
ATOM     46  C   UNL A   1      37.387  31.817  32.827  1.00  0.00     0.029 A 
ATOM     47  C   UNL A   1      38.735  31.284  33.003  1.00  0.00     0.049 A 
ATOM     48  H   UNL A   1      39.869  30.225  31.615  1.00  0.00     0.167 HD
ATOM     49  C   UNL A   1      42.052  27.790  28.735  1.00  0.00     0.037 A 
ATOM     50  C   UNL A   1      39.476  31.399  34.121  1.00  0.00     0.037 A 
ATOM     51  C   UNL A   1      42.951  27.942  29.849  1.00  0.00     0.049 A 
ATOM     52  C   UNL A   1      40.848  30.791  34.167  1.00  0.00     0.074 A 
ATOM     53  C   UNL A   1      44.257  27.497  29.970  1.00  0.00     0.029 A 
ATOM     54  N   UNL A   1      42.638  28.588  31.035  1.00  0.00    -0.354 N 
ATOM     55  N   UNL A   1      41.484  30.119  33.239  1.00  0.00    -0.248 NA
ATOM     56  C   UNL A   1      41.605  30.957  35.415  1.00  0.00     0.031 C 
ATOM     57  C   UNL A   1      44.721  27.841  31.244  1.00  0.00     0.029 A 
ATOM     58  C   UNL A   1      43.718  28.534  31.902  1.00  0.00     0.049 A 
ATOM     59  H   UNL A   1      41.776  29.021  31.232  1.00  0.00     0.167 HD
ATOM     60  C   UNL A   1      42.721  29.800  33.782  1.00  0.00     0.074 A 
ATOM     61  C   UNL A   1      42.753  30.365  35.115  1.00  0.00     0.031 C 
ATOM     62  C   UNL A   1      43.738  29.100  33.225  1.00  0.00     0.037 A 
BRANCH  49  63
ATOM     63  C   UNL A   1      42.522  26.990  27.556  1.00  0.00     0.057 A 
ATOM     64  C   UNL A   1      43.146  27.595  26.458  1.00  0.00     0.134 A 
ATOM     65  C   UNL A   1      42.394  25.596  27.541  1.00  0.00     0.134 A 
ATOM     66  F   UNL A   1      43.290  28.928  26.407  1.00  0.00    -0.206 F 
ATOM     67  C   UNL A   1      43.610  26.843  25.377  1.00  0.00     0.040 A 
ATOM     68  C   UNL A   1      42.876  24.830  26.477  1.00  0.00     0.040 A 
ATOM     69  F   UNL A   1      41.813  24.953  28.565  1.00  0.00    -0.206 F 
ATOM     70  C   UNL A   1      43.481  25.455  25.389  1.00  0.00     0.006 A 
ENDBRANCH  49  63
BRANCH  50  71
ATOM     71  C   UNL A   1      38.933  32.124  35.295  1.00  0.00     0.057 A 
ATOM     72  C   UNL A   1      39.048  33.515  35.405  1.00  0.00     0.134 A 
ATOM     73  C   UNL A   1      38.290  31.445  36.335  1.00  0.00     0.134 A 
ATOM     74  F   UNL A   1      39.675  34.217  34.449  1.00  0.00    -0.206 F 
ATOM     75  C   UNL A   1      38.556  34.203  36.514  1.00  0.00     0.040 A 
ATOM     76  C   UNL A   1      37.768  32.124  37.435  1.00  0.00     0.040 A 
ATOM     77  F   UNL A   1      38.151  30.112  36.290  1.00  0.00    -0.206 F 
ATOM     78  C   UNL A   1      37.907  33.506  37.531  1.00  0.00     0.006 A 
ENDBRANCH  50  71
BRANCH  62  79
ATOM     79  C   UNL A   1      44.980  28.929  34.048  1.00  0.00     0.057 A 
ATOM     80  C   UNL A   1      46.009  29.879  34.034  1.00  0.00     0.134 A 
ATOM     81  C   UNL A   1      45.136  27.817  34.884  1.00  0.00     0.134 A 
ATOM     82  F   UNL A   1      45.926  30.959  33.241  1.00  0.00    -0.206 F 
ATOM     83  C   UNL A   1      47.159  29.719  34.808  1.00  0.00     0.040 A 
ATOM     84  C   UNL A   1      46.271  27.656  35.679  1.00  0.00     0.040 A 
ATOM     85  F   UNL A   1      44.184  26.873  34.947  1.00  0.00    -0.206 F 
ATOM     86  C   UNL A   1      47.289  28.606  35.639  1.00  0.00     0.006 A 
ENDBRANCH  62  79
ENDBRANCH  36  37
ENDBRANCH  28  31
ENDBRANCH  26  27
ENDBRANCH   1  26
TORSDOF 12
ENDMDL
MODEL 2
REMARK VINA RESULT:     -12.3      3.645      8.375
REMARK SMILES Cc1cc2cc(-c3ccc([C@@H](C)C(=O)NCCCNC(=O)c4ccc(-c5c6nc(c(-c7c(F)cccc7F)c7ccc([nH]7)c(-c7c(F)cccc7F)c7nc(c(-c8c(F)cccc8F)c8ccc5[nH]8)C=C7)C=C6)cc4)cc3)ccc2[nH]1
REMARK SMILES IDX 17 1 16 2 15 3 13 4 14 5 11 7 12 8 10 9 7 10 8 11 77 12 9 13
REMARK SMILES IDX 76 14 6 15 1 16 2 17 3 18 81 19 4 20 80 21 5 23 79 24 78 25
REMARK SMILES IDX 18 26 19 27 20 28 21 30 22 31 23 32 75 33 24 34 74 35 25 36
REMARK SMILES IDX 26 37 27 38 68 39 28 40 73 41 67 42 69 43 29 44 72 45 66 46
REMARK SMILES IDX 65 47 30 49 56 50 39 51 55 52 40 53 43 54 54 55 70 56 41 57
REMARK SMILES IDX 42 58 53 60 71 61 44 62 31 63 32 64 37 65 33 66 34 67 36 68
REMARK SMILES IDX 38 69 35 70 57 71 58 72 63 73 59 74 60 75 62 76 64 77 61 78
REMARK SMILES IDX 45 79 46 80 51 81 47 82 48 83 50 84 52 85 49 86
REMARK H PARENT 15 6 81 22 19 29 69 48 43 59
REMARK Flexibility Score: inf
ROOT
ATOM      1  C   UNL A   1      37.775  19.550  24.608  1.00  0.00     0.042 C 
ENDROOT
BRANCH   1   2
ATOM      2  C   UNL A   1      36.302  19.705  24.986  1.00  0.00     0.117 C 
BRANCH   2   3
ATOM      3  N   UNL A   1      36.048  20.905  25.760  1.00  0.00    -0.356 N 
ATOM      4  C   UNL A   1      35.671  22.163  25.403  1.00  0.00     0.227 C 
ATOM      5  O   UNL A   1      35.593  22.987  26.323  1.00  0.00    -0.274 OA
ATOM      6  H   UNL A   1      36.173  20.786  26.729  1.00  0.00     0.163 HD
BRANCH   4   7
ATOM      7  C   UNL A   1      35.346  22.594  23.964  1.00  0.00     0.105 C 
ATOM      8  C   UNL A   1      36.568  22.958  23.121  1.00  0.00     0.023 C 
BRANCH   7   9
ATOM      9  C   UNL A   1      34.173  23.556  23.876  1.00  0.00    -0.036 A 
ATOM     10  C   UNL A   1      32.023  25.412  23.553  1.00  0.00    -0.018 A 
ATOM     11  C   UNL A   1      31.804  24.026  23.622  1.00  0.00     0.009 A 
ATOM     12  C   UNL A   1      33.350  25.850  23.674  1.00  0.00     0.009 A 
ATOM     13  C   UNL A   1      32.849  23.121  23.815  1.00  0.00     0.005 A 
ATOM     14  C   UNL A   1      34.408  24.938  23.815  1.00  0.00     0.005 A 
BRANCH  10  15
ATOM     15  C   UNL A   1      30.888  26.343  23.361  1.00  0.00    -0.018 A 
ATOM     16  C   UNL A   1      27.961  31.433  21.586  1.00  0.00     0.064 C 
ATOM     17  C   UNL A   1      28.621  30.199  22.070  1.00  0.00     0.013 A 
ATOM     18  C   UNL A   1      29.922  29.765  21.924  1.00  0.00     0.031 A 
ATOM     19  N   UNL A   1      27.946  29.228  22.773  1.00  0.00    -0.359 N 
ATOM     20  C   UNL A   1      30.027  28.485  22.529  1.00  0.00     0.000 A 
ATOM     21  C   UNL A   1      28.781  28.171  23.058  1.00  0.00     0.046 A 
ATOM     22  H   UNL A   1      26.998  29.282  23.035  1.00  0.00     0.166 HD
ATOM     23  C   UNL A   1      31.076  27.558  22.670  1.00  0.00     0.019 A 
ATOM     24  C   UNL A   1      28.536  26.971  23.732  1.00  0.00     0.027 A 
ATOM     25  C   UNL A   1      29.608  26.074  23.876  1.00  0.00     0.011 A 
ENDBRANCH  10  15
ENDBRANCH   7   9
ENDBRANCH   4   7
ENDBRANCH   2   3
ENDBRANCH   1   2
BRANCH   1  26
ATOM     26  C   UNL A   1      38.748  20.053  25.668  1.00  0.00     0.118 C 
BRANCH  26  27
ATOM     27  N   UNL A   1      39.931  19.210  25.782  1.00  0.00    -0.352 N 
ATOM     28  C   UNL A   1      41.230  19.515  26.107  1.00  0.00     0.251 C 
ATOM     29  H   UNL A   1      39.771  18.257  25.593  1.00  0.00     0.163 HD
ATOM     30  O   UNL A   1      42.100  18.665  25.937  1.00  0.00    -0.269 OA
BRANCH  28  31
ATOM     31  C   UNL A   1      41.609  20.844  26.644  1.00  0.00     0.039 A 
ATOM     32  C   UNL A   1      42.144  21.791  25.762  1.00  0.00     0.014 A 
ATOM     33  C   UNL A   1      41.512  21.150  28.003  1.00  0.00     0.014 A 
ATOM     34  C   UNL A   1      42.519  23.055  26.229  1.00  0.00     0.010 A 
ATOM     35  C   UNL A   1      41.819  22.435  28.456  1.00  0.00     0.010 A 
ATOM     36  C   UNL A   1      42.326  23.400  27.575  1.00  0.00    -0.014 A 
BRANCH  36  37
ATOM     37  C   UNL A   1      42.634  24.767  28.070  1.00  0.00     0.031 A 
ATOM     38  C   UNL A   1      44.031  25.136  28.488  1.00  0.00     0.074 A 
ATOM     39  C   UNL A   1      41.638  25.665  28.207  1.00  0.00     0.049 A 
ATOM     40  N   UNL A   1      44.468  26.251  29.021  1.00  0.00    -0.248 NA
ATOM     41  C   UNL A   1      45.070  24.112  28.304  1.00  0.00     0.031 C 
ATOM     42  C   UNL A   1      40.231  25.422  27.883  1.00  0.00     0.029 A 
ATOM     43  N   UNL A   1      41.654  26.957  28.669  1.00  0.00    -0.354 N 
ATOM     44  C   UNL A   1      45.824  26.056  29.251  1.00  0.00     0.074 A 
ATOM     45  C   UNL A   1      46.131  24.702  28.837  1.00  0.00     0.031 C 
ATOM     46  C   UNL A   1      39.524  26.533  28.141  1.00  0.00     0.029 A 
ATOM     47  C   UNL A   1      40.416  27.551  28.686  1.00  0.00     0.049 A 
ATOM     48  H   UNL A   1      42.475  27.415  28.962  1.00  0.00     0.167 HD
ATOM     49  C   UNL A   1      46.735  26.929  29.744  1.00  0.00     0.037 A 
ATOM     50  C   UNL A   1      40.037  28.773  29.105  1.00  0.00     0.037 A 
ATOM     51  C   UNL A   1      46.439  28.284  30.128  1.00  0.00     0.049 A 
ATOM     52  C   UNL A   1      41.064  29.720  29.655  1.00  0.00     0.074 A 
ATOM     53  C   UNL A   1      47.312  29.264  30.570  1.00  0.00     0.029 A 
ATOM     54  N   UNL A   1      45.175  28.851  30.117  1.00  0.00    -0.354 N 
ATOM     55  N   UNL A   1      42.353  29.541  29.809  1.00  0.00    -0.248 NA
ATOM     56  C   UNL A   1      40.583  31.039  30.091  1.00  0.00     0.031 C 
ATOM     57  C   UNL A   1      46.569  30.414  30.863  1.00  0.00     0.029 A 
ATOM     58  C   UNL A   1      45.240  30.161  30.566  1.00  0.00     0.049 A 
ATOM     59  H   UNL A   1      44.352  28.392  29.833  1.00  0.00     0.167 HD
ATOM     60  C   UNL A   1      42.841  30.729  30.338  1.00  0.00     0.074 A 
ATOM     61  C   UNL A   1      41.711  31.627  30.466  1.00  0.00     0.031 C 
ATOM     62  C   UNL A   1      44.110  31.044  30.688  1.00  0.00     0.037 A 
BRANCH  49  63
ATOM     63  C   UNL A   1      48.148  26.447  29.893  1.00  0.00     0.057 A 
ATOM     64  C   UNL A   1      48.588  25.805  31.058  1.00  0.00     0.134 A 
ATOM     65  C   UNL A   1      49.063  26.581  28.842  1.00  0.00     0.134 A 
ATOM     66  F   UNL A   1      47.762  25.654  32.104  1.00  0.00    -0.206 F 
ATOM     67  C   UNL A   1      49.895  25.331  31.179  1.00  0.00     0.040 A 
ATOM     68  C   UNL A   1      50.366  26.090  28.943  1.00  0.00     0.040 A 
ATOM     69  F   UNL A   1      48.704  27.180  27.697  1.00  0.00    -0.206 F 
ATOM     70  C   UNL A   1      50.786  25.467  30.116  1.00  0.00     0.006 A 
ENDBRANCH  49  63
BRANCH  50  71
ATOM     71  C   UNL A   1      38.611  29.172  29.020  1.00  0.00     0.057 A 
ATOM     72  C   UNL A   1      37.764  29.077  30.130  1.00  0.00     0.134 A 
ATOM     73  C   UNL A   1      38.062  29.654  27.827  1.00  0.00     0.134 A 
ATOM     74  F   UNL A   1      38.229  28.601  31.294  1.00  0.00    -0.206 F 
ATOM     75  C   UNL A   1      36.417  29.434  30.053  1.00  0.00     0.040 A 
ATOM     76  C   UNL A   1      36.726  30.041  27.745  1.00  0.00     0.040 A 
ATOM     77  F   UNL A   1      38.822  29.765  26.727  1.00  0.00    -0.206 F 
ATOM     78  C   UNL A   1      35.896  29.924  28.858  1.00  0.00     0.006 A 
ENDBRANCH  50  71
BRANCH  62  79
ATOM     79  C   UNL A   1      44.349  32.427  31.217  1.00  0.00     0.057 A 
ATOM     80  C   UNL A   1      44.620  33.505  30.366  1.00  0.00     0.134 A 
ATOM     81  C   UNL A   1      44.278  32.687  32.592  1.00  0.00     0.134 A 
ATOM     82  F   UNL A   1      44.716  33.317  29.041  1.00  0.00    -0.206 F 
ATOM     83  C   UNL A   1      44.832  34.791  30.864  1.00  0.00     0.040 A 
ATOM     84  C   UNL A   1      44.467  33.973  33.101  1.00  0.00     0.040 A 
ATOM     85  F   UNL A   1      44.017  31.699  33.460  1.00  0.00    -0.206 F 
ATOM     86  C   UNL A   1      44.751  35.028  32.236  1.00  0.00     0.006 A 
ENDBRANCH  62  79
ENDBRANCH  36  37
ENDBRANCH  28  31
ENDBRANCH  26  27
ENDBRANCH   1  26
TORSDOF 12
ENDMDL
MODEL 3
REMARK VINA RESULT:     -12.3      4.200     10.040
REMARK SMILES Cc1cc2cc(-c3ccc([C@@H](C)C(=O)NCCCNC(=O)c4ccc(-c5c6nc(c(-c7c(F)cccc7F)c7ccc([nH]7)c(-c7c(F)cccc7F)c7nc(c(-c8c(F)cccc8F)c8ccc5[nH]8)C=C7)C=C6)cc4)cc3)ccc2[nH]1
REMARK SMILES IDX 17 1 16 2 15 3 13 4 14 5 11 7 12 8 10 9 7 10 8 11 77 12 9 13
REMARK SMILES IDX 76 14 6 15 1 16 2 17 3 18 81 19 4 20 80 21 5 23 79 24 78 25
REMARK SMILES IDX 18 26 19 27 20 28 21 30 22 31 23 32 75 33 24 34 74 35 25 36
REMARK SMILES IDX 26 37 27 38 68 39 28 40 73 41 67 42 69 43 29 44 72 45 66 46
REMARK SMILES IDX 65 47 30 49 56 50 39 51 55 52 40 53 43 54 54 55 70 56 41 57
REMARK SMILES IDX 42 58 53 60 71 61 44 62 31 63 32 64 37 65 33 66 34 67 36 68
REMARK SMILES IDX 38 69 35 70 57 71 58 72 63 73 59 74 60 75 62 76 64 77 61 78
REMARK SMILES IDX 45 79 46 80 51 81 47 82 48 83 50 84 52 85 49 86
REMARK H PARENT 15 6 81 22 19 29 69 48 43 59
REMARK Flexibility Score: inf
ROOT
ATOM      1  C   UNL A   1      37.916  19.300  25.037  1.00  0.00     0.042 C 
ENDROOT
BRANCH   1   2
ATOM      2  C   UNL A   1      36.920  20.328  24.502  1.00  0.00     0.117 C 
BRANCH   2   3
ATOM      3  N   UNL A   1      35.926  20.707  25.488  1.00  0.00    -0.356 N 
ATOM      4  C   UNL A   1      35.466  21.918  25.906  1.00  0.00     0.227 C 
ATOM      5  O   UNL A   1      34.636  21.894  26.824  1.00  0.00    -0.274 OA
ATOM      6  H   UNL A   1      35.504  19.942  25.941  1.00  0.00     0.163 HD
BRANCH   4   7
ATOM      7  C   UNL A   1      35.910  23.264  25.314  1.00  0.00     0.105 C 
ATOM      8  C   UNL A   1      37.032  23.956  26.088  1.00  0.00     0.023 C 
BRANCH   7   9
ATOM      9  C   UNL A   1      34.747  24.152  24.903  1.00  0.00    -0.036 A 
ATOM     10  C   UNL A   1      32.459  25.679  24.126  1.00  0.00    -0.018 A 
ATOM     11  C   UNL A   1      33.058  25.829  25.387  1.00  0.00     0.009 A 
ATOM     12  C   UNL A   1      33.051  24.757  23.249  1.00  0.00     0.009 A 
ATOM     13  C   UNL A   1      34.197  25.109  25.755  1.00  0.00     0.005 A 
ATOM     14  C   UNL A   1      34.163  23.994  23.637  1.00  0.00     0.005 A 
BRANCH  10  15
ATOM     15  C   UNL A   1      31.261  26.470  23.765  1.00  0.00    -0.018 A 
ATOM     16  C   UNL A   1      28.027  31.097  21.365  1.00  0.00     0.064 C 
ATOM     17  C   UNL A   1      28.757  29.973  21.996  1.00  0.00     0.013 A 
ATOM     18  C   UNL A   1      30.102  29.672  22.000  1.00  0.00     0.031 A 
ATOM     19  N   UNL A   1      28.117  28.983  22.704  1.00  0.00    -0.359 N 
ATOM     20  C   UNL A   1      30.275  28.451  22.703  1.00  0.00     0.000 A 
ATOM     21  C   UNL A   1      29.021  28.040  23.139  1.00  0.00     0.046 A 
ATOM     22  H   UNL A   1      27.147  28.953  22.874  1.00  0.00     0.166 HD
ATOM     23  C   UNL A   1      31.393  27.652  23.006  1.00  0.00     0.019 A 
ATOM     24  C   UNL A   1      28.833  26.867  23.875  1.00  0.00     0.027 A 
ATOM     25  C   UNL A   1      29.970  26.100  24.180  1.00  0.00     0.011 A 
ENDBRANCH  10  15
ENDBRANCH   7   9
ENDBRANCH   4   7
ENDBRANCH   2   3
ENDBRANCH   1   2
BRANCH   1  26
ATOM     26  C   UNL A   1      39.123  19.907  25.742  1.00  0.00     0.118 C 
BRANCH  26  27
ATOM     27  N   UNL A   1      40.230  18.966  25.860  1.00  0.00    -0.352 N 
ATOM     28  C   UNL A   1      41.574  19.172  26.053  1.00  0.00     0.251 C 
ATOM     29  H   UNL A   1      39.968  18.019  25.790  1.00  0.00     0.163 HD
ATOM     30  O   UNL A   1      42.345  18.225  25.914  1.00  0.00    -0.269 OA
BRANCH  28  31
ATOM     31  C   UNL A   1      42.117  20.504  26.409  1.00  0.00     0.039 A 
ATOM     32  C   UNL A   1      42.543  21.348  25.376  1.00  0.00     0.014 A 
ATOM     33  C   UNL A   1      42.277  20.909  27.736  1.00  0.00     0.014 A 
ATOM     34  C   UNL A   1      43.067  22.611  25.670  1.00  0.00     0.010 A 
ATOM     35  C   UNL A   1      42.732  22.196  28.026  1.00  0.00     0.010 A 
ATOM     36  C   UNL A   1      43.132  23.061  26.997  1.00  0.00    -0.014 A 
BRANCH  36  37
ATOM     37  C   UNL A   1      43.600  24.434  27.322  1.00  0.00     0.031 A 
ATOM     38  C   UNL A   1      42.626  25.494  27.759  1.00  0.00     0.074 A 
ATOM     39  C   UNL A   1      44.900  24.748  27.161  1.00  0.00     0.049 A 
ATOM     40  N   UNL A   1      42.841  26.763  28.003  1.00  0.00    -0.248 NA
ATOM     41  C   UNL A   1      41.225  25.080  27.923  1.00  0.00     0.031 C 
ATOM     42  C   UNL A   1      45.942  23.827  26.700  1.00  0.00     0.029 A 
ATOM     43  N   UNL A   1      45.566  25.933  27.353  1.00  0.00    -0.354 N 
ATOM     44  C   UNL A   1      41.602  27.301  28.330  1.00  0.00     0.074 A 
ATOM     45  C   UNL A   1      40.634  26.230  28.216  1.00  0.00     0.031 C 
ATOM     46  C   UNL A   1      47.115  24.478  26.660  1.00  0.00     0.029 A 
ATOM     47  C   UNL A   1      46.904  25.868  27.052  1.00  0.00     0.049 A 
ATOM     48  H   UNL A   1      45.125  26.752  27.675  1.00  0.00     0.167 HD
ATOM     49  C   UNL A   1      41.300  28.566  28.709  1.00  0.00     0.037 A 
ATOM     50  C   UNL A   1      47.854  26.821  27.075  1.00  0.00     0.037 A 
ATOM     51  C   UNL A   1      42.265  29.625  28.853  1.00  0.00     0.049 A 
ATOM     52  C   UNL A   1      47.493  28.218  27.492  1.00  0.00     0.074 A 
ATOM     53  C   UNL A   1      42.062  30.919  29.303  1.00  0.00     0.029 A 
ATOM     54  N   UNL A   1      43.612  29.514  28.552  1.00  0.00    -0.354 N 
ATOM     55  N   UNL A   1      46.329  28.695  27.857  1.00  0.00    -0.248 NA
ATOM     56  C   UNL A   1      48.579  29.209  27.499  1.00  0.00     0.031 C 
ATOM     57  C   UNL A   1      43.281  31.603  29.236  1.00  0.00     0.029 A 
ATOM     58  C   UNL A   1      44.250  30.723  28.782  1.00  0.00     0.049 A 
ATOM     59  H   UNL A   1      44.052  28.698  28.221  1.00  0.00     0.167 HD
ATOM     60  C   UNL A   1      46.544  30.033  28.157  1.00  0.00     0.074 A 
ATOM     61  C   UNL A   1      47.954  30.290  27.945  1.00  0.00     0.031 C 
ATOM     62  C   UNL A   1      45.653  30.965  28.569  1.00  0.00     0.037 A 
BRANCH  49  63
ATOM     63  C   UNL A   1      39.863  28.878  29.003  1.00  0.00     0.057 A 
ATOM     64  C   UNL A   1      38.979  29.295  28.000  1.00  0.00     0.134 A 
ATOM     65  C   UNL A   1      39.345  28.711  30.293  1.00  0.00     0.134 A 
ATOM     66  F   UNL A   1      39.416  29.484  26.746  1.00  0.00    -0.206 F 
ATOM     67  C   UNL A   1      37.635  29.554  28.272  1.00  0.00     0.040 A 
ATOM     68  C   UNL A   1      37.996  28.943  30.574  1.00  0.00     0.040 A 
ATOM     69  F   UNL A   1      40.135  28.307  31.299  1.00  0.00    -0.206 F 
ATOM     70  C   UNL A   1      37.139  29.371  29.562  1.00  0.00     0.006 A 
ENDBRANCH  49  63
BRANCH  50  71
ATOM     71  C   UNL A   1      49.246  26.485  26.690  1.00  0.00     0.057 A 
ATOM     72  C   UNL A   1      49.697  26.659  25.377  1.00  0.00     0.134 A 
ATOM     73  C   UNL A   1      50.156  25.977  27.624  1.00  0.00     0.134 A 
ATOM     74  F   UNL A   1      48.864  27.121  24.433  1.00  0.00    -0.206 F 
ATOM     75  C   UNL A   1      51.000  26.329  25.002  1.00  0.00     0.040 A 
ATOM     76  C   UNL A   1      51.468  25.670  27.269  1.00  0.00     0.040 A 
ATOM     77  F   UNL A   1      49.783  25.784  28.898  1.00  0.00    -0.206 F 
ATOM     78  C   UNL A   1      51.892  25.838  25.953  1.00  0.00     0.006 A 
ENDBRANCH  50  71
BRANCH  62  79
ATOM     79  C   UNL A   1      46.181  32.342  28.843  1.00  0.00     0.057 A 
ATOM     80  C   UNL A   1      46.675  32.704  30.102  1.00  0.00     0.134 A 
ATOM     81  C   UNL A   1      46.221  33.306  27.828  1.00  0.00     0.134 A 
ATOM     82  F   UNL A   1      46.649  31.829  31.120  1.00  0.00    -0.206 F 
ATOM     83  C   UNL A   1      47.174  33.984  30.348  1.00  0.00     0.040 A 
ATOM     84  C   UNL A   1      46.737  34.583  28.056  1.00  0.00     0.040 A 
ATOM     85  F   UNL A   1      45.768  33.021  26.599  1.00  0.00    -0.206 F 
ATOM     86  C   UNL A   1      47.211  34.926  29.321  1.00  0.00     0.006 A 
ENDBRANCH  62  79
ENDBRANCH  36  37
ENDBRANCH  28  31
ENDBRANCH  26  27
ENDBRANCH   1  26
TORSDOF 12
ENDMDL
