MODEL 1
REMARK VINA RESULT:     -12.3      0.000      0.000
REMARK SMILES COc1cc2c(cc1OC)C1=C(C#N)C[N@@H+](CC(=O)NCCCNC(=O)c3ccc(-c4c5nc(c(-c6c(F)cccc6F)c6ccc([nH]6)c(-c6c(F)cccc6F)c6nc(c(-c7c(F)cccc7F)c7ccc4[nH]7)C=C6)C=C5)cc3)CN1CC2
REMARK SMILES IDX 22 1 21 2 20 3 18 4 19 5 17 7 16 8 3 9 4 10 8 11 5 12 7 13
REMARK SMILES IDX 6 14 84 15 11 16 83 17 12 18 82 19 15 20 81 21 2 23 1 24
REMARK SMILES IDX 9 25 10 26 13 27 14 28 23 29 24 30 25 31 26 33 27 34 28 35
REMARK SMILES IDX 80 36 29 37 79 38 30 39 31 40 32 41 73 42 33 43 78 44 72 45
REMARK SMILES IDX 74 46 34 47 77 48 71 49 70 50 35 52 61 53 44 54 60 55 45 56
REMARK SMILES IDX 48 57 59 58 75 59 46 60 47 61 58 63 76 64 49 65 36 66 37 67
REMARK SMILES IDX 42 68 38 69 39 70 41 71 43 72 40 73 62 74 63 75 68 76 64 77
REMARK SMILES IDX 65 78 67 79 69 80 66 81 50 82 51 83 56 84 52 85 53 86 55 87
REMARK SMILES IDX 57 88 54 89
REMARK H PARENT 20 6 16 22 24 32 74 51 48 62
REMARK Flexibility Score: inf
ROOT
ATOM      1  C   UNL A   1      38.199  19.531  24.973  1.00  0.00     0.042 C 
ENDROOT
BRANCH   1   2
ATOM      2  C   UNL A   1      37.103  20.571  24.802  1.00  0.00     0.118 C 
BRANCH   2   3
ATOM      3  N   UNL A   1      35.798  19.960  24.979  1.00  0.00    -0.351 N 
ATOM      4  C   UNL A   1      34.555  20.524  24.947  1.00  0.00     0.275 C 
ATOM      5  O   UNL A   1      33.606  19.831  25.326  1.00  0.00    -0.269 OA
ATOM      6  H   UNL A   1      35.811  18.991  25.147  1.00  0.00     0.163 HD
BRANCH   4   7
ATOM      7  C   UNL A   1      34.337  21.921  24.359  1.00  0.00     0.365 C 
BRANCH   7   8
ATOM      8  N   UNL A   1      32.997  22.234  23.848  1.00  0.00    -0.306 N 
ATOM      9  C   UNL A   1      31.312  29.269  24.661  1.00  0.00     0.161 A 
ATOM     10  C   UNL A   1      31.517  28.338  25.667  1.00  0.00     0.055 A 
ATOM     11  C   UNL A   1      31.407  28.864  23.328  1.00  0.00     0.161 A 
ATOM     12  C   UNL A   1      31.774  26.991  25.353  1.00  0.00    -0.033 A 
ATOM     13  C   UNL A   1      31.731  27.520  23.020  1.00  0.00     0.061 A 
ATOM     14  C   UNL A   1      31.894  26.536  24.012  1.00  0.00     0.006 A 
ATOM     15  C   UNL A   1      31.861  26.019  26.503  1.00  0.00     0.058 C 
ATOM     16  C   UNL A   1      32.125  25.046  23.764  1.00  0.00     0.068 C 
ATOM     17  C   UNL A   1      31.223  24.712  26.078  1.00  0.00     0.127 C 
ATOM     18  C   UNL A   1      32.539  24.443  22.617  1.00  0.00     0.108 C 
ATOM     19  N   UNL A   1      31.917  24.221  24.891  1.00  0.00    -0.323 N 
ATOM     20  C   UNL A   1      32.909  22.965  22.590  1.00  0.00     0.314 C 
ATOM     21  C   UNL A   1      32.068  22.776  24.819  1.00  0.00     0.390 C 
ATOM     22  H   UNL A   1      32.694  21.286  23.626  1.00  0.00     0.350 HD
BRANCH   9  23
ATOM     23  O   UNL A   1      30.843  30.507  25.002  1.00  0.00    -0.493 OA
ATOM     24  C   UNL A   1      31.477  31.081  26.139  1.00  0.00     0.278 C 
ENDBRANCH   9  23
BRANCH  11  25
ATOM     25  O   UNL A   1      31.203  29.648  22.221  1.00  0.00    -0.493 OA
ATOM     26  C   UNL A   1      29.849  29.895  21.853  1.00  0.00     0.278 C 
ENDBRANCH  11  25
BRANCH  18  27
ATOM     27  C   UNL A   1      32.755  25.106  21.371  1.00  0.00     0.103 C 
ATOM     28  N   UNL A   1      32.887  25.580  20.322  1.00  0.00    -0.192 NA
ENDBRANCH  18  27
ENDBRANCH   7   8
ENDBRANCH   4   7
ENDBRANCH   2   3
ENDBRANCH   1   2
BRANCH   1  29
ATOM     29  C   UNL A   1      39.249  19.858  26.021  1.00  0.00     0.118 C 
BRANCH  29  30
ATOM     30  N   UNL A   1      40.383  18.955  25.951  1.00  0.00    -0.352 N 
ATOM     31  C   UNL A   1      41.733  19.210  26.028  1.00  0.00     0.251 C 
ATOM     32  H   UNL A   1      40.149  18.006  25.827  1.00  0.00     0.163 HD
ATOM     33  O   UNL A   1      42.521  18.334  25.682  1.00  0.00    -0.269 OA
BRANCH  31  34
ATOM     34  C   UNL A   1      42.254  20.515  26.508  1.00  0.00     0.039 A 
ATOM     35  C   UNL A   1      42.260  20.852  27.860  1.00  0.00     0.014 A 
ATOM     36  C   UNL A   1      42.809  21.408  25.582  1.00  0.00     0.014 A 
ATOM     37  C   UNL A   1      42.651  22.128  28.260  1.00  0.00     0.010 A 
ATOM     38  C   UNL A   1      43.306  22.651  26.002  1.00  0.00     0.010 A 
ATOM     39  C   UNL A   1      43.192  23.045  27.343  1.00  0.00    -0.014 A 
BRANCH  39  40
ATOM     40  C   UNL A   1      43.559  24.418  27.805  1.00  0.00     0.031 A 
ATOM     41  C   UNL A   1      45.002  24.866  27.773  1.00  0.00     0.074 A 
ATOM     42  C   UNL A   1      42.592  25.326  28.063  1.00  0.00     0.049 A 
ATOM     43  N   UNL A   1      45.514  26.036  28.082  1.00  0.00    -0.248 NA
ATOM     44  C   UNL A   1      45.992  23.898  27.275  1.00  0.00     0.031 C 
ATOM     45  C   UNL A   1      41.151  25.057  28.028  1.00  0.00     0.029 A 
ATOM     46  N   UNL A   1      42.664  26.672  28.337  1.00  0.00    -0.354 N 
ATOM     47  C   UNL A   1      46.859  25.966  27.732  1.00  0.00     0.074 A 
ATOM     48  C   UNL A   1      47.112  24.605  27.312  1.00  0.00     0.031 C 
ATOM     49  C   UNL A   1      40.482  26.206  28.203  1.00  0.00     0.029 A 
ATOM     50  C   UNL A   1      41.436  27.282  28.454  1.00  0.00     0.049 A 
ATOM     51  H   UNL A   1      43.516  27.155  28.441  1.00  0.00     0.167 HD
ATOM     52  C   UNL A   1      47.781  26.959  27.679  1.00  0.00     0.037 A 
ATOM     53  C   UNL A   1      41.102  28.552  28.759  1.00  0.00     0.037 A 
ATOM     54  C   UNL A   1      47.531  28.337  28.015  1.00  0.00     0.049 A 
ATOM     55  C   UNL A   1      42.192  29.568  28.965  1.00  0.00     0.074 A 
ATOM     56  C   UNL A   1      48.435  29.386  28.069  1.00  0.00     0.029 A 
ATOM     57  N   UNL A   1      46.291  28.867  28.335  1.00  0.00    -0.354 N 
ATOM     58  N   UNL A   1      43.478  29.455  28.741  1.00  0.00    -0.248 NA
ATOM     59  C   UNL A   1      41.786  30.886  29.474  1.00  0.00     0.031 C 
ATOM     60  C   UNL A   1      47.755  30.533  28.487  1.00  0.00     0.029 A 
ATOM     61  C   UNL A   1      46.415  30.218  28.628  1.00  0.00     0.049 A 
ATOM     62  H   UNL A   1      45.448  28.360  28.352  1.00  0.00     0.167 HD
ATOM     63  C   UNL A   1      44.028  30.691  29.057  1.00  0.00     0.074 A 
ATOM     64  C   UNL A   1      42.934  31.548  29.461  1.00  0.00     0.031 C 
ATOM     65  C   UNL A   1      45.326  31.077  29.019  1.00  0.00     0.037 A 
BRANCH  52  66
ATOM     66  C   UNL A   1      49.174  26.580  27.263  1.00  0.00     0.057 A 
ATOM     67  C   UNL A   1      49.558  26.694  25.922  1.00  0.00     0.134 A 
ATOM     68  C   UNL A   1      50.122  26.086  28.168  1.00  0.00     0.134 A 
ATOM     69  F   UNL A   1      48.689  27.138  25.001  1.00  0.00    -0.206 F 
ATOM     70  C   UNL A   1      50.836  26.336  25.494  1.00  0.00     0.040 A 
ATOM     71  C   UNL A   1      51.415  25.754  27.757  1.00  0.00     0.040 A 
ATOM     72  F   UNL A   1      49.817  25.949  29.467  1.00  0.00    -0.206 F 
ATOM     73  C   UNL A   1      51.774  25.877  26.416  1.00  0.00     0.006 A 
ENDBRANCH  52  66
BRANCH  53  74
ATOM     74  C   UNL A   1      39.677  28.931  28.978  1.00  0.00     0.057 A 
ATOM     75  C   UNL A   1      38.879  29.356  27.906  1.00  0.00     0.134 A 
ATOM     76  C   UNL A   1      39.052  28.794  30.223  1.00  0.00     0.134 A 
ATOM     77  F   UNL A   1      39.408  29.503  26.683  1.00  0.00    -0.206 F 
ATOM     78  C   UNL A   1      37.521  29.634  28.063  1.00  0.00     0.040 A 
ATOM     79  C   UNL A   1      37.684  29.029  30.385  1.00  0.00     0.040 A 
ATOM     80  F   UNL A   1      39.749  28.368  31.287  1.00  0.00    -0.206 F 
ATOM     81  C   UNL A   1      36.915  29.452  29.302  1.00  0.00     0.006 A 
ENDBRANCH  53  74
BRANCH  65  82
ATOM     82  C   UNL A   1      45.639  32.500  29.389  1.00  0.00     0.057 A 
ATOM     83  C   UNL A   1      45.649  33.508  28.414  1.00  0.00     0.134 A 
ATOM     84  C   UNL A   1      45.965  32.872  30.699  1.00  0.00     0.134 A 
ATOM     85  F   UNL A   1      45.355  33.225  27.136  1.00  0.00    -0.206 F 
ATOM     86  C   UNL A   1      45.977  34.829  28.728  1.00  0.00     0.040 A 
ATOM     87  C   UNL A   1      46.263  34.195  31.032  1.00  0.00     0.040 A 
ATOM     88  F   UNL A   1      45.961  31.961  31.685  1.00  0.00    -0.206 F 
ATOM     89  C   UNL A   1      46.278  35.176  30.043  1.00  0.00     0.006 A 
ENDBRANCH  65  82
ENDBRANCH  39  40
ENDBRANCH  31  34
ENDBRANCH  29  30
ENDBRANCH   1  29
TORSDOF 14
ENDMDL
MODEL 2
REMARK VINA RESULT:     -11.9      1.400      2.117
REMARK SMILES COc1cc2c(cc1OC)C1=C(C#N)C[N@@H+](CC(=O)NCCCNC(=O)c3ccc(-c4c5nc(c(-c6c(F)cccc6F)c6ccc([nH]6)c(-c6c(F)cccc6F)c6nc(c(-c7c(F)cccc7F)c7ccc4[nH]7)C=C6)C=C5)cc3)CN1CC2
REMARK SMILES IDX 22 1 21 2 20 3 18 4 19 5 17 7 16 8 3 9 4 10 8 11 5 12 7 13
REMARK SMILES IDX 6 14 84 15 11 16 83 17 12 18 82 19 15 20 81 21 2 23 1 24
REMARK SMILES IDX 9 25 10 26 13 27 14 28 23 29 24 30 25 31 26 33 27 34 28 35
REMARK SMILES IDX 80 36 29 37 79 38 30 39 31 40 32 41 73 42 33 43 78 44 72 45
REMARK SMILES IDX 74 46 34 47 77 48 71 49 70 50 35 52 61 53 44 54 60 55 45 56
REMARK SMILES IDX 48 57 59 58 75 59 46 60 47 61 58 63 76 64 49 65 36 66 37 67
REMARK SMILES IDX 42 68 38 69 39 70 41 71 43 72 40 73 62 74 63 75 68 76 64 77
REMARK SMILES IDX 65 78 67 79 69 80 66 81 50 82 51 83 56 84 52 85 53 86 55 87
REMARK SMILES IDX 57 88 54 89
REMARK H PARENT 20 6 16 22 24 32 74 51 48 62
REMARK Flexibility Score: inf
ROOT
ATOM      1  C   UNL A   1      37.364  19.932  24.877  1.00  0.00     0.042 C 
ENDROOT
BRANCH   1   2
ATOM      2  C   UNL A   1      36.185  20.877  24.713  1.00  0.00     0.118 C 
BRANCH   2   3
ATOM      3  N   UNL A   1      35.557  21.125  25.998  1.00  0.00    -0.351 N 
ATOM      4  C   UNL A   1      34.670  22.095  26.367  1.00  0.00     0.275 C 
ATOM      5  O   UNL A   1      34.432  22.219  27.573  1.00  0.00    -0.269 OA
ATOM      6  H   UNL A   1      35.807  20.497  26.712  1.00  0.00     0.163 HD
BRANCH   4   7
ATOM      7  C   UNL A   1      33.918  22.919  25.318  1.00  0.00     0.365 C 
BRANCH   7   8
ATOM      8  N   UNL A   1      34.581  24.125  24.808  1.00  0.00    -0.306 N 
ATOM      9  C   UNL A   1      29.824  29.342  23.036  1.00  0.00     0.161 A 
ATOM     10  C   UNL A   1      29.974  28.107  22.426  1.00  0.00     0.055 A 
ATOM     11  C   UNL A   1      30.664  29.684  24.098  1.00  0.00     0.161 A 
ATOM     12  C   UNL A   1      30.987  27.223  22.839  1.00  0.00    -0.033 A 
ATOM     13  C   UNL A   1      31.638  28.763  24.552  1.00  0.00     0.061 A 
ATOM     14  C   UNL A   1      31.855  27.522  23.925  1.00  0.00     0.006 A 
ATOM     15  C   UNL A   1      31.164  25.954  22.044  1.00  0.00     0.058 C 
ATOM     16  C   UNL A   1      32.959  26.524  24.273  1.00  0.00     0.068 C 
ATOM     17  C   UNL A   1      32.644  25.649  21.947  1.00  0.00     0.127 C 
ATOM     18  C   UNL A   1      33.704  26.465  25.410  1.00  0.00     0.108 C 
ATOM     19  N   UNL A   1      33.184  25.529  23.298  1.00  0.00    -0.323 N 
ATOM     20  C   UNL A   1      34.633  25.287  25.686  1.00  0.00     0.314 C 
ATOM     21  C   UNL A   1      34.217  24.517  23.462  1.00  0.00     0.390 C 
ATOM     22  H   UNL A   1      35.538  23.772  24.779  1.00  0.00     0.350 HD
BRANCH   9  23
ATOM     23  O   UNL A   1      28.986  30.257  22.462  1.00  0.00    -0.493 OA
ATOM     24  C   UNL A   1      27.665  30.253  22.988  1.00  0.00     0.278 C 
ENDBRANCH   9  23
BRANCH  11  25
ATOM     25  O   UNL A   1      30.667  30.871  24.786  1.00  0.00    -0.493 OA
ATOM     26  C   UNL A   1      31.397  30.900  26.009  1.00  0.00     0.278 C 
ENDBRANCH  11  25
BRANCH  18  27
ATOM     27  C   UNL A   1      33.648  27.407  26.481  1.00  0.00     0.103 C 
ATOM     28  N   UNL A   1      33.685  28.190  27.335  1.00  0.00    -0.192 NA
ENDBRANCH  18  27
ENDBRANCH   7   8
ENDBRANCH   4   7
ENDBRANCH   2   3
ENDBRANCH   1   2
BRANCH   1  29
ATOM     29  C   UNL A   1      38.518  20.467  25.707  1.00  0.00     0.118 C 
BRANCH  29  30
ATOM     30  N   UNL A   1      39.567  19.480  25.876  1.00  0.00    -0.352 N 
ATOM     31  C   UNL A   1      40.913  19.639  26.112  1.00  0.00     0.251 C 
ATOM     32  H   UNL A   1      39.268  18.543  25.812  1.00  0.00     0.163 HD
ATOM     33  O   UNL A   1      41.658  18.674  25.959  1.00  0.00    -0.269 OA
BRANCH  31  34
ATOM     34  C   UNL A   1      41.483  20.944  26.533  1.00  0.00     0.039 A 
ATOM     35  C   UNL A   1      41.772  21.223  27.868  1.00  0.00     0.014 A 
ATOM     36  C   UNL A   1      41.792  21.899  25.556  1.00  0.00     0.014 A 
ATOM     37  C   UNL A   1      42.198  22.497  28.238  1.00  0.00     0.010 A 
ATOM     38  C   UNL A   1      42.326  23.144  25.921  1.00  0.00     0.010 A 
ATOM     39  C   UNL A   1      42.494  23.475  27.273  1.00  0.00    -0.014 A 
BRANCH  39  40
ATOM     40  C   UNL A   1      42.906  24.842  27.714  1.00  0.00     0.031 A 
ATOM     41  C   UNL A   1      44.304  25.341  27.423  1.00  0.00     0.074 A 
ATOM     42  C   UNL A   1      41.984  25.705  28.194  1.00  0.00     0.049 A 
ATOM     43  N   UNL A   1      44.833  26.516  27.677  1.00  0.00    -0.248 NA
ATOM     44  C   UNL A   1      45.203  24.428  26.701  1.00  0.00     0.031 C 
ATOM     45  C   UNL A   1      40.572  25.387  28.427  1.00  0.00     0.029 A 
ATOM     46  N   UNL A   1      42.072  27.042  28.507  1.00  0.00    -0.354 N 
ATOM     47  C   UNL A   1      46.086  26.506  27.071  1.00  0.00     0.074 A 
ATOM     48  C   UNL A   1      46.290  25.172  26.551  1.00  0.00     0.031 C 
ATOM     49  C   UNL A   1      39.919  26.505  28.778  1.00  0.00     0.029 A 
ATOM     50  C   UNL A   1      40.874  27.603  28.885  1.00  0.00     0.049 A 
ATOM     51  H   UNL A   1      42.914  27.551  28.464  1.00  0.00     0.167 HD
ATOM     52  C   UNL A   1      46.952  27.533  26.884  1.00  0.00     0.037 A 
ATOM     53  C   UNL A   1      40.571  28.849  29.303  1.00  0.00     0.037 A 
ATOM     54  C   UNL A   1      46.736  28.888  27.321  1.00  0.00     0.049 A 
ATOM     55  C   UNL A   1      41.652  29.894  29.338  1.00  0.00     0.074 A 
ATOM     56  C   UNL A   1      47.604  29.965  27.244  1.00  0.00     0.029 A 
ATOM     57  N   UNL A   1      45.568  29.361  27.897  1.00  0.00    -0.354 N 
ATOM     58  N   UNL A   1      42.872  29.835  28.865  1.00  0.00    -0.248 NA
ATOM     59  C   UNL A   1      41.318  31.177  29.973  1.00  0.00     0.031 C 
ATOM     60  C   UNL A   1      46.988  31.071  27.835  1.00  0.00     0.029 A 
ATOM     61  C   UNL A   1      45.710  30.704  28.218  1.00  0.00     0.049 A 
ATOM     62  H   UNL A   1      44.759  28.825  28.055  1.00  0.00     0.167 HD
ATOM     63  C   UNL A   1      43.440  31.077  29.122  1.00  0.00     0.074 A 
ATOM     64  C   UNL A   1      42.423  31.879  29.766  1.00  0.00     0.031 C 
ATOM     65  C   UNL A   1      44.695  31.509  28.850  1.00  0.00     0.037 A 
BRANCH  52  66
ATOM     66  C   UNL A   1      48.247  27.218  26.190  1.00  0.00     0.057 A 
ATOM     67  C   UNL A   1      48.341  27.337  24.798  1.00  0.00     0.134 A 
ATOM     68  C   UNL A   1      49.385  26.780  26.880  1.00  0.00     0.134 A 
ATOM     69  F   UNL A   1      47.281  27.729  24.076  1.00  0.00    -0.206 F 
ATOM     70  C   UNL A   1      49.521  27.039  24.116  1.00  0.00     0.040 A 
ATOM     71  C   UNL A   1      50.581  26.508  26.212  1.00  0.00     0.040 A 
ATOM     72  F   UNL A   1      49.361  26.641  28.214  1.00  0.00    -0.206 F 
ATOM     73  C   UNL A   1      50.650  26.635  24.826  1.00  0.00     0.006 A 
ENDBRANCH  52  66
BRANCH  53  74
ATOM     74  C   UNL A   1      39.207  29.169  29.810  1.00  0.00     0.057 A 
ATOM     75  C   UNL A   1      38.214  29.641  28.939  1.00  0.00     0.134 A 
ATOM     76  C   UNL A   1      38.829  28.931  31.137  1.00  0.00     0.134 A 
ATOM     77  F   UNL A   1      38.501  29.884  27.652  1.00  0.00    -0.206 F 
ATOM     78  C   UNL A   1      36.905  29.866  29.365  1.00  0.00     0.040 A 
ATOM     79  C   UNL A   1      37.512  29.114  31.567  1.00  0.00     0.040 A 
ATOM     80  F   UNL A   1      39.720  28.457  32.020  1.00  0.00    -0.206 F 
ATOM     81  C   UNL A   1      36.546  29.584  30.679  1.00  0.00     0.006 A 
ENDBRANCH  53  74
BRANCH  65  82
ATOM     82  C   UNL A   1      45.035  32.928  29.213  1.00  0.00     0.057 A 
ATOM     83  C   UNL A   1      44.772  33.978  28.322  1.00  0.00     0.134 A 
ATOM     84  C   UNL A   1      45.653  33.255  30.426  1.00  0.00     0.134 A 
ATOM     85  F   UNL A   1      44.189  33.740  27.137  1.00  0.00    -0.206 F 
ATOM     86  C   UNL A   1      45.118  35.298  28.622  1.00  0.00     0.040 A 
ATOM     87  C   UNL A   1      45.974  34.575  30.752  1.00  0.00     0.040 A 
ATOM     88  F   UNL A   1      45.920  32.302  31.332  1.00  0.00    -0.206 F 
ATOM     89  C   UNL A   1      45.714  35.599  29.845  1.00  0.00     0.006 A 
ENDBRANCH  65  82
ENDBRANCH  39  40
ENDBRANCH  31  34
ENDBRANCH  29  30
ENDBRANCH   1  29
TORSDOF 14
ENDMDL
MODEL 3
REMARK VINA RESULT:     -11.8      4.701     10.454
REMARK SMILES COc1cc2c(cc1OC)C1=C(C#N)C[N@@H+](CC(=O)NCCCNC(=O)c3ccc(-c4c5nc(c(-c6c(F)cccc6F)c6ccc([nH]6)c(-c6c(F)cccc6F)c6nc(c(-c7c(F)cccc7F)c7ccc4[nH]7)C=C6)C=C5)cc3)CN1CC2
REMARK SMILES IDX 22 1 21 2 20 3 18 4 19 5 17 7 16 8 3 9 4 10 8 11 5 12 7 13
REMARK SMILES IDX 6 14 84 15 11 16 83 17 12 18 82 19 15 20 81 21 2 23 1 24
REMARK SMILES IDX 9 25 10 26 13 27 14 28 23 29 24 30 25 31 26 33 27 34 28 35
REMARK SMILES IDX 80 36 29 37 79 38 30 39 31 40 32 41 73 42 33 43 78 44 72 45
REMARK SMILES IDX 74 46 34 47 77 48 71 49 70 50 35 52 61 53 44 54 60 55 45 56
REMARK SMILES IDX 48 57 59 58 75 59 46 60 47 61 58 63 76 64 49 65 36 66 37 67
REMARK SMILES IDX 42 68 38 69 39 70 41 71 43 72 40 73 62 74 63 75 68 76 64 77
REMARK SMILES IDX 65 78 67 79 69 80 66 81 50 82 51 83 56 84 52 85 53 86 55 87
REMARK SMILES IDX 57 88 54 89
REMARK H PARENT 20 6 16 22 24 32 74 51 48 62
REMARK Flexibility Score: inf
ROOT
ATOM      1  C   UNL A   1      41.544  20.275  26.419  1.00  0.00     0.042 C 
ENDROOT
BRANCH   1   2
ATOM      2  C   UNL A   1      43.027  20.067  26.158  1.00  0.00     0.118 C 
BRANCH   2   3
ATOM      3  N   UNL A   1      43.429  20.767  24.952  1.00  0.00    -0.351 N 
ATOM      4  C   UNL A   1      44.188  21.892  24.803  1.00  0.00     0.275 C 
ATOM      5  O   UNL A   1      44.224  22.410  23.682  1.00  0.00    -0.269 OA
ATOM      6  H   UNL A   1      43.106  20.370  24.112  1.00  0.00     0.163 HD
BRANCH   4   7
ATOM      7  C   UNL A   1      45.047  22.423  25.954  1.00  0.00     0.365 C 
BRANCH   7   8
ATOM      8  N   UNL A   1      44.442  23.428  26.836  1.00  0.00    -0.306 N 
ATOM      9  C   UNL A   1      48.061  29.743  26.705  1.00  0.00     0.161 A 
ATOM     10  C   UNL A   1      48.522  28.527  27.183  1.00  0.00     0.055 A 
ATOM     11  C   UNL A   1      46.761  29.829  26.201  1.00  0.00     0.161 A 
ATOM     12  C   UNL A   1      47.679  27.400  27.203  1.00  0.00    -0.033 A 
ATOM     13  C   UNL A   1      45.941  28.676  26.164  1.00  0.00     0.061 A 
ATOM     14  C   UNL A   1      46.355  27.437  26.687  1.00  0.00     0.006 A 
ATOM     15  C   UNL A   1      48.214  26.148  27.852  1.00  0.00     0.058 C 
ATOM     16  C   UNL A   1      45.494  26.179  26.795  1.00  0.00     0.068 C 
ATOM     17  C   UNL A   1      47.084  25.472  28.599  1.00  0.00     0.127 C 
ATOM     18  C   UNL A   1      44.335  25.900  26.140  1.00  0.00     0.108 C 
ATOM     19  N   UNL A   1      46.010  25.183  27.653  1.00  0.00    -0.323 N 
ATOM     20  C   UNL A   1      43.700  24.516  26.211  1.00  0.00     0.314 C 
ATOM     21  C   UNL A   1      45.300  23.934  27.888  1.00  0.00     0.390 C 
ATOM     22  H   UNL A   1      43.732  22.840  27.274  1.00  0.00     0.350 HD
BRANCH   9  23
ATOM     23  O   UNL A   1      48.825  30.858  26.912  1.00  0.00    -0.493 OA
ATOM     24  C   UNL A   1      48.627  31.478  28.176  1.00  0.00     0.278 C 
ENDBRANCH   9  23
BRANCH  11  25
ATOM     25  O   UNL A   1      46.146  30.957  25.723  1.00  0.00    -0.493 OA
ATOM     26  C   UNL A   1      45.191  31.577  26.579  1.00  0.00     0.278 C 
ENDBRANCH  11  25
BRANCH  18  27
ATOM     27  C   UNL A   1      43.644  26.798  25.271  1.00  0.00     0.103 C 
ATOM     28  N   UNL A   1      43.010  27.503  24.605  1.00  0.00    -0.192 NA
ENDBRANCH  18  27
ENDBRANCH   7   8
ENDBRANCH   4   7
ENDBRANCH   2   3
ENDBRANCH   1   2
BRANCH   1  29
ATOM     29  C   UNL A   1      41.101  21.722  26.546  1.00  0.00     0.118 C 
BRANCH  29  30
ATOM     30  N   UNL A   1      39.788  21.940  25.969  1.00  0.00    -0.352 N 
ATOM     31  C   UNL A   1      38.895  22.971  26.146  1.00  0.00     0.251 C 
ATOM     32  H   UNL A   1      39.487  21.234  25.350  1.00  0.00     0.163 HD
ATOM     33  O   UNL A   1      37.737  22.822  25.765  1.00  0.00    -0.269 OA
BRANCH  31  34
ATOM     34  C   UNL A   1      39.294  24.247  26.793  1.00  0.00     0.039 A 
ATOM     35  C   UNL A   1      39.983  25.239  26.097  1.00  0.00     0.014 A 
ATOM     36  C   UNL A   1      38.916  24.483  28.121  1.00  0.00     0.014 A 
ATOM     37  C   UNL A   1      40.439  26.372  26.768  1.00  0.00     0.010 A 
ATOM     38  C   UNL A   1      39.282  25.676  28.762  1.00  0.00     0.010 A 
ATOM     39  C   UNL A   1      40.088  26.617  28.106  1.00  0.00    -0.014 A 
BRANCH  39  40
ATOM     40  C   UNL A   1      40.634  27.823  28.800  1.00  0.00     0.031 A 
ATOM     41  C   UNL A   1      39.752  29.029  29.029  1.00  0.00     0.074 A 
ATOM     42  C   UNL A   1      41.845  27.768  29.398  1.00  0.00     0.049 A 
ATOM     43  N   UNL A   1      40.026  30.149  29.659  1.00  0.00    -0.248 NA
ATOM     44  C   UNL A   1      38.366  28.945  28.542  1.00  0.00     0.031 C 
ATOM     45  C   UNL A   1      42.760  26.624  29.347  1.00  0.00     0.029 A 
ATOM     46  N   UNL A   1      42.489  28.664  30.222  1.00  0.00    -0.354 N 
ATOM     47  C   UNL A   1      38.828  30.854  29.716  1.00  0.00     0.074 A 
ATOM     48  C   UNL A   1      37.860  30.101  28.948  1.00  0.00     0.031 C 
ATOM     49  C   UNL A   1      43.806  26.859  30.154  1.00  0.00     0.029 A 
ATOM     50  C   UNL A   1      43.689  28.202  30.711  1.00  0.00     0.049 A 
ATOM     51  H   UNL A   1      42.124  29.552  30.441  1.00  0.00     0.167 HD
ATOM     52  C   UNL A   1      38.531  31.978  30.414  1.00  0.00     0.037 A 
ATOM     53  C   UNL A   1      44.614  28.795  31.494  1.00  0.00     0.037 A 
ATOM     54  C   UNL A   1      39.455  32.701  31.249  1.00  0.00     0.049 A 
ATOM     55  C   UNL A   1      44.349  30.177  32.024  1.00  0.00     0.074 A 
ATOM     56  C   UNL A   1      39.253  33.897  31.920  1.00  0.00     0.029 A 
ATOM     57  N   UNL A   1      40.745  32.293  31.547  1.00  0.00    -0.354 N 
ATOM     58  N   UNL A   1      43.247  30.884  31.972  1.00  0.00    -0.248 NA
ATOM     59  C   UNL A   1      45.459  30.850  32.715  1.00  0.00     0.031 C 
ATOM     60  C   UNL A   1      40.442  34.245  32.567  1.00  0.00     0.029 A 
ATOM     61  C   UNL A   1      41.363  33.235  32.357  1.00  0.00     0.049 A 
ATOM     62  H   UNL A   1      41.161  31.460  31.230  1.00  0.00     0.167 HD
ATOM     63  C   UNL A   1      43.524  32.069  32.643  1.00  0.00     0.074 A 
ATOM     64  C   UNL A   1      44.887  31.975  33.118  1.00  0.00     0.031 C 
ATOM     65  C   UNL A   1      42.718  33.140  32.842  1.00  0.00     0.037 A 
BRANCH  52  66
ATOM     66  C   UNL A   1      37.136  32.521  30.278  1.00  0.00     0.057 A 
ATOM     67  C   UNL A   1      36.845  33.458  29.280  1.00  0.00     0.134 A 
ATOM     68  C   UNL A   1      36.095  32.145  31.136  1.00  0.00     0.134 A 
ATOM     69  F   UNL A   1      37.804  33.879  28.441  1.00  0.00    -0.206 F 
ATOM     70  C   UNL A   1      35.566  33.997  29.133  1.00  0.00     0.040 A 
ATOM     71  C   UNL A   1      34.804  32.654  30.980  1.00  0.00     0.040 A 
ATOM     72  F   UNL A   1      36.307  31.254  32.116  1.00  0.00    -0.206 F 
ATOM     73  C   UNL A   1      34.538  33.585  29.977  1.00  0.00     0.006 A 
ENDBRANCH  52  66
BRANCH  53  74
ATOM     74  C   UNL A   1      45.921  28.131  31.761  1.00  0.00     0.057 A 
ATOM     75  C   UNL A   1      47.029  28.377  30.937  1.00  0.00     0.134 A 
ATOM     76  C   UNL A   1      46.129  27.317  32.881  1.00  0.00     0.134 A 
ATOM     77  F   UNL A   1      46.906  29.154  29.850  1.00  0.00    -0.206 F 
ATOM     78  C   UNL A   1      48.287  27.841  31.211  1.00  0.00     0.040 A 
ATOM     79  C   UNL A   1      47.393  26.806  33.190  1.00  0.00     0.040 A 
ATOM     80  F   UNL A   1      45.120  27.058  33.726  1.00  0.00    -0.206 F 
ATOM     81  C   UNL A   1      48.476  27.067  32.352  1.00  0.00     0.006 A 
ENDBRANCH  53  74
BRANCH  65  82
ATOM     82  C   UNL A   1      43.271  34.287  33.640  1.00  0.00     0.057 A 
ATOM     83  C   UNL A   1      43.924  35.353  33.004  1.00  0.00     0.134 A 
ATOM     84  C   UNL A   1      43.193  34.325  35.037  1.00  0.00     0.134 A 
ATOM     85  F   UNL A   1      44.044  35.382  31.668  1.00  0.00    -0.206 F 
ATOM     86  C   UNL A   1      44.481  36.408  33.730  1.00  0.00     0.040 A 
ATOM     87  C   UNL A   1      43.717  35.390  35.772  1.00  0.00     0.040 A 
ATOM     88  F   UNL A   1      42.569  33.345  35.709  1.00  0.00    -0.206 F 
ATOM     89  C   UNL A   1      44.372  36.432  35.118  1.00  0.00     0.006 A 
ENDBRANCH  65  82
ENDBRANCH  39  40
ENDBRANCH  31  34
ENDBRANCH  29  30
ENDBRANCH   1  29
TORSDOF 14
ENDMDL
