MODEL 1
REMARK VINA RESULT:     -11.4      0.000      0.000
REMARK SMILES Cc1cc(C)n(CC(=O)N[C@H]2C=C[C@@H](C(=O)NCCCNC(=O)c3ccc(-c4c5nc(c(-c6c(F)cccc6F)c6ccc([nH]6)c(-c6c(F)cccc6F)c6nc(c(-c7c(F)cccc7F)c7ccc4[nH]7)C=C6)C=C5)cc3)C2)n1
REMARK SMILES IDX 18 1 17 2 15 3 16 4 14 6 11 7 12 8 78 9 13 10 10 11 8 12
REMARK SMILES IDX 9 13 7 15 6 16 1 17 2 18 3 19 79 20 4 21 5 22 19 23 20 24
REMARK SMILES IDX 21 25 22 26 23 28 24 29 25 30 77 31 26 32 76 33 27 34 28 35
REMARK SMILES IDX 29 36 70 37 30 38 75 39 69 40 71 41 31 42 74 43 68 44 67 45
REMARK SMILES IDX 32 47 58 48 41 49 57 50 42 51 45 52 56 53 72 54 43 55 44 56
REMARK SMILES IDX 55 58 73 59 46 60 33 61 34 62 39 63 35 64 36 65 38 66 40 67
REMARK SMILES IDX 37 68 59 69 60 70 65 71 61 72 62 73 64 74 66 75 63 76 47 77
REMARK SMILES IDX 48 78 53 79 49 80 50 81 52 82 54 83 51 84
REMARK H PARENT 17 5 10 14 21 27 71 46 45 57
REMARK Flexibility Score: inf
ROOT
ATOM      1  C   UNL A   1      33.072  34.433  28.712  1.00  0.00     0.117 C 
ENDROOT
BRANCH   1   2
ATOM      2  N   UNL A   1      34.376  33.997  28.232  1.00  0.00    -0.356 N 
ATOM      3  C   UNL A   1      34.842  32.776  27.851  1.00  0.00     0.227 C 
ATOM      4  O   UNL A   1      35.930  32.764  27.264  1.00  0.00    -0.274 OA
ATOM      5  H   UNL A   1      35.042  34.718  28.173  1.00  0.00     0.163 HD
BRANCH   3   6
ATOM      6  C   UNL A   1      34.169  31.449  28.220  1.00  0.00     0.103 C 
ATOM      7  C   UNL A   1      33.081  29.909  26.608  1.00  0.00     0.106 C 
ATOM      8  C   UNL A   1      34.316  29.326  27.239  1.00  0.00    -0.006 C 
ATOM      9  C   UNL A   1      32.925  31.228  27.362  1.00  0.00     0.047 C 
ATOM     10  C   UNL A   1      34.923  30.172  28.081  1.00  0.00    -0.016 C 
BRANCH   7  11
ATOM     11  N   UNL A   1      33.326  29.945  25.173  1.00  0.00    -0.348 N 
ATOM     12  C   UNL A   1      33.213  29.020  24.181  1.00  0.00     0.242 C 
ATOM     13  O   UNL A   1      33.846  29.259  23.143  1.00  0.00    -0.273 OA
ATOM     14  H   UNL A   1      33.641  30.822  24.853  1.00  0.00     0.164 HD
BRANCH  12  15
ATOM     15  C   UNL A   1      32.260  27.847  24.214  1.00  0.00     0.244 C 
BRANCH  15  16
ATOM     16  N   UNL A   1      30.917  28.172  23.800  1.00  0.00    -0.260 N 
ATOM     17  C   UNL A   1      28.624  30.747  23.062  1.00  0.00     0.069 C 
ATOM     18  C   UNL A   1      29.318  29.457  23.281  1.00  0.00     0.060 A 
ATOM     19  C   UNL A   1      28.797  28.146  23.288  1.00  0.00     0.048 A 
ATOM     20  N   UNL A   1      30.631  29.451  23.507  1.00  0.00    -0.178 NA
ATOM     21  C   UNL A   1      29.869  27.323  23.573  1.00  0.00     0.036 A 
ATOM     22  C   UNL A   1      29.984  25.849  23.666  1.00  0.00     0.066 C 
ENDBRANCH  15  16
ENDBRANCH  12  15
ENDBRANCH   7  11
ENDBRANCH   3   6
ENDBRANCH   1   2
BRANCH   1  23
ATOM     23  C   UNL A   1      32.928  35.949  28.824  1.00  0.00     0.042 C 
BRANCH  23  24
ATOM     24  C   UNL A   1      33.447  36.531  30.122  1.00  0.00     0.118 C 
BRANCH  24  25
ATOM     25  N   UNL A   1      32.560  36.304  31.252  1.00  0.00    -0.352 N 
ATOM     26  C   UNL A   1      32.675  35.328  32.227  1.00  0.00     0.251 C 
ATOM     27  H   UNL A   1      31.790  36.913  31.333  1.00  0.00     0.163 HD
ATOM     28  O   UNL A   1      31.718  35.023  32.917  1.00  0.00    -0.269 OA
BRANCH  26  29
ATOM     29  C   UNL A   1      33.973  34.642  32.396  1.00  0.00     0.039 A 
ATOM     30  C   UNL A   1      34.114  33.300  32.034  1.00  0.00     0.014 A 
ATOM     31  C   UNL A   1      35.061  35.355  32.895  1.00  0.00     0.014 A 
ATOM     32  C   UNL A   1      35.375  32.712  32.102  1.00  0.00     0.010 A 
ATOM     33  C   UNL A   1      36.326  34.822  32.820  1.00  0.00     0.010 A 
ATOM     34  C   UNL A   1      36.487  33.488  32.469  1.00  0.00    -0.014 A 
BRANCH  34  35
ATOM     35  C   UNL A   1      37.836  32.936  32.369  1.00  0.00     0.031 A 
ATOM     36  C   UNL A   1      38.599  32.921  33.644  1.00  0.00     0.074 A 
ATOM     37  C   UNL A   1      38.314  32.303  31.276  1.00  0.00     0.049 A 
ATOM     38  N   UNL A   1      39.658  33.603  33.924  1.00  0.00    -0.248 NA
ATOM     39  C   UNL A   1      38.063  32.160  34.784  1.00  0.00     0.031 C 
ATOM     40  C   UNL A   1      37.607  31.976  30.034  1.00  0.00     0.029 A 
ATOM     41  N   UNL A   1      39.525  31.705  31.094  1.00  0.00    -0.354 N 
ATOM     42  C   UNL A   1      40.053  33.201  35.195  1.00  0.00     0.074 A 
ATOM     43  C   UNL A   1      38.946  32.460  35.741  1.00  0.00     0.031 C 
ATOM     44  C   UNL A   1      38.307  31.048  29.347  1.00  0.00     0.029 A 
ATOM     45  C   UNL A   1      39.578  30.830  30.014  1.00  0.00     0.049 A 
ATOM     46  H   UNL A   1      40.299  31.878  31.678  1.00  0.00     0.167 HD
ATOM     47  C   UNL A   1      41.358  33.297  35.578  1.00  0.00     0.037 A 
ATOM     48  C   UNL A   1      40.580  29.970  29.702  1.00  0.00     0.037 A 
ATOM     49  C   UNL A   1      42.091  34.186  34.703  1.00  0.00     0.049 A 
ATOM     50  C   UNL A   1      41.804  30.455  30.387  1.00  0.00     0.074 A 
ATOM     51  C   UNL A   1      41.918  35.490  34.277  1.00  0.00     0.029 A 
ATOM     52  N   UNL A   1      42.985  33.629  33.820  1.00  0.00    -0.354 N 
ATOM     53  N   UNL A   1      42.450  31.531  30.037  1.00  0.00    -0.248 NA
ATOM     54  C   UNL A   1      42.062  29.986  31.741  1.00  0.00     0.031 C 
ATOM     55  C   UNL A   1      42.291  35.477  32.900  1.00  0.00     0.029 A 
ATOM     56  C   UNL A   1      42.745  34.195  32.596  1.00  0.00     0.049 A 
ATOM     57  H   UNL A   1      43.668  32.952  34.029  1.00  0.00     0.167 HD
ATOM     58  C   UNL A   1      42.802  32.126  31.239  1.00  0.00     0.074 A 
ATOM     59  C   UNL A   1      42.645  31.077  32.244  1.00  0.00     0.031 C 
ATOM     60  C   UNL A   1      42.893  33.484  31.351  1.00  0.00     0.037 A 
BRANCH  47  61
ATOM     61  C   UNL A   1      42.067  32.286  36.454  1.00  0.00     0.057 A 
ATOM     62  C   UNL A   1      42.918  32.755  37.475  1.00  0.00     0.134 A 
ATOM     63  C   UNL A   1      42.213  30.920  36.140  1.00  0.00     0.134 A 
ATOM     64  F   UNL A   1      42.872  34.034  37.875  1.00  0.00    -0.206 F 
ATOM     65  C   UNL A   1      43.920  31.959  38.042  1.00  0.00     0.040 A 
ATOM     66  C   UNL A   1      43.176  30.103  36.740  1.00  0.00     0.040 A 
ATOM     67  F   UNL A   1      41.514  30.320  35.172  1.00  0.00    -0.206 F 
ATOM     68  C   UNL A   1      44.062  30.632  37.663  1.00  0.00     0.006 A 
ENDBRANCH  47  61
BRANCH  48  69
ATOM     69  C   UNL A   1      40.531  28.666  29.000  1.00  0.00     0.057 A 
ATOM     70  C   UNL A   1      39.823  27.581  29.542  1.00  0.00     0.134 A 
ATOM     71  C   UNL A   1      40.943  28.520  27.664  1.00  0.00     0.134 A 
ATOM     72  F   UNL A   1      39.355  27.627  30.797  1.00  0.00    -0.206 F 
ATOM     73  C   UNL A   1      39.511  26.440  28.790  1.00  0.00     0.040 A 
ATOM     74  C   UNL A   1      40.650  27.381  26.907  1.00  0.00     0.040 A 
ATOM     75  F   UNL A   1      41.570  29.512  27.016  1.00  0.00    -0.206 F 
ATOM     76  C   UNL A   1      39.914  26.343  27.462  1.00  0.00     0.006 A 
ENDBRANCH  48  69
BRANCH  60  77
ATOM     77  C   UNL A   1      42.897  34.306  30.092  1.00  0.00     0.057 A 
ATOM     78  C   UNL A   1      44.031  34.537  29.297  1.00  0.00     0.134 A 
ATOM     79  C   UNL A   1      41.674  34.769  29.594  1.00  0.00     0.134 A 
ATOM     80  F   UNL A   1      45.230  34.042  29.628  1.00  0.00    -0.206 F 
ATOM     81  C   UNL A   1      43.955  35.245  28.094  1.00  0.00     0.040 A 
ATOM     82  C   UNL A   1      41.579  35.444  28.376  1.00  0.00     0.040 A 
ATOM     83  F   UNL A   1      40.537  34.535  30.270  1.00  0.00    -0.206 F 
ATOM     84  C   UNL A   1      42.725  35.698  27.628  1.00  0.00     0.006 A 
ENDBRANCH  60  77
ENDBRANCH  34  35
ENDBRANCH  26  29
ENDBRANCH  24  25
ENDBRANCH  23  24
ENDBRANCH   1  23
TORSDOF 13
ENDMDL
MODEL 2
REMARK VINA RESULT:     -11.3      4.896      9.834
REMARK SMILES Cc1cc(C)n(CC(=O)N[C@H]2C=C[C@@H](C(=O)NCCCNC(=O)c3ccc(-c4c5nc(c(-c6c(F)cccc6F)c6ccc([nH]6)c(-c6c(F)cccc6F)c6nc(c(-c7c(F)cccc7F)c7ccc4[nH]7)C=C6)C=C5)cc3)C2)n1
REMARK SMILES IDX 18 1 17 2 15 3 16 4 14 6 11 7 12 8 78 9 13 10 10 11 8 12
REMARK SMILES IDX 9 13 7 15 6 16 1 17 2 18 3 19 79 20 4 21 5 22 19 23 20 24
REMARK SMILES IDX 21 25 22 26 23 28 24 29 25 30 77 31 26 32 76 33 27 34 28 35
REMARK SMILES IDX 29 36 70 37 30 38 75 39 69 40 71 41 31 42 74 43 68 44 67 45
REMARK SMILES IDX 32 47 58 48 41 49 57 50 42 51 45 52 56 53 72 54 43 55 44 56
REMARK SMILES IDX 55 58 73 59 46 60 33 61 34 62 39 63 35 64 36 65 38 66 40 67
REMARK SMILES IDX 37 68 59 69 60 70 65 71 61 72 62 73 64 74 66 75 63 76 47 77
REMARK SMILES IDX 48 78 53 79 49 80 50 81 52 82 54 83 51 84
REMARK H PARENT 17 5 10 14 21 27 71 46 45 57
REMARK Flexibility Score: inf
ROOT
ATOM      1  C   UNL A   1      37.645  20.996  25.088  1.00  0.00     0.117 C 
ENDROOT
BRANCH   1   2
ATOM      2  N   UNL A   1      36.253  20.649  25.340  1.00  0.00    -0.356 N 
ATOM      3  C   UNL A   1      35.088  21.266  25.001  1.00  0.00     0.227 C 
ATOM      4  O   UNL A   1      34.054  20.605  25.151  1.00  0.00    -0.274 OA
ATOM      5  H   UNL A   1      36.133  19.816  25.848  1.00  0.00     0.163 HD
BRANCH   3   6
ATOM      6  C   UNL A   1      34.988  22.738  24.581  1.00  0.00     0.103 C 
ATOM      7  C   UNL A   1      32.962  24.149  24.814  1.00  0.00     0.106 C 
ATOM      8  C   UNL A   1      34.096  24.597  25.695  1.00  0.00    -0.006 C 
ATOM      9  C   UNL A   1      33.607  23.031  23.998  1.00  0.00     0.047 C 
ATOM     10  C   UNL A   1      35.177  23.813  25.595  1.00  0.00    -0.016 C 
BRANCH   7  11
ATOM     11  N   UNL A   1      31.853  23.823  25.700  1.00  0.00    -0.348 N 
ATOM     12  C   UNL A   1      30.746  24.504  26.103  1.00  0.00     0.242 C 
ATOM     13  O   UNL A   1      30.203  24.091  27.138  1.00  0.00    -0.273 OA
ATOM     14  H   UNL A   1      31.919  22.921  26.089  1.00  0.00     0.164 HD
BRANCH  12  15
ATOM     15  C   UNL A   1      30.072  25.591  25.297  1.00  0.00     0.244 C 
BRANCH  15  16
ATOM     16  N   UNL A   1      30.754  26.862  25.343  1.00  0.00    -0.260 N 
ATOM     17  C   UNL A   1      32.770  29.034  27.252  1.00  0.00     0.069 C 
ATOM     18  C   UNL A   1      31.956  28.373  26.207  1.00  0.00     0.060 A 
ATOM     19  C   UNL A   1      31.484  28.885  24.978  1.00  0.00     0.048 A 
ATOM     20  N   UNL A   1      31.577  27.107  26.374  1.00  0.00    -0.178 NA
ATOM     21  C   UNL A   1      30.750  27.862  24.410  1.00  0.00     0.036 A 
ATOM     22  C   UNL A   1      30.051  27.754  23.108  1.00  0.00     0.066 C 
ENDBRANCH  15  16
ENDBRANCH  12  15
ENDBRANCH   7  11
ENDBRANCH   3   6
ENDBRANCH   1   2
BRANCH   1  23
ATOM     23  C   UNL A   1      38.577  19.790  25.004  1.00  0.00     0.042 C 
BRANCH  23  24
ATOM     24  C   UNL A   1      39.595  19.709  26.121  1.00  0.00     0.118 C 
BRANCH  24  25
ATOM     25  N   UNL A   1      40.830  19.046  25.731  1.00  0.00    -0.352 N 
ATOM     26  C   UNL A   1      42.097  19.600  25.669  1.00  0.00     0.251 C 
ATOM     27  H   UNL A   1      40.757  18.096  25.482  1.00  0.00     0.163 HD
ATOM     28  O   UNL A   1      42.980  19.064  25.024  1.00  0.00    -0.269 OA
BRANCH  26  29
ATOM     29  C   UNL A   1      42.352  20.872  26.378  1.00  0.00     0.039 A 
ATOM     30  C   UNL A   1      42.581  22.047  25.659  1.00  0.00     0.014 A 
ATOM     31  C   UNL A   1      42.334  20.891  27.771  1.00  0.00     0.014 A 
ATOM     32  C   UNL A   1      42.708  23.249  26.352  1.00  0.00     0.010 A 
ATOM     33  C   UNL A   1      42.310  22.091  28.443  1.00  0.00     0.010 A 
ATOM     34  C   UNL A   1      42.543  23.270  27.746  1.00  0.00    -0.014 A 
BRANCH  34  35
ATOM     35  C   UNL A   1      42.492  24.542  28.463  1.00  0.00     0.031 A 
ATOM     36  C   UNL A   1      41.240  25.317  28.270  1.00  0.00     0.074 A 
ATOM     37  C   UNL A   1      43.399  24.924  29.388  1.00  0.00     0.049 A 
ATOM     38  N   UNL A   1      41.114  26.454  27.672  1.00  0.00    -0.248 NA
ATOM     39  C   UNL A   1      39.960  24.712  28.671  1.00  0.00     0.031 C 
ATOM     40  C   UNL A   1      44.539  24.164  29.911  1.00  0.00     0.029 A 
ATOM     41  N   UNL A   1      43.420  26.052  30.152  1.00  0.00    -0.354 N 
ATOM     42  C   UNL A   1      39.779  26.819  27.809  1.00  0.00     0.074 A 
ATOM     43  C   UNL A   1      39.089  25.639  28.263  1.00  0.00     0.031 C 
ATOM     44  C   UNL A   1      44.979  24.738  31.051  1.00  0.00     0.029 A 
ATOM     45  C   UNL A   1      44.263  25.983  31.256  1.00  0.00     0.049 A 
ATOM     46  H   UNL A   1      42.883  26.850  29.940  1.00  0.00     0.167 HD
ATOM     47  C   UNL A   1      39.412  28.130  27.782  1.00  0.00     0.037 A 
ATOM     48  C   UNL A   1      44.351  26.871  32.279  1.00  0.00     0.037 A 
ATOM     49  C   UNL A   1      40.462  28.951  27.218  1.00  0.00     0.049 A 
ATOM     50  C   UNL A   1      43.784  28.154  31.797  1.00  0.00     0.074 A 
ATOM     51  C   UNL A   1      41.185  28.928  26.039  1.00  0.00     0.029 A 
ATOM     52  N   UNL A   1      41.178  29.759  28.070  1.00  0.00    -0.354 N 
ATOM     53  N   UNL A   1      44.368  28.919  30.918  1.00  0.00    -0.248 NA
ATOM     54  C   UNL A   1      42.354  28.375  31.962  1.00  0.00     0.031 C 
ATOM     55  C   UNL A   1      42.516  29.276  26.420  1.00  0.00     0.029 A 
ATOM     56  C   UNL A   1      42.503  29.569  27.782  1.00  0.00     0.049 A 
ATOM     57  H   UNL A   1      40.807  30.359  28.756  1.00  0.00     0.167 HD
ATOM     58  C   UNL A   1      43.335  29.358  30.104  1.00  0.00     0.074 A 
ATOM     59  C   UNL A   1      42.113  29.092  30.861  1.00  0.00     0.031 C 
ATOM     60  C   UNL A   1      43.545  29.612  28.779  1.00  0.00     0.037 A 
BRANCH  47  61
ATOM     61  C   UNL A   1      38.314  28.727  28.636  1.00  0.00     0.057 A 
ATOM     62  C   UNL A   1      37.472  29.705  28.069  1.00  0.00     0.134 A 
ATOM     63  C   UNL A   1      38.256  28.638  30.042  1.00  0.00     0.134 A 
ATOM     64  F   UNL A   1      37.425  29.887  26.741  1.00  0.00    -0.206 F 
ATOM     65  C   UNL A   1      36.735  30.605  28.848  1.00  0.00     0.040 A 
ATOM     66  C   UNL A   1      37.481  29.497  30.825  1.00  0.00     0.040 A 
ATOM     67  F   UNL A   1      39.016  27.792  30.746  1.00  0.00    -0.206 F 
ATOM     68  C   UNL A   1      36.750  30.513  30.232  1.00  0.00     0.006 A 
ENDBRANCH  47  61
BRANCH  48  69
ATOM     69  C   UNL A   1      44.727  26.656  33.696  1.00  0.00     0.057 A 
ATOM     70  C   UNL A   1      43.855  26.005  34.583  1.00  0.00     0.134 A 
ATOM     71  C   UNL A   1      46.043  26.835  34.156  1.00  0.00     0.134 A 
ATOM     72  F   UNL A   1      42.586  25.754  34.234  1.00  0.00    -0.206 F 
ATOM     73  C   UNL A   1      44.275  25.529  35.833  1.00  0.00     0.040 A 
ATOM     74  C   UNL A   1      46.473  26.377  35.406  1.00  0.00     0.040 A 
ATOM     75  F   UNL A   1      46.986  27.385  33.376  1.00  0.00    -0.206 F 
ATOM     76  C   UNL A   1      45.594  25.703  36.242  1.00  0.00     0.006 A 
ENDBRANCH  48  69
BRANCH  60  77
ATOM     77  C   UNL A   1      44.961  29.695  28.282  1.00  0.00     0.057 A 
ATOM     78  C   UNL A   1      45.729  28.590  27.882  1.00  0.00     0.134 A 
ATOM     79  C   UNL A   1      45.522  30.960  28.075  1.00  0.00     0.134 A 
ATOM     80  F   UNL A   1      45.244  27.344  27.937  1.00  0.00    -0.206 F 
ATOM     81  C   UNL A   1      47.015  28.740  27.355  1.00  0.00     0.040 A 
ATOM     82  C   UNL A   1      46.789  31.125  27.513  1.00  0.00     0.040 A 
ATOM     83  F   UNL A   1      44.824  32.067  28.378  1.00  0.00    -0.206 F 
ATOM     84  C   UNL A   1      47.548  30.011  27.165  1.00  0.00     0.006 A 
ENDBRANCH  60  77
ENDBRANCH  34  35
ENDBRANCH  26  29
ENDBRANCH  24  25
ENDBRANCH  23  24
ENDBRANCH   1  23
TORSDOF 13
ENDMDL
MODEL 3
REMARK VINA RESULT:     -11.2      3.810      5.623
REMARK SMILES Cc1cc(C)n(CC(=O)N[C@H]2C=C[C@@H](C(=O)NCCCNC(=O)c3ccc(-c4c5nc(c(-c6c(F)cccc6F)c6ccc([nH]6)c(-c6c(F)cccc6F)c6nc(c(-c7c(F)cccc7F)c7ccc4[nH]7)C=C6)C=C5)cc3)C2)n1
REMARK SMILES IDX 18 1 17 2 15 3 16 4 14 6 11 7 12 8 78 9 13 10 10 11 8 12
REMARK SMILES IDX 9 13 7 15 6 16 1 17 2 18 3 19 79 20 4 21 5 22 19 23 20 24
REMARK SMILES IDX 21 25 22 26 23 28 24 29 25 30 77 31 26 32 76 33 27 34 28 35
REMARK SMILES IDX 29 36 70 37 30 38 75 39 69 40 71 41 31 42 74 43 68 44 67 45
REMARK SMILES IDX 32 47 58 48 41 49 57 50 42 51 45 52 56 53 72 54 43 55 44 56
REMARK SMILES IDX 55 58 73 59 46 60 33 61 34 62 39 63 35 64 36 65 38 66 40 67
REMARK SMILES IDX 37 68 59 69 60 70 65 71 61 72 62 73 64 74 66 75 63 76 47 77
REMARK SMILES IDX 48 78 53 79 49 80 50 81 52 82 54 83 51 84
REMARK H PARENT 17 5 10 14 21 27 71 46 45 57
REMARK Flexibility Score: inf
ROOT
ATOM      1  C   UNL A   1      33.519  30.476  26.868  1.00  0.00     0.117 C 
ENDROOT
BRANCH   1   2
ATOM      2  N   UNL A   1      32.522  29.672  27.560  1.00  0.00    -0.356 N 
ATOM      3  C   UNL A   1      31.995  28.446  27.288  1.00  0.00     0.227 C 
ATOM      4  O   UNL A   1      31.337  27.920  28.193  1.00  0.00    -0.274 OA
ATOM      5  H   UNL A   1      32.163  30.092  28.373  1.00  0.00     0.163 HD
BRANCH   3   6
ATOM      6  C   UNL A   1      32.065  27.769  25.915  1.00  0.00     0.103 C 
ATOM      7  C   UNL A   1      31.448  25.410  25.458  1.00  0.00     0.106 C 
ATOM      8  C   UNL A   1      30.528  26.399  24.795  1.00  0.00    -0.006 C 
ATOM      9  C   UNL A   1      32.518  26.317  26.061  1.00  0.00     0.047 C 
ATOM     10  C   UNL A   1      30.840  27.671  25.072  1.00  0.00    -0.016 C 
BRANCH   7  11
ATOM     11  N   UNL A   1      30.622  24.609  26.351  1.00  0.00    -0.348 N 
ATOM     12  C   UNL A   1      30.778  23.383  26.922  1.00  0.00     0.242 C 
ATOM     13  O   UNL A   1      29.741  22.838  27.325  1.00  0.00    -0.273 OA
ATOM     14  H   UNL A   1      29.772  25.045  26.591  1.00  0.00     0.164 HD
BRANCH  12  15
ATOM     15  C   UNL A   1      32.116  22.750  27.230  1.00  0.00     0.244 C 
BRANCH  15  16
ATOM     16  N   UNL A   1      32.749  22.134  26.090  1.00  0.00    -0.260 N 
ATOM     17  C   UNL A   1      32.490  19.682  23.569  1.00  0.00     0.069 C 
ATOM     18  C   UNL A   1      32.903  20.784  24.467  1.00  0.00     0.060 A 
ATOM     19  C   UNL A   1      34.138  21.463  24.547  1.00  0.00     0.048 A 
ATOM     20  N   UNL A   1      32.034  21.266  25.355  1.00  0.00    -0.178 NA
ATOM     21  C   UNL A   1      33.992  22.374  25.575  1.00  0.00     0.036 A 
ATOM     22  C   UNL A   1      34.905  23.411  26.111  1.00  0.00     0.066 C 
ENDBRANCH  15  16
ENDBRANCH  12  15
ENDBRANCH   7  11
ENDBRANCH   3   6
ENDBRANCH   1   2
BRANCH   1  23
ATOM     23  C   UNL A   1      34.850  30.582  27.607  1.00  0.00     0.042 C 
BRANCH  23  24
ATOM     24  C   UNL A   1      35.284  32.000  27.912  1.00  0.00     0.118 C 
BRANCH  24  25
ATOM     25  N   UNL A   1      34.773  32.500  29.180  1.00  0.00    -0.352 N 
ATOM     26  C   UNL A   1      35.161  32.114  30.451  1.00  0.00     0.251 C 
ATOM     27  H   UNL A   1      34.073  33.191  29.127  1.00  0.00     0.163 HD
ATOM     28  O   UNL A   1      34.451  32.345  31.414  1.00  0.00    -0.269 OA
BRANCH  26  29
ATOM     29  C   UNL A   1      36.439  31.391  30.617  1.00  0.00     0.039 A 
ATOM     30  C   UNL A   1      36.450  30.000  30.752  1.00  0.00     0.014 A 
ATOM     31  C   UNL A   1      37.634  32.107  30.608  1.00  0.00     0.014 A 
ATOM     32  C   UNL A   1      37.674  29.337  30.795  1.00  0.00     0.010 A 
ATOM     33  C   UNL A   1      38.834  31.444  30.500  1.00  0.00     0.010 A 
ATOM     34  C   UNL A   1      38.866  30.062  30.639  1.00  0.00    -0.014 A 
BRANCH  34  35
ATOM     35  C   UNL A   1      40.142  29.363  30.500  1.00  0.00     0.031 A 
ATOM     36  C   UNL A   1      40.877  29.150  31.774  1.00  0.00     0.074 A 
ATOM     37  C   UNL A   1      40.558  28.772  29.360  1.00  0.00     0.049 A 
ATOM     38  N   UNL A   1      42.006  29.675  32.117  1.00  0.00    -0.248 NA
ATOM     39  C   UNL A   1      40.238  28.366  32.841  1.00  0.00     0.031 C 
ATOM     40  C   UNL A   1      39.838  28.637  28.091  1.00  0.00     0.029 A 
ATOM     41  N   UNL A   1      41.693  28.051  29.134  1.00  0.00    -0.354 N 
ATOM     42  C   UNL A   1      42.331  29.123  33.351  1.00  0.00     0.074 A 
ATOM     43  C   UNL A   1      41.134  28.477  33.825  1.00  0.00     0.031 C 
ATOM     44  C   UNL A   1      40.433  27.693  27.331  1.00  0.00     0.029 A 
ATOM     45  C   UNL A   1      41.658  27.270  27.984  1.00  0.00     0.049 A 
ATOM     46  H   UNL A   1      42.473  28.081  29.735  1.00  0.00     0.167 HD
ATOM     47  C   UNL A   1      43.631  29.030  33.748  1.00  0.00     0.037 A 
ATOM     48  C   UNL A   1      42.556  26.326  27.605  1.00  0.00     0.037 A 
ATOM     49  C   UNL A   1      44.478  29.895  32.956  1.00  0.00     0.049 A 
ATOM     50  C   UNL A   1      43.818  26.602  28.336  1.00  0.00     0.074 A 
ATOM     51  C   UNL A   1      44.468  31.242  32.641  1.00  0.00     0.029 A 
ATOM     52  N   UNL A   1      45.313  29.312  32.033  1.00  0.00    -0.354 N 
ATOM     53  N   UNL A   1      44.593  27.618  28.082  1.00  0.00    -0.248 NA
ATOM     54  C   UNL A   1      43.997  25.993  29.646  1.00  0.00     0.031 C 
ATOM     55  C   UNL A   1      44.858  31.301  31.270  1.00  0.00     0.029 A 
ATOM     56  C   UNL A   1      45.162  30.003  30.861  1.00  0.00     0.049 A 
ATOM     57  H   UNL A   1      45.907  28.542  32.187  1.00  0.00     0.167 HD
ATOM     58  C   UNL A   1      44.994  28.064  29.332  1.00  0.00     0.074 A 
ATOM     59  C   UNL A   1      44.698  26.960  30.244  1.00  0.00     0.031 C 
ATOM     60  C   UNL A   1      45.244  29.387  29.560  1.00  0.00     0.037 A 
BRANCH  47  61
ATOM     61  C   UNL A   1      44.201  27.871  34.538  1.00  0.00     0.057 A 
ATOM     62  C   UNL A   1      45.064  28.149  35.617  1.00  0.00     0.134 A 
ATOM     63  C   UNL A   1      44.213  26.532  34.099  1.00  0.00     0.134 A 
ATOM     64  F   UNL A   1      45.141  29.383  36.137  1.00  0.00    -0.206 F 
ATOM     65  C   UNL A   1      45.959  27.201  36.127  1.00  0.00     0.040 A 
ATOM     66  C   UNL A   1      45.064  25.564  34.638  1.00  0.00     0.040 A 
ATOM     67  F   UNL A   1      43.485  26.104  33.062  1.00  0.00    -0.206 F 
ATOM     68  C   UNL A   1      45.972  25.907  35.627  1.00  0.00     0.006 A 
ENDBRANCH  47  61
BRANCH  48  69
ATOM     69  C   UNL A   1      42.364  25.101  26.794  1.00  0.00     0.057 A 
ATOM     70  C   UNL A   1      43.122  24.876  25.634  1.00  0.00     0.134 A 
ATOM     71  C   UNL A   1      41.633  23.997  27.268  1.00  0.00     0.134 A 
ATOM     72  F   UNL A   1      43.882  25.850  25.114  1.00  0.00    -0.206 F 
ATOM     73  C   UNL A   1      43.181  23.623  25.008  1.00  0.00     0.040 A 
ATOM     74  C   UNL A   1      41.672  22.745  26.646  1.00  0.00     0.040 A 
ATOM     75  F   UNL A   1      40.921  24.068  28.403  1.00  0.00    -0.206 F 
ATOM     76  C   UNL A   1      42.464  22.548  25.523  1.00  0.00     0.006 A 
ENDBRANCH  48  69
BRANCH  60  77
ATOM     77  C   UNL A   1      45.365  30.305  28.376  1.00  0.00     0.057 A 
ATOM     78  C   UNL A   1      44.284  30.951  27.757  1.00  0.00     0.134 A 
ATOM     79  C   UNL A   1      46.646  30.653  27.931  1.00  0.00     0.134 A 
ATOM     80  F   UNL A   1      43.027  30.772  28.180  1.00  0.00    -0.206 F 
ATOM     81  C   UNL A   1      44.469  31.856  26.708  1.00  0.00     0.040 A 
ATOM     82  C   UNL A   1      46.846  31.584  26.910  1.00  0.00     0.040 A 
ATOM     83  F   UNL A   1      47.732  30.120  28.514  1.00  0.00    -0.206 F 
ATOM     84  C   UNL A   1      45.755  32.178  26.284  1.00  0.00     0.006 A 
ENDBRANCH  60  77
ENDBRANCH  34  35
ENDBRANCH  26  29
ENDBRANCH  24  25
ENDBRANCH  23  24
ENDBRANCH   1  23
TORSDOF 13
ENDMDL
