MODEL 1
REMARK VINA RESULT:     -12.2      0.000      0.000
REMARK SMILES Cc1cc(Br)cc2c1O[C@H](C(F)(F)F)C(C(=O)NCCCNC(=O)c1ccc(-c3c4nc(c(-c5c(F)cccc5F)c5ccc([nH]5)c(-c5c(F)cccc5F)c5nc(c(-c6c(F)cccc6F)c6ccc3[nH]6)C=C5)C=C4)cc1)=C2
REMARK SMILES IDX 20 1 19 2 18 3 16 4 17 5 15 7 1 8 2 9 3 10 8 11 4 12 7 13
REMARK SMILES IDX 9 14 5 15 6 16 79 17 10 18 11 19 12 20 13 21 14 22 21 23
REMARK SMILES IDX 22 24 23 25 24 27 25 28 26 29 78 30 27 31 77 32 28 33 29 34
REMARK SMILES IDX 30 35 71 36 31 37 76 38 70 39 72 40 32 41 75 42 69 43 68 44
REMARK SMILES IDX 33 46 59 47 42 48 58 49 43 50 46 51 57 52 73 53 44 54 45 55
REMARK SMILES IDX 56 57 74 58 47 59 34 60 35 61 40 62 36 63 37 64 39 65 41 66
REMARK SMILES IDX 38 67 60 68 61 69 66 70 62 71 63 72 65 73 67 74 64 75 48 76
REMARK SMILES IDX 49 77 54 78 50 79 51 80 53 81 55 82 52 83
REMARK H PARENT 18 6 22 26 72 45 46 56
REMARK Flexibility Score: inf
ROOT
ATOM      1  C   UNL A   1      37.774  19.686  24.954  1.00  0.00     0.042 C 
ENDROOT
BRANCH   1   2
ATOM      2  C   UNL A   1      36.688  20.710  24.667  1.00  0.00     0.118 C 
BRANCH   2   3
ATOM      3  N   UNL A   1      35.768  20.852  25.786  1.00  0.00    -0.352 N 
ATOM      4  C   UNL A   1      34.770  21.690  26.150  1.00  0.00     0.251 C 
ATOM      5  O   UNL A   1      34.228  21.426  27.228  1.00  0.00    -0.270 OA
ATOM      6  H   UNL A   1      35.909  20.147  26.459  1.00  0.00     0.163 HD
BRANCH   4   7
ATOM      7  C   UNL A   1      34.312  22.866  25.358  1.00  0.00     0.067 C 
ATOM      8  C   UNL A   1      33.010  26.141  21.645  1.00  0.00     0.048 C 
ATOM      9  C   UNL A   1      33.301  26.269  23.113  1.00  0.00    -0.007 A 
ATOM     10  C   UNL A   1      33.207  27.508  23.756  1.00  0.00     0.023 A 
ATOM     11  C   UNL A   1      33.696  25.152  23.862  1.00  0.00     0.130 A 
ATOM     12  C   UNL A   1      33.498  27.614  25.118  1.00  0.00     0.019 A 
ATOM     13  C   UNL A   1      33.989  25.255  25.225  1.00  0.00     0.019 A 
ATOM     14  O   UNL A   1      33.826  23.971  23.184  1.00  0.00    -0.475 OA
ATOM     15  Br  UNL A   1      33.373  29.298  25.968  1.00  0.00    -0.051 Br
ATOM     16  C   UNL A   1      33.890  26.496  25.856  1.00  0.00     0.027 A 
ATOM     17  C   UNL A   1      34.433  24.069  25.951  1.00  0.00     0.025 C 
ATOM     18  C   UNL A   1      33.721  22.768  23.983  1.00  0.00     0.314 C 
BRANCH  18  19
ATOM     19  C   UNL A   1      32.257  22.282  23.998  1.00  0.00     0.429 C 
ATOM     20  F   UNL A   1      31.670  22.526  22.800  1.00  0.00    -0.167 F 
ATOM     21  F   UNL A   1      32.153  20.948  24.210  1.00  0.00    -0.167 F 
ATOM     22  F   UNL A   1      31.511  22.888  24.948  1.00  0.00    -0.167 F 
ENDBRANCH  18  19
ENDBRANCH   4   7
ENDBRANCH   2   3
ENDBRANCH   1   2
BRANCH   1  23
ATOM     23  C   UNL A   1      38.925  20.284  25.750  1.00  0.00     0.118 C 
BRANCH  23  24
ATOM     24  N   UNL A   1      40.042  19.349  25.867  1.00  0.00    -0.352 N 
ATOM     25  C   UNL A   1      41.372  19.586  26.097  1.00  0.00     0.251 C 
ATOM     26  H   UNL A   1      39.802  18.400  25.766  1.00  0.00     0.163 HD
ATOM     27  O   UNL A   1      42.200  18.703  25.876  1.00  0.00    -0.269 OA
BRANCH  25  28
ATOM     28  C   UNL A   1      41.810  20.897  26.608  1.00  0.00     0.039 A 
ATOM     29  C   UNL A   1      42.206  21.889  25.710  1.00  0.00     0.014 A 
ATOM     30  C   UNL A   1      41.850  21.134  27.984  1.00  0.00     0.014 A 
ATOM     31  C   UNL A   1      42.583  23.142  26.193  1.00  0.00     0.010 A 
ATOM     32  C   UNL A   1      42.122  22.408  28.457  1.00  0.00     0.010 A 
ATOM     33  C   UNL A   1      42.510  23.419  27.568  1.00  0.00    -0.014 A 
BRANCH  33  34
ATOM     34  C   UNL A   1      42.874  24.749  28.110  1.00  0.00     0.031 A 
ATOM     35  C   UNL A   1      41.807  25.789  28.306  1.00  0.00     0.074 A 
ATOM     36  C   UNL A   1      44.165  25.032  28.371  1.00  0.00     0.049 A 
ATOM     37  N   UNL A   1      41.926  27.030  28.699  1.00  0.00    -0.248 NA
ATOM     38  C   UNL A   1      40.423  25.392  27.991  1.00  0.00     0.031 C 
ATOM     39  C   UNL A   1      45.288  24.113  28.182  1.00  0.00     0.029 A 
ATOM     40  N   UNL A   1      44.749  26.176  28.851  1.00  0.00    -0.354 N 
ATOM     41  C   UNL A   1      40.641  27.557  28.672  1.00  0.00     0.074 A 
ATOM     42  C   UNL A   1      39.767  26.529  28.158  1.00  0.00     0.031 C 
ATOM     43  C   UNL A   1      46.420  24.715  28.580  1.00  0.00     0.029 A 
ATOM     44  C   UNL A   1      46.110  26.074  29.009  1.00  0.00     0.049 A 
ATOM     45  H   UNL A   1      44.241  26.992  29.062  1.00  0.00     0.167 HD
ATOM     46  C   UNL A   1      40.224  28.778  29.078  1.00  0.00     0.037 A 
ATOM     47  C   UNL A   1      47.003  26.979  29.451  1.00  0.00     0.037 A 
ATOM     48  C   UNL A   1      41.097  29.785  29.617  1.00  0.00     0.049 A 
ATOM     49  C   UNL A   1      46.516  28.340  29.866  1.00  0.00     0.074 A 
ATOM     50  C   UNL A   1      40.767  31.040  30.096  1.00  0.00     0.029 A 
ATOM     51  N   UNL A   1      42.470  29.647  29.754  1.00  0.00    -0.354 N 
ATOM     52  N   UNL A   1      45.291  28.808  29.886  1.00  0.00    -0.248 NA
ATOM     53  C   UNL A   1      47.533  29.299  30.322  1.00  0.00     0.031 C 
ATOM     54  C   UNL A   1      41.949  31.680  30.481  1.00  0.00     0.029 A 
ATOM     55  C   UNL A   1      43.006  30.805  30.291  1.00  0.00     0.049 A 
ATOM     56  H   UNL A   1      42.985  28.846  29.507  1.00  0.00     0.167 HD
ATOM     57  C   UNL A   1      45.385  30.104  30.378  1.00  0.00     0.074 A 
ATOM     58  C   UNL A   1      46.786  30.341  30.662  1.00  0.00     0.031 C 
ATOM     59  C   UNL A   1      44.403  31.016  30.575  1.00  0.00     0.037 A 
BRANCH  46  60
ATOM     60  C   UNL A   1      38.759  29.084  28.981  1.00  0.00     0.057 A 
ATOM     61  C   UNL A   1      37.911  28.975  30.092  1.00  0.00     0.134 A 
ATOM     62  C   UNL A   1      38.199  29.553  27.786  1.00  0.00     0.134 A 
ATOM     63  F   UNL A   1      38.381  28.517  31.262  1.00  0.00    -0.206 F 
ATOM     64  C   UNL A   1      36.559  29.310  30.015  1.00  0.00     0.040 A 
ATOM     65  C   UNL A   1      36.854  29.917  27.705  1.00  0.00     0.040 A 
ATOM     66  F   UNL A   1      38.955  29.683  26.685  1.00  0.00    -0.206 F 
ATOM     67  C   UNL A   1      36.029  29.795  28.821  1.00  0.00     0.006 A 
ENDBRANCH  46  60
BRANCH  47  68
ATOM     68  C   UNL A   1      48.438  26.615  29.561  1.00  0.00     0.057 A 
ATOM     69  C   UNL A   1      48.928  25.959  30.696  1.00  0.00     0.134 A 
ATOM     70  C   UNL A   1      49.351  26.900  28.538  1.00  0.00     0.134 A 
ATOM     71  F   UNL A   1      48.107  25.672  31.717  1.00  0.00    -0.206 F 
ATOM     72  C   UNL A   1      50.275  25.614  30.819  1.00  0.00     0.040 A 
ATOM     73  C   UNL A   1      50.697  26.537  28.636  1.00  0.00     0.040 A 
ATOM     74  F   UNL A   1      48.945  27.519  27.420  1.00  0.00    -0.206 F 
ATOM     75  C   UNL A   1      51.163  25.897  29.782  1.00  0.00     0.006 A 
ENDBRANCH  47  68
BRANCH  59  76
ATOM     76  C   UNL A   1      44.795  32.349  31.141  1.00  0.00     0.057 A 
ATOM     77  C   UNL A   1      45.095  33.438  30.314  1.00  0.00     0.134 A 
ATOM     78  C   UNL A   1      44.789  32.565  32.525  1.00  0.00     0.134 A 
ATOM     79  F   UNL A   1      45.126  33.292  28.981  1.00  0.00    -0.206 F 
ATOM     80  C   UNL A   1      45.386  34.696  30.845  1.00  0.00     0.040 A 
ATOM     81  C   UNL A   1      45.050  33.824  33.066  1.00  0.00     0.040 A 
ATOM     82  F   UNL A   1      44.497  31.566  33.370  1.00  0.00    -0.206 F 
ATOM     83  C   UNL A   1      45.352  34.893  32.225  1.00  0.00     0.006 A 
ENDBRANCH  59  76
ENDBRANCH  33  34
ENDBRANCH  25  28
ENDBRANCH  23  24
ENDBRANCH   1  23
TORSDOF 11
ENDMDL
MODEL 2
REMARK VINA RESULT:     -12.2      0.268      6.340
REMARK SMILES Cc1cc(Br)cc2c1O[C@H](C(F)(F)F)C(C(=O)NCCCNC(=O)c1ccc(-c3c4nc(c(-c5c(F)cccc5F)c5ccc([nH]5)c(-c5c(F)cccc5F)c5nc(c(-c6c(F)cccc6F)c6ccc3[nH]6)C=C5)C=C4)cc1)=C2
REMARK SMILES IDX 20 1 19 2 18 3 16 4 17 5 15 7 1 8 2 9 3 10 8 11 4 12 7 13
REMARK SMILES IDX 9 14 5 15 6 16 79 17 10 18 11 19 12 20 13 21 14 22 21 23
REMARK SMILES IDX 22 24 23 25 24 27 25 28 26 29 78 30 27 31 77 32 28 33 29 34
REMARK SMILES IDX 30 35 71 36 31 37 76 38 70 39 72 40 32 41 75 42 69 43 68 44
REMARK SMILES IDX 33 46 59 47 42 48 58 49 43 50 46 51 57 52 73 53 44 54 45 55
REMARK SMILES IDX 56 57 74 58 47 59 34 60 35 61 40 62 36 63 37 64 39 65 41 66
REMARK SMILES IDX 38 67 60 68 61 69 66 70 62 71 63 72 65 73 67 74 64 75 48 76
REMARK SMILES IDX 49 77 54 78 50 79 51 80 53 81 55 82 52 83
REMARK H PARENT 18 6 22 26 72 45 46 56
REMARK Flexibility Score: inf
ROOT
ATOM      1  C   UNL A   1      37.769  19.475  24.944  1.00  0.00     0.042 C 
ENDROOT
BRANCH   1   2
ATOM      2  C   UNL A   1      36.644  20.450  24.639  1.00  0.00     0.118 C 
BRANCH   2   3
ATOM      3  N   UNL A   1      35.792  20.675  25.797  1.00  0.00    -0.352 N 
ATOM      4  C   UNL A   1      34.837  21.558  26.172  1.00  0.00     0.251 C 
ATOM      5  O   UNL A   1      34.351  21.366  27.290  1.00  0.00    -0.270 OA
ATOM      6  H   UNL A   1      35.953  20.002  26.499  1.00  0.00     0.163 HD
BRANCH   4   7
ATOM      7  C   UNL A   1      34.365  22.705  25.345  1.00  0.00     0.067 C 
ATOM      8  C   UNL A   1      32.992  25.839  21.537  1.00  0.00     0.048 C 
ATOM      9  C   UNL A   1      33.313  26.022  22.993  1.00  0.00    -0.007 A 
ATOM     10  C   UNL A   1      33.234  27.284  23.590  1.00  0.00     0.023 A 
ATOM     11  C   UNL A   1      33.721  24.933  23.775  1.00  0.00     0.130 A 
ATOM     12  C   UNL A   1      33.553  27.441  24.941  1.00  0.00     0.019 A 
ATOM     13  C   UNL A   1      34.043  25.087  25.128  1.00  0.00     0.019 A 
ATOM     14  O   UNL A   1      33.836  23.727  23.141  1.00  0.00    -0.475 OA
ATOM     15  Br  UNL A   1      33.447  29.157  25.729  1.00  0.00    -0.051 Br
ATOM     16  C   UNL A   1      33.958  26.351  25.713  1.00  0.00     0.027 A 
ATOM     17  C   UNL A   1      34.499  23.929  25.889  1.00  0.00     0.025 C 
ATOM     18  C   UNL A   1      33.746  22.555  23.987  1.00  0.00     0.314 C 
BRANCH  18  19
ATOM     19  C   UNL A   1      32.282  22.074  24.050  1.00  0.00     0.429 C 
ATOM     20  F   UNL A   1      32.231  20.719  23.999  1.00  0.00    -0.167 F 
ATOM     21  F   UNL A   1      31.664  22.437  25.199  1.00  0.00    -0.167 F 
ATOM     22  F   UNL A   1      31.528  22.548  23.034  1.00  0.00    -0.167 F 
ENDBRANCH  18  19
ENDBRANCH   4   7
ENDBRANCH   2   3
ENDBRANCH   1   2
BRANCH   1  23
ATOM     23  C   UNL A   1      38.896  20.133  25.726  1.00  0.00     0.118 C 
BRANCH  23  24
ATOM     24  N   UNL A   1      40.060  19.256  25.836  1.00  0.00    -0.352 N 
ATOM     25  C   UNL A   1      41.377  19.559  26.059  1.00  0.00     0.251 C 
ATOM     26  H   UNL A   1      39.867  18.296  25.734  1.00  0.00     0.163 HD
ATOM     27  O   UNL A   1      42.248  18.719  25.832  1.00  0.00    -0.269 OA
BRANCH  25  28
ATOM     28  C   UNL A   1      41.751  20.889  26.572  1.00  0.00     0.039 A 
ATOM     29  C   UNL A   1      42.183  21.873  25.681  1.00  0.00     0.014 A 
ATOM     30  C   UNL A   1      41.696  21.152  27.942  1.00  0.00     0.014 A 
ATOM     31  C   UNL A   1      42.499  23.144  26.164  1.00  0.00     0.010 A 
ATOM     32  C   UNL A   1      41.908  22.441  28.407  1.00  0.00     0.010 A 
ATOM     33  C   UNL A   1      42.330  23.444  27.525  1.00  0.00    -0.014 A 
BRANCH  33  34
ATOM     34  C   UNL A   1      42.627  24.792  28.063  1.00  0.00     0.031 A 
ATOM     35  C   UNL A   1      44.037  25.144  28.448  1.00  0.00     0.074 A 
ATOM     36  C   UNL A   1      41.624  25.670  28.252  1.00  0.00     0.049 A 
ATOM     37  N   UNL A   1      44.492  26.238  29.000  1.00  0.00    -0.248 NA
ATOM     38  C   UNL A   1      45.069  24.120  28.209  1.00  0.00     0.031 C 
ATOM     39  C   UNL A   1      40.213  25.422  27.949  1.00  0.00     0.029 A 
ATOM     40  N   UNL A   1      41.638  26.950  28.745  1.00  0.00    -0.354 N 
ATOM     41  C   UNL A   1      45.854  26.030  29.177  1.00  0.00     0.074 A 
ATOM     42  C   UNL A   1      46.142  24.683  28.743  1.00  0.00     0.031 C 
ATOM     43  C   UNL A   1      39.504  26.528  28.226  1.00  0.00     0.029 A 
ATOM     44  C   UNL A   1      40.400  27.545  28.764  1.00  0.00     0.049 A 
ATOM     45  H   UNL A   1      42.457  27.399  29.055  1.00  0.00     0.167 HD
ATOM     46  C   UNL A   1      46.787  26.901  29.626  1.00  0.00     0.037 A 
ATOM     47  C   UNL A   1      40.033  28.775  29.173  1.00  0.00     0.037 A 
ATOM     48  C   UNL A   1      46.497  28.250  30.027  1.00  0.00     0.049 A 
ATOM     49  C   UNL A   1      41.087  29.711  29.698  1.00  0.00     0.074 A 
ATOM     50  C   UNL A   1      47.377  29.226  30.458  1.00  0.00     0.029 A 
ATOM     51  N   UNL A   1      45.230  28.814  30.041  1.00  0.00    -0.354 N 
ATOM     52  N   UNL A   1      42.379  29.520  29.810  1.00  0.00    -0.248 NA
ATOM     53  C   UNL A   1      40.633  31.034  30.150  1.00  0.00     0.031 C 
ATOM     54  C   UNL A   1      46.636  30.367  30.777  1.00  0.00     0.029 A 
ATOM     55  C   UNL A   1      45.302  30.120  30.494  1.00  0.00     0.049 A 
ATOM     56  H   UNL A   1      44.403  28.353  29.769  1.00  0.00     0.167 HD
ATOM     57  C   UNL A   1      42.897  30.704  30.322  1.00  0.00     0.074 A 
ATOM     58  C   UNL A   1      41.780  31.613  30.480  1.00  0.00     0.031 C 
ATOM     59  C   UNL A   1      44.178  31.010  30.635  1.00  0.00     0.037 A 
BRANCH  46  60
ATOM     60  C   UNL A   1      48.211  26.433  29.681  1.00  0.00     0.057 A 
ATOM     61  C   UNL A   1      49.093  26.636  28.610  1.00  0.00     0.134 A 
ATOM     62  C   UNL A   1      48.727  25.830  30.835  1.00  0.00     0.134 A 
ATOM     63  F   UNL A   1      48.658  27.193  27.469  1.00  0.00    -0.206 F 
ATOM     64  C   UNL A   1      50.430  26.248  28.681  1.00  0.00     0.040 A 
ATOM     65  C   UNL A   1      50.070  25.463  30.928  1.00  0.00     0.040 A 
ATOM     66  F   UNL A   1      47.938  25.608  31.898  1.00  0.00    -0.206 F 
ATOM     67  C   UNL A   1      50.926  25.669  29.848  1.00  0.00     0.006 A 
ENDBRANCH  46  60
BRANCH  47  68
ATOM     68  C   UNL A   1      38.615  29.202  29.066  1.00  0.00     0.057 A 
ATOM     69  C   UNL A   1      38.097  29.674  27.854  1.00  0.00     0.134 A 
ATOM     70  C   UNL A   1      37.742  29.141  30.160  1.00  0.00     0.134 A 
ATOM     71  F   UNL A   1      38.886  29.771  26.775  1.00  0.00    -0.206 F 
ATOM     72  C   UNL A   1      36.768  30.085  27.737  1.00  0.00     0.040 A 
ATOM     73  C   UNL A   1      36.404  29.524  30.049  1.00  0.00     0.040 A 
ATOM     74  F   UNL A   1      38.173  28.689  31.347  1.00  0.00    -0.206 F 
ATOM     75  C   UNL A   1      35.915  30.004  28.836  1.00  0.00     0.006 A 
ENDBRANCH  47  68
BRANCH  59  76
ATOM     76  C   UNL A   1      44.455  32.388  31.161  1.00  0.00     0.057 A 
ATOM     77  C   UNL A   1      44.697  33.467  30.303  1.00  0.00     0.134 A 
ATOM     78  C   UNL A   1      44.393  32.652  32.535  1.00  0.00     0.134 A 
ATOM     79  F   UNL A   1      44.777  33.277  28.977  1.00  0.00    -0.206 F 
ATOM     80  C   UNL A   1      44.878  34.760  30.794  1.00  0.00     0.040 A 
ATOM     81  C   UNL A   1      44.545  33.944  33.036  1.00  0.00     0.040 A 
ATOM     82  F   UNL A   1      44.152  31.663  33.409  1.00  0.00    -0.206 F 
ATOM     83  C   UNL A   1      44.791  35.002  32.164  1.00  0.00     0.006 A 
ENDBRANCH  59  76
ENDBRANCH  33  34
ENDBRANCH  25  28
ENDBRANCH  23  24
ENDBRANCH   1  23
TORSDOF 11
ENDMDL
MODEL 3
REMARK VINA RESULT:     -12.2      0.235      1.335
REMARK SMILES Cc1cc(Br)cc2c1O[C@H](C(F)(F)F)C(C(=O)NCCCNC(=O)c1ccc(-c3c4nc(c(-c5c(F)cccc5F)c5ccc([nH]5)c(-c5c(F)cccc5F)c5nc(c(-c6c(F)cccc6F)c6ccc3[nH]6)C=C5)C=C4)cc1)=C2
REMARK SMILES IDX 20 1 19 2 18 3 16 4 17 5 15 7 1 8 2 9 3 10 8 11 4 12 7 13
REMARK SMILES IDX 9 14 5 15 6 16 79 17 10 18 11 19 12 20 13 21 14 22 21 23
REMARK SMILES IDX 22 24 23 25 24 27 25 28 26 29 78 30 27 31 77 32 28 33 29 34
REMARK SMILES IDX 30 35 71 36 31 37 76 38 70 39 72 40 32 41 75 42 69 43 68 44
REMARK SMILES IDX 33 46 59 47 42 48 58 49 43 50 46 51 57 52 73 53 44 54 45 55
REMARK SMILES IDX 56 57 74 58 47 59 34 60 35 61 40 62 36 63 37 64 39 65 41 66
REMARK SMILES IDX 38 67 60 68 61 69 66 70 62 71 63 72 65 73 67 74 64 75 48 76
REMARK SMILES IDX 49 77 54 78 50 79 51 80 53 81 55 82 52 83
REMARK H PARENT 18 6 22 26 72 45 46 56
REMARK Flexibility Score: inf
ROOT
ATOM      1  C   UNL A   1      37.777  19.686  25.001  1.00  0.00     0.042 C 
ENDROOT
BRANCH   1   2
ATOM      2  C   UNL A   1      36.703  20.714  24.686  1.00  0.00     0.118 C 
BRANCH   2   3
ATOM      3  N   UNL A   1      35.695  20.784  25.734  1.00  0.00    -0.352 N 
ATOM      4  C   UNL A   1      34.636  21.568  26.042  1.00  0.00     0.251 C 
ATOM      5  O   UNL A   1      34.027  21.250  27.068  1.00  0.00    -0.270 OA
ATOM      6  H   UNL A   1      35.817  20.067  26.398  1.00  0.00     0.163 HD
BRANCH   4   7
ATOM      7  C   UNL A   1      34.187  22.746  25.248  1.00  0.00     0.067 C 
ATOM      8  C   UNL A   1      32.929  26.029  21.527  1.00  0.00     0.048 C 
ATOM      9  C   UNL A   1      33.201  26.154  22.999  1.00  0.00    -0.007 A 
ATOM     10  C   UNL A   1      33.097  27.390  23.644  1.00  0.00     0.023 A 
ATOM     11  C   UNL A   1      33.587  25.035  23.749  1.00  0.00     0.130 A 
ATOM     12  C   UNL A   1      33.370  27.493  25.010  1.00  0.00     0.019 A 
ATOM     13  C   UNL A   1      33.863  25.134  25.117  1.00  0.00     0.019 A 
ATOM     14  O   UNL A   1      33.728  23.856  23.071  1.00  0.00    -0.475 OA
ATOM     15  Br  UNL A   1      33.231  29.174  25.864  1.00  0.00    -0.051 Br
ATOM     16  C   UNL A   1      33.753  26.373  25.751  1.00  0.00     0.027 A 
ATOM     17  C   UNL A   1      34.298  23.947  25.845  1.00  0.00     0.025 C 
ATOM     18  C   UNL A   1      33.615  22.650  23.864  1.00  0.00     0.314 C 
BRANCH  18  19
ATOM     19  C   UNL A   1      32.151  22.163  23.858  1.00  0.00     0.429 C 
ATOM     20  F   UNL A   1      31.444  22.815  22.902  1.00  0.00    -0.167 F 
ATOM     21  F   UNL A   1      32.044  20.842  23.579  1.00  0.00    -0.167 F 
ATOM     22  F   UNL A   1      31.524  22.365  25.038  1.00  0.00    -0.167 F 
ENDBRANCH  18  19
ENDBRANCH   4   7
ENDBRANCH   2   3
ENDBRANCH   1   2
BRANCH   1  23
ATOM     23  C   UNL A   1      38.946  20.297  25.759  1.00  0.00     0.118 C 
BRANCH  23  24
ATOM     24  N   UNL A   1      40.066  19.364  25.866  1.00  0.00    -0.352 N 
ATOM     25  C   UNL A   1      41.399  19.604  26.072  1.00  0.00     0.251 C 
ATOM     26  H   UNL A   1      39.825  18.414  25.777  1.00  0.00     0.163 HD
ATOM     27  O   UNL A   1      42.225  18.721  25.845  1.00  0.00    -0.269 OA
BRANCH  25  28
ATOM     28  C   UNL A   1      41.844  20.920  26.566  1.00  0.00     0.039 A 
ATOM     29  C   UNL A   1      42.276  21.886  25.656  1.00  0.00     0.014 A 
ATOM     30  C   UNL A   1      41.855  21.186  27.936  1.00  0.00     0.014 A 
ATOM     31  C   UNL A   1      42.659  23.144  26.122  1.00  0.00     0.010 A 
ATOM     32  C   UNL A   1      42.134  22.467  28.389  1.00  0.00     0.010 A 
ATOM     33  C   UNL A   1      42.558  23.452  27.488  1.00  0.00    -0.014 A 
BRANCH  33  34
ATOM     34  C   UNL A   1      42.927  24.788  28.010  1.00  0.00     0.031 A 
ATOM     35  C   UNL A   1      41.860  25.824  28.224  1.00  0.00     0.074 A 
ATOM     36  C   UNL A   1      44.223  25.080  28.237  1.00  0.00     0.049 A 
ATOM     37  N   UNL A   1      41.982  27.069  28.604  1.00  0.00    -0.248 NA
ATOM     38  C   UNL A   1      40.471  25.418  27.947  1.00  0.00     0.031 C 
ATOM     39  C   UNL A   1      45.346  24.165  28.028  1.00  0.00     0.029 A 
ATOM     40  N   UNL A   1      44.813  26.231  28.693  1.00  0.00    -0.354 N 
ATOM     41  C   UNL A   1      40.695  27.590  28.605  1.00  0.00     0.074 A 
ATOM     42  C   UNL A   1      39.813  26.553  28.121  1.00  0.00     0.031 C 
ATOM     43  C   UNL A   1      46.484  24.776  28.392  1.00  0.00     0.029 A 
ATOM     44  C   UNL A   1      46.177  26.137  28.819  1.00  0.00     0.049 A 
ATOM     45  H   UNL A   1      44.306  27.046  28.910  1.00  0.00     0.167 HD
ATOM     46  C   UNL A   1      40.281  28.812  29.011  1.00  0.00     0.037 A 
ATOM     47  C   UNL A   1      47.077  27.050  29.231  1.00  0.00     0.037 A 
ATOM     48  C   UNL A   1      41.161  29.827  29.520  1.00  0.00     0.049 A 
ATOM     49  C   UNL A   1      46.593  28.412  29.647  1.00  0.00     0.074 A 
ATOM     50  C   UNL A   1      40.838  31.084  29.997  1.00  0.00     0.029 A 
ATOM     51  N   UNL A   1      42.538  29.698  29.625  1.00  0.00    -0.354 N 
ATOM     52  N   UNL A   1      45.366  28.874  29.694  1.00  0.00    -0.248 NA
ATOM     53  C   UNL A   1      47.615  29.380  30.070  1.00  0.00     0.031 C 
ATOM     54  C   UNL A   1      42.025  31.734  30.347  1.00  0.00     0.029 A 
ATOM     55  C   UNL A   1      43.082  30.862  30.139  1.00  0.00     0.049 A 
ATOM     56  H   UNL A   1      43.052  28.897  29.371  1.00  0.00     0.167 HD
ATOM     57  C   UNL A   1      45.466  30.174  30.172  1.00  0.00     0.074 A 
ATOM     58  C   UNL A   1      46.872  30.421  30.419  1.00  0.00     0.031 C 
ATOM     59  C   UNL A   1      44.484  31.082  30.386  1.00  0.00     0.037 A 
BRANCH  46  60
ATOM     60  C   UNL A   1      38.813  29.110  28.948  1.00  0.00     0.057 A 
ATOM     61  C   UNL A   1      37.991  28.997  30.078  1.00  0.00     0.134 A 
ATOM     62  C   UNL A   1      38.222  29.574  27.766  1.00  0.00     0.134 A 
ATOM     63  F   UNL A   1      38.490  28.543  31.238  1.00  0.00    -0.206 F 
ATOM     64  C   UNL A   1      36.636  29.324  30.033  1.00  0.00     0.040 A 
ATOM     65  C   UNL A   1      36.874  29.931  27.715  1.00  0.00     0.040 A 
ATOM     66  F   UNL A   1      38.952  29.708  26.647  1.00  0.00    -0.206 F 
ATOM     67  C   UNL A   1      36.076  29.805  28.850  1.00  0.00     0.006 A 
ENDBRANCH  46  60
BRANCH  47  68
ATOM     68  C   UNL A   1      48.516  26.694  29.308  1.00  0.00     0.057 A 
ATOM     69  C   UNL A   1      49.380  26.956  28.239  1.00  0.00     0.134 A 
ATOM     70  C   UNL A   1      49.067  26.096  30.449  1.00  0.00     0.134 A 
ATOM     71  F   UNL A   1      48.909  27.513  27.113  1.00  0.00    -0.206 F 
ATOM     72  C   UNL A   1      50.734  26.623  28.292  1.00  0.00     0.040 A 
ATOM     73  C   UNL A   1      50.426  25.782  30.526  1.00  0.00     0.040 A 
ATOM     74  F   UNL A   1      48.297  25.827  31.513  1.00  0.00    -0.206 F 
ATOM     75  C   UNL A   1      51.262  26.040  29.442  1.00  0.00     0.006 A 
ENDBRANCH  47  68
BRANCH  59  76
ATOM     76  C   UNL A   1      44.883  32.422  30.931  1.00  0.00     0.057 A 
ATOM     77  C   UNL A   1      44.993  32.652  32.308  1.00  0.00     0.134 A 
ATOM     78  C   UNL A   1      45.244  33.465  30.068  1.00  0.00     0.134 A 
ATOM     79  F   UNL A   1      44.655  31.695  33.186  1.00  0.00    -0.206 F 
ATOM     80  C   UNL A   1      45.438  33.876  32.808  1.00  0.00     0.040 A 
ATOM     81  C   UNL A   1      45.717  34.683  30.556  1.00  0.00     0.040 A 
ATOM     82  F   UNL A   1      45.173  33.305  28.739  1.00  0.00    -0.206 F 
ATOM     83  C   UNL A   1      45.812  34.891  31.930  1.00  0.00     0.006 A 
ENDBRANCH  59  76
ENDBRANCH  33  34
ENDBRANCH  25  28
ENDBRANCH  23  24
ENDBRANCH   1  23
TORSDOF 11
ENDMDL
