MODEL 1
REMARK VINA RESULT:     -11.1      0.000      0.000
REMARK SMILES CCN(CC(C)(C)O)C(=O)Nc1ccc(C(=O)NCCCNC(=O)c2ccc(-c3c4nc(c(-c5c(F)cccc5F)c5ccc([nH]5)c(-c5c(F)cccc5F)c5nc(c(-c6c(F)cccc6F)c6ccc3[nH]6)C=C5)C=C4)cc2)c(O)c1
REMARK SMILES IDX 16 1 17 2 18 3 15 5 12 6 13 7 81 8 14 9 79 10 11 11 9 12
REMARK SMILES IDX 10 13 3 15 2 16 1 17 4 18 5 19 6 20 7 21 8 22 80 24 19 26
REMARK SMILES IDX 20 27 21 28 22 29 23 30 24 32 25 33 26 34 78 35 27 36 77 37
REMARK SMILES IDX 28 38 29 39 30 40 71 41 31 42 76 43 70 44 72 45 32 46 75 47
REMARK SMILES IDX 69 48 68 49 33 51 59 52 42 53 58 54 43 55 46 56 57 57 73 58
REMARK SMILES IDX 44 59 45 60 56 62 74 63 47 64 34 65 35 66 40 67 36 68 37 69
REMARK SMILES IDX 39 70 41 71 38 72 60 73 61 74 66 75 62 76 63 77 65 78 67 79
REMARK SMILES IDX 64 80 48 81 49 82 54 83 50 84 51 85 53 86 55 87 52 88
REMARK H PARENT 18 4 11 14 8 23 80 25 22 31 72 50 46 61
REMARK Flexibility Score: inf
ROOT
ATOM      1  C   UNL A   1      30.936  29.364  24.156  1.00  0.00     0.255 C 
ATOM      2  O   UNL A   1      30.392  29.295  23.058  1.00  0.00    -0.269 OA
ATOM      3  N   UNL A   1      30.933  30.535  24.848  1.00  0.00    -0.352 N 
ATOM      4  H   UNL A   1      30.498  31.292  24.393  1.00  0.00     0.163 HD
ENDROOT
BRANCH   1   5
ATOM      5  C   UNL A   1      31.725  28.237  24.655  1.00  0.00     0.081 A 
ATOM      6  C   UNL A   1      32.907  25.861  25.623  1.00  0.00     0.046 A 
ATOM      7  C   UNL A   1      31.551  26.058  25.581  1.00  0.00     0.027 A 
ATOM      8  C   UNL A   1      33.702  26.899  25.114  1.00  0.00     0.073 A 
ATOM      9  C   UNL A   1      30.942  27.209  25.126  1.00  0.00     0.020 A 
ATOM     10  C   UNL A   1      33.114  28.093  24.655  1.00  0.00     0.130 A 
BRANCH   6  11
ATOM     11  N   UNL A   1      33.520  24.746  26.208  1.00  0.00    -0.308 N 
ATOM     12  C   UNL A   1      34.164  23.595  25.932  1.00  0.00     0.321 C 
ATOM     13  O   UNL A   1      34.356  22.935  26.970  1.00  0.00    -0.248 OA
ATOM     14  H   UNL A   1      33.454  24.835  27.187  1.00  0.00     0.171 HD
BRANCH  12  15
ATOM     15  N   UNL A   1      34.622  23.110  24.736  1.00  0.00    -0.322 N 
BRANCH  15  16
ATOM     16  C   UNL A   1      35.989  23.535  24.381  1.00  0.00     0.118 C 
ATOM     17  C   UNL A   1      36.617  22.622  23.329  1.00  0.00     0.027 C 
ENDBRANCH  15  16
BRANCH  15  18
ATOM     18  C   UNL A   1      33.999  22.300  23.670  1.00  0.00     0.155 C 
BRANCH  18  19
ATOM     19  C   UNL A   1      32.718  22.910  22.974  1.00  0.00     0.077 C 
ATOM     20  C   UNL A   1      31.433  22.961  23.821  1.00  0.00     0.043 C 
ATOM     21  C   UNL A   1      33.032  24.302  22.376  1.00  0.00     0.043 C 
BRANCH  19  22
ATOM     22  O   UNL A   1      32.398  22.063  21.851  1.00  0.00    -0.389 OA
ATOM     23  H   UNL A   1      33.217  21.790  21.409  1.00  0.00     0.211 HD
ENDBRANCH  19  22
ENDBRANCH  18  19
ENDBRANCH  15  18
ENDBRANCH  12  15
ENDBRANCH   6  11
BRANCH  10  24
ATOM     24  O   UNL A   1      33.964  29.079  24.237  1.00  0.00    -0.507 OA
ATOM     25  H   UNL A   1      34.690  28.867  23.683  1.00  0.00     0.293 HD
ENDBRANCH  10  24
ENDBRANCH   1   5
BRANCH   3  26
ATOM     26  C   UNL A   1      31.477  30.830  26.160  1.00  0.00     0.118 C 
BRANCH  26  27
ATOM     27  C   UNL A   1      31.371  32.293  26.542  1.00  0.00     0.042 C 
BRANCH  27  28
ATOM     28  C   UNL A   1      32.586  32.814  27.290  1.00  0.00     0.118 C 
BRANCH  28  29
ATOM     29  N   UNL A   1      32.466  34.226  27.645  1.00  0.00    -0.352 N 
ATOM     30  C   UNL A   1      33.086  34.953  28.639  1.00  0.00     0.251 C 
ATOM     31  H   UNL A   1      31.843  34.743  27.084  1.00  0.00     0.163 HD
ATOM     32  O   UNL A   1      32.677  36.059  28.948  1.00  0.00    -0.269 OA
BRANCH  30  33
ATOM     33  C   UNL A   1      34.233  34.350  29.345  1.00  0.00     0.039 A 
ATOM     34  C   UNL A   1      34.023  33.555  30.474  1.00  0.00     0.014 A 
ATOM     35  C   UNL A   1      35.515  34.535  28.841  1.00  0.00     0.014 A 
ATOM     36  C   UNL A   1      35.102  32.864  31.032  1.00  0.00     0.010 A 
ATOM     37  C   UNL A   1      36.544  33.731  29.291  1.00  0.00     0.010 A 
ATOM     38  C   UNL A   1      36.360  32.905  30.410  1.00  0.00    -0.014 A 
BRANCH  38  39
ATOM     39  C   UNL A   1      37.540  32.162  30.917  1.00  0.00     0.031 A 
ATOM     40  C   UNL A   1      38.279  32.711  32.111  1.00  0.00     0.074 A 
ATOM     41  C   UNL A   1      38.015  31.092  30.253  1.00  0.00     0.049 A 
ATOM     42  N   UNL A   1      39.452  32.383  32.585  1.00  0.00    -0.248 NA
ATOM     43  C   UNL A   1      37.635  33.827  32.829  1.00  0.00     0.031 C 
ATOM     44  C   UNL A   1      37.414  30.487  29.062  1.00  0.00     0.029 A 
ATOM     45  N   UNL A   1      39.134  30.332  30.480  1.00  0.00    -0.354 N 
ATOM     46  C   UNL A   1      39.696  33.273  33.623  1.00  0.00     0.074 A 
ATOM     47  C   UNL A   1      38.595  34.206  33.656  1.00  0.00     0.031 C 
ATOM     48  C   UNL A   1      38.156  29.432  28.683  1.00  0.00     0.029 A 
ATOM     49  C   UNL A   1      39.312  29.321  29.566  1.00  0.00     0.049 A 
ATOM     50  H   UNL A   1      39.753  30.495  31.228  1.00  0.00     0.167 HD
ATOM     51  C   UNL A   1      40.726  33.289  34.499  1.00  0.00     0.037 A 
ATOM     52  C   UNL A   1      40.304  28.419  29.450  1.00  0.00     0.037 A 
ATOM     53  C   UNL A   1      41.788  32.322  34.497  1.00  0.00     0.049 A 
ATOM     54  C   UNL A   1      41.444  28.459  30.434  1.00  0.00     0.074 A 
ATOM     55  C   UNL A   1      42.857  32.212  35.369  1.00  0.00     0.029 A 
ATOM     56  N   UNL A   1      41.904  31.287  33.582  1.00  0.00    -0.354 N 
ATOM     57  N   UNL A   1      41.645  29.281  31.436  1.00  0.00    -0.248 NA
ATOM     58  C   UNL A   1      42.495  27.445  30.272  1.00  0.00     0.031 C 
ATOM     59  C   UNL A   1      43.640  31.130  34.958  1.00  0.00     0.029 A 
ATOM     60  C   UNL A   1      43.029  30.535  33.865  1.00  0.00     0.049 A 
ATOM     61  H   UNL A   1      41.278  31.113  32.843  1.00  0.00     0.167 HD
ATOM     62  C   UNL A   1      42.814  28.854  32.051  1.00  0.00     0.074 A 
ATOM     63  C   UNL A   1      43.279  27.700  31.310  1.00  0.00     0.031 C 
ATOM     64  C   UNL A   1      43.447  29.365  33.135  1.00  0.00     0.037 A 
BRANCH  51  65
ATOM     65  C   UNL A   1      40.732  34.370  35.542  1.00  0.00     0.057 A 
ATOM     66  C   UNL A   1      40.110  34.200  36.786  1.00  0.00     0.134 A 
ATOM     67  C   UNL A   1      41.380  35.589  35.307  1.00  0.00     0.134 A 
ATOM     68  F   UNL A   1      39.456  33.062  37.070  1.00  0.00    -0.206 F 
ATOM     69  C   UNL A   1      40.102  35.213  37.746  1.00  0.00     0.040 A 
ATOM     70  C   UNL A   1      41.408  36.598  36.273  1.00  0.00     0.040 A 
ATOM     71  F   UNL A   1      42.000  35.819  34.139  1.00  0.00    -0.206 F 
ATOM     72  C   UNL A   1      40.760  36.414  37.492  1.00  0.00     0.006 A 
ENDBRANCH  51  65
BRANCH  52  73
ATOM     73  C   UNL A   1      40.262  27.382  28.386  1.00  0.00     0.057 A 
ATOM     74  C   UNL A   1      39.579  26.176  28.587  1.00  0.00     0.134 A 
ATOM     75  C   UNL A   1      40.922  27.550  27.163  1.00  0.00     0.134 A 
ATOM     76  F   UNL A   1      38.940  25.948  29.745  1.00  0.00    -0.206 F 
ATOM     77  C   UNL A   1      39.578  25.163  27.627  1.00  0.00     0.040 A 
ATOM     78  C   UNL A   1      40.907  26.556  26.182  1.00  0.00     0.040 A 
ATOM     79  F   UNL A   1      41.586  28.685  26.901  1.00  0.00    -0.206 F 
ATOM     80  C   UNL A   1      40.243  25.354  26.418  1.00  0.00     0.006 A 
ENDBRANCH  52  73
BRANCH  64  81
ATOM     81  C   UNL A   1      44.661  28.642  33.637  1.00  0.00     0.057 A 
ATOM     82  C   UNL A   1      45.956  28.994  33.242  1.00  0.00     0.134 A 
ATOM     83  C   UNL A   1      44.527  27.625  34.593  1.00  0.00     0.134 A 
ATOM     84  F   UNL A   1      46.149  29.953  32.323  1.00  0.00    -0.206 F 
ATOM     85  C   UNL A   1      47.076  28.349  33.767  1.00  0.00     0.040 A 
ATOM     86  C   UNL A   1      45.640  26.993  35.146  1.00  0.00     0.040 A 
ATOM     87  F   UNL A   1      43.312  27.249  35.022  1.00  0.00    -0.206 F 
ATOM     88  C   UNL A   1      46.920  27.354  34.729  1.00  0.00     0.006 A 
ENDBRANCH  64  81
ENDBRANCH  38  39
ENDBRANCH  30  33
ENDBRANCH  28  29
ENDBRANCH  27  28
ENDBRANCH  26  27
ENDBRANCH   3  26
TORSDOF 17
ENDMDL
MODEL 2
REMARK VINA RESULT:     -11.0      1.033      1.956
REMARK SMILES CCN(CC(C)(C)O)C(=O)Nc1ccc(C(=O)NCCCNC(=O)c2ccc(-c3c4nc(c(-c5c(F)cccc5F)c5ccc([nH]5)c(-c5c(F)cccc5F)c5nc(c(-c6c(F)cccc6F)c6ccc3[nH]6)C=C5)C=C4)cc2)c(O)c1
REMARK SMILES IDX 16 1 17 2 18 3 15 5 12 6 13 7 81 8 14 9 79 10 11 11 9 12
REMARK SMILES IDX 10 13 3 15 2 16 1 17 4 18 5 19 6 20 7 21 8 22 80 24 19 26
REMARK SMILES IDX 20 27 21 28 22 29 23 30 24 32 25 33 26 34 78 35 27 36 77 37
REMARK SMILES IDX 28 38 29 39 30 40 71 41 31 42 76 43 70 44 72 45 32 46 75 47
REMARK SMILES IDX 69 48 68 49 33 51 59 52 42 53 58 54 43 55 46 56 57 57 73 58
REMARK SMILES IDX 44 59 45 60 56 62 74 63 47 64 34 65 35 66 40 67 36 68 37 69
REMARK SMILES IDX 39 70 41 71 38 72 60 73 61 74 66 75 62 76 63 77 65 78 67 79
REMARK SMILES IDX 64 80 48 81 49 82 54 83 50 84 51 85 53 86 55 87 52 88
REMARK H PARENT 18 4 11 14 8 23 80 25 22 31 72 50 46 61
REMARK Flexibility Score: inf
ROOT
ATOM      1  C   UNL A   1      31.204  29.223  24.157  1.00  0.00     0.255 C 
ATOM      2  O   UNL A   1      30.929  29.172  22.961  1.00  0.00    -0.269 OA
ATOM      3  N   UNL A   1      31.257  30.423  24.794  1.00  0.00    -0.352 N 
ATOM      4  H   UNL A   1      31.090  31.209  24.226  1.00  0.00     0.163 HD
ENDROOT
BRANCH   1   5
ATOM      5  C   UNL A   1      31.629  28.014  24.863  1.00  0.00     0.081 A 
ATOM      6  C   UNL A   1      32.091  25.538  26.142  1.00  0.00     0.046 A 
ATOM      7  C   UNL A   1      30.849  25.948  25.733  1.00  0.00     0.027 A 
ATOM      8  C   UNL A   1      33.157  26.405  25.855  1.00  0.00     0.073 A 
ATOM      9  C   UNL A   1      30.587  27.154  25.117  1.00  0.00     0.020 A 
ATOM     10  C   UNL A   1      32.923  27.649  25.240  1.00  0.00     0.130 A 
BRANCH   6  11
ATOM     11  N   UNL A   1      32.328  24.374  26.884  1.00  0.00    -0.308 N 
ATOM     12  C   UNL A   1      32.666  23.074  26.781  1.00  0.00     0.321 C 
ATOM     13  O   UNL A   1      32.579  22.504  27.884  1.00  0.00    -0.248 OA
ATOM     14  H   UNL A   1      32.199  24.584  27.838  1.00  0.00     0.171 HD
BRANCH  12  15
ATOM     15  N   UNL A   1      33.086  22.360  25.689  1.00  0.00    -0.322 N 
BRANCH  15  16
ATOM     16  C   UNL A   1      32.160  21.297  25.254  1.00  0.00     0.118 C 
ATOM     17  C   UNL A   1      32.533  20.741  23.881  1.00  0.00     0.027 C 
ENDBRANCH  15  16
BRANCH  15  18
ATOM     18  C   UNL A   1      34.326  22.377  24.888  1.00  0.00     0.155 C 
BRANCH  18  19
ATOM     19  C   UNL A   1      35.679  22.145  25.671  1.00  0.00     0.077 C 
ATOM     20  C   UNL A   1      36.740  21.276  24.971  1.00  0.00     0.043 C 
ATOM     21  C   UNL A   1      36.289  23.494  26.119  1.00  0.00     0.043 C 
BRANCH  19  22
ATOM     22  O   UNL A   1      35.353  21.439  26.886  1.00  0.00    -0.389 OA
ATOM     23  H   UNL A   1      36.133  20.956  27.199  1.00  0.00     0.211 HD
ENDBRANCH  19  22
ENDBRANCH  18  19
ENDBRANCH  15  18
ENDBRANCH  12  15
ENDBRANCH   6  11
BRANCH  10  24
ATOM     24  O   UNL A   1      34.008  28.460  25.056  1.00  0.00    -0.507 OA
ATOM     25  H   UNL A   1      34.828  28.244  25.457  1.00  0.00     0.293 HD
ENDBRANCH  10  24
ENDBRANCH   1   5
BRANCH   3  26
ATOM     26  C   UNL A   1      31.523  30.711  26.191  1.00  0.00     0.118 C 
BRANCH  26  27
ATOM     27  C   UNL A   1      31.405  32.182  26.536  1.00  0.00     0.042 C 
BRANCH  27  28
ATOM     28  C   UNL A   1      32.643  32.749  27.207  1.00  0.00     0.118 C 
BRANCH  28  29
ATOM     29  N   UNL A   1      32.470  34.138  27.630  1.00  0.00    -0.352 N 
ATOM     30  C   UNL A   1      33.061  34.838  28.659  1.00  0.00     0.251 C 
ATOM     31  H   UNL A   1      31.829  34.657  27.092  1.00  0.00     0.163 HD
ATOM     32  O   UNL A   1      32.609  35.913  29.020  1.00  0.00    -0.269 OA
BRANCH  30  33
ATOM     33  C   UNL A   1      34.228  34.245  29.340  1.00  0.00     0.039 A 
ATOM     34  C   UNL A   1      34.052  33.467  30.486  1.00  0.00     0.014 A 
ATOM     35  C   UNL A   1      35.494  34.423  28.795  1.00  0.00     0.014 A 
ATOM     36  C   UNL A   1      35.147  32.784  31.022  1.00  0.00     0.010 A 
ATOM     37  C   UNL A   1      36.536  33.625  29.227  1.00  0.00     0.010 A 
ATOM     38  C   UNL A   1      36.385  32.815  30.362  1.00  0.00    -0.014 A 
BRANCH  38  39
ATOM     39  C   UNL A   1      37.580  32.080  30.845  1.00  0.00     0.031 A 
ATOM     40  C   UNL A   1      38.361  32.652  32.000  1.00  0.00     0.074 A 
ATOM     41  C   UNL A   1      38.029  30.994  30.189  1.00  0.00     0.049 A 
ATOM     42  N   UNL A   1      39.549  32.330  32.441  1.00  0.00    -0.248 NA
ATOM     43  C   UNL A   1      37.745  33.785  32.716  1.00  0.00     0.031 C 
ATOM     44  C   UNL A   1      37.387  30.365  29.032  1.00  0.00     0.029 A 
ATOM     45  N   UNL A   1      39.154  30.235  30.394  1.00  0.00    -0.354 N 
ATOM     46  C   UNL A   1      39.831  33.241  33.451  1.00  0.00     0.074 A 
ATOM     47  C   UNL A   1      38.734  34.179  33.501  1.00  0.00     0.031 C 
ATOM     48  C   UNL A   1      38.112  29.300  28.651  1.00  0.00     0.029 A 
ATOM     49  C   UNL A   1      39.297  29.203  29.496  1.00  0.00     0.049 A 
ATOM     50  H   UNL A   1      39.798  30.412  31.117  1.00  0.00     0.167 HD
ATOM     51  C   UNL A   1      40.891  33.274  34.291  1.00  0.00     0.037 A 
ATOM     52  C   UNL A   1      40.282  28.296  29.366  1.00  0.00     0.037 A 
ATOM     53  C   UNL A   1      41.949  32.303  34.273  1.00  0.00     0.049 A 
ATOM     54  C   UNL A   1      41.456  28.353  30.310  1.00  0.00     0.074 A 
ATOM     55  C   UNL A   1      43.047  32.208  35.110  1.00  0.00     0.029 A 
ATOM     56  N   UNL A   1      42.031  31.248  33.377  1.00  0.00    -0.354 N 
ATOM     57  N   UNL A   1      41.693  29.196  31.286  1.00  0.00    -0.248 NA
ATOM     58  C   UNL A   1      42.498  27.332  30.134  1.00  0.00     0.031 C 
ATOM     59  C   UNL A   1      43.812  31.115  34.697  1.00  0.00     0.029 A 
ATOM     60  C   UNL A   1      43.163  30.498  33.638  1.00  0.00     0.049 A 
ATOM     61  H   UNL A   1      41.380  31.059  32.664  1.00  0.00     0.167 HD
ATOM     62  C   UNL A   1      42.881  28.778  31.870  1.00  0.00     0.074 A 
ATOM     63  C   UNL A   1      43.317  27.607  31.139  1.00  0.00     0.031 C 
ATOM     64  C   UNL A   1      43.552  29.311  32.920  1.00  0.00     0.037 A 
BRANCH  51  65
ATOM     65  C   UNL A   1      40.935  34.376  35.308  1.00  0.00     0.057 A 
ATOM     66  C   UNL A   1      41.549  35.607  35.039  1.00  0.00     0.134 A 
ATOM     67  C   UNL A   1      40.344  34.214  36.568  1.00  0.00     0.134 A 
ATOM     68  F   UNL A   1      42.150  35.823  33.858  1.00  0.00    -0.206 F 
ATOM     69  C   UNL A   1      41.604  36.623  35.994  1.00  0.00     0.040 A 
ATOM     70  C   UNL A   1      40.363  35.236  37.520  1.00  0.00     0.040 A 
ATOM     71  F   UNL A   1      39.735  33.063  36.893  1.00  0.00    -0.206 F 
ATOM     72  C   UNL A   1      41.002  36.441  37.237  1.00  0.00     0.006 A 
ENDBRANCH  51  65
BRANCH  52  73
ATOM     73  C   UNL A   1      40.201  27.237  28.328  1.00  0.00     0.057 A 
ATOM     74  C   UNL A   1      39.509  26.043  28.573  1.00  0.00     0.134 A 
ATOM     75  C   UNL A   1      40.831  27.369  27.085  1.00  0.00     0.134 A 
ATOM     76  F   UNL A   1      38.897  25.849  29.751  1.00  0.00    -0.206 F 
ATOM     77  C   UNL A   1      39.472  25.010  27.636  1.00  0.00     0.040 A 
ATOM     78  C   UNL A   1      40.780  26.354  26.127  1.00  0.00     0.040 A 
ATOM     79  F   UNL A   1      41.502  28.489  26.780  1.00  0.00    -0.206 F 
ATOM     80  C   UNL A   1      40.108  25.165  26.406  1.00  0.00     0.006 A 
ENDBRANCH  52  73
BRANCH  64  81
ATOM     81  C   UNL A   1      44.780  28.595  33.396  1.00  0.00     0.057 A 
ATOM     82  C   UNL A   1      44.724  27.558  34.335  1.00  0.00     0.134 A 
ATOM     83  C   UNL A   1      46.031  28.902  32.842  1.00  0.00     0.134 A 
ATOM     84  F   UNL A   1      43.558  27.224  34.908  1.00  0.00    -0.206 F 
ATOM     85  C   UNL A   1      45.871  26.863  34.719  1.00  0.00     0.040 A 
ATOM     86  C   UNL A   1      47.179  28.195  33.196  1.00  0.00     0.040 A 
ATOM     87  F   UNL A   1      46.150  29.878  31.928  1.00  0.00    -0.206 F 
ATOM     88  C   UNL A   1      47.100  27.173  34.141  1.00  0.00     0.006 A 
ENDBRANCH  64  81
ENDBRANCH  38  39
ENDBRANCH  30  33
ENDBRANCH  28  29
ENDBRANCH  27  28
ENDBRANCH  26  27
ENDBRANCH   3  26
TORSDOF 17
ENDMDL
MODEL 3
REMARK VINA RESULT:     -10.9      3.621      9.260
REMARK SMILES CCN(CC(C)(C)O)C(=O)Nc1ccc(C(=O)NCCCNC(=O)c2ccc(-c3c4nc(c(-c5c(F)cccc5F)c5ccc([nH]5)c(-c5c(F)cccc5F)c5nc(c(-c6c(F)cccc6F)c6ccc3[nH]6)C=C5)C=C4)cc2)c(O)c1
REMARK SMILES IDX 16 1 17 2 18 3 15 5 12 6 13 7 81 8 14 9 79 10 11 11 9 12
REMARK SMILES IDX 10 13 3 15 2 16 1 17 4 18 5 19 6 20 7 21 8 22 80 24 19 26
REMARK SMILES IDX 20 27 21 28 22 29 23 30 24 32 25 33 26 34 78 35 27 36 77 37
REMARK SMILES IDX 28 38 29 39 30 40 71 41 31 42 76 43 70 44 72 45 32 46 75 47
REMARK SMILES IDX 69 48 68 49 33 51 59 52 42 53 58 54 43 55 46 56 57 57 73 58
REMARK SMILES IDX 44 59 45 60 56 62 74 63 47 64 34 65 35 66 40 67 36 68 37 69
REMARK SMILES IDX 39 70 41 71 38 72 60 73 61 74 66 75 62 76 63 77 65 78 67 79
REMARK SMILES IDX 64 80 48 81 49 82 54 83 50 84 51 85 53 86 55 87 52 88
REMARK H PARENT 18 4 11 14 8 23 80 25 22 31 72 50 46 61
REMARK Flexibility Score: inf
ROOT
ATOM      1  C   UNL A   1      34.365  20.534  24.975  1.00  0.00     0.255 C 
ATOM      2  O   UNL A   1      33.380  19.813  25.113  1.00  0.00    -0.269 OA
ATOM      3  N   UNL A   1      35.615  20.003  25.051  1.00  0.00    -0.352 N 
ATOM      4  H   UNL A   1      35.652  19.040  25.246  1.00  0.00     0.163 HD
ENDROOT
BRANCH   1   5
ATOM      5  C   UNL A   1      34.205  21.986  24.888  1.00  0.00     0.081 A 
ATOM      6  C   UNL A   1      33.698  24.718  24.383  1.00  0.00     0.046 A 
ATOM      7  C   UNL A   1      33.495  23.735  23.449  1.00  0.00     0.027 A 
ATOM      8  C   UNL A   1      34.140  24.294  25.646  1.00  0.00     0.073 A 
ATOM      9  C   UNL A   1      33.743  22.395  23.659  1.00  0.00     0.020 A 
ATOM     10  C   UNL A   1      34.416  22.936  25.889  1.00  0.00     0.130 A 
BRANCH   6  11
ATOM     11  N   UNL A   1      33.571  26.088  24.120  1.00  0.00    -0.308 N 
ATOM     12  C   UNL A   1      32.702  27.118  24.135  1.00  0.00     0.321 C 
ATOM     13  O   UNL A   1      33.210  28.134  23.625  1.00  0.00    -0.248 OA
ATOM     14  H   UNL A   1      34.442  26.424  23.806  1.00  0.00     0.171 HD
BRANCH  12  15
ATOM     15  N   UNL A   1      31.426  27.183  24.629  1.00  0.00    -0.322 N 
BRANCH  15  16
ATOM     16  C   UNL A   1      31.328  27.066  26.097  1.00  0.00     0.118 C 
ATOM     17  C   UNL A   1      32.242  28.059  26.812  1.00  0.00     0.027 C 
ENDBRANCH  15  16
BRANCH  15  18
ATOM     18  C   UNL A   1      30.099  27.270  23.989  1.00  0.00     0.155 C 
BRANCH  18  19
ATOM     19  C   UNL A   1      29.814  28.561  23.123  1.00  0.00     0.077 C 
ATOM     20  C   UNL A   1      28.381  28.725  22.582  1.00  0.00     0.043 C 
ATOM     21  C   UNL A   1      30.260  29.835  23.879  1.00  0.00     0.043 C 
BRANCH  19  22
ATOM     22  O   UNL A   1      30.654  28.484  21.953  1.00  0.00    -0.389 OA
ATOM     23  H   UNL A   1      30.923  29.378  21.689  1.00  0.00     0.211 HD
ENDBRANCH  19  22
ENDBRANCH  18  19
ENDBRANCH  15  18
ENDBRANCH  12  15
ENDBRANCH   6  11
BRANCH  10  24
ATOM     24  O   UNL A   1      34.906  22.618  27.125  1.00  0.00    -0.507 OA
ATOM     25  H   UNL A   1      35.799  22.348  27.220  1.00  0.00     0.293 HD
ENDBRANCH  10  24
ENDBRANCH   1   5
BRANCH   3  26
ATOM     26  C   UNL A   1      36.901  20.654  24.887  1.00  0.00     0.118 C 
BRANCH  26  27
ATOM     27  C   UNL A   1      38.075  19.699  24.974  1.00  0.00     0.042 C 
BRANCH  27  28
ATOM     28  C   UNL A   1      39.267  20.269  25.723  1.00  0.00     0.118 C 
BRANCH  28  29
ATOM     29  N   UNL A   1      40.339  19.292  25.904  1.00  0.00    -0.352 N 
ATOM     30  C   UNL A   1      41.678  19.476  26.174  1.00  0.00     0.251 C 
ATOM     31  H   UNL A   1      40.060  18.351  25.820  1.00  0.00     0.163 HD
ATOM     32  O   UNL A   1      42.471  18.558  26.041  1.00  0.00    -0.269 OA
BRANCH  30  33
ATOM     33  C   UNL A   1      42.138  20.814  26.592  1.00  0.00     0.039 A 
ATOM     34  C   UNL A   1      42.568  21.738  25.638  1.00  0.00     0.014 A 
ATOM     35  C   UNL A   1      42.084  21.161  27.937  1.00  0.00     0.014 A 
ATOM     36  C   UNL A   1      42.847  23.049  26.034  1.00  0.00     0.010 A 
ATOM     37  C   UNL A   1      42.202  22.488  28.300  1.00  0.00     0.010 A 
ATOM     38  C   UNL A   1      42.612  23.446  27.360  1.00  0.00    -0.014 A 
BRANCH  38  39
ATOM     39  C   UNL A   1      42.840  24.830  27.845  1.00  0.00     0.031 A 
ATOM     40  C   UNL A   1      44.229  25.221  28.282  1.00  0.00     0.074 A 
ATOM     41  C   UNL A   1      41.809  25.679  28.008  1.00  0.00     0.049 A 
ATOM     42  N   UNL A   1      44.624  26.272  28.951  1.00  0.00    -0.248 NA
ATOM     43  C   UNL A   1      45.310  24.264  27.978  1.00  0.00     0.031 C 
ATOM     44  C   UNL A   1      40.412  25.407  27.662  1.00  0.00     0.029 A 
ATOM     45  N   UNL A   1      41.777  26.946  28.533  1.00  0.00    -0.354 N 
ATOM     46  C   UNL A   1      45.981  26.080  29.177  1.00  0.00     0.074 A 
ATOM     47  C   UNL A   1      46.324  24.779  28.653  1.00  0.00     0.031 C 
ATOM     48  C   UNL A   1      39.667  26.486  27.955  1.00  0.00     0.029 A 
ATOM     49  C   UNL A   1      40.520  27.503  28.561  1.00  0.00     0.049 A 
ATOM     50  H   UNL A   1      42.580  27.415  28.857  1.00  0.00     0.167 HD
ATOM     51  C   UNL A   1      46.875  26.928  29.737  1.00  0.00     0.037 A 
ATOM     52  C   UNL A   1      40.107  28.692  29.038  1.00  0.00     0.037 A 
ATOM     53  C   UNL A   1      46.538  28.244  30.203  1.00  0.00     0.049 A 
ATOM     54  C   UNL A   1      41.119  29.618  29.661  1.00  0.00     0.074 A 
ATOM     55  C   UNL A   1      47.372  29.208  30.741  1.00  0.00     0.029 A 
ATOM     56  N   UNL A   1      45.262  28.785  30.171  1.00  0.00    -0.354 N 
ATOM     57  N   UNL A   1      42.407  29.442  29.834  1.00  0.00    -0.248 NA
ATOM     58  C   UNL A   1      40.619  30.909  30.154  1.00  0.00     0.031 C 
ATOM     59  C   UNL A   1      46.591  30.320  31.068  1.00  0.00     0.029 A 
ATOM     60  C   UNL A   1      45.283  30.069  30.683  1.00  0.00     0.049 A 
ATOM     61  H   UNL A   1      44.460  28.324  29.832  1.00  0.00     0.167 HD
ATOM     62  C   UNL A   1      42.878  30.616  30.409  1.00  0.00     0.074 A 
ATOM     63  C   UNL A   1      41.738  31.496  30.555  1.00  0.00     0.031 C 
ATOM     64  C   UNL A   1      44.140  30.940  30.779  1.00  0.00     0.037 A 
BRANCH  51  65
ATOM     65  C   UNL A   1      48.298  26.462  29.845  1.00  0.00     0.057 A 
ATOM     66  C   UNL A   1      48.762  25.757  30.964  1.00  0.00     0.134 A 
ATOM     67  C   UNL A   1      49.213  26.707  28.814  1.00  0.00     0.134 A 
ATOM     68  F   UNL A   1      47.941  25.504  31.997  1.00  0.00    -0.206 F 
ATOM     69  C   UNL A   1      50.089  25.342  31.070  1.00  0.00     0.040 A 
ATOM     70  C   UNL A   1      50.536  26.267  28.893  1.00  0.00     0.040 A 
ATOM     71  F   UNL A   1      48.837  27.373  27.712  1.00  0.00    -0.206 F 
ATOM     72  C   UNL A   1      50.979  25.590  30.027  1.00  0.00     0.006 A 
ENDBRANCH  51  65
BRANCH  52  73
ATOM     73  C   UNL A   1      38.682  29.097  28.925  1.00  0.00     0.057 A 
ATOM     74  C   UNL A   1      37.811  28.966  30.014  1.00  0.00     0.134 A 
ATOM     75  C   UNL A   1      38.146  29.592  27.731  1.00  0.00     0.134 A 
ATOM     76  F   UNL A   1      38.261  28.482  31.182  1.00  0.00    -0.206 F 
ATOM     77  C   UNL A   1      36.455  29.281  29.913  1.00  0.00     0.040 A 
ATOM     78  C   UNL A   1      36.797  29.938  27.623  1.00  0.00     0.040 A 
ATOM     79  F   UNL A   1      38.926  29.753  26.652  1.00  0.00    -0.206 F 
ATOM     80  C   UNL A   1      35.945  29.771  28.713  1.00  0.00     0.006 A 
ENDBRANCH  52  73
BRANCH  64  81
ATOM     81  C   UNL A   1      44.377  32.325  31.302  1.00  0.00     0.057 A 
ATOM     82  C   UNL A   1      44.340  32.624  32.668  1.00  0.00     0.134 A 
ATOM     83  C   UNL A   1      44.724  33.359  30.420  1.00  0.00     0.134 A 
ATOM     84  F   UNL A   1      44.005  31.680  33.561  1.00  0.00    -0.206 F 
ATOM     85  C   UNL A   1      44.623  33.906  33.140  1.00  0.00     0.040 A 
ATOM     86  C   UNL A   1      45.038  34.636  30.881  1.00  0.00     0.040 A 
ATOM     87  F   UNL A   1      44.789  33.134  29.098  1.00  0.00    -0.206 F 
ATOM     88  C   UNL A   1      44.984  34.913  32.247  1.00  0.00     0.006 A 
ENDBRANCH  64  81
ENDBRANCH  38  39
ENDBRANCH  30  33
ENDBRANCH  28  29
ENDBRANCH  27  28
ENDBRANCH  26  27
ENDBRANCH   3  26
TORSDOF 17
ENDMDL
