MODEL 1
REMARK VINA RESULT:     -11.9      0.000      0.000
REMARK SMILES C[C@@H](C(=O)NCCCNC(=O)c1ccc(-c2c3nc(c(-c4c(F)cccc4F)c4ccc([nH]4)c(-c4c(F)cccc4F)c4nc(c(-c5c(F)cccc5F)c5ccc2[nH]5)C=C4)C=C3)cc1)c1ccc(C[C@H]2CCC[C@H]2O)cc1
REMARK SMILES IDX 6 1 5 2 3 3 4 4 2 6 1 7 66 8 67 9 78 10 68 11 77 12 69 13
REMARK SMILES IDX 70 14 71 15 72 16 75 17 73 18 74 19 76 20 7 22 8 23 9 24
REMARK SMILES IDX 10 25 11 27 12 28 13 29 65 30 14 31 64 32 15 33 16 34 17 35
REMARK SMILES IDX 58 36 18 37 63 38 57 39 59 40 19 41 62 42 56 43 55 44 20 46
REMARK SMILES IDX 46 47 29 48 45 49 30 50 33 51 44 52 60 53 31 54 32 55 43 57
REMARK SMILES IDX 61 58 34 59 21 60 22 61 27 62 23 63 24 64 26 65 28 66 25 67
REMARK SMILES IDX 47 68 48 69 53 70 49 71 50 72 52 73 54 74 51 75 35 76 36 77
REMARK SMILES IDX 41 78 37 79 38 80 40 81 42 82 39 83
REMARK H PARENT 5 5 76 21 9 26 59 45 33 56
REMARK Flexibility Score: inf
ROOT
ATOM      1  C   UNL A   1      31.663  27.678  26.102  1.00  0.00     0.117 C 
ENDROOT
BRANCH   1   2
ATOM      2  N   UNL A   1      30.946  26.539  26.643  1.00  0.00    -0.356 N 
ATOM      3  C   UNL A   1      30.685  25.316  26.095  1.00  0.00     0.227 C 
ATOM      4  O   UNL A   1      29.928  24.578  26.727  1.00  0.00    -0.274 OA
ATOM      5  H   UNL A   1      30.591  26.669  27.552  1.00  0.00     0.163 HD
BRANCH   3   6
ATOM      6  C   UNL A   1      31.335  24.928  24.764  1.00  0.00     0.105 C 
ATOM      7  C   UNL A   1      30.332  24.974  23.604  1.00  0.00     0.023 C 
BRANCH   6   8
ATOM      8  C   UNL A   1      32.009  23.563  24.809  1.00  0.00    -0.036 A 
ATOM      9  C   UNL A   1      32.864  23.239  25.869  1.00  0.00     0.005 A 
ATOM     10  C   UNL A   1      31.837  22.629  23.775  1.00  0.00     0.005 A 
ATOM     11  C   UNL A   1      33.599  22.054  25.847  1.00  0.00     0.004 A 
ATOM     12  C   UNL A   1      32.587  21.455  23.748  1.00  0.00     0.004 A 
ATOM     13  C   UNL A   1      33.522  21.187  24.753  1.00  0.00    -0.048 A 
BRANCH  13  14
ATOM     14  C   UNL A   1      34.466  20.018  24.626  1.00  0.00     0.041 C 
BRANCH  14  15
ATOM     15  C   UNL A   1      33.827  18.626  24.452  1.00  0.00     0.022 C 
ATOM     16  C   UNL A   1      34.778  17.417  24.527  1.00  0.00     0.007 C 
ATOM     17  C   UNL A   1      32.658  18.251  25.377  1.00  0.00     0.117 C 
ATOM     18  C   UNL A   1      33.939  16.246  25.047  1.00  0.00     0.003 C 
ATOM     19  C   UNL A   1      32.503  16.755  25.125  1.00  0.00     0.032 C 
BRANCH  17  20
ATOM     20  O   UNL A   1      32.903  18.453  26.758  1.00  0.00    -0.393 OA
ATOM     21  H   UNL A   1      33.695  19.001  26.869  1.00  0.00     0.210 HD
ENDBRANCH  17  20
ENDBRANCH  14  15
ENDBRANCH  13  14
ENDBRANCH   6   8
ENDBRANCH   3   6
ENDBRANCH   1   2
BRANCH   1  22
ATOM     22  C   UNL A   1      33.054  27.814  26.720  1.00  0.00     0.042 C 
BRANCH  22  23
ATOM     23  C   UNL A   1      33.966  28.817  26.019  1.00  0.00     0.118 C 
BRANCH  23  24
ATOM     24  N   UNL A   1      33.824  30.166  26.535  1.00  0.00    -0.352 N 
ATOM     25  C   UNL A   1      34.548  30.837  27.486  1.00  0.00     0.251 C 
ATOM     26  H   UNL A   1      33.087  30.684  26.138  1.00  0.00     0.163 HD
ATOM     27  O   UNL A   1      34.145  31.926  27.886  1.00  0.00    -0.269 OA
BRANCH  25  28
ATOM     28  C   UNL A   1      35.791  30.266  28.053  1.00  0.00     0.039 A 
ATOM     29  C   UNL A   1      36.953  30.324  27.278  1.00  0.00     0.014 A 
ATOM     30  C   UNL A   1      35.819  29.629  29.298  1.00  0.00     0.014 A 
ATOM     31  C   UNL A   1      38.148  29.791  27.768  1.00  0.00     0.010 A 
ATOM     32  C   UNL A   1      37.026  29.156  29.815  1.00  0.00     0.010 A 
ATOM     33  C   UNL A   1      38.201  29.227  29.053  1.00  0.00    -0.014 A 
BRANCH  33  34
ATOM     34  C   UNL A   1      39.488  28.730  29.600  1.00  0.00     0.031 A 
ATOM     35  C   UNL A   1      40.110  29.366  30.812  1.00  0.00     0.074 A 
ATOM     36  C   UNL A   1      40.112  27.707  28.984  1.00  0.00     0.049 A 
ATOM     37  N   UNL A   1      41.213  29.043  31.438  1.00  0.00    -0.248 NA
ATOM     38  C   UNL A   1      39.414  30.529  31.383  1.00  0.00     0.031 C 
ATOM     39  C   UNL A   1      39.642  27.041  27.767  1.00  0.00     0.029 A 
ATOM     40  N   UNL A   1      41.272  27.046  29.298  1.00  0.00    -0.354 N 
ATOM     41  C   UNL A   1      41.346  29.961  32.471  1.00  0.00     0.074 A 
ATOM     42  C   UNL A   1      40.238  30.886  32.357  1.00  0.00     0.031 C 
ATOM     43  C   UNL A   1      40.490  26.047  27.457  1.00  0.00     0.029 A 
ATOM     44  C   UNL A   1      41.572  26.021  28.436  1.00  0.00     0.049 A 
ATOM     45  H   UNL A   1      41.836  27.285  30.070  1.00  0.00     0.167 HD
ATOM     46  C   UNL A   1      42.291  30.015  33.441  1.00  0.00     0.037 A 
ATOM     47  C   UNL A   1      42.599  25.151  28.437  1.00  0.00     0.037 A 
ATOM     48  C   UNL A   1      43.384  29.087  33.566  1.00  0.00     0.049 A 
ATOM     49  C   UNL A   1      43.621  25.220  29.534  1.00  0.00     0.074 A 
ATOM     50  C   UNL A   1      44.361  29.028  34.546  1.00  0.00     0.029 A 
ATOM     51  N   UNL A   1      43.646  28.053  32.681  1.00  0.00    -0.354 N 
ATOM     52  N   UNL A   1      43.693  26.050  30.545  1.00  0.00    -0.248 NA
ATOM     53  C   UNL A   1      44.699  24.221  29.496  1.00  0.00     0.031 C 
ATOM     54  C   UNL A   1      45.233  27.979  34.234  1.00  0.00     0.029 A 
ATOM     55  C   UNL A   1      44.778  27.361  33.080  1.00  0.00     0.049 A 
ATOM     56  H   UNL A   1      43.107  27.841  31.884  1.00  0.00     0.167 HD
ATOM     57  C   UNL A   1      44.812  25.667  31.273  1.00  0.00     0.074 A 
ATOM     58  C   UNL A   1      45.375  24.514  30.599  1.00  0.00     0.031 C 
ATOM     59  C   UNL A   1      45.331  26.222  32.395  1.00  0.00     0.037 A 
BRANCH  46  60
ATOM     60  C   UNL A   1      42.176  31.117  34.454  1.00  0.00     0.057 A 
ATOM     61  C   UNL A   1      42.806  32.355  34.267  1.00  0.00     0.134 A 
ATOM     62  C   UNL A   1      41.401  30.954  35.608  1.00  0.00     0.134 A 
ATOM     63  F   UNL A   1      43.573  32.572  33.188  1.00  0.00    -0.206 F 
ATOM     64  C   UNL A   1      42.687  33.384  35.205  1.00  0.00     0.040 A 
ATOM     65  C   UNL A   1      41.256  31.983  36.541  1.00  0.00     0.040 A 
ATOM     66  F   UNL A   1      40.767  29.796  35.846  1.00  0.00    -0.206 F 
ATOM     67  C   UNL A   1      41.905  33.200  36.343  1.00  0.00     0.006 A 
ENDBRANCH  46  60
BRANCH  47  68
ATOM     68  C   UNL A   1      42.689  24.114  27.379  1.00  0.00     0.057 A 
ATOM     69  C   UNL A   1      42.150  22.838  27.573  1.00  0.00     0.134 A 
ATOM     70  C   UNL A   1      43.313  24.375  26.154  1.00  0.00     0.134 A 
ATOM     71  F   UNL A   1      41.556  22.526  28.734  1.00  0.00    -0.206 F 
ATOM     72  C   UNL A   1      42.242  21.850  26.592  1.00  0.00     0.040 A 
ATOM     73  C   UNL A   1      43.393  23.403  25.156  1.00  0.00     0.040 A 
ATOM     74  F   UNL A   1      43.842  25.583  25.907  1.00  0.00    -0.206 F 
ATOM     75  C   UNL A   1      42.861  22.134  25.376  1.00  0.00     0.006 A 
ENDBRANCH  47  68
BRANCH  59  76
ATOM     76  C   UNL A   1      46.561  25.579  32.963  1.00  0.00     0.057 A 
ATOM     77  C   UNL A   1      46.486  24.590  33.951  1.00  0.00     0.134 A 
ATOM     78  C   UNL A   1      47.834  25.945  32.508  1.00  0.00     0.134 A 
ATOM     79  F   UNL A   1      45.296  24.206  34.438  1.00  0.00    -0.206 F 
ATOM     80  C   UNL A   1      47.635  24.007  34.489  1.00  0.00     0.040 A 
ATOM     81  C   UNL A   1      48.989  25.352  33.021  1.00  0.00     0.040 A 
ATOM     82  F   UNL A   1      47.976  26.881  31.558  1.00  0.00    -0.206 F 
ATOM     83  C   UNL A   1      48.890  24.386  34.020  1.00  0.00     0.006 A 
ENDBRANCH  59  76
ENDBRANCH  33  34
ENDBRANCH  25  28
ENDBRANCH  23  24
ENDBRANCH  22  23
ENDBRANCH   1  22
TORSDOF 14
ENDMDL
MODEL 2
REMARK VINA RESULT:     -11.8      4.388      8.024
REMARK SMILES C[C@@H](C(=O)NCCCNC(=O)c1ccc(-c2c3nc(c(-c4c(F)cccc4F)c4ccc([nH]4)c(-c4c(F)cccc4F)c4nc(c(-c5c(F)cccc5F)c5ccc2[nH]5)C=C4)C=C3)cc1)c1ccc(C[C@H]2CCC[C@H]2O)cc1
REMARK SMILES IDX 6 1 5 2 3 3 4 4 2 6 1 7 66 8 67 9 78 10 68 11 77 12 69 13
REMARK SMILES IDX 70 14 71 15 72 16 75 17 73 18 74 19 76 20 7 22 8 23 9 24
REMARK SMILES IDX 10 25 11 27 12 28 13 29 65 30 14 31 64 32 15 33 16 34 17 35
REMARK SMILES IDX 58 36 18 37 63 38 57 39 59 40 19 41 62 42 56 43 55 44 20 46
REMARK SMILES IDX 46 47 29 48 45 49 30 50 33 51 44 52 60 53 31 54 32 55 43 57
REMARK SMILES IDX 61 58 34 59 21 60 22 61 27 62 23 63 24 64 26 65 28 66 25 67
REMARK SMILES IDX 47 68 48 69 53 70 49 71 50 72 52 73 54 74 51 75 35 76 36 77
REMARK SMILES IDX 41 78 37 79 38 80 40 81 42 82 39 83
REMARK H PARENT 5 5 76 21 9 26 59 45 33 56
REMARK Flexibility Score: inf
ROOT
ATOM      1  C   UNL A   1      33.290  35.224  28.911  1.00  0.00     0.117 C 
ENDROOT
BRANCH   1   2
ATOM      2  N   UNL A   1      33.482  36.414  29.717  1.00  0.00    -0.356 N 
ATOM      3  C   UNL A   1      33.108  36.682  31.002  1.00  0.00     0.227 C 
ATOM      4  O   UNL A   1      33.278  37.836  31.398  1.00  0.00    -0.274 OA
ATOM      5  H   UNL A   1      33.959  37.146  29.264  1.00  0.00     0.163 HD
BRANCH   3   6
ATOM      6  C   UNL A   1      32.520  35.565  31.869  1.00  0.00     0.105 C 
ATOM      7  C   UNL A   1      31.397  36.078  32.778  1.00  0.00     0.023 C 
BRANCH   6   8
ATOM      8  C   UNL A   1      33.573  34.847  32.705  1.00  0.00    -0.036 A 
ATOM      9  C   UNL A   1      34.343  35.566  33.627  1.00  0.00     0.005 A 
ATOM     10  C   UNL A   1      33.831  33.479  32.536  1.00  0.00     0.005 A 
ATOM     11  C   UNL A   1      35.405  34.953  34.290  1.00  0.00     0.004 A 
ATOM     12  C   UNL A   1      34.905  32.874  33.186  1.00  0.00     0.004 A 
ATOM     13  C   UNL A   1      35.741  33.622  34.021  1.00  0.00    -0.048 A 
BRANCH  13  14
ATOM     14  C   UNL A   1      37.008  33.019  34.572  1.00  0.00     0.041 C 
BRANCH  14  15
ATOM     15  C   UNL A   1      38.298  33.252  33.761  1.00  0.00     0.022 C 
ATOM     16  C   UNL A   1      38.124  33.772  32.323  1.00  0.00     0.007 C 
ATOM     17  C   UNL A   1      39.374  34.165  34.370  1.00  0.00     0.117 C 
ATOM     18  C   UNL A   1      39.386  34.578  32.004  1.00  0.00     0.003 C 
ATOM     19  C   UNL A   1      40.320  34.391  33.195  1.00  0.00     0.032 C 
BRANCH  17  20
ATOM     20  O   UNL A   1      38.903  35.425  34.818  1.00  0.00    -0.393 OA
ATOM     21  H   UNL A   1      39.646  35.946  35.159  1.00  0.00     0.210 HD
ENDBRANCH  17  20
ENDBRANCH  14  15
ENDBRANCH  13  14
ENDBRANCH   6   8
ENDBRANCH   3   6
ENDBRANCH   1   2
BRANCH   1  22
ATOM     22  C   UNL A   1      34.623  34.615  28.479  1.00  0.00     0.042 C 
BRANCH  22  23
ATOM     23  C   UNL A   1      34.858  33.188  28.968  1.00  0.00     0.118 C 
BRANCH  23  24
ATOM     24  N   UNL A   1      34.211  32.192  28.133  1.00  0.00    -0.352 N 
ATOM     25  C   UNL A   1      34.644  30.958  27.720  1.00  0.00     0.251 C 
ATOM     26  H   UNL A   1      33.316  32.443  27.810  1.00  0.00     0.163 HD
ATOM     27  O   UNL A   1      33.993  30.349  26.876  1.00  0.00    -0.269 OA
BRANCH  25  28
ATOM     28  C   UNL A   1      35.887  30.359  28.257  1.00  0.00     0.039 A 
ATOM     29  C   UNL A   1      37.065  30.522  27.521  1.00  0.00     0.014 A 
ATOM     30  C   UNL A   1      35.902  29.598  29.430  1.00  0.00     0.014 A 
ATOM     31  C   UNL A   1      38.260  29.968  27.984  1.00  0.00     0.010 A 
ATOM     32  C   UNL A   1      37.109  29.101  29.926  1.00  0.00     0.010 A 
ATOM     33  C   UNL A   1      38.298  29.276  29.206  1.00  0.00    -0.014 A 
BRANCH  33  34
ATOM     34  C   UNL A   1      39.585  28.754  29.731  1.00  0.00     0.031 A 
ATOM     35  C   UNL A   1      40.231  29.368  30.941  1.00  0.00     0.074 A 
ATOM     36  C   UNL A   1      40.186  27.729  29.096  1.00  0.00     0.049 A 
ATOM     37  N   UNL A   1      41.337  29.021  31.550  1.00  0.00    -0.248 NA
ATOM     38  C   UNL A   1      39.559  30.534  31.534  1.00  0.00     0.031 C 
ATOM     39  C   UNL A   1      39.691  27.084  27.878  1.00  0.00     0.029 A 
ATOM     40  N   UNL A   1      41.340  27.048  29.388  1.00  0.00    -0.354 N 
ATOM     41  C   UNL A   1      41.496  29.926  32.592  1.00  0.00     0.074 A 
ATOM     42  C   UNL A   1      40.400  30.868  32.502  1.00  0.00     0.031 C 
ATOM     43  C   UNL A   1      40.521  26.081  27.546  1.00  0.00     0.029 A 
ATOM     44  C   UNL A   1      41.613  26.028  28.511  1.00  0.00     0.049 A 
ATOM     45  H   UNL A   1      41.917  27.270  30.155  1.00  0.00     0.167 HD
ATOM     46  C   UNL A   1      42.454  29.955  33.551  1.00  0.00     0.037 A 
ATOM     47  C   UNL A   1      42.627  25.143  28.489  1.00  0.00     0.037 A 
ATOM     48  C   UNL A   1      43.534  29.009  33.651  1.00  0.00     0.049 A 
ATOM     49  C   UNL A   1      43.664  25.184  29.575  1.00  0.00     0.074 A 
ATOM     50  C   UNL A   1      44.522  28.925  34.619  1.00  0.00     0.029 A 
ATOM     51  N   UNL A   1      43.770  27.981  32.752  1.00  0.00    -0.354 N 
ATOM     52  N   UNL A   1      43.761  26.002  30.594  1.00  0.00    -0.248 NA
ATOM     53  C   UNL A   1      44.727  24.170  29.512  1.00  0.00     0.031 C 
ATOM     54  C   UNL A   1      45.374  27.867  34.284  1.00  0.00     0.029 A 
ATOM     55  C   UNL A   1      44.897  27.268  33.129  1.00  0.00     0.049 A 
ATOM     56  H   UNL A   1      43.218  27.786  31.959  1.00  0.00     0.167 HD
ATOM     57  C   UNL A   1      44.883  25.594  31.303  1.00  0.00     0.074 A 
ATOM     58  C   UNL A   1      45.420  24.441  30.609  1.00  0.00     0.031 C 
ATOM     59  C   UNL A   1      45.423  26.129  32.425  1.00  0.00     0.037 A 
BRANCH  46  60
ATOM     60  C   UNL A   1      42.368  31.047  34.577  1.00  0.00     0.057 A 
ATOM     61  C   UNL A   1      41.565  30.921  35.718  1.00  0.00     0.134 A 
ATOM     62  C   UNL A   1      43.120  32.220  34.443  1.00  0.00     0.134 A 
ATOM     63  F   UNL A   1      40.810  29.827  35.901  1.00  0.00    -0.206 F 
ATOM     64  C   UNL A   1      41.496  31.933  36.679  1.00  0.00     0.040 A 
ATOM     65  C   UNL A   1      43.077  33.229  35.408  1.00  0.00     0.040 A 
ATOM     66  F   UNL A   1      43.914  32.403  33.377  1.00  0.00    -0.206 F 
ATOM     67  C   UNL A   1      42.259  33.088  36.527  1.00  0.00     0.006 A 
ENDBRANCH  46  60
BRANCH  47  68
ATOM     68  C   UNL A   1      42.689  24.117  27.420  1.00  0.00     0.057 A 
ATOM     69  C   UNL A   1      43.310  24.388  26.196  1.00  0.00     0.134 A 
ATOM     70  C   UNL A   1      42.130  22.846  27.595  1.00  0.00     0.134 A 
ATOM     71  F   UNL A   1      43.847  25.595  25.964  1.00  0.00    -0.206 F 
ATOM     72  C   UNL A   1      43.361  23.436  25.176  1.00  0.00     0.040 A 
ATOM     73  C   UNL A   1      42.193  21.877  26.593  1.00  0.00     0.040 A 
ATOM     74  F   UNL A   1      41.528  22.525  28.750  1.00  0.00    -0.206 F 
ATOM     75  C   UNL A   1      42.805  22.174  25.376  1.00  0.00     0.006 A 
ENDBRANCH  47  68
BRANCH  59  76
ATOM     76  C   UNL A   1      46.651  25.462  32.970  1.00  0.00     0.057 A 
ATOM     77  C   UNL A   1      46.572  24.455  33.940  1.00  0.00     0.134 A 
ATOM     78  C   UNL A   1      47.924  25.822  32.511  1.00  0.00     0.134 A 
ATOM     79  F   UNL A   1      45.382  24.077  34.431  1.00  0.00    -0.206 F 
ATOM     80  C   UNL A   1      47.719  23.850  34.458  1.00  0.00     0.040 A 
ATOM     81  C   UNL A   1      49.076  25.207  33.003  1.00  0.00     0.040 A 
ATOM     82  F   UNL A   1      48.069  26.774  31.577  1.00  0.00    -0.206 F 
ATOM     83  C   UNL A   1      48.975  24.223  33.985  1.00  0.00     0.006 A 
ENDBRANCH  59  76
ENDBRANCH  33  34
ENDBRANCH  25  28
ENDBRANCH  23  24
ENDBRANCH  22  23
ENDBRANCH   1  22
TORSDOF 14
ENDMDL
MODEL 3
REMARK VINA RESULT:     -11.7      3.511      8.046
REMARK SMILES C[C@@H](C(=O)NCCCNC(=O)c1ccc(-c2c3nc(c(-c4c(F)cccc4F)c4ccc([nH]4)c(-c4c(F)cccc4F)c4nc(c(-c5c(F)cccc5F)c5ccc2[nH]5)C=C4)C=C3)cc1)c1ccc(C[C@H]2CCC[C@H]2O)cc1
REMARK SMILES IDX 6 1 5 2 3 3 4 4 2 6 1 7 66 8 67 9 78 10 68 11 77 12 69 13
REMARK SMILES IDX 70 14 71 15 72 16 75 17 73 18 74 19 76 20 7 22 8 23 9 24
REMARK SMILES IDX 10 25 11 27 12 28 13 29 65 30 14 31 64 32 15 33 16 34 17 35
REMARK SMILES IDX 58 36 18 37 63 38 57 39 59 40 19 41 62 42 56 43 55 44 20 46
REMARK SMILES IDX 46 47 29 48 45 49 30 50 33 51 44 52 60 53 31 54 32 55 43 57
REMARK SMILES IDX 61 58 34 59 21 60 22 61 27 62 23 63 24 64 26 65 28 66 25 67
REMARK SMILES IDX 47 68 48 69 53 70 49 71 50 72 52 73 54 74 51 75 35 76 36 77
REMARK SMILES IDX 41 78 37 79 38 80 40 81 42 82 39 83
REMARK H PARENT 5 5 76 21 9 26 59 45 33 56
REMARK Flexibility Score: inf
ROOT
ATOM      1  C   UNL A   1      36.527  20.278  25.039  1.00  0.00     0.117 C 
ENDROOT
BRANCH   1   2
ATOM      2  N   UNL A   1      36.699  21.464  25.855  1.00  0.00    -0.356 N 
ATOM      3  C   UNL A   1      36.182  22.720  25.711  1.00  0.00     0.227 C 
ATOM      4  O   UNL A   1      36.606  23.584  26.479  1.00  0.00    -0.274 OA
ATOM      5  H   UNL A   1      37.282  21.345  26.638  1.00  0.00     0.163 HD
BRANCH   3   6
ATOM      6  C   UNL A   1      35.122  22.984  24.638  1.00  0.00     0.105 C 
ATOM      7  C   UNL A   1      35.748  23.180  23.252  1.00  0.00     0.023 C 
BRANCH   6   8
ATOM      8  C   UNL A   1      34.224  24.170  24.970  1.00  0.00    -0.036 A 
ATOM      9  C   UNL A   1      33.319  24.085  26.034  1.00  0.00     0.005 A 
ATOM     10  C   UNL A   1      34.243  25.339  24.195  1.00  0.00     0.005 A 
ATOM     11  C   UNL A   1      32.392  25.104  26.257  1.00  0.00     0.004 A 
ATOM     12  C   UNL A   1      33.304  26.347  24.408  1.00  0.00     0.004 A 
ATOM     13  C   UNL A   1      32.329  26.209  25.402  1.00  0.00    -0.048 A 
BRANCH  13  14
ATOM     14  C   UNL A   1      31.201  27.204  25.508  1.00  0.00     0.041 C 
BRANCH  14  15
ATOM     15  C   UNL A   1      31.487  28.495  26.301  1.00  0.00     0.022 C 
ATOM     16  C   UNL A   1      32.724  28.482  27.217  1.00  0.00     0.007 C 
ATOM     17  C   UNL A   1      31.608  29.810  25.514  1.00  0.00     0.117 C 
ATOM     18  C   UNL A   1      33.210  29.932  27.300  1.00  0.00     0.003 C 
ATOM     19  C   UNL A   1      32.174  30.769  26.557  1.00  0.00     0.032 C 
BRANCH  17  20
ATOM     20  O   UNL A   1      32.498  29.765  24.413  1.00  0.00    -0.393 OA
ATOM     21  H   UNL A   1      32.712  28.842  24.207  1.00  0.00     0.210 HD
ENDBRANCH  17  20
ENDBRANCH  14  15
ENDBRANCH  13  14
ENDBRANCH   6   8
ENDBRANCH   3   6
ENDBRANCH   1   2
BRANCH   1  22
ATOM     22  C   UNL A   1      37.814  19.458  24.958  1.00  0.00     0.042 C 
BRANCH  22  23
ATOM     23  C   UNL A   1      39.006  20.074  25.687  1.00  0.00     0.118 C 
BRANCH  23  24
ATOM     24  N   UNL A   1      40.155  19.188  25.736  1.00  0.00    -0.352 N 
ATOM     25  C   UNL A   1      41.468  19.447  26.036  1.00  0.00     0.251 C 
ATOM     26  H   UNL A   1      39.960  18.247  25.520  1.00  0.00     0.163 HD
ATOM     27  O   UNL A   1      42.306  18.569  25.856  1.00  0.00    -0.269 OA
BRANCH  25  28
ATOM     28  C   UNL A   1      41.893  20.769  26.551  1.00  0.00     0.039 A 
ATOM     29  C   UNL A   1      42.501  21.656  25.659  1.00  0.00     0.014 A 
ATOM     30  C   UNL A   1      41.758  21.122  27.898  1.00  0.00     0.014 A 
ATOM     31  C   UNL A   1      42.926  22.911  26.102  1.00  0.00     0.010 A 
ATOM     32  C   UNL A   1      42.122  22.401  28.325  1.00  0.00     0.010 A 
ATOM     33  C   UNL A   1      42.714  23.305  27.433  1.00  0.00    -0.014 A 
BRANCH  33  34
ATOM     34  C   UNL A   1      43.099  24.667  27.881  1.00  0.00     0.031 A 
ATOM     35  C   UNL A   1      42.055  25.712  28.159  1.00  0.00     0.074 A 
ATOM     36  C   UNL A   1      44.404  24.969  28.018  1.00  0.00     0.049 A 
ATOM     37  N   UNL A   1      42.211  26.941  28.582  1.00  0.00    -0.248 NA
ATOM     38  C   UNL A   1      40.655  25.337  27.910  1.00  0.00     0.031 C 
ATOM     39  C   UNL A   1      45.516  24.062  27.724  1.00  0.00     0.029 A 
ATOM     40  N   UNL A   1      45.018  26.121  28.443  1.00  0.00    -0.354 N 
ATOM     41  C   UNL A   1      40.935  27.486  28.647  1.00  0.00     0.074 A 
ATOM     42  C   UNL A   1      40.020  26.470  28.171  1.00  0.00     0.031 C 
ATOM     43  C   UNL A   1      46.674  24.682  28.007  1.00  0.00     0.029 A 
ATOM     44  C   UNL A   1      46.387  26.033  28.478  1.00  0.00     0.049 A 
ATOM     45  H   UNL A   1      44.522  26.932  28.697  1.00  0.00     0.167 HD
ATOM     46  C   UNL A   1      40.557  28.711  29.085  1.00  0.00     0.037 A 
ATOM     47  C   UNL A   1      47.310  26.937  28.856  1.00  0.00     0.037 A 
ATOM     48  C   UNL A   1      41.464  29.716  29.575  1.00  0.00     0.049 A 
ATOM     49  C   UNL A   1      46.864  28.280  29.357  1.00  0.00     0.074 A 
ATOM     50  C   UNL A   1      41.171  30.967  30.092  1.00  0.00     0.029 A 
ATOM     51  N   UNL A   1      42.844  29.585  29.609  1.00  0.00    -0.354 N 
ATOM     52  N   UNL A   1      45.649  28.754  29.479  1.00  0.00    -0.248 NA
ATOM     53  C   UNL A   1      47.920  29.210  29.784  1.00  0.00     0.031 C 
ATOM     54  C   UNL A   1      42.376  31.606  30.406  1.00  0.00     0.029 A 
ATOM     55  C   UNL A   1      43.418  30.738  30.121  1.00  0.00     0.049 A 
ATOM     56  H   UNL A   1      43.343  28.790  29.313  1.00  0.00     0.167 HD
ATOM     57  C   UNL A   1      45.790  30.029  30.011  1.00  0.00     0.074 A 
ATOM     58  C   UNL A   1      47.209  30.245  30.210  1.00  0.00     0.031 C 
ATOM     59  C   UNL A   1      44.831  30.941  30.304  1.00  0.00     0.037 A 
BRANCH  46  60
ATOM     60  C   UNL A   1      39.091  29.029  29.063  1.00  0.00     0.057 A 
ATOM     61  C   UNL A   1      38.294  28.901  30.209  1.00  0.00     0.134 A 
ATOM     62  C   UNL A   1      38.475  29.500  27.898  1.00  0.00     0.134 A 
ATOM     63  F   UNL A   1      38.819  28.443  31.355  1.00  0.00    -0.206 F 
ATOM     64  C   UNL A   1      36.931  29.209  30.189  1.00  0.00     0.040 A 
ATOM     65  C   UNL A   1      37.119  29.833  27.871  1.00  0.00     0.040 A 
ATOM     66  F   UNL A   1      39.182  29.652  26.767  1.00  0.00    -0.206 F 
ATOM     67  C   UNL A   1      36.343  29.682  29.018  1.00  0.00     0.006 A 
ENDBRANCH  46  60
BRANCH  47  68
ATOM     68  C   UNL A   1      48.750  26.585  28.808  1.00  0.00     0.057 A 
ATOM     69  C   UNL A   1      49.397  26.039  29.922  1.00  0.00     0.134 A 
ATOM     70  C   UNL A   1      49.512  26.785  27.651  1.00  0.00     0.134 A 
ATOM     71  F   UNL A   1      48.722  25.841  31.064  1.00  0.00    -0.206 F 
ATOM     72  C   UNL A   1      50.755  25.718  29.894  1.00  0.00     0.040 A 
ATOM     73  C   UNL A   1      50.865  26.448  27.602  1.00  0.00     0.040 A 
ATOM     74  F   UNL A   1      48.946  27.298  26.548  1.00  0.00    -0.206 F 
ATOM     75  C   UNL A   1      51.492  25.918  28.728  1.00  0.00     0.006 A 
ENDBRANCH  47  68
BRANCH  59  76
ATOM     76  C   UNL A   1      45.293  32.248  30.878  1.00  0.00     0.057 A 
ATOM     77  C   UNL A   1      45.653  33.325  30.059  1.00  0.00     0.134 A 
ATOM     78  C   UNL A   1      45.366  32.434  32.264  1.00  0.00     0.134 A 
ATOM     79  F   UNL A   1      45.619  33.204  28.723  1.00  0.00    -0.206 F 
ATOM     80  C   UNL A   1      46.100  34.533  30.598  1.00  0.00     0.040 A 
ATOM     81  C   UNL A   1      45.787  33.645  32.815  1.00  0.00     0.040 A 
ATOM     82  F   UNL A   1      45.028  31.445  33.104  1.00  0.00    -0.206 F 
ATOM     83  C   UNL A   1      46.163  34.696  31.980  1.00  0.00     0.006 A 
ENDBRANCH  59  76
ENDBRANCH  33  34
ENDBRANCH  25  28
ENDBRANCH  23  24
ENDBRANCH  22  23
ENDBRANCH   1  22
TORSDOF 14
ENDMDL
