MODEL 1
REMARK VINA RESULT:     -13.1      0.000      0.000
REMARK SMILES CCOC(=O)C1CCN(c2cc(NCC(=O)NCCCNC(=O)c3ccc(-c4c5nc(c(-c6c(F)cccc6F)c6ccc([nH]6)c(-c6c(F)cccc6F)c6nc(c(-c7c(F)cccc7F)c7ccc4[nH]7)C=C6)C=C5)cc3)c3c4c(onc24)-c2ccccc2C3=O)CC1
REMARK SMILES IDX 15 1 16 2 17 3 14 5 13 6 12 8 10 9 11 10 83 11 79 12 82 13
REMARK SMILES IDX 78 14 80 15 81 16 90 17 84 18 89 19 91 20 85 21 88 22 86 23
REMARK SMILES IDX 87 24 9 25 6 26 7 27 93 28 8 29 92 30 4 31 5 32 3 33 2 34
REMARK SMILES IDX 1 35 18 36 19 37 20 38 21 39 22 40 23 42 24 43 25 44 77 45
REMARK SMILES IDX 26 46 76 47 27 48 28 49 29 50 70 51 30 52 75 53 69 54 71 55
REMARK SMILES IDX 31 56 74 57 68 58 67 59 32 61 58 62 41 63 57 64 42 65 45 66
REMARK SMILES IDX 56 67 72 68 43 69 44 70 55 72 73 73 46 74 33 75 34 76 39 77
REMARK SMILES IDX 35 78 36 79 38 80 40 81 37 82 59 83 60 84 65 85 61 86 62 87
REMARK SMILES IDX 64 88 66 89 63 90 47 91 48 92 53 93 49 94 50 95 52 96 54 97
REMARK SMILES IDX 51 98
REMARK H PARENT 17 4 13 7 21 41 71 60 45 71
REMARK Flexibility Score: inf
ROOT
ATOM      1  C   UNL A   1      39.612  21.982  26.167  1.00  0.00     0.239 C 
ATOM      2  O   UNL A   1      39.838  20.916  25.589  1.00  0.00    -0.273 OA
ATOM      3  N   UNL A   1      40.661  22.601  26.786  1.00  0.00    -0.355 N 
ATOM      4  H   UNL A   1      41.546  22.208  26.604  1.00  0.00     0.163 HD
ENDROOT
BRANCH   1   5
ATOM      5  C   UNL A   1      38.229  22.638  26.129  1.00  0.00     0.213 C 
BRANCH   5   6
ATOM      6  N   UNL A   1      37.510  22.353  24.897  1.00  0.00    -0.375 N 
ATOM      7  H   UNL A   1      38.064  22.065  24.136  1.00  0.00     0.161 HD
BRANCH   6   8
ATOM      8  C   UNL A   1      36.146  22.435  24.655  1.00  0.00     0.049 A 
ATOM      9  C   UNL A   1      34.059  23.947  24.352  1.00  0.00     0.069 A 
ATOM     10  C   UNL A   1      35.478  23.710  24.440  1.00  0.00     0.054 A 
ATOM     11  C   UNL A   1      33.339  22.722  24.400  1.00  0.00     0.138 A 
ATOM     12  C   UNL A   1      34.041  21.503  24.540  1.00  0.00     0.065 A 
ATOM     13  N   UNL A   1      32.019  22.420  24.319  1.00  0.00    -0.077 NA
ATOM     14  C   UNL A   1      35.383  21.247  24.676  1.00  0.00     0.059 A 
ATOM     15  C   UNL A   1      33.147  20.492  24.467  1.00  0.00     0.176 A 
ATOM     16  O   UNL A   1      31.909  21.021  24.342  1.00  0.00    -0.355 OA
ATOM     17  C   UNL A   1      35.836  19.833  24.820  1.00  0.00     0.196 C 
ATOM     18  C   UNL A   1      33.439  19.084  24.449  1.00  0.00     0.032 A 
ATOM     19  C   UNL A   1      34.802  18.743  24.627  1.00  0.00     0.034 A 
ATOM     20  O   UNL A   1      37.002  19.576  25.065  1.00  0.00    -0.288 OA
ATOM     21  C   UNL A   1      32.490  18.091  24.212  1.00  0.00     0.013 A 
ATOM     22  C   UNL A   1      35.201  17.408  24.572  1.00  0.00     0.013 A 
ATOM     23  C   UNL A   1      32.900  16.758  24.149  1.00  0.00     0.001 A 
ATOM     24  C   UNL A   1      34.246  16.420  24.320  1.00  0.00     0.001 A 
BRANCH   9  25
ATOM     25  N   UNL A   1      33.529  25.224  24.316  1.00  0.00    -0.370 N 
ATOM     26  C   UNL A   1      31.124  26.806  24.437  1.00  0.00     0.103 C 
ATOM     27  C   UNL A   1      31.642  25.980  25.624  1.00  0.00     0.037 C 
ATOM     28  C   UNL A   1      31.656  26.253  23.099  1.00  0.00     0.037 C 
ATOM     29  C   UNL A   1      33.158  25.872  25.567  1.00  0.00     0.117 C 
ATOM     30  C   UNL A   1      33.153  25.907  23.084  1.00  0.00     0.117 C 
BRANCH  26  31
ATOM     31  C   UNL A   1      31.386  28.275  24.733  1.00  0.00     0.309 C 
ATOM     32  O   UNL A   1      31.521  28.699  25.876  1.00  0.00    -0.252 OA
BRANCH  31  33
ATOM     33  O   UNL A   1      31.448  29.056  23.624  1.00  0.00    -0.466 OA
BRANCH  33  34
ATOM     34  C   UNL A   1      30.189  29.251  22.956  1.00  0.00     0.229 C 
ATOM     35  C   UNL A   1      29.437  30.451  23.509  1.00  0.00     0.049 C 
ENDBRANCH  33  34
ENDBRANCH  31  33
ENDBRANCH  26  31
ENDBRANCH   9  25
ENDBRANCH   6   8
ENDBRANCH   5   6
ENDBRANCH   1   5
BRANCH   3  36
ATOM     36  C   UNL A   1      40.669  23.753  27.673  1.00  0.00     0.117 C 
BRANCH  36  37
ATOM     37  C   UNL A   1      40.750  25.058  26.887  1.00  0.00     0.042 C 
BRANCH  37  38
ATOM     38  C   UNL A   1      42.135  25.698  26.989  1.00  0.00     0.118 C 
BRANCH  38  39
ATOM     39  N   UNL A   1      42.430  26.597  25.878  1.00  0.00    -0.352 N 
ATOM     40  C   UNL A   1      42.057  27.907  25.690  1.00  0.00     0.251 C 
ATOM     41  H   UNL A   1      42.977  26.209  25.158  1.00  0.00     0.163 HD
ATOM     42  O   UNL A   1      42.280  28.474  24.625  1.00  0.00    -0.269 OA
BRANCH  40  43
ATOM     43  C   UNL A   1      41.343  28.614  26.768  1.00  0.00     0.039 A 
ATOM     44  C   UNL A   1      42.034  29.049  27.900  1.00  0.00     0.014 A 
ATOM     45  C   UNL A   1      39.965  28.814  26.652  1.00  0.00     0.014 A 
ATOM     46  C   UNL A   1      41.327  29.532  28.991  1.00  0.00     0.010 A 
ATOM     47  C   UNL A   1      39.261  29.355  27.725  1.00  0.00     0.010 A 
ATOM     48  C   UNL A   1      39.937  29.668  28.913  1.00  0.00    -0.014 A 
BRANCH  48  49
ATOM     49  C   UNL A   1      39.267  30.176  30.120  1.00  0.00     0.031 A 
ATOM     50  C   UNL A   1      39.677  29.483  31.377  1.00  0.00     0.074 A 
ATOM     51  C   UNL A   1      39.007  31.496  30.229  1.00  0.00     0.049 A 
ATOM     52  N   UNL A   1      40.766  29.744  32.036  1.00  0.00    -0.248 NA
ATOM     53  C   UNL A   1      38.981  28.276  31.825  1.00  0.00     0.031 C 
ATOM     54  C   UNL A   1      39.965  32.543  29.859  1.00  0.00     0.029 A 
ATOM     55  N   UNL A   1      38.036  32.147  30.958  1.00  0.00    -0.354 N 
ATOM     56  C   UNL A   1      40.939  28.718  32.946  1.00  0.00     0.074 A 
ATOM     57  C   UNL A   1      39.804  27.837  32.788  1.00  0.00     0.031 C 
ATOM     58  C   UNL A   1      39.625  33.672  30.503  1.00  0.00     0.029 A 
ATOM     59  C   UNL A   1      38.365  33.471  31.212  1.00  0.00     0.049 A 
ATOM     60  H   UNL A   1      37.203  31.721  31.265  1.00  0.00     0.167 HD
ATOM     61  C   UNL A   1      42.008  28.638  33.777  1.00  0.00     0.037 A 
ATOM     62  C   UNL A   1      37.942  34.188  32.284  1.00  0.00     0.037 A 
ATOM     63  C   UNL A   1      42.941  29.719  33.697  1.00  0.00     0.049 A 
ATOM     64  C   UNL A   1      38.995  33.835  33.299  1.00  0.00     0.074 A 
ATOM     65  C   UNL A   1      44.102  30.002  33.014  1.00  0.00     0.029 A 
ATOM     66  N   UNL A   1      42.658  30.856  34.414  1.00  0.00    -0.354 N 
ATOM     67  N   UNL A   1      40.211  34.310  33.338  1.00  0.00    -0.248 NA
ATOM     68  C   UNL A   1      38.796  32.600  34.062  1.00  0.00     0.031 C 
ATOM     69  C   UNL A   1      44.212  31.427  33.025  1.00  0.00     0.029 A 
ATOM     70  C   UNL A   1      43.071  31.921  33.657  1.00  0.00     0.049 A 
ATOM     71  H   UNL A   1      42.238  30.898  35.303  1.00  0.00     0.167 HD
ATOM     72  C   UNL A   1      40.992  33.259  33.826  1.00  0.00     0.074 A 
ATOM     73  C   UNL A   1      40.056  32.269  34.324  1.00  0.00     0.031 C 
ATOM     74  C   UNL A   1      42.332  33.159  33.577  1.00  0.00     0.037 A 
BRANCH  61  75
ATOM     75  C   UNL A   1      42.179  27.622  34.830  1.00  0.00     0.057 A 
ATOM     76  C   UNL A   1      41.568  27.727  36.079  1.00  0.00     0.134 A 
ATOM     77  C   UNL A   1      42.784  26.406  34.492  1.00  0.00     0.134 A 
ATOM     78  F   UNL A   1      40.967  28.865  36.454  1.00  0.00    -0.206 F 
ATOM     79  C   UNL A   1      41.521  26.633  36.947  1.00  0.00     0.040 A 
ATOM     80  C   UNL A   1      42.736  25.305  35.343  1.00  0.00     0.040 A 
ATOM     81  F   UNL A   1      43.384  26.260  33.298  1.00  0.00    -0.206 F 
ATOM     82  C   UNL A   1      42.089  25.414  36.570  1.00  0.00     0.006 A 
ENDBRANCH  61  75
BRANCH  62  83
ATOM     83  C   UNL A   1      36.478  34.244  32.561  1.00  0.00     0.057 A 
ATOM     84  C   UNL A   1      35.897  34.366  33.828  1.00  0.00     0.134 A 
ATOM     85  C   UNL A   1      35.580  34.269  31.474  1.00  0.00     0.134 A 
ATOM     86  F   UNL A   1      36.649  34.421  34.933  1.00  0.00    -0.206 F 
ATOM     87  C   UNL A   1      34.507  34.435  34.005  1.00  0.00     0.040 A 
ATOM     88  C   UNL A   1      34.195  34.363  31.632  1.00  0.00     0.040 A 
ATOM     89  F   UNL A   1      36.030  34.201  30.214  1.00  0.00    -0.206 F 
ATOM     90  C   UNL A   1      33.652  34.434  32.906  1.00  0.00     0.006 A 
ENDBRANCH  62  83
BRANCH  74  91
ATOM     91  C   UNL A   1      42.942  34.338  32.895  1.00  0.00     0.057 A 
ATOM     92  C   UNL A   1      43.311  35.491  33.605  1.00  0.00     0.134 A 
ATOM     93  C   UNL A   1      43.158  34.333  31.515  1.00  0.00     0.134 A 
ATOM     94  F   UNL A   1      43.160  35.560  34.937  1.00  0.00    -0.206 F 
ATOM     95  C   UNL A   1      43.836  36.611  32.959  1.00  0.00     0.040 A 
ATOM     96  C   UNL A   1      43.706  35.438  30.862  1.00  0.00     0.040 A 
ATOM     97  F   UNL A   1      42.826  33.262  30.777  1.00  0.00    -0.206 F 
ATOM     98  C   UNL A   1      44.034  36.585  31.582  1.00  0.00     0.006 A 
ENDBRANCH  74  91
ENDBRANCH  48  49
ENDBRANCH  40  43
ENDBRANCH  38  39
ENDBRANCH  37  38
ENDBRANCH  36  37
ENDBRANCH   3  36
TORSDOF 16
ENDMDL
MODEL 2
REMARK VINA RESULT:     -12.8      3.837      9.992
REMARK SMILES CCOC(=O)C1CCN(c2cc(NCC(=O)NCCCNC(=O)c3ccc(-c4c5nc(c(-c6c(F)cccc6F)c6ccc([nH]6)c(-c6c(F)cccc6F)c6nc(c(-c7c(F)cccc7F)c7ccc4[nH]7)C=C6)C=C5)cc3)c3c4c(onc24)-c2ccccc2C3=O)CC1
REMARK SMILES IDX 15 1 16 2 17 3 14 5 13 6 12 8 10 9 11 10 83 11 79 12 82 13
REMARK SMILES IDX 78 14 80 15 81 16 90 17 84 18 89 19 91 20 85 21 88 22 86 23
REMARK SMILES IDX 87 24 9 25 6 26 7 27 93 28 8 29 92 30 4 31 5 32 3 33 2 34
REMARK SMILES IDX 1 35 18 36 19 37 20 38 21 39 22 40 23 42 24 43 25 44 77 45
REMARK SMILES IDX 26 46 76 47 27 48 28 49 29 50 70 51 30 52 75 53 69 54 71 55
REMARK SMILES IDX 31 56 74 57 68 58 67 59 32 61 58 62 41 63 57 64 42 65 45 66
REMARK SMILES IDX 56 67 72 68 43 69 44 70 55 72 73 73 46 74 33 75 34 76 39 77
REMARK SMILES IDX 35 78 36 79 38 80 40 81 37 82 59 83 60 84 65 85 61 86 62 87
REMARK SMILES IDX 64 88 66 89 63 90 47 91 48 92 53 93 49 94 50 95 52 96 54 97
REMARK SMILES IDX 51 98
REMARK H PARENT 17 4 13 7 21 41 71 60 45 71
REMARK Flexibility Score: inf
ROOT
ATOM      1  C   UNL A   1      35.179  30.118  28.041  1.00  0.00     0.239 C 
ATOM      2  O   UNL A   1      35.746  29.162  27.505  1.00  0.00    -0.273 OA
ATOM      3  N   UNL A   1      35.756  30.651  29.158  1.00  0.00    -0.355 N 
ATOM      4  H   UNL A   1      36.657  30.311  29.367  1.00  0.00     0.163 HD
ENDROOT
BRANCH   1   5
ATOM      5  C   UNL A   1      33.916  30.742  27.439  1.00  0.00     0.213 C 
BRANCH   5   6
ATOM      6  N   UNL A   1      32.773  29.843  27.485  1.00  0.00    -0.375 N 
ATOM      7  H   UNL A   1      32.191  29.933  28.274  1.00  0.00     0.161 HD
BRANCH   6   8
ATOM      8  C   UNL A   1      32.397  28.877  26.563  1.00  0.00     0.049 A 
ATOM      9  C   UNL A   1      32.718  26.467  25.657  1.00  0.00     0.069 A 
ATOM     10  C   UNL A   1      32.889  27.510  26.636  1.00  0.00     0.054 A 
ATOM     11  C   UNL A   1      31.883  26.908  24.593  1.00  0.00     0.138 A 
ATOM     12  C   UNL A   1      31.372  28.225  24.604  1.00  0.00     0.065 A 
ATOM     13  N   UNL A   1      31.405  26.299  23.478  1.00  0.00    -0.077 NA
ATOM     14  C   UNL A   1      31.557  29.256  25.493  1.00  0.00     0.059 A 
ATOM     15  C   UNL A   1      30.544  28.364  23.545  1.00  0.00     0.176 A 
ATOM     16  O   UNL A   1      30.552  27.212  22.838  1.00  0.00    -0.355 OA
ATOM     17  C   UNL A   1      30.887  30.562  25.231  1.00  0.00     0.196 C 
ATOM     18  C   UNL A   1      29.724  29.505  23.237  1.00  0.00     0.032 A 
ATOM     19  C   UNL A   1      29.892  30.623  24.090  1.00  0.00     0.034 A 
ATOM     20  O   UNL A   1      31.123  31.533  25.929  1.00  0.00    -0.288 OA
ATOM     21  C   UNL A   1      28.769  29.531  22.222  1.00  0.00     0.013 A 
ATOM     22  C   UNL A   1      29.107  31.762  23.911  1.00  0.00     0.013 A 
ATOM     23  C   UNL A   1      27.981  30.672  22.057  1.00  0.00     0.001 A 
ATOM     24  C   UNL A   1      28.144  31.775  22.900  1.00  0.00     0.001 A 
BRANCH   9  25
ATOM     25  N   UNL A   1      33.374  25.254  25.753  1.00  0.00    -0.370 N 
ATOM     26  C   UNL A   1      33.881  22.715  24.486  1.00  0.00     0.103 C 
ATOM     27  C   UNL A   1      34.351  24.053  23.895  1.00  0.00     0.037 C 
ATOM     28  C   UNL A   1      32.681  22.916  25.434  1.00  0.00     0.037 C 
ATOM     29  C   UNL A   1      34.611  25.057  25.009  1.00  0.00     0.117 C 
ATOM     30  C   UNL A   1      32.815  24.085  26.422  1.00  0.00     0.117 C 
BRANCH  26  31
ATOM     31  C   UNL A   1      35.096  21.995  25.051  1.00  0.00     0.309 C 
ATOM     32  O   UNL A   1      35.086  21.458  26.154  1.00  0.00    -0.252 OA
BRANCH  31  33
ATOM     33  O   UNL A   1      36.176  22.012  24.228  1.00  0.00    -0.466 OA
BRANCH  33  34
ATOM     34  C   UNL A   1      37.445  22.060  24.904  1.00  0.00     0.229 C 
ATOM     35  C   UNL A   1      37.623  23.356  25.679  1.00  0.00     0.049 C 
ENDBRANCH  33  34
ENDBRANCH  31  33
ENDBRANCH  26  31
ENDBRANCH   9  25
ENDBRANCH   6   8
ENDBRANCH   5   6
ENDBRANCH   1   5
BRANCH   3  36
ATOM     36  C   UNL A   1      35.243  31.647  30.085  1.00  0.00     0.117 C 
BRANCH  36  37
ATOM     37  C   UNL A   1      36.033  31.651  31.390  1.00  0.00     0.042 C 
BRANCH  37  38
ATOM     38  C   UNL A   1      37.292  30.789  31.296  1.00  0.00     0.118 C 
BRANCH  38  39
ATOM     39  N   UNL A   1      37.304  29.692  32.256  1.00  0.00    -0.352 N 
ATOM     40  C   UNL A   1      38.062  28.544  32.266  1.00  0.00     0.251 C 
ATOM     41  H   UNL A   1      36.678  29.786  33.010  1.00  0.00     0.163 HD
ATOM     42  O   UNL A   1      37.844  27.657  33.084  1.00  0.00    -0.269 OA
BRANCH  40  43
ATOM     43  C   UNL A   1      39.116  28.370  31.250  1.00  0.00     0.039 A 
ATOM     44  C   UNL A   1      38.871  27.606  30.108  1.00  0.00     0.014 A 
ATOM     45  C   UNL A   1      40.367  28.955  31.463  1.00  0.00     0.014 A 
ATOM     46  C   UNL A   1      39.920  27.283  29.261  1.00  0.00     0.010 A 
ATOM     47  C   UNL A   1      41.408  28.679  30.579  1.00  0.00     0.010 A 
ATOM     48  C   UNL A   1      41.195  27.804  29.505  1.00  0.00    -0.014 A 
BRANCH  48  49
ATOM     49  C   UNL A   1      42.251  27.400  28.564  1.00  0.00     0.031 A 
ATOM     50  C   UNL A   1      43.116  28.527  28.104  1.00  0.00     0.074 A 
ATOM     51  C   UNL A   1      42.867  26.211  28.729  1.00  0.00     0.049 A 
ATOM     52  N   UNL A   1      44.103  29.021  28.791  1.00  0.00    -0.248 NA
ATOM     53  C   UNL A   1      42.747  29.320  26.931  1.00  0.00     0.031 C 
ATOM     54  C   UNL A   1      43.305  25.699  30.032  1.00  0.00     0.029 A 
ATOM     55  N   UNL A   1      43.500  25.409  27.804  1.00  0.00    -0.354 N 
ATOM     56  C   UNL A   1      44.456  30.212  28.186  1.00  0.00     0.074 A 
ATOM     57  C   UNL A   1      43.597  30.352  27.030  1.00  0.00     0.031 C 
ATOM     58  C   UNL A   1      44.262  24.780  29.824  1.00  0.00     0.029 A 
ATOM     59  C   UNL A   1      44.409  24.540  28.392  1.00  0.00     0.049 A 
ATOM     60  H   UNL A   1      43.327  25.448  26.836  1.00  0.00     0.167 HD
ATOM     61  C   UNL A   1      45.427  31.029  28.666  1.00  0.00     0.037 A 
ATOM     62  C   UNL A   1      45.517  24.044  27.786  1.00  0.00     0.037 A 
ATOM     63  C   UNL A   1      46.116  30.558  29.827  1.00  0.00     0.049 A 
ATOM     64  C   UNL A   1      46.515  25.130  28.081  1.00  0.00     0.074 A 
ATOM     65  C   UNL A   1      46.001  30.689  31.192  1.00  0.00     0.029 A 
ATOM     66  N   UNL A   1      47.155  29.681  29.636  1.00  0.00    -0.354 N 
ATOM     67  N   UNL A   1      47.112  25.332  29.224  1.00  0.00    -0.248 NA
ATOM     68  C   UNL A   1      46.543  26.274  27.166  1.00  0.00     0.031 C 
ATOM     69  C   UNL A   1      46.687  29.563  31.743  1.00  0.00     0.029 A 
ATOM     70  C   UNL A   1      47.118  28.783  30.670  1.00  0.00     0.049 A 
ATOM     71  H   UNL A   1      47.804  29.694  28.896  1.00  0.00     0.167 HD
ATOM     72  C   UNL A   1      47.272  26.719  29.307  1.00  0.00     0.074 A 
ATOM     73  C   UNL A   1      46.975  27.230  27.982  1.00  0.00     0.031 C 
ATOM     74  C   UNL A   1      47.400  27.377  30.497  1.00  0.00     0.037 A 
BRANCH  61  75
ATOM     75  C   UNL A   1      45.904  32.251  27.996  1.00  0.00     0.057 A 
ATOM     76  C   UNL A   1      45.566  33.529  28.439  1.00  0.00     0.134 A 
ATOM     77  C   UNL A   1      46.909  32.132  27.029  1.00  0.00     0.134 A 
ATOM     78  F   UNL A   1      44.617  33.702  29.370  1.00  0.00    -0.206 F 
ATOM     79  C   UNL A   1      46.245  34.654  27.964  1.00  0.00     0.040 A 
ATOM     80  C   UNL A   1      47.600  33.244  26.554  1.00  0.00     0.040 A 
ATOM     81  F   UNL A   1      47.267  30.919  26.575  1.00  0.00    -0.206 F 
ATOM     82  C   UNL A   1      47.277  34.510  27.035  1.00  0.00     0.006 A 
ENDBRANCH  61  75
BRANCH  62  83
ATOM     83  C   UNL A   1      45.357  23.371  26.466  1.00  0.00     0.057 A 
ATOM     84  C   UNL A   1      46.243  23.476  25.389  1.00  0.00     0.134 A 
ATOM     85  C   UNL A   1      44.283  22.475  26.284  1.00  0.00     0.134 A 
ATOM     86  F   UNL A   1      47.337  24.244  25.464  1.00  0.00    -0.206 F 
ATOM     87  C   UNL A   1      46.034  22.792  24.183  1.00  0.00     0.040 A 
ATOM     88  C   UNL A   1      44.074  21.766  25.098  1.00  0.00     0.040 A 
ATOM     89  F   UNL A   1      43.395  22.264  27.266  1.00  0.00    -0.206 F 
ATOM     90  C   UNL A   1      44.948  21.934  24.035  1.00  0.00     0.006 A 
ENDBRANCH  62  83
BRANCH  74  91
ATOM     91  C   UNL A   1      47.534  26.500  31.698  1.00  0.00     0.057 A 
ATOM     92  C   UNL A   1      46.442  26.227  32.536  1.00  0.00     0.134 A 
ATOM     93  C   UNL A   1      48.764  25.928  32.033  1.00  0.00     0.134 A 
ATOM     94  F   UNL A   1      45.222  26.717  32.263  1.00  0.00    -0.206 F 
ATOM     95  C   UNL A   1      46.579  25.447  33.685  1.00  0.00     0.040 A 
ATOM     96  C   UNL A   1      48.908  25.127  33.167  1.00  0.00     0.040 A 
ATOM     97  F   UNL A   1      49.849  26.153  31.274  1.00  0.00    -0.206 F 
ATOM     98  C   UNL A   1      47.817  24.895  34.002  1.00  0.00     0.006 A 
ENDBRANCH  74  91
ENDBRANCH  48  49
ENDBRANCH  40  43
ENDBRANCH  38  39
ENDBRANCH  37  38
ENDBRANCH  36  37
ENDBRANCH   3  36
TORSDOF 16
ENDMDL
MODEL 3
REMARK VINA RESULT:     -12.2      5.613     11.811
REMARK SMILES CCOC(=O)C1CCN(c2cc(NCC(=O)NCCCNC(=O)c3ccc(-c4c5nc(c(-c6c(F)cccc6F)c6ccc([nH]6)c(-c6c(F)cccc6F)c6nc(c(-c7c(F)cccc7F)c7ccc4[nH]7)C=C6)C=C5)cc3)c3c4c(onc24)-c2ccccc2C3=O)CC1
REMARK SMILES IDX 15 1 16 2 17 3 14 5 13 6 12 8 10 9 11 10 83 11 79 12 82 13
REMARK SMILES IDX 78 14 80 15 81 16 90 17 84 18 89 19 91 20 85 21 88 22 86 23
REMARK SMILES IDX 87 24 9 25 6 26 7 27 93 28 8 29 92 30 4 31 5 32 3 33 2 34
REMARK SMILES IDX 1 35 18 36 19 37 20 38 21 39 22 40 23 42 24 43 25 44 77 45
REMARK SMILES IDX 26 46 76 47 27 48 28 49 29 50 70 51 30 52 75 53 69 54 71 55
REMARK SMILES IDX 31 56 74 57 68 58 67 59 32 61 58 62 41 63 57 64 42 65 45 66
REMARK SMILES IDX 56 67 72 68 43 69 44 70 55 72 73 73 46 74 33 75 34 76 39 77
REMARK SMILES IDX 35 78 36 79 38 80 40 81 37 82 59 83 60 84 65 85 61 86 62 87
REMARK SMILES IDX 64 88 66 89 63 90 47 91 48 92 53 93 49 94 50 95 52 96 54 97
REMARK SMILES IDX 51 98
REMARK H PARENT 17 4 13 7 21 41 71 60 45 71
REMARK Flexibility Score: inf
ROOT
ATOM      1  C   UNL A   1      41.031  27.928  33.986  1.00  0.00     0.239 C 
ATOM      2  O   UNL A   1      39.947  28.064  33.412  1.00  0.00    -0.273 OA
ATOM      3  N   UNL A   1      41.153  26.897  34.873  1.00  0.00    -0.355 N 
ATOM      4  H   UNL A   1      40.401  26.260  34.881  1.00  0.00     0.163 HD
ENDROOT
BRANCH   1   5
ATOM      5  C   UNL A   1      42.228  28.828  33.663  1.00  0.00     0.213 C 
BRANCH   5   6
ATOM      6  N   UNL A   1      42.002  30.215  34.042  1.00  0.00    -0.375 N 
ATOM      7  H   UNL A   1      42.159  30.429  34.990  1.00  0.00     0.161 HD
BRANCH   6   8
ATOM      8  C   UNL A   1      41.593  31.272  33.242  1.00  0.00     0.049 A 
ATOM      9  C   UNL A   1      39.623  32.639  32.251  1.00  0.00     0.069 A 
ATOM     10  C   UNL A   1      40.200  31.683  33.162  1.00  0.00     0.054 A 
ATOM     11  C   UNL A   1      40.632  33.250  31.457  1.00  0.00     0.138 A 
ATOM     12  C   UNL A   1      41.982  32.865  31.622  1.00  0.00     0.065 A 
ATOM     13  N   UNL A   1      40.602  34.216  30.504  1.00  0.00    -0.077 NA
ATOM     14  C   UNL A   1      42.556  31.925  32.442  1.00  0.00     0.059 A 
ATOM     15  C   UNL A   1      42.743  33.649  30.827  1.00  0.00     0.176 A 
ATOM     16  O   UNL A   1      41.930  34.473  30.129  1.00  0.00    -0.355 OA
ATOM     17  C   UNL A   1      44.033  31.728  32.388  1.00  0.00     0.196 C 
ATOM     18  C   UNL A   1      44.180  33.676  30.766  1.00  0.00     0.032 A 
ATOM     19  C   UNL A   1      44.841  32.704  31.557  1.00  0.00     0.034 A 
ATOM     20  O   UNL A   1      44.563  30.823  33.009  1.00  0.00    -0.288 OA
ATOM     21  C   UNL A   1      44.915  34.615  30.045  1.00  0.00     0.013 A 
ATOM     22  C   UNL A   1      46.234  32.678  31.611  1.00  0.00     0.013 A 
ATOM     23  C   UNL A   1      46.309  34.587  30.113  1.00  0.00     0.001 A 
ATOM     24  C   UNL A   1      46.963  33.631  30.896  1.00  0.00     0.001 A 
BRANCH   9  25
ATOM     25  N   UNL A   1      38.257  32.827  32.151  1.00  0.00    -0.370 N 
ATOM     26  C   UNL A   1      35.739  32.784  33.553  1.00  0.00     0.103 C 
ATOM     27  C   UNL A   1      36.857  33.789  33.871  1.00  0.00     0.037 C 
ATOM     28  C   UNL A   1      36.304  31.519  32.876  1.00  0.00     0.037 C 
ATOM     29  C   UNL A   1      37.676  34.077  32.622  1.00  0.00     0.117 C 
ATOM     30  C   UNL A   1      37.326  31.776  31.757  1.00  0.00     0.117 C 
BRANCH  26  31
ATOM     31  C   UNL A   1      34.632  33.526  32.820  1.00  0.00     0.309 C 
ATOM     32  O   UNL A   1      34.029  33.033  31.872  1.00  0.00    -0.252 OA
BRANCH  31  33
ATOM     33  O   UNL A   1      34.387  34.769  33.308  1.00  0.00    -0.466 OA
BRANCH  33  34
ATOM     34  C   UNL A   1      34.012  35.741  32.315  1.00  0.00     0.229 C 
ATOM     35  C   UNL A   1      32.576  36.205  32.494  1.00  0.00     0.049 C 
ENDBRANCH  33  34
ENDBRANCH  31  33
ENDBRANCH  26  31
ENDBRANCH   9  25
ENDBRANCH   6   8
ENDBRANCH   5   6
ENDBRANCH   1   5
BRANCH   3  36
ATOM     36  C   UNL A   1      42.225  26.595  35.807  1.00  0.00     0.117 C 
BRANCH  36  37
ATOM     37  C   UNL A   1      41.982  25.270  36.524  1.00  0.00     0.042 C 
BRANCH  37  38
ATOM     38  C   UNL A   1      42.131  24.077  35.579  1.00  0.00     0.118 C 
BRANCH  38  39
ATOM     39  N   UNL A   1      43.373  23.340  35.785  1.00  0.00    -0.352 N 
ATOM     40  C   UNL A   1      44.503  23.293  35.003  1.00  0.00     0.251 C 
ATOM     41  H   UNL A   1      43.407  22.797  36.605  1.00  0.00     0.163 HD
ATOM     42  O   UNL A   1      45.409  22.507  35.260  1.00  0.00    -0.269 OA
BRANCH  40  43
ATOM     43  C   UNL A   1      44.597  24.168  33.821  1.00  0.00     0.039 A 
ATOM     44  C   UNL A   1      44.153  23.717  32.576  1.00  0.00     0.014 A 
ATOM     45  C   UNL A   1      45.162  25.438  33.960  1.00  0.00     0.014 A 
ATOM     46  C   UNL A   1      44.425  24.463  31.440  1.00  0.00     0.010 A 
ATOM     47  C   UNL A   1      45.381  26.215  32.824  1.00  0.00     0.010 A 
ATOM     48  C   UNL A   1      45.057  25.705  31.559  1.00  0.00    -0.014 A 
BRANCH  48  49
ATOM     49  C   UNL A   1      45.318  26.423  30.303  1.00  0.00     0.031 A 
ATOM     50  C   UNL A   1      45.211  25.569  29.083  1.00  0.00     0.074 A 
ATOM     51  C   UNL A   1      44.902  27.700  30.169  1.00  0.00     0.049 A 
ATOM     52  N   UNL A   1      44.089  25.248  28.510  1.00  0.00    -0.248 NA
ATOM     53  C   UNL A   1      46.370  24.828  28.587  1.00  0.00     0.031 C 
ATOM     54  C   UNL A   1      43.585  28.172  30.609  1.00  0.00     0.029 A 
ATOM     55  N   UNL A   1      45.388  28.708  29.365  1.00  0.00    -0.354 N 
ATOM     56  C   UNL A   1      44.372  24.229  27.619  1.00  0.00     0.074 A 
ATOM     57  C   UNL A   1      45.799  24.009  27.691  1.00  0.00     0.031 C 
ATOM     58  C   UNL A   1      43.295  29.299  29.936  1.00  0.00     0.029 A 
ATOM     59  C   UNL A   1      44.446  29.699  29.133  1.00  0.00     0.049 A 
ATOM     60  H   UNL A   1      46.301  28.722  28.996  1.00  0.00     0.167 HD
ATOM     61  C   UNL A   1      43.421  23.612  26.873  1.00  0.00     0.037 A 
ATOM     62  C   UNL A   1      44.399  30.488  28.029  1.00  0.00     0.037 A 
ATOM     63  C   UNL A   1      42.091  24.114  27.023  1.00  0.00     0.049 A 
ATOM     64  C   UNL A   1      43.582  29.633  27.100  1.00  0.00     0.074 A 
ATOM     65  C   UNL A   1      40.985  23.833  27.793  1.00  0.00     0.029 A 
ATOM     66  N   UNL A   1      41.743  25.218  26.282  1.00  0.00    -0.354 N 
ATOM     67  N   UNL A   1      42.288  29.463  27.153  1.00  0.00    -0.248 NA
ATOM     68  C   UNL A   1      44.300  28.615  26.328  1.00  0.00     0.031 C 
ATOM     69  C   UNL A   1      40.202  25.028  27.785  1.00  0.00     0.029 A 
ATOM     70  C   UNL A   1      40.919  25.983  27.065  1.00  0.00     0.049 A 
ATOM     71  H   UNL A   1      42.031  25.421  25.363  1.00  0.00     0.167 HD
ATOM     72  C   UNL A   1      42.079  28.147  26.731  1.00  0.00     0.074 A 
ATOM     73  C   UNL A   1      43.341  27.709  26.165  1.00  0.00     0.031 C 
ATOM     74  C   UNL A   1      40.973  27.427  27.083  1.00  0.00     0.037 A 
BRANCH  61  75
ATOM     75  C   UNL A   1      43.692  22.598  25.840  1.00  0.00     0.057 A 
ATOM     76  C   UNL A   1      44.432  22.876  24.692  1.00  0.00     0.134 A 
ATOM     77  C   UNL A   1      43.394  21.259  26.125  1.00  0.00     0.134 A 
ATOM     78  F   UNL A   1      44.753  24.139  24.373  1.00  0.00    -0.206 F 
ATOM     79  C   UNL A   1      44.904  21.844  23.876  1.00  0.00     0.040 A 
ATOM     80  C   UNL A   1      43.866  20.221  25.326  1.00  0.00     0.040 A 
ATOM     81  F   UNL A   1      42.684  20.946  27.222  1.00  0.00    -0.206 F 
ATOM     82  C   UNL A   1      44.637  20.513  24.205  1.00  0.00     0.006 A 
ENDBRANCH  61  75
BRANCH  62  83
ATOM     83  C   UNL A   1      45.633  31.229  27.639  1.00  0.00     0.057 A 
ATOM     84  C   UNL A   1      46.919  30.683  27.571  1.00  0.00     0.134 A 
ATOM     85  C   UNL A   1      45.516  32.567  27.211  1.00  0.00     0.134 A 
ATOM     86  F   UNL A   1      47.146  29.403  27.889  1.00  0.00    -0.206 F 
ATOM     87  C   UNL A   1      48.029  31.443  27.172  1.00  0.00     0.040 A 
ATOM     88  C   UNL A   1      46.607  33.329  26.786  1.00  0.00     0.040 A 
ATOM     89  F   UNL A   1      44.323  33.178  27.193  1.00  0.00    -0.206 F 
ATOM     90  C   UNL A   1      47.875  32.768  26.778  1.00  0.00     0.006 A 
ENDBRANCH  62  83
BRANCH  74  91
ATOM     91  C   UNL A   1      39.917  28.194  27.806  1.00  0.00     0.057 A 
ATOM     92  C   UNL A   1      39.687  28.016  29.179  1.00  0.00     0.134 A 
ATOM     93  C   UNL A   1      39.111  29.113  27.131  1.00  0.00     0.134 A 
ATOM     94  F   UNL A   1      40.439  27.171  29.902  1.00  0.00    -0.206 F 
ATOM     95  C   UNL A   1      38.667  28.697  29.844  1.00  0.00     0.040 A 
ATOM     96  C   UNL A   1      38.104  29.818  27.790  1.00  0.00     0.040 A 
ATOM     97  F   UNL A   1      39.278  29.328  25.816  1.00  0.00    -0.206 F 
ATOM     98  C   UNL A   1      37.871  29.602  29.147  1.00  0.00     0.006 A 
ENDBRANCH  74  91
ENDBRANCH  48  49
ENDBRANCH  40  43
ENDBRANCH  38  39
ENDBRANCH  37  38
ENDBRANCH  36  37
ENDBRANCH   3  36
TORSDOF 16
ENDMDL
