MODEL 1
REMARK VINA RESULT:     -10.7      0.000      0.000
REMARK SMILES [NH3+][C@H](Cc1cc(F)c(F)c(F)c1)C(=O)NCCCNC(=O)c1ccc(-c2c3nc(c(-c4c(F)cccc4F)c4ccc([nH]4)c(-c4c(F)cccc4F)c4nc(c(-c5c(F)cccc5F)c5ccc2[nH]5)C=C4)C=C3)cc1
REMARK SMILES IDX 17 1 16 2 15 3 13 4 14 5 2 7 1 8 3 12 4 13 5 14 12 15 6 16
REMARK SMILES IDX 10 17 7 18 8 19 11 20 9 21 18 22 19 23 20 24 21 26 22 27
REMARK SMILES IDX 23 28 75 29 24 30 74 31 25 32 26 33 27 34 68 35 28 36 73 37
REMARK SMILES IDX 67 38 69 39 29 40 72 41 66 42 65 43 30 45 56 46 39 47 55 48
REMARK SMILES IDX 40 49 43 50 54 51 70 52 41 53 42 54 53 56 71 57 44 58 31 59
REMARK SMILES IDX 32 60 37 61 33 62 34 63 36 64 38 65 35 66 57 67 58 68 63 69
REMARK SMILES IDX 59 70 60 71 62 72 64 73 61 74 45 75 46 76 51 77 47 78 48 79
REMARK SMILES IDX 50 80 52 81 49 82
REMARK H PARENT 15 6 1 9 1 10 1 11 19 25 69 44 43 55
REMARK Flexibility Score: inf
ROOT
ATOM      1  C   UNL A   1      34.973  34.257  28.951  1.00  0.00     0.042 C 
ENDROOT
BRANCH   1   2
ATOM      2  C   UNL A   1      33.504  34.619  29.141  1.00  0.00     0.118 C 
BRANCH   2   3
ATOM      3  N   UNL A   1      33.356  35.939  29.711  1.00  0.00    -0.351 N 
ATOM      4  C   UNL A   1      33.032  36.354  30.965  1.00  0.00     0.278 C 
ATOM      5  O   UNL A   1      32.903  37.574  31.116  1.00  0.00    -0.268 OA
ATOM      6  H   UNL A   1      33.517  36.672  29.075  1.00  0.00     0.163 HD
BRANCH   4   7
ATOM      7  C   UNL A   1      32.836  35.394  32.164  1.00  0.00     0.275 C 
BRANCH   7   8
ATOM      8  N   UNL A   1      31.489  35.511  32.739  1.00  0.00    -0.347 N 
ATOM      9  H   UNL A   1      30.864  34.847  32.281  1.00  0.00     0.345 HD
ATOM     10  H   UNL A   1      31.139  36.459  32.597  1.00  0.00     0.345 HD
ATOM     11  H   UNL A   1      31.526  35.309  33.738  1.00  0.00     0.345 HD
ENDBRANCH   7   8
BRANCH   7  12
ATOM     12  C   UNL A   1      34.049  35.236  33.115  1.00  0.00     0.111 C 
BRANCH  12  13
ATOM     13  C   UNL A   1      35.232  34.318  32.870  1.00  0.00    -0.036 A 
ATOM     14  C   UNL A   1      35.187  32.919  32.917  1.00  0.00     0.046 A 
ATOM     15  C   UNL A   1      36.458  34.912  32.501  1.00  0.00     0.046 A 
ATOM     16  C   UNL A   1      36.347  32.157  32.729  1.00  0.00     0.162 A 
ATOM     17  C   UNL A   1      37.601  34.139  32.284  1.00  0.00     0.162 A 
ATOM     18  F   UNL A   1      36.278  30.828  32.876  1.00  0.00    -0.204 F 
ATOM     19  C   UNL A   1      37.555  32.762  32.422  1.00  0.00     0.194 A 
ATOM     20  F   UNL A   1      38.749  34.747  31.958  1.00  0.00    -0.204 F 
ATOM     21  F   UNL A   1      38.663  32.026  32.265  1.00  0.00    -0.200 F 
ENDBRANCH  12  13
ENDBRANCH   7  12
ENDBRANCH   4   7
ENDBRANCH   2   3
ENDBRANCH   1   2
BRANCH   1  22
ATOM     22  C   UNL A   1      35.312  32.839  29.382  1.00  0.00     0.118 C 
BRANCH  22  23
ATOM     23  N   UNL A   1      34.434  31.850  28.762  1.00  0.00    -0.352 N 
ATOM     24  C   UNL A   1      34.720  30.612  28.235  1.00  0.00     0.251 C 
ATOM     25  H   UNL A   1      33.486  32.111  28.713  1.00  0.00     0.163 HD
ATOM     26  O   UNL A   1      33.848  30.000  27.624  1.00  0.00    -0.269 OA
BRANCH  24  27
ATOM     27  C   UNL A   1      36.072  30.027  28.373  1.00  0.00     0.039 A 
ATOM     28  C   UNL A   1      36.952  30.078  27.287  1.00  0.00     0.014 A 
ATOM     29  C   UNL A   1      36.478  29.429  29.566  1.00  0.00     0.014 A 
ATOM     30  C   UNL A   1      38.262  29.609  27.427  1.00  0.00     0.010 A 
ATOM     31  C   UNL A   1      37.806  29.057  29.736  1.00  0.00     0.010 A 
ATOM     32  C   UNL A   1      38.715  29.141  28.670  1.00  0.00    -0.014 A 
BRANCH  32  33
ATOM     33  C   UNL A   1      40.120  28.719  28.903  1.00  0.00     0.031 A 
ATOM     34  C   UNL A   1      41.120  29.721  29.412  1.00  0.00     0.074 A 
ATOM     35  C   UNL A   1      40.524  27.485  28.543  1.00  0.00     0.049 A 
ATOM     36  N   UNL A   1      42.424  29.639  29.470  1.00  0.00    -0.248 NA
ATOM     37  C   UNL A   1      40.580  31.010  29.877  1.00  0.00     0.031 C 
ATOM     38  C   UNL A   1      39.665  26.431  28.002  1.00  0.00     0.029 A 
ATOM     39  N   UNL A   1      41.775  26.919  28.551  1.00  0.00    -0.354 N 
ATOM     40  C   UNL A   1      42.859  30.875  29.930  1.00  0.00     0.074 A 
ATOM     41  C   UNL A   1      41.686  31.704  30.096  1.00  0.00     0.031 C 
ATOM     42  C   UNL A   1      40.410  25.345  27.743  1.00  0.00     0.029 A 
ATOM     43  C   UNL A   1      41.805  25.640  28.049  1.00  0.00     0.049 A 
ATOM     44  H   UNL A   1      42.575  27.385  28.885  1.00  0.00     0.167 HD
ATOM     45  C   UNL A   1      44.123  31.277  30.205  1.00  0.00     0.037 A 
ATOM     46  C   UNL A   1      42.842  24.809  27.839  1.00  0.00     0.037 A 
ATOM     47  C   UNL A   1      45.281  30.431  30.092  1.00  0.00     0.049 A 
ATOM     48  C   UNL A   1      44.233  25.269  28.177  1.00  0.00     0.074 A 
ATOM     49  C   UNL A   1      46.596  30.722  30.409  1.00  0.00     0.029 A 
ATOM     50  N   UNL A   1      45.256  29.121  29.637  1.00  0.00    -0.354 N 
ATOM     51  N   UNL A   1      44.629  26.428  28.643  1.00  0.00    -0.248 NA
ATOM     52  C   UNL A   1      45.323  24.306  27.960  1.00  0.00     0.031 C 
ATOM     53  C   UNL A   1      47.373  29.596  30.117  1.00  0.00     0.029 A 
ATOM     54  C   UNL A   1      46.535  28.592  29.658  1.00  0.00     0.049 A 
ATOM     55  H   UNL A   1      44.449  28.640  29.342  1.00  0.00     0.167 HD
ATOM     56  C   UNL A   1      46.003  26.323  28.811  1.00  0.00     0.074 A 
ATOM     57  C   UNL A   1      46.375  24.986  28.396  1.00  0.00     0.031 C 
ATOM     58  C   UNL A   1      46.879  27.249  29.269  1.00  0.00     0.037 A 
BRANCH  45  59
ATOM     59  C   UNL A   1      44.315  32.695  30.662  1.00  0.00     0.057 A 
ATOM     60  C   UNL A   1      44.287  33.046  32.018  1.00  0.00     0.134 A 
ATOM     61  C   UNL A   1      44.556  33.718  29.737  1.00  0.00     0.134 A 
ATOM     62  F   UNL A   1      44.049  32.116  32.957  1.00  0.00    -0.206 F 
ATOM     63  C   UNL A   1      44.462  34.366  32.435  1.00  0.00     0.040 A 
ATOM     64  C   UNL A   1      44.761  35.037  30.143  1.00  0.00     0.040 A 
ATOM     65  F   UNL A   1      44.603  33.451  28.422  1.00  0.00    -0.206 F 
ATOM     66  C   UNL A   1      44.706  35.366  31.497  1.00  0.00     0.006 A 
ENDBRANCH  45  59
BRANCH  46  67
ATOM     67  C   UNL A   1      42.605  23.446  27.301  1.00  0.00     0.057 A 
ATOM     68  C   UNL A   1      42.677  23.196  25.925  1.00  0.00     0.134 A 
ATOM     69  C   UNL A   1      42.302  22.365  28.137  1.00  0.00     0.134 A 
ATOM     70  F   UNL A   1      42.946  24.195  25.072  1.00  0.00    -0.206 F 
ATOM     71  C   UNL A   1      42.439  21.925  25.398  1.00  0.00     0.040 A 
ATOM     72  C   UNL A   1      42.084  21.084  27.626  1.00  0.00     0.040 A 
ATOM     73  F   UNL A   1      42.225  22.537  29.465  1.00  0.00    -0.206 F 
ATOM     74  C   UNL A   1      42.147  20.863  26.251  1.00  0.00     0.006 A 
ENDBRANCH  46  67
BRANCH  58  75
ATOM     75  C   UNL A   1      48.313  26.836  29.409  1.00  0.00     0.057 A 
ATOM     76  C   UNL A   1      48.778  26.142  30.532  1.00  0.00     0.134 A 
ATOM     77  C   UNL A   1      49.223  27.079  28.372  1.00  0.00     0.134 A 
ATOM     78  F   UNL A   1      47.958  25.889  31.563  1.00  0.00    -0.206 F 
ATOM     79  C   UNL A   1      50.104  25.713  30.623  1.00  0.00     0.040 A 
ATOM     80  C   UNL A   1      50.544  26.636  28.442  1.00  0.00     0.040 A 
ATOM     81  F   UNL A   1      48.836  27.732  27.266  1.00  0.00    -0.206 F 
ATOM     82  C   UNL A   1      50.987  25.952  29.572  1.00  0.00     0.006 A 
ENDBRANCH  58  75
ENDBRANCH  32  33
ENDBRANCH  24  27
ENDBRANCH  22  23
ENDBRANCH   1  22
TORSDOF 13
ENDMDL
MODEL 2
REMARK VINA RESULT:     -10.6      5.458      9.816
REMARK SMILES [NH3+][C@H](Cc1cc(F)c(F)c(F)c1)C(=O)NCCCNC(=O)c1ccc(-c2c3nc(c(-c4c(F)cccc4F)c4ccc([nH]4)c(-c4c(F)cccc4F)c4nc(c(-c5c(F)cccc5F)c5ccc2[nH]5)C=C4)C=C3)cc1
REMARK SMILES IDX 17 1 16 2 15 3 13 4 14 5 2 7 1 8 3 12 4 13 5 14 12 15 6 16
REMARK SMILES IDX 10 17 7 18 8 19 11 20 9 21 18 22 19 23 20 24 21 26 22 27
REMARK SMILES IDX 23 28 75 29 24 30 74 31 25 32 26 33 27 34 68 35 28 36 73 37
REMARK SMILES IDX 67 38 69 39 29 40 72 41 66 42 65 43 30 45 56 46 39 47 55 48
REMARK SMILES IDX 40 49 43 50 54 51 70 52 41 53 42 54 53 56 71 57 44 58 31 59
REMARK SMILES IDX 32 60 37 61 33 62 34 63 36 64 38 65 35 66 57 67 58 68 63 69
REMARK SMILES IDX 59 70 60 71 62 72 64 73 61 74 45 75 46 76 51 77 47 78 48 79
REMARK SMILES IDX 50 80 52 81 49 82
REMARK H PARENT 15 6 1 9 1 10 1 11 19 25 69 44 43 55
REMARK Flexibility Score: inf
ROOT
ATOM      1  C   UNL A   1      31.504  31.231  26.335  1.00  0.00     0.042 C 
ENDROOT
BRANCH   1   2
ATOM      2  C   UNL A   1      31.778  29.783  25.944  1.00  0.00     0.118 C 
BRANCH   2   3
ATOM      3  N   UNL A   1      32.527  29.703  24.710  1.00  0.00    -0.351 N 
ATOM      4  C   UNL A   1      32.289  29.039  23.547  1.00  0.00     0.278 C 
ATOM      5  O   UNL A   1      33.179  29.108  22.692  1.00  0.00    -0.268 OA
ATOM      6  H   UNL A   1      33.362  30.223  24.711  1.00  0.00     0.163 HD
BRANCH   4   7
ATOM      7  C   UNL A   1      30.993  28.241  23.262  1.00  0.00     0.275 C 
BRANCH   7   8
ATOM      8  N   UNL A   1      31.093  27.469  22.015  1.00  0.00    -0.347 N 
ATOM      9  H   UNL A   1      30.416  26.705  22.033  1.00  0.00     0.345 HD
ATOM     10  H   UNL A   1      32.034  27.087  21.926  1.00  0.00     0.345 HD
ATOM     11  H   UNL A   1      30.897  28.079  21.221  1.00  0.00     0.345 HD
ENDBRANCH   7   8
BRANCH   7  12
ATOM     12  C   UNL A   1      29.662  28.961  23.596  1.00  0.00     0.111 C 
BRANCH  12  13
ATOM     13  C   UNL A   1      29.150  30.208  22.900  1.00  0.00    -0.036 A 
ATOM     14  C   UNL A   1      29.277  31.513  23.393  1.00  0.00     0.046 A 
ATOM     15  C   UNL A   1      28.562  30.053  21.626  1.00  0.00     0.046 A 
ATOM     16  C   UNL A   1      28.723  32.598  22.701  1.00  0.00     0.162 A 
ATOM     17  C   UNL A   1      28.042  31.148  20.932  1.00  0.00     0.162 A 
ATOM     18  F   UNL A   1      28.783  33.816  23.255  1.00  0.00    -0.204 F 
ATOM     19  C   UNL A   1      28.099  32.419  21.478  1.00  0.00     0.194 A 
ATOM     20  F   UNL A   1      27.471  30.952  19.736  1.00  0.00    -0.204 F 
ATOM     21  F   UNL A   1      27.553  33.460  20.835  1.00  0.00    -0.200 F 
ENDBRANCH  12  13
ENDBRANCH   7  12
ENDBRANCH   4   7
ENDBRANCH   2   3
ENDBRANCH   1   2
BRANCH   1  22
ATOM     22  C   UNL A   1      32.680  31.910  27.020  1.00  0.00     0.118 C 
BRANCH  22  23
ATOM     23  N   UNL A   1      32.417  33.319  27.298  1.00  0.00    -0.352 N 
ATOM     24  C   UNL A   1      33.005  34.173  28.200  1.00  0.00     0.251 C 
ATOM     25  H   UNL A   1      31.704  33.722  26.751  1.00  0.00     0.163 HD
ATOM     26  O   UNL A   1      32.528  35.292  28.373  1.00  0.00    -0.269 OA
BRANCH  24  27
ATOM     27  C   UNL A   1      34.187  33.748  28.981  1.00  0.00     0.039 A 
ATOM     28  C   UNL A   1      34.038  32.762  29.963  1.00  0.00     0.014 A 
ATOM     29  C   UNL A   1      35.442  34.314  28.753  1.00  0.00     0.014 A 
ATOM     30  C   UNL A   1      35.159  32.286  30.650  1.00  0.00     0.010 A 
ATOM     31  C   UNL A   1      36.567  33.771  29.363  1.00  0.00     0.010 A 
ATOM     32  C   UNL A   1      36.441  32.751  30.319  1.00  0.00    -0.014 A 
BRANCH  32  33
ATOM     33  C   UNL A   1      37.675  32.215  30.947  1.00  0.00     0.031 A 
ATOM     34  C   UNL A   1      38.442  31.119  30.258  1.00  0.00     0.074 A 
ATOM     35  C   UNL A   1      38.035  32.616  32.182  1.00  0.00     0.049 A 
ATOM     36  N   UNL A   1      39.398  30.356  30.720  1.00  0.00    -0.248 NA
ATOM     37  C   UNL A   1      38.045  30.810  28.873  1.00  0.00     0.031 C 
ATOM     38  C   UNL A   1      37.357  33.643  32.975  1.00  0.00     0.029 A 
ATOM     39  N   UNL A   1      39.049  32.183  33.000  1.00  0.00    -0.354 N 
ATOM     40  C   UNL A   1      39.682  29.451  29.705  1.00  0.00     0.074 A 
ATOM     41  C   UNL A   1      38.769  29.732  28.618  1.00  0.00     0.031 C 
ATOM     42  C   UNL A   1      37.980  33.769  34.158  1.00  0.00     0.029 A 
ATOM     43  C   UNL A   1      39.068  32.799  34.229  1.00  0.00     0.049 A 
ATOM     44  H   UNL A   1      39.701  31.497  32.732  1.00  0.00     0.167 HD
ATOM     45  C   UNL A   1      40.629  28.484  29.674  1.00  0.00     0.037 A 
ATOM     46  C   UNL A   1      39.858  32.591  35.298  1.00  0.00     0.037 A 
ATOM     47  C   UNL A   1      41.572  28.246  30.736  1.00  0.00     0.049 A 
ATOM     48  C   UNL A   1      40.919  31.528  35.231  1.00  0.00     0.074 A 
ATOM     49  C   UNL A   1      42.612  27.335  30.776  1.00  0.00     0.029 A 
ATOM     50  N   UNL A   1      41.593  28.936  31.938  1.00  0.00    -0.354 N 
ATOM     51  N   UNL A   1      41.201  30.702  34.253  1.00  0.00    -0.248 NA
ATOM     52  C   UNL A   1      41.776  31.369  36.416  1.00  0.00     0.031 C 
ATOM     53  C   UNL A   1      43.246  27.454  32.017  1.00  0.00     0.029 A 
ATOM     54  C   UNL A   1      42.625  28.466  32.731  1.00  0.00     0.049 A 
ATOM     55  H   UNL A   1      40.966  29.652  32.191  1.00  0.00     0.167 HD
ATOM     56  C   UNL A   1      42.286  29.953  34.687  1.00  0.00     0.074 A 
ATOM     57  C   UNL A   1      42.614  30.421  36.018  1.00  0.00     0.031 C 
ATOM     58  C   UNL A   1      42.953  28.966  34.041  1.00  0.00     0.037 A 
BRANCH  45  59
ATOM     59  C   UNL A   1      40.696  27.617  28.450  1.00  0.00     0.057 A 
ATOM     60  C   UNL A   1      39.997  26.406  28.362  1.00  0.00     0.134 A 
ATOM     61  C   UNL A   1      41.448  28.009  27.336  1.00  0.00     0.134 A 
ATOM     62  F   UNL A   1      39.267  25.965  29.399  1.00  0.00    -0.206 F 
ATOM     63  C   UNL A   1      40.068  25.603  27.223  1.00  0.00     0.040 A 
ATOM     64  C   UNL A   1      41.504  27.229  26.181  1.00  0.00     0.040 A 
ATOM     65  F   UNL A   1      42.137  29.161  27.349  1.00  0.00    -0.206 F 
ATOM     66  C   UNL A   1      40.818  26.017  26.125  1.00  0.00     0.006 A 
ENDBRANCH  45  59
BRANCH  46  67
ATOM     67  C   UNL A   1      39.690  33.419  36.519  1.00  0.00     0.057 A 
ATOM     68  C   UNL A   1      38.793  33.040  37.525  1.00  0.00     0.134 A 
ATOM     69  C   UNL A   1      40.413  34.601  36.712  1.00  0.00     0.134 A 
ATOM     70  F   UNL A   1      38.059  31.926  37.389  1.00  0.00    -0.206 F 
ATOM     71  C   UNL A   1      38.609  33.815  38.671  1.00  0.00     0.040 A 
ATOM     72  C   UNL A   1      40.256  35.374  37.864  1.00  0.00     0.040 A 
ATOM     73  F   UNL A   1      41.293  35.016  35.789  1.00  0.00    -0.206 F 
ATOM     74  C   UNL A   1      39.346  34.984  38.845  1.00  0.00     0.006 A 
ENDBRANCH  46  67
BRANCH  58  75
ATOM     75  C   UNL A   1      44.142  28.369  34.731  1.00  0.00     0.057 A 
ATOM     76  C   UNL A   1      44.041  27.217  35.519  1.00  0.00     0.134 A 
ATOM     77  C   UNL A   1      45.417  28.920  34.545  1.00  0.00     0.134 A 
ATOM     78  F   UNL A   1      42.846  26.650  35.744  1.00  0.00    -0.206 F 
ATOM     79  C   UNL A   1      45.166  26.639  36.109  1.00  0.00     0.040 A 
ATOM     80  C   UNL A   1      46.552  28.338  35.110  1.00  0.00     0.040 A 
ATOM     81  F   UNL A   1      45.582  30.019  33.793  1.00  0.00    -0.206 F 
ATOM     82  C   UNL A   1      46.427  27.194  35.897  1.00  0.00     0.006 A 
ENDBRANCH  58  75
ENDBRANCH  32  33
ENDBRANCH  24  27
ENDBRANCH  22  23
ENDBRANCH   1  22
TORSDOF 13
ENDMDL
MODEL 3
REMARK VINA RESULT:     -10.6      2.119      2.904
REMARK SMILES [NH3+][C@H](Cc1cc(F)c(F)c(F)c1)C(=O)NCCCNC(=O)c1ccc(-c2c3nc(c(-c4c(F)cccc4F)c4ccc([nH]4)c(-c4c(F)cccc4F)c4nc(c(-c5c(F)cccc5F)c5ccc2[nH]5)C=C4)C=C3)cc1
REMARK SMILES IDX 17 1 16 2 15 3 13 4 14 5 2 7 1 8 3 12 4 13 5 14 12 15 6 16
REMARK SMILES IDX 10 17 7 18 8 19 11 20 9 21 18 22 19 23 20 24 21 26 22 27
REMARK SMILES IDX 23 28 75 29 24 30 74 31 25 32 26 33 27 34 68 35 28 36 73 37
REMARK SMILES IDX 67 38 69 39 29 40 72 41 66 42 65 43 30 45 56 46 39 47 55 48
REMARK SMILES IDX 40 49 43 50 54 51 70 52 41 53 42 54 53 56 71 57 44 58 31 59
REMARK SMILES IDX 32 60 37 61 33 62 34 63 36 64 38 65 35 66 57 67 58 68 63 69
REMARK SMILES IDX 59 70 60 71 62 72 64 73 61 74 45 75 46 76 51 77 47 78 48 79
REMARK SMILES IDX 50 80 52 81 49 82
REMARK H PARENT 15 6 1 9 1 10 1 11 19 25 69 44 43 55
REMARK Flexibility Score: inf
ROOT
ATOM      1  C   UNL A   1      34.270  33.705  28.335  1.00  0.00     0.042 C 
ENDROOT
BRANCH   1   2
ATOM      2  C   UNL A   1      34.847  34.826  29.192  1.00  0.00     0.118 C 
BRANCH   2   3
ATOM      3  N   UNL A   1      33.824  35.769  29.585  1.00  0.00    -0.351 N 
ATOM      4  C   UNL A   1      33.196  35.982  30.772  1.00  0.00     0.278 C 
ATOM      5  O   UNL A   1      32.291  36.825  30.763  1.00  0.00    -0.268 OA
ATOM      6  H   UNL A   1      33.528  36.366  28.861  1.00  0.00     0.163 HD
BRANCH   4   7
ATOM      7  C   UNL A   1      33.562  35.245  32.083  1.00  0.00     0.275 C 
BRANCH   7   8
ATOM      8  N   UNL A   1      32.364  34.858  32.842  1.00  0.00    -0.347 N 
ATOM      9  H   UNL A   1      31.670  35.605  32.787  1.00  0.00     0.345 HD
ATOM     10  H   UNL A   1      32.616  34.701  33.818  1.00  0.00     0.345 HD
ATOM     11  H   UNL A   1      31.974  34.002  32.449  1.00  0.00     0.345 HD
ENDBRANCH   7   8
BRANCH   7  12
ATOM     12  C   UNL A   1      34.794  35.790  32.850  1.00  0.00     0.111 C 
BRANCH  12  13
ATOM     13  C   UNL A   1      36.002  34.964  33.251  1.00  0.00    -0.036 A 
ATOM     14  C   UNL A   1      37.150  34.786  32.468  1.00  0.00     0.046 A 
ATOM     15  C   UNL A   1      36.002  34.385  34.538  1.00  0.00     0.046 A 
ATOM     16  C   UNL A   1      38.194  33.959  32.904  1.00  0.00     0.162 A 
ATOM     17  C   UNL A   1      37.065  33.589  34.973  1.00  0.00     0.162 A 
ATOM     18  F   UNL A   1      39.230  33.741  32.083  1.00  0.00    -0.204 F 
ATOM     19  C   UNL A   1      38.151  33.354  34.149  1.00  0.00     0.194 A 
ATOM     20  F   UNL A   1      37.013  33.040  36.194  1.00  0.00    -0.204 F 
ATOM     21  F   UNL A   1      39.145  32.547  34.546  1.00  0.00    -0.200 F 
ENDBRANCH  12  13
ENDBRANCH   7  12
ENDBRANCH   4   7
ENDBRANCH   2   3
ENDBRANCH   1   2
BRANCH   1  22
ATOM     22  C   UNL A   1      34.460  32.321  28.933  1.00  0.00     0.118 C 
BRANCH  22  23
ATOM     23  N   UNL A   1      34.357  32.331  30.390  1.00  0.00    -0.352 N 
ATOM     24  C   UNL A   1      35.248  31.906  31.348  1.00  0.00     0.251 C 
ATOM     25  H   UNL A   1      33.516  32.702  30.742  1.00  0.00     0.163 HD
ATOM     26  O   UNL A   1      34.898  31.871  32.525  1.00  0.00    -0.269 OA
BRANCH  24  27
ATOM     27  C   UNL A   1      36.608  31.466  30.971  1.00  0.00     0.039 A 
ATOM     28  C   UNL A   1      37.316  30.621  31.833  1.00  0.00     0.014 A 
ATOM     29  C   UNL A   1      37.192  31.879  29.773  1.00  0.00     0.014 A 
ATOM     30  C   UNL A   1      38.568  30.125  31.453  1.00  0.00     0.010 A 
ATOM     31  C   UNL A   1      38.387  31.306  29.352  1.00  0.00     0.010 A 
ATOM     32  C   UNL A   1      39.090  30.424  30.186  1.00  0.00    -0.014 A 
BRANCH  32  33
ATOM     33  C   UNL A   1      40.367  29.850  29.691  1.00  0.00     0.031 A 
ATOM     34  C   UNL A   1      41.566  30.744  29.523  1.00  0.00     0.074 A 
ATOM     35  C   UNL A   1      40.418  28.569  29.276  1.00  0.00     0.049 A 
ATOM     36  N   UNL A   1      42.695  30.514  28.902  1.00  0.00    -0.248 NA
ATOM     37  C   UNL A   1      41.460  32.098  30.092  1.00  0.00     0.031 C 
ATOM     38  C   UNL A   1      39.317  27.606  29.348  1.00  0.00     0.029 A 
ATOM     39  N   UNL A   1      41.435  27.864  28.681  1.00  0.00    -0.354 N 
ATOM     40  C   UNL A   1      43.408  31.704  28.966  1.00  0.00     0.074 A 
ATOM     41  C   UNL A   1      42.570  32.666  29.647  1.00  0.00     0.031 C 
ATOM     42  C   UNL A   1      39.722  26.435  28.831  1.00  0.00     0.029 A 
ATOM     43  C   UNL A   1      41.089  26.576  28.344  1.00  0.00     0.049 A 
ATOM     44  H   UNL A   1      42.327  28.244  28.512  1.00  0.00     0.167 HD
ATOM     45  C   UNL A   1      44.657  31.966  28.512  1.00  0.00     0.037 A 
ATOM     46  C   UNL A   1      41.789  25.626  27.696  1.00  0.00     0.037 A 
ATOM     47  C   UNL A   1      45.507  30.989  27.885  1.00  0.00     0.049 A 
ATOM     48  C   UNL A   1      43.183  25.933  27.224  1.00  0.00     0.074 A 
ATOM     49  C   UNL A   1      46.812  31.136  27.449  1.00  0.00     0.029 A 
ATOM     50  N   UNL A   1      45.138  29.680  27.619  1.00  0.00    -0.354 N 
ATOM     51  N   UNL A   1      43.860  27.051  27.320  1.00  0.00    -0.248 NA
ATOM     52  C   UNL A   1      43.912  24.846  26.554  1.00  0.00     0.031 C 
ATOM     53  C   UNL A   1      47.223  29.922  26.891  1.00  0.00     0.029 A 
ATOM     54  C   UNL A   1      46.188  29.009  27.018  1.00  0.00     0.049 A 
ATOM     55  H   UNL A   1      44.259  29.287  27.826  1.00  0.00     0.167 HD
ATOM     56  C   UNL A   1      45.104  26.793  26.759  1.00  0.00     0.074 A 
ATOM     57  C   UNL A   1      45.089  25.412  26.324  1.00  0.00     0.031 C 
ATOM     58  C   UNL A   1      46.164  27.625  26.619  1.00  0.00     0.037 A 
BRANCH  45  59
ATOM     59  C   UNL A   1      45.178  33.364  28.685  1.00  0.00     0.057 A 
ATOM     60  C   UNL A   1      44.960  34.359  27.722  1.00  0.00     0.134 A 
ATOM     61  C   UNL A   1      45.883  33.727  29.838  1.00  0.00     0.134 A 
ATOM     62  F   UNL A   1      44.302  34.075  26.587  1.00  0.00    -0.206 F 
ATOM     63  C   UNL A   1      45.453  35.654  27.887  1.00  0.00     0.040 A 
ATOM     64  C   UNL A   1      46.355  35.026  30.028  1.00  0.00     0.040 A 
ATOM     65  F   UNL A   1      46.121  32.826  30.804  1.00  0.00    -0.206 F 
ATOM     66  C   UNL A   1      46.147  35.993  29.046  1.00  0.00     0.006 A 
ENDBRANCH  45  59
BRANCH  46  67
ATOM     67  C   UNL A   1      41.191  24.286  27.473  1.00  0.00     0.057 A 
ATOM     68  C   UNL A   1      40.201  24.095  26.502  1.00  0.00     0.134 A 
ATOM     69  C   UNL A   1      41.587  23.169  28.218  1.00  0.00     0.134 A 
ATOM     70  F   UNL A   1      39.767  25.131  25.769  1.00  0.00    -0.206 F 
ATOM     71  C   UNL A   1      39.614  22.846  26.290  1.00  0.00     0.040 A 
ATOM     72  C   UNL A   1      41.026  21.909  28.001  1.00  0.00     0.040 A 
ATOM     73  F   UNL A   1      42.536  23.284  29.159  1.00  0.00    -0.206 F 
ATOM     74  C   UNL A   1      40.031  21.747  27.038  1.00  0.00     0.006 A 
ENDBRANCH  46  67
BRANCH  58  75
ATOM     75  C   UNL A   1      47.418  27.054  26.029  1.00  0.00     0.057 A 
ATOM     76  C   UNL A   1      47.705  27.150  24.663  1.00  0.00     0.134 A 
ATOM     77  C   UNL A   1      48.379  26.459  26.856  1.00  0.00     0.134 A 
ATOM     78  F   UNL A   1      46.819  27.699  23.818  1.00  0.00    -0.206 F 
ATOM     79  C   UNL A   1      48.903  26.664  24.136  1.00  0.00     0.040 A 
ATOM     80  C   UNL A   1      49.590  25.990  26.345  1.00  0.00     0.040 A 
ATOM     81  F   UNL A   1      48.167  26.344  28.176  1.00  0.00    -0.206 F 
ATOM     82  C   UNL A   1      49.853  26.090  24.981  1.00  0.00     0.006 A 
ENDBRANCH  58  75
ENDBRANCH  32  33
ENDBRANCH  24  27
ENDBRANCH  22  23
ENDBRANCH   1  22
TORSDOF 13
ENDMDL
