MODEL 1
REMARK VINA RESULT:     -12.2      0.000      0.000
REMARK SMILES COc1ccc(C(=O)N2CCC(C(=O)NCCCNC(=O)c3ccc(-c4c5nc(c(-c6c(F)cccc6F)c6ccc([nH]6)c(-c6c(F)cccc6F)c6nc(c(-c7c(F)cccc7F)c7ccc4[nH]7)C=C6)C=C5)cc3)CC2)c(OC)c1
REMARK SMILES IDX 17 1 16 2 15 3 13 4 14 5 12 7 7 8 8 9 9 10 10 11 77 12 11 13
REMARK SMILES IDX 76 14 6 15 3 16 4 17 81 18 5 19 78 20 2 21 1 22 79 23 80 24
REMARK SMILES IDX 18 25 19 26 20 27 21 29 22 30 23 31 75 32 24 33 74 34 25 35
REMARK SMILES IDX 26 36 27 37 68 38 28 39 73 40 67 41 69 42 29 43 72 44 66 45
REMARK SMILES IDX 65 46 30 48 56 49 39 50 55 51 40 52 43 53 54 54 70 55 41 56
REMARK SMILES IDX 42 57 53 59 71 60 44 61 31 62 32 63 37 64 33 65 34 66 36 67
REMARK SMILES IDX 38 68 35 69 57 70 58 71 63 72 59 73 60 74 62 75 64 76 61 77
REMARK SMILES IDX 45 78 46 79 51 80 47 81 48 82 50 83 52 84 49 85
REMARK H PARENT 15 6 19 28 69 47 43 58
REMARK Flexibility Score: inf
ROOT
ATOM      1  C   UNL A   1      37.574  20.061  24.854  1.00  0.00     0.042 C 
ENDROOT
BRANCH   1   2
ATOM      2  C   UNL A   1      36.417  21.048  24.853  1.00  0.00     0.117 C 
BRANCH   2   3
ATOM      3  N   UNL A   1      35.748  21.121  26.145  1.00  0.00    -0.356 N 
ATOM      4  C   UNL A   1      34.586  21.725  26.516  1.00  0.00     0.223 C 
ATOM      5  O   UNL A   1      34.249  21.649  27.699  1.00  0.00    -0.275 OA
ATOM      6  H   UNL A   1      36.216  20.653  26.875  1.00  0.00     0.163 HD
BRANCH   4   7
ATOM      7  C   UNL A   1      33.726  22.472  25.513  1.00  0.00     0.082 C 
ATOM      8  C   UNL A   1      30.781  25.346  25.643  1.00  0.00     0.257 C 
ATOM      9  O   UNL A   1      30.068  24.995  26.587  1.00  0.00    -0.269 OA
ATOM     10  N   UNL A   1      31.717  24.470  25.116  1.00  0.00    -0.338 N 
ATOM     11  C   UNL A   1      31.335  23.081  24.951  1.00  0.00     0.120 C 
ATOM     12  C   UNL A   1      33.075  24.813  24.722  1.00  0.00     0.120 C 
ATOM     13  C   UNL A   1      32.241  22.158  25.735  1.00  0.00     0.035 C 
ATOM     14  C   UNL A   1      34.102  23.964  25.462  1.00  0.00     0.035 C 
BRANCH   8  15
ATOM     15  C   UNL A   1      30.505  26.677  25.005  1.00  0.00     0.082 A 
ATOM     16  C   UNL A   1      30.140  28.948  23.367  1.00  0.00     0.122 A 
ATOM     17  C   UNL A   1      29.405  27.794  23.127  1.00  0.00     0.047 A 
ATOM     18  C   UNL A   1      31.011  28.993  24.455  1.00  0.00     0.093 A 
ATOM     19  C   UNL A   1      29.590  26.667  23.933  1.00  0.00     0.021 A 
ATOM     20  C   UNL A   1      31.211  27.867  25.271  1.00  0.00     0.135 A 
BRANCH  16  21
ATOM     21  O   UNL A   1      29.943  29.984  22.495  1.00  0.00    -0.497 OA
ATOM     22  C   UNL A   1      28.667  29.994  21.856  1.00  0.00     0.278 C 
ENDBRANCH  16  21
BRANCH  20  23
ATOM     23  O   UNL A   1      32.176  27.879  26.243  1.00  0.00    -0.496 OA
ATOM     24  C   UNL A   1      31.774  28.321  27.539  1.00  0.00     0.278 C 
ENDBRANCH  20  23
ENDBRANCH   8  15
ENDBRANCH   4   7
ENDBRANCH   2   3
ENDBRANCH   1   2
BRANCH   1  25
ATOM     25  C   UNL A   1      38.737  20.484  25.735  1.00  0.00     0.118 C 
BRANCH  25  26
ATOM     26  N   UNL A   1      39.799  19.488  25.778  1.00  0.00    -0.352 N 
ATOM     27  C   UNL A   1      41.134  19.631  26.057  1.00  0.00     0.251 C 
ATOM     28  H   UNL A   1      39.515  18.568  25.573  1.00  0.00     0.163 HD
ATOM     29  O   UNL A   1      41.908  18.699  25.839  1.00  0.00    -0.269 OA
BRANCH  27  30
ATOM     30  C   UNL A   1      41.651  20.906  26.596  1.00  0.00     0.039 A 
ATOM     31  C   UNL A   1      42.183  21.847  25.711  1.00  0.00     0.014 A 
ATOM     32  C   UNL A   1      41.613  21.177  27.965  1.00  0.00     0.014 A 
ATOM     33  C   UNL A   1      42.595  23.091  26.191  1.00  0.00     0.010 A 
ATOM     34  C   UNL A   1      41.936  22.446  28.429  1.00  0.00     0.010 A 
ATOM     35  C   UNL A   1      42.426  23.419  27.547  1.00  0.00    -0.014 A 
BRANCH  35  36
ATOM     36  C   UNL A   1      42.729  24.781  28.053  1.00  0.00     0.031 A 
ATOM     37  C   UNL A   1      44.124  25.147  28.473  1.00  0.00     0.074 A 
ATOM     38  C   UNL A   1      41.724  25.667  28.203  1.00  0.00     0.049 A 
ATOM     39  N   UNL A   1      44.563  26.261  29.001  1.00  0.00    -0.248 NA
ATOM     40  C   UNL A   1      45.160  24.116  28.300  1.00  0.00     0.031 C 
ATOM     41  C   UNL A   1      40.317  25.414  27.883  1.00  0.00     0.029 A 
ATOM     42  N   UNL A   1      41.729  26.955  28.675  1.00  0.00    -0.354 N 
ATOM     43  C   UNL A   1      45.918  26.063  29.232  1.00  0.00     0.074 A 
ATOM     44  C   UNL A   1      46.219  24.703  28.839  1.00  0.00     0.031 C 
ATOM     45  C   UNL A   1      39.601  26.519  28.143  1.00  0.00     0.029 A 
ATOM     46  C   UNL A   1      40.486  27.541  28.689  1.00  0.00     0.049 A 
ATOM     47  H   UNL A   1      42.545  27.417  28.975  1.00  0.00     0.167 HD
ATOM     48  C   UNL A   1      46.832  26.941  29.708  1.00  0.00     0.037 A 
ATOM     49  C   UNL A   1      40.100  28.761  29.108  1.00  0.00     0.037 A 
ATOM     50  C   UNL A   1      46.531  28.298  30.084  1.00  0.00     0.049 A 
ATOM     51  C   UNL A   1      41.131  29.709  29.654  1.00  0.00     0.074 A 
ATOM     52  C   UNL A   1      47.399  29.284  30.517  1.00  0.00     0.029 A 
ATOM     53  N   UNL A   1      45.261  28.856  30.081  1.00  0.00    -0.354 N 
ATOM     54  N   UNL A   1      42.422  29.534  29.794  1.00  0.00    -0.248 NA
ATOM     55  C   UNL A   1      40.651  31.025  30.097  1.00  0.00     0.031 C 
ATOM     56  C   UNL A   1      46.648  30.423  30.826  1.00  0.00     0.029 A 
ATOM     57  C   UNL A   1      45.319  30.164  30.534  1.00  0.00     0.049 A 
ATOM     58  H   UNL A   1      44.440  28.390  29.797  1.00  0.00     0.167 HD
ATOM     59  C   UNL A   1      42.913  30.723  30.320  1.00  0.00     0.074 A 
ATOM     60  C   UNL A   1      41.782  31.618  30.454  1.00  0.00     0.031 C 
ATOM     61  C   UNL A   1      44.184  31.042  30.663  1.00  0.00     0.037 A 
BRANCH  48  62
ATOM     62  C   UNL A   1      48.249  26.461  29.849  1.00  0.00     0.057 A 
ATOM     63  C   UNL A   1      49.197  26.647  28.835  1.00  0.00     0.134 A 
ATOM     64  C   UNL A   1      48.681  25.839  31.028  1.00  0.00     0.134 A 
ATOM     65  F   UNL A   1      48.848  27.226  27.675  1.00  0.00    -0.206 F 
ATOM     66  C   UNL A   1      50.516  26.211  28.977  1.00  0.00     0.040 A 
ATOM     67  C   UNL A   1      50.003  25.425  31.193  1.00  0.00     0.040 A 
ATOM     68  F   UNL A   1      47.827  25.635  32.042  1.00  0.00    -0.206 F 
ATOM     69  C   UNL A   1      50.923  25.604  30.164  1.00  0.00     0.006 A 
ENDBRANCH  48  62
BRANCH  49  70
ATOM     70  C   UNL A   1      38.672  29.161  29.019  1.00  0.00     0.057 A 
ATOM     71  C   UNL A   1      37.834  29.097  30.139  1.00  0.00     0.134 A 
ATOM     72  C   UNL A   1      38.110  29.607  27.817  1.00  0.00     0.134 A 
ATOM     73  F   UNL A   1      38.309  28.659  31.313  1.00  0.00    -0.206 F 
ATOM     74  C   UNL A   1      36.484  29.444  30.062  1.00  0.00     0.040 A 
ATOM     75  C   UNL A   1      36.768  29.984  27.733  1.00  0.00     0.040 A 
ATOM     76  F   UNL A   1      38.861  29.697  26.710  1.00  0.00    -0.206 F 
ATOM     77  C   UNL A   1      35.949  29.895  28.856  1.00  0.00     0.006 A 
ENDBRANCH  49  70
BRANCH  61  78
ATOM     78  C   UNL A   1      44.422  32.426  31.195  1.00  0.00     0.057 A 
ATOM     79  C   UNL A   1      44.688  33.509  30.348  1.00  0.00     0.134 A 
ATOM     80  C   UNL A   1      44.350  32.684  32.571  1.00  0.00     0.134 A 
ATOM     81  F   UNL A   1      44.784  33.327  29.022  1.00  0.00    -0.206 F 
ATOM     82  C   UNL A   1      44.896  34.793  30.851  1.00  0.00     0.040 A 
ATOM     83  C   UNL A   1      44.528  33.969  33.083  1.00  0.00     0.040 A 
ATOM     84  F   UNL A   1      44.090  31.693  33.438  1.00  0.00    -0.206 F 
ATOM     85  C   UNL A   1      44.809  35.028  32.222  1.00  0.00     0.006 A 
ENDBRANCH  61  78
ENDBRANCH  35  36
ENDBRANCH  27  30
ENDBRANCH  25  26
ENDBRANCH   1  25
TORSDOF 13
ENDMDL
MODEL 2
REMARK VINA RESULT:     -12.1      0.460      6.248
REMARK SMILES COc1ccc(C(=O)N2CCC(C(=O)NCCCNC(=O)c3ccc(-c4c5nc(c(-c6c(F)cccc6F)c6ccc([nH]6)c(-c6c(F)cccc6F)c6nc(c(-c7c(F)cccc7F)c7ccc4[nH]7)C=C6)C=C5)cc3)CC2)c(OC)c1
REMARK SMILES IDX 17 1 16 2 15 3 13 4 14 5 12 7 7 8 8 9 9 10 10 11 77 12 11 13
REMARK SMILES IDX 76 14 6 15 3 16 4 17 81 18 5 19 78 20 2 21 1 22 79 23 80 24
REMARK SMILES IDX 18 25 19 26 20 27 21 29 22 30 23 31 75 32 24 33 74 34 25 35
REMARK SMILES IDX 26 36 27 37 68 38 28 39 73 40 67 41 69 42 29 43 72 44 66 45
REMARK SMILES IDX 65 46 30 48 56 49 39 50 55 51 40 52 43 53 54 54 70 55 41 56
REMARK SMILES IDX 42 57 53 59 71 60 44 61 31 62 32 63 37 64 33 65 34 66 36 67
REMARK SMILES IDX 38 68 35 69 57 70 58 71 63 72 59 73 60 74 62 75 64 76 61 77
REMARK SMILES IDX 45 78 46 79 51 80 47 81 48 82 50 83 52 84 49 85
REMARK H PARENT 15 6 19 28 69 47 43 58
REMARK Flexibility Score: inf
ROOT
ATOM      1  C   UNL A   1      37.446  20.280  24.909  1.00  0.00     0.042 C 
ENDROOT
BRANCH   1   2
ATOM      2  C   UNL A   1      36.328  21.309  24.950  1.00  0.00     0.117 C 
BRANCH   2   3
ATOM      3  N   UNL A   1      35.647  21.339  26.237  1.00  0.00    -0.356 N 
ATOM      4  C   UNL A   1      34.447  21.870  26.600  1.00  0.00     0.223 C 
ATOM      5  O   UNL A   1      34.107  21.772  27.780  1.00  0.00    -0.275 OA
ATOM      6  H   UNL A   1      36.137  20.900  26.969  1.00  0.00     0.163 HD
BRANCH   4   7
ATOM      7  C   UNL A   1      33.550  22.565  25.591  1.00  0.00     0.082 C 
ATOM      8  C   UNL A   1      30.804  25.631  25.634  1.00  0.00     0.257 C 
ATOM      9  O   UNL A   1      30.155  25.432  26.665  1.00  0.00    -0.269 OA
ATOM     10  N   UNL A   1      31.638  24.642  25.135  1.00  0.00    -0.338 N 
ATOM     11  C   UNL A   1      31.160  23.274  25.156  1.00  0.00     0.120 C 
ATOM     12  C   UNL A   1      32.975  24.848  24.599  1.00  0.00     0.120 C 
ATOM     13  C   UNL A   1      32.074  22.379  25.964  1.00  0.00     0.035 C 
ATOM     14  C   UNL A   1      34.009  24.014  25.345  1.00  0.00     0.035 C 
BRANCH   8  15
ATOM     15  C   UNL A   1      30.555  26.904  24.876  1.00  0.00     0.082 A 
ATOM     16  C   UNL A   1      30.219  29.017  23.033  1.00  0.00     0.122 A 
ATOM     17  C   UNL A   1      29.440  27.871  22.924  1.00  0.00     0.047 A 
ATOM     18  C   UNL A   1      31.120  29.136  24.090  1.00  0.00     0.093 A 
ATOM     19  C   UNL A   1      29.610  26.822  23.832  1.00  0.00     0.021 A 
ATOM     20  C   UNL A   1      31.306  28.088  25.006  1.00  0.00     0.135 A 
BRANCH  16  21
ATOM     21  O   UNL A   1      30.032  29.969  22.068  1.00  0.00    -0.497 OA
ATOM     22  C   UNL A   1      28.667  30.277  21.787  1.00  0.00     0.278 C 
ENDBRANCH  16  21
BRANCH  20  23
ATOM     23  O   UNL A   1      32.297  28.161  25.949  1.00  0.00    -0.496 OA
ATOM     24  C   UNL A   1      33.593  28.542  25.489  1.00  0.00     0.278 C 
ENDBRANCH  20  23
ENDBRANCH   8  15
ENDBRANCH   4   7
ENDBRANCH   2   3
ENDBRANCH   1   2
BRANCH   1  25
ATOM     25  C   UNL A   1      38.683  20.690  25.691  1.00  0.00     0.118 C 
BRANCH  25  26
ATOM     26  N   UNL A   1      39.703  19.649  25.714  1.00  0.00    -0.352 N 
ATOM     27  C   UNL A   1      41.040  19.728  26.007  1.00  0.00     0.251 C 
ATOM     28  H   UNL A   1      39.381  18.748  25.482  1.00  0.00     0.163 HD
ATOM     29  O   UNL A   1      41.775  18.770  25.770  1.00  0.00    -0.269 OA
BRANCH  27  30
ATOM     30  C   UNL A   1      41.606  20.965  26.584  1.00  0.00     0.039 A 
ATOM     31  C   UNL A   1      42.151  21.922  25.726  1.00  0.00     0.014 A 
ATOM     32  C   UNL A   1      41.598  21.185  27.963  1.00  0.00     0.014 A 
ATOM     33  C   UNL A   1      42.610  23.134  26.245  1.00  0.00     0.010 A 
ATOM     34  C   UNL A   1      41.968  22.426  28.469  1.00  0.00     0.010 A 
ATOM     35  C   UNL A   1      42.474  23.416  27.614  1.00  0.00    -0.014 A 
BRANCH  35  36
ATOM     36  C   UNL A   1      42.828  24.748  28.166  1.00  0.00     0.031 A 
ATOM     37  C   UNL A   1      41.769  25.795  28.369  1.00  0.00     0.074 A 
ATOM     38  C   UNL A   1      44.120  25.036  28.414  1.00  0.00     0.049 A 
ATOM     39  N   UNL A   1      41.899  27.032  28.774  1.00  0.00    -0.248 NA
ATOM     40  C   UNL A   1      40.385  25.409  28.051  1.00  0.00     0.031 C 
ATOM     41  C   UNL A   1      45.247  24.123  28.206  1.00  0.00     0.029 A 
ATOM     42  N   UNL A   1      44.707  26.184  28.884  1.00  0.00    -0.354 N 
ATOM     43  C   UNL A   1      40.620  27.574  28.751  1.00  0.00     0.074 A 
ATOM     44  C   UNL A   1      39.737  26.550  28.238  1.00  0.00     0.031 C 
ATOM     45  C   UNL A   1      46.384  24.736  28.571  1.00  0.00     0.029 A 
ATOM     46  C   UNL A   1      46.075  26.097  28.995  1.00  0.00     0.049 A 
ATOM     47  H   UNL A   1      44.198  26.992  29.120  1.00  0.00     0.167 HD
ATOM     48  C   UNL A   1      40.217  28.807  29.141  1.00  0.00     0.037 A 
ATOM     49  C   UNL A   1      46.980  27.016  29.382  1.00  0.00     0.037 A 
ATOM     50  C   UNL A   1      41.098  29.818  29.664  1.00  0.00     0.049 A 
ATOM     51  C   UNL A   1      46.508  28.384  29.788  1.00  0.00     0.074 A 
ATOM     52  C   UNL A   1      40.776  31.075  30.146  1.00  0.00     0.029 A 
ATOM     53  N   UNL A   1      42.476  29.692  29.765  1.00  0.00    -0.354 N 
ATOM     54  N   UNL A   1      45.286  28.857  29.834  1.00  0.00    -0.248 NA
ATOM     55  C   UNL A   1      47.540  29.345  30.200  1.00  0.00     0.031 C 
ATOM     56  C   UNL A   1      41.965  31.729  30.489  1.00  0.00     0.029 A 
ATOM     57  C   UNL A   1      43.021  30.860  30.271  1.00  0.00     0.049 A 
ATOM     58  H   UNL A   1      42.989  28.890  29.513  1.00  0.00     0.167 HD
ATOM     59  C   UNL A   1      45.400  30.161  30.299  1.00  0.00     0.074 A 
ATOM     60  C   UNL A   1      46.809  30.396  30.540  1.00  0.00     0.031 C 
ATOM     61  C   UNL A   1      44.426  31.080  30.505  1.00  0.00     0.037 A 
BRANCH  48  62
ATOM     62  C   UNL A   1      38.755  29.130  29.017  1.00  0.00     0.057 A 
ATOM     63  C   UNL A   1      37.885  29.053  30.113  1.00  0.00     0.134 A 
ATOM     64  C   UNL A   1      38.217  29.562  27.798  1.00  0.00     0.134 A 
ATOM     65  F   UNL A   1      38.332  28.636  31.308  1.00  0.00    -0.206 F 
ATOM     66  C   UNL A   1      36.531  29.368  29.995  1.00  0.00     0.040 A 
ATOM     67  C   UNL A   1      36.871  29.908  27.675  1.00  0.00     0.040 A 
ATOM     68  F   UNL A   1      38.995  29.665  26.709  1.00  0.00    -0.206 F 
ATOM     69  C   UNL A   1      36.022  29.804  28.773  1.00  0.00     0.006 A 
ENDBRANCH  48  62
BRANCH  49  70
ATOM     70  C   UNL A   1      48.424  26.670  29.413  1.00  0.00     0.057 A 
ATOM     71  C   UNL A   1      49.002  26.087  30.548  1.00  0.00     0.134 A 
ATOM     72  C   UNL A   1      49.260  26.916  28.318  1.00  0.00     0.134 A 
ATOM     73  F   UNL A   1      48.257  25.845  31.636  1.00  0.00    -0.206 F 
ATOM     74  C   UNL A   1      50.363  25.782  30.600  1.00  0.00     0.040 A 
ATOM     75  C   UNL A   1      50.617  26.590  28.346  1.00  0.00     0.040 A 
ATOM     76  F   UNL A   1      48.766  27.466  27.199  1.00  0.00    -0.206 F 
ATOM     77  C   UNL A   1      51.174  26.029  29.493  1.00  0.00     0.006 A 
ENDBRANCH  49  70
BRANCH  61  78
ATOM     78  C   UNL A   1      44.849  32.418  31.038  1.00  0.00     0.057 A 
ATOM     79  C   UNL A   1      44.962  32.665  32.412  1.00  0.00     0.134 A 
ATOM     80  C   UNL A   1      45.183  33.462  30.164  1.00  0.00     0.134 A 
ATOM     81  F   UNL A   1      44.644  31.713  33.302  1.00  0.00    -0.206 F 
ATOM     82  C   UNL A   1      45.367  33.909  32.898  1.00  0.00     0.040 A 
ATOM     83  C   UNL A   1      45.618  34.700  30.638  1.00  0.00     0.040 A 
ATOM     84  F   UNL A   1      45.106  33.290  28.836  1.00  0.00    -0.206 F 
ATOM     85  C   UNL A   1      45.704  34.929  32.010  1.00  0.00     0.006 A 
ENDBRANCH  61  78
ENDBRANCH  35  36
ENDBRANCH  27  30
ENDBRANCH  25  26
ENDBRANCH   1  25
TORSDOF 13
ENDMDL
MODEL 3
REMARK VINA RESULT:     -12.0      1.844      6.315
REMARK SMILES COc1ccc(C(=O)N2CCC(C(=O)NCCCNC(=O)c3ccc(-c4c5nc(c(-c6c(F)cccc6F)c6ccc([nH]6)c(-c6c(F)cccc6F)c6nc(c(-c7c(F)cccc7F)c7ccc4[nH]7)C=C6)C=C5)cc3)CC2)c(OC)c1
REMARK SMILES IDX 17 1 16 2 15 3 13 4 14 5 12 7 7 8 8 9 9 10 10 11 77 12 11 13
REMARK SMILES IDX 76 14 6 15 3 16 4 17 81 18 5 19 78 20 2 21 1 22 79 23 80 24
REMARK SMILES IDX 18 25 19 26 20 27 21 29 22 30 23 31 75 32 24 33 74 34 25 35
REMARK SMILES IDX 26 36 27 37 68 38 28 39 73 40 67 41 69 42 29 43 72 44 66 45
REMARK SMILES IDX 65 46 30 48 56 49 39 50 55 51 40 52 43 53 54 54 70 55 41 56
REMARK SMILES IDX 42 57 53 59 71 60 44 61 31 62 32 63 37 64 33 65 34 66 36 67
REMARK SMILES IDX 38 68 35 69 57 70 58 71 63 72 59 73 60 74 62 75 64 76 61 77
REMARK SMILES IDX 45 78 46 79 51 80 47 81 48 82 50 83 52 84 49 85
REMARK H PARENT 15 6 19 28 69 47 43 58
REMARK Flexibility Score: inf
ROOT
ATOM      1  C   UNL A   1      37.734  19.879  25.004  1.00  0.00     0.042 C 
ENDROOT
BRANCH   1   2
ATOM      2  C   UNL A   1      36.578  20.852  25.173  1.00  0.00     0.117 C 
BRANCH   2   3
ATOM      3  N   UNL A   1      36.986  22.094  25.814  1.00  0.00    -0.356 N 
ATOM      4  C   UNL A   1      36.357  23.297  25.912  1.00  0.00     0.223 C 
ATOM      5  O   UNL A   1      36.941  24.207  26.504  1.00  0.00    -0.275 OA
ATOM      6  H   UNL A   1      37.867  22.058  26.253  1.00  0.00     0.163 HD
BRANCH   4   7
ATOM      7  C   UNL A   1      34.981  23.523  25.312  1.00  0.00     0.082 C 
ATOM      8  C   UNL A   1      31.886  26.189  25.827  1.00  0.00     0.257 C 
ATOM      9  O   UNL A   1      31.806  26.314  27.052  1.00  0.00    -0.269 OA
ATOM     10  N   UNL A   1      32.632  25.155  25.282  1.00  0.00    -0.338 N 
ATOM     11  C   UNL A   1      32.542  23.848  25.902  1.00  0.00     0.120 C 
ATOM     12  C   UNL A   1      33.523  25.262  24.137  1.00  0.00     0.120 C 
ATOM     13  C   UNL A   1      33.893  23.367  26.382  1.00  0.00     0.035 C 
ATOM     14  C   UNL A   1      34.940  24.825  24.490  1.00  0.00     0.035 C 
BRANCH   8  15
ATOM     15  C   UNL A   1      31.049  27.092  24.967  1.00  0.00     0.082 A 
ATOM     16  C   UNL A   1      29.519  28.413  22.995  1.00  0.00     0.122 A 
ATOM     17  C   UNL A   1      29.094  27.190  23.501  1.00  0.00     0.047 A 
ATOM     18  C   UNL A   1      30.671  29.004  23.511  1.00  0.00     0.093 A 
ATOM     19  C   UNL A   1      29.853  26.533  24.472  1.00  0.00     0.021 A 
ATOM     20  C   UNL A   1      31.448  28.354  24.484  1.00  0.00     0.135 A 
BRANCH  16  21
ATOM     21  O   UNL A   1      28.750  28.959  22.004  1.00  0.00    -0.497 OA
ATOM     22  C   UNL A   1      29.106  30.291  21.636  1.00  0.00     0.278 C 
ENDBRANCH  16  21
BRANCH  20  23
ATOM     23  O   UNL A   1      32.652  28.878  24.873  1.00  0.00    -0.496 OA
ATOM     24  C   UNL A   1      32.623  29.821  25.943  1.00  0.00     0.278 C 
ENDBRANCH  20  23
ENDBRANCH   8  15
ENDBRANCH   4   7
ENDBRANCH   2   3
ENDBRANCH   1   2
BRANCH   1  25
ATOM     25  C   UNL A   1      38.996  20.296  25.740  1.00  0.00     0.118 C 
BRANCH  25  26
ATOM     26  N   UNL A   1      39.950  19.204  25.882  1.00  0.00    -0.352 N 
ATOM     27  C   UNL A   1      41.306  19.235  26.084  1.00  0.00     0.251 C 
ATOM     28  H   UNL A   1      39.560  18.302  25.821  1.00  0.00     0.163 HD
ATOM     29  O   UNL A   1      41.965  18.203  25.971  1.00  0.00    -0.269 OA
BRANCH  27  30
ATOM     30  C   UNL A   1      41.982  20.507  26.415  1.00  0.00     0.039 A 
ATOM     31  C   UNL A   1      42.456  21.310  25.376  1.00  0.00     0.014 A 
ATOM     32  C   UNL A   1      42.147  20.909  27.743  1.00  0.00     0.014 A 
ATOM     33  C   UNL A   1      43.018  22.554  25.666  1.00  0.00     0.010 A 
ATOM     34  C   UNL A   1      42.621  22.185  28.025  1.00  0.00     0.010 A 
ATOM     35  C   UNL A   1      43.057  23.024  26.989  1.00  0.00    -0.014 A 
BRANCH  35  36
ATOM     36  C   UNL A   1      43.523  24.397  27.306  1.00  0.00     0.031 A 
ATOM     37  C   UNL A   1      42.546  25.453  27.739  1.00  0.00     0.074 A 
ATOM     38  C   UNL A   1      44.822  24.709  27.131  1.00  0.00     0.049 A 
ATOM     39  N   UNL A   1      42.756  26.720  27.992  1.00  0.00    -0.248 NA
ATOM     40  C   UNL A   1      41.141  25.038  27.884  1.00  0.00     0.031 C 
ATOM     41  C   UNL A   1      45.859  23.787  26.662  1.00  0.00     0.029 A 
ATOM     42  N   UNL A   1      45.491  25.893  27.314  1.00  0.00    -0.354 N 
ATOM     43  C   UNL A   1      41.516  27.253  28.314  1.00  0.00     0.074 A 
ATOM     44  C   UNL A   1      40.548  26.188  28.171  1.00  0.00     0.031 C 
ATOM     45  C   UNL A   1      47.035  24.431  26.620  1.00  0.00     0.029 A 
ATOM     46  C   UNL A   1      46.830  25.821  27.013  1.00  0.00     0.049 A 
ATOM     47  H   UNL A   1      45.054  26.716  27.631  1.00  0.00     0.167 HD
ATOM     48  C   UNL A   1      41.214  28.512  28.714  1.00  0.00     0.037 A 
ATOM     49  C   UNL A   1      47.784  26.771  27.039  1.00  0.00     0.037 A 
ATOM     50  C   UNL A   1      42.182  29.565  28.869  1.00  0.00     0.049 A 
ATOM     51  C   UNL A   1      47.418  28.165  27.464  1.00  0.00     0.074 A 
ATOM     52  C   UNL A   1      41.986  30.855  29.329  1.00  0.00     0.029 A 
ATOM     53  N   UNL A   1      43.530  29.453  28.559  1.00  0.00    -0.354 N 
ATOM     54  N   UNL A   1      46.254  28.637  27.841  1.00  0.00    -0.248 NA
ATOM     55  C   UNL A   1      48.499  29.160  27.472  1.00  0.00     0.031 C 
ATOM     56  C   UNL A   1      43.204  31.539  29.247  1.00  0.00     0.029 A 
ATOM     57  C   UNL A   1      44.170  30.660  28.788  1.00  0.00     0.049 A 
ATOM     58  H   UNL A   1      43.966  28.635  28.225  1.00  0.00     0.167 HD
ATOM     59  C   UNL A   1      46.465  29.974  28.150  1.00  0.00     0.074 A 
ATOM     60  C   UNL A   1      47.875  30.233  27.937  1.00  0.00     0.031 C 
ATOM     61  C   UNL A   1      45.573  30.903  28.569  1.00  0.00     0.037 A 
BRANCH  48  62
ATOM     62  C   UNL A   1      39.774  28.819  29.013  1.00  0.00     0.057 A 
ATOM     63  C   UNL A   1      38.886  29.244  28.016  1.00  0.00     0.134 A 
ATOM     64  C   UNL A   1      39.258  28.649  30.305  1.00  0.00     0.134 A 
ATOM     65  F   UNL A   1      39.316  29.437  26.760  1.00  0.00    -0.206 F 
ATOM     66  C   UNL A   1      37.546  29.513  28.297  1.00  0.00     0.040 A 
ATOM     67  C   UNL A   1      37.913  28.887  30.591  1.00  0.00     0.040 A 
ATOM     68  F   UNL A   1      40.050  28.238  31.306  1.00  0.00    -0.206 F 
ATOM     69  C   UNL A   1      37.055  29.328  29.588  1.00  0.00     0.006 A 
ENDBRANCH  48  62
BRANCH  49  70
ATOM     70  C   UNL A   1      49.180  26.434  26.660  1.00  0.00     0.057 A 
ATOM     71  C   UNL A   1      50.071  25.895  27.595  1.00  0.00     0.134 A 
ATOM     72  C   UNL A   1      49.657  26.646  25.361  1.00  0.00     0.134 A 
ATOM     73  F   UNL A   1      49.679  25.687  28.860  1.00  0.00    -0.206 F 
ATOM     74  C   UNL A   1      51.393  25.599  27.258  1.00  0.00     0.040 A 
ATOM     75  C   UNL A   1      50.969  26.328  25.003  1.00  0.00     0.040 A 
ATOM     76  F   UNL A   1      48.851  27.153  24.417  1.00  0.00    -0.206 F 
ATOM     77  C   UNL A   1      51.843  25.810  25.955  1.00  0.00     0.006 A 
ENDBRANCH  49  70
BRANCH  61  78
ATOM     78  C   UNL A   1      46.100  32.281  28.848  1.00  0.00     0.057 A 
ATOM     79  C   UNL A   1      46.087  33.289  27.875  1.00  0.00     0.134 A 
ATOM     80  C   UNL A   1      46.594  32.614  30.116  1.00  0.00     0.134 A 
ATOM     81  F   UNL A   1      45.640  33.032  26.636  1.00  0.00    -0.206 F 
ATOM     82  C   UNL A   1      46.567  34.570  28.146  1.00  0.00     0.040 A 
ATOM     83  C   UNL A   1      47.050  33.900  30.408  1.00  0.00     0.040 A 
ATOM     84  F   UNL A   1      46.626  31.699  31.097  1.00  0.00    -0.206 F 
ATOM     85  C   UNL A   1      47.044  34.881  29.419  1.00  0.00     0.006 A 
ENDBRANCH  61  78
ENDBRANCH  35  36
ENDBRANCH  27  30
ENDBRANCH  25  26
ENDBRANCH   1  25
TORSDOF 13
ENDMDL
