MODEL 1
REMARK VINA RESULT:     -12.6      0.000      0.000
REMARK SMILES CC(=O)NS(=O)(=O)c1ccc(-c2ccn(C(F)F)c(=O)c2)cc1C(=O)NCCCNC(=O)c1ccc(-c2c3nc(c(-c4c(F)cccc4F)c4ccc([nH]4)c(-c4c(F)cccc4F)c4nc(c(-c5c(F)cccc5F)c5ccc2[nH]5)C=C4)C=C3)cc1
REMARK SMILES IDX 28 1 27 2 26 3 24 4 25 5 23 7 8 8 9 9 10 10 22 11 11 12 5 13
REMARK SMILES IDX 6 14 7 15 4 16 1 17 2 18 3 19 12 21 13 22 21 23 14 24 19 25
REMARK SMILES IDX 15 26 20 27 16 28 17 29 18 30 29 31 30 32 31 33 32 35 33 36
REMARK SMILES IDX 34 37 86 38 35 39 85 40 36 41 37 42 38 43 79 44 39 45 84 46
REMARK SMILES IDX 78 47 80 48 40 49 83 50 77 51 76 52 41 54 67 55 50 56 66 57
REMARK SMILES IDX 51 58 54 59 65 60 81 61 52 62 53 63 64 65 82 66 55 67 42 68
REMARK SMILES IDX 43 69 48 70 44 71 45 72 47 73 49 74 46 75 68 76 69 77 74 78
REMARK SMILES IDX 70 79 71 80 73 81 75 82 72 83 56 84 57 85 62 86 58 87 59 88
REMARK SMILES IDX 61 89 63 90 60 91
REMARK H PARENT 26 6 4 20 30 34 80 53 54 64
REMARK Flexibility Score: inf
ROOT
ATOM      1  C   UNL A   1      32.343  28.084  25.574  1.00  0.00     0.042 C 
ENDROOT
BRANCH   1   2
ATOM      2  C   UNL A   1      33.338  26.918  25.576  1.00  0.00     0.118 C 
BRANCH   2   3
ATOM      3  N   UNL A   1      32.798  25.714  26.185  1.00  0.00    -0.352 N 
ATOM      4  C   UNL A   1      33.185  24.404  26.089  1.00  0.00     0.252 C 
ATOM      5  O   UNL A   1      32.696  23.560  26.838  1.00  0.00    -0.269 OA
ATOM      6  H   UNL A   1      32.017  25.866  26.766  1.00  0.00     0.163 HD
BRANCH   4   7
ATOM      7  C   UNL A   1      34.231  23.963  25.148  1.00  0.00     0.060 A 
ATOM      8  C   UNL A   1      33.991  23.547  23.839  1.00  0.00     0.100 A 
ATOM      9  C   UNL A   1      35.054  23.093  23.044  1.00  0.00     0.024 A 
ATOM     10  C   UNL A   1      36.329  22.940  23.593  1.00  0.00     0.010 A 
ATOM     11  C   UNL A   1      35.522  23.805  25.692  1.00  0.00     0.024 A 
ATOM     12  C   UNL A   1      36.572  23.258  24.936  1.00  0.00    -0.017 A 
BRANCH   8  13
ATOM     13  S   UNL A   1      32.354  23.416  23.182  1.00  0.00     0.264 S 
ATOM     14  O   UNL A   1      31.557  24.391  23.890  1.00  0.00    -0.201 OA
ATOM     15  O   UNL A   1      31.956  22.033  23.081  1.00  0.00    -0.201 OA
BRANCH  13  16
ATOM     16  N   UNL A   1      32.505  23.987  21.631  1.00  0.00    -0.249 N 
ATOM     17  C   UNL A   1      32.130  26.431  22.056  1.00  0.00     0.115 C 
ATOM     18  C   UNL A   1      32.680  25.314  21.213  1.00  0.00     0.230 C 
ATOM     19  O   UNL A   1      33.156  25.515  20.103  1.00  0.00    -0.274 OA
ATOM     20  H   UNL A   1      32.467  23.311  20.917  1.00  0.00     0.183 HD
ENDBRANCH  13  16
ENDBRANCH   8  13
BRANCH  12  21
ATOM     21  C   UNL A   1      37.856  22.882  25.578  1.00  0.00    -0.011 A 
ATOM     22  C   UNL A   1      38.564  23.790  26.468  1.00  0.00     0.027 A 
ATOM     23  C   UNL A   1      38.349  21.639  25.416  1.00  0.00     0.080 A 
ATOM     24  C   UNL A   1      39.645  23.391  27.146  1.00  0.00     0.095 A 
ATOM     25  C   UNL A   1      39.557  21.178  26.164  1.00  0.00     0.255 A 
ATOM     26  N   UNL A   1      40.135  22.107  27.013  1.00  0.00    -0.258 N 
ATOM     27  O   UNL A   1      39.936  20.023  26.001  1.00  0.00    -0.269 OA
BRANCH  26  28
ATOM     28  C   UNL A   1      41.259  21.668  27.801  1.00  0.00     0.451 C 
ATOM     29  F   UNL A   1      42.377  21.581  27.041  1.00  0.00    -0.185 F 
ATOM     30  F   UNL A   1      41.510  22.521  28.822  1.00  0.00    -0.185 F 
ENDBRANCH  26  28
ENDBRANCH  12  21
ENDBRANCH   4   7
ENDBRANCH   2   3
ENDBRANCH   1   2
BRANCH   1  31
ATOM     31  C   UNL A   1      32.945  29.404  25.081  1.00  0.00     0.118 C 
BRANCH  31  32
ATOM     32  N   UNL A   1      32.395  30.538  25.808  1.00  0.00    -0.352 N 
ATOM     33  C   UNL A   1      32.836  31.211  26.916  1.00  0.00     0.251 C 
ATOM     34  H   UNL A   1      31.553  30.884  25.434  1.00  0.00     0.163 HD
ATOM     35  O   UNL A   1      32.068  31.993  27.474  1.00  0.00    -0.269 OA
BRANCH  33  36
ATOM     36  C   UNL A   1      34.205  31.048  27.458  1.00  0.00     0.039 A 
ATOM     37  C   UNL A   1      34.595  29.773  27.888  1.00  0.00     0.014 A 
ATOM     38  C   UNL A   1      35.041  32.142  27.702  1.00  0.00     0.014 A 
ATOM     39  C   UNL A   1      35.814  29.589  28.549  1.00  0.00     0.010 A 
ATOM     40  C   UNL A   1      36.273  31.955  28.339  1.00  0.00     0.010 A 
ATOM     41  C   UNL A   1      36.660  30.680  28.787  1.00  0.00    -0.014 A 
BRANCH  41  42
ATOM     42  C   UNL A   1      37.910  30.514  29.570  1.00  0.00     0.031 A 
ATOM     43  C   UNL A   1      39.082  29.786  28.970  1.00  0.00     0.074 A 
ATOM     44  C   UNL A   1      38.002  30.993  30.824  1.00  0.00     0.049 A 
ATOM     45  N   UNL A   1      40.206  29.422  29.534  1.00  0.00    -0.248 NA
ATOM     46  C   UNL A   1      38.966  29.404  27.555  1.00  0.00     0.031 C 
ATOM     47  C   UNL A   1      36.950  31.720  31.535  1.00  0.00     0.029 A 
ATOM     48  N   UNL A   1      39.034  30.927  31.727  1.00  0.00    -0.354 N 
ATOM     49  C   UNL A   1      40.907  28.721  28.563  1.00  0.00     0.074 A 
ATOM     50  C   UNL A   1      40.094  28.734  27.363  1.00  0.00     0.031 C 
ATOM     51  C   UNL A   1      37.395  32.039  32.762  1.00  0.00     0.029 A 
ATOM     52  C   UNL A   1      38.749  31.520  32.931  1.00  0.00     0.049 A 
ATOM     53  H   UNL A   1      39.896  30.496  31.528  1.00  0.00     0.167 HD
ATOM     54  C   UNL A   1      42.110  28.110  28.661  1.00  0.00     0.037 A 
ATOM     55  C   UNL A   1      39.492  31.622  34.049  1.00  0.00     0.037 A 
ATOM     56  C   UNL A   1      42.957  28.135  29.823  1.00  0.00     0.049 A 
ATOM     57  C   UNL A   1      40.863  31.016  34.102  1.00  0.00     0.074 A 
ATOM     58  C   UNL A   1      44.197  27.547  30.003  1.00  0.00     0.029 A 
ATOM     59  N   UNL A   1      42.658  28.807  30.995  1.00  0.00    -0.354 N 
ATOM     60  N   UNL A   1      41.493  30.321  33.190  1.00  0.00    -0.248 NA
ATOM     61  C   UNL A   1      41.624  31.206  35.347  1.00  0.00     0.031 C 
ATOM     62  C   UNL A   1      44.652  27.869  31.289  1.00  0.00     0.029 A 
ATOM     63  C   UNL A   1      43.695  28.661  31.901  1.00  0.00     0.049 A 
ATOM     64  H   UNL A   1      41.830  29.315  31.161  1.00  0.00     0.167 HD
ATOM     65  C   UNL A   1      42.718  29.986  33.748  1.00  0.00     0.074 A 
ATOM     66  C   UNL A   1      42.752  30.565  35.075  1.00  0.00     0.031 C 
ATOM     67  C   UNL A   1      43.720  29.251  33.211  1.00  0.00     0.037 A 
BRANCH  54  68
ATOM     68  C   UNL A   1      42.572  27.328  27.474  1.00  0.00     0.057 A 
ATOM     69  C   UNL A   1      43.209  27.943  26.391  1.00  0.00     0.134 A 
ATOM     70  C   UNL A   1      42.395  25.941  27.428  1.00  0.00     0.134 A 
ATOM     71  F   UNL A   1      43.393  29.272  26.375  1.00  0.00    -0.206 F 
ATOM     72  C   UNL A   1      43.651  27.201  25.294  1.00  0.00     0.040 A 
ATOM     73  C   UNL A   1      42.838  25.187  26.341  1.00  0.00     0.040 A 
ATOM     74  F   UNL A   1      41.787  25.299  28.437  1.00  0.00    -0.206 F 
ATOM     75  C   UNL A   1      43.468  25.819  25.270  1.00  0.00     0.006 A 
ENDBRANCH  54  68
BRANCH  55  76
ATOM     76  C   UNL A   1      38.945  32.328  35.226  1.00  0.00     0.057 A 
ATOM     77  C   UNL A   1      38.304  31.624  36.251  1.00  0.00     0.134 A 
ATOM     78  C   UNL A   1      39.047  33.716  35.349  1.00  0.00     0.134 A 
ATOM     79  F   UNL A   1      38.164  30.293  36.171  1.00  0.00    -0.206 F 
ATOM     80  C   UNL A   1      37.777  32.282  37.363  1.00  0.00     0.040 A 
ATOM     81  C   UNL A   1      38.530  34.386  36.458  1.00  0.00     0.040 A 
ATOM     82  F   UNL A   1      39.645  34.438  34.391  1.00  0.00    -0.206 F 
ATOM     83  C   UNL A   1      37.893  33.667  37.469  1.00  0.00     0.006 A 
ENDBRANCH  55  76
BRANCH  67  84
ATOM     84  C   UNL A   1      44.936  29.041  34.054  1.00  0.00     0.057 A 
ATOM     85  C   UNL A   1      45.043  27.937  34.907  1.00  0.00     0.134 A 
ATOM     86  C   UNL A   1      46.016  29.928  33.990  1.00  0.00     0.134 A 
ATOM     87  F   UNL A   1      44.035  27.060  35.014  1.00  0.00    -0.206 F 
ATOM     88  C   UNL A   1      46.188  27.724  35.676  1.00  0.00     0.040 A 
ATOM     89  C   UNL A   1      47.167  29.723  34.752  1.00  0.00     0.040 A 
ATOM     90  F   UNL A   1      45.966  31.005  33.193  1.00  0.00    -0.206 F 
ATOM     91  C   UNL A   1      47.255  28.617  35.597  1.00  0.00     0.006 A 
ENDBRANCH  67  84
ENDBRANCH  41  42
ENDBRANCH  33  36
ENDBRANCH  31  32
ENDBRANCH   1  31
TORSDOF 14
ENDMDL
MODEL 2
REMARK VINA RESULT:     -12.5      3.302      7.846
REMARK SMILES CC(=O)NS(=O)(=O)c1ccc(-c2ccn(C(F)F)c(=O)c2)cc1C(=O)NCCCNC(=O)c1ccc(-c2c3nc(c(-c4c(F)cccc4F)c4ccc([nH]4)c(-c4c(F)cccc4F)c4nc(c(-c5c(F)cccc5F)c5ccc2[nH]5)C=C4)C=C3)cc1
REMARK SMILES IDX 28 1 27 2 26 3 24 4 25 5 23 7 8 8 9 9 10 10 22 11 11 12 5 13
REMARK SMILES IDX 6 14 7 15 4 16 1 17 2 18 3 19 12 21 13 22 21 23 14 24 19 25
REMARK SMILES IDX 15 26 20 27 16 28 17 29 18 30 29 31 30 32 31 33 32 35 33 36
REMARK SMILES IDX 34 37 86 38 35 39 85 40 36 41 37 42 38 43 79 44 39 45 84 46
REMARK SMILES IDX 78 47 80 48 40 49 83 50 77 51 76 52 41 54 67 55 50 56 66 57
REMARK SMILES IDX 51 58 54 59 65 60 81 61 52 62 53 63 64 65 82 66 55 67 42 68
REMARK SMILES IDX 43 69 48 70 44 71 45 72 47 73 49 74 46 75 68 76 69 77 74 78
REMARK SMILES IDX 70 79 71 80 73 81 75 82 72 83 56 84 57 85 62 86 58 87 59 88
REMARK SMILES IDX 61 89 63 90 60 91
REMARK H PARENT 26 6 4 20 30 34 80 53 54 64
REMARK Flexibility Score: inf
ROOT
ATOM      1  C   UNL A   1      37.563  22.634  25.577  1.00  0.00     0.042 C 
ENDROOT
BRANCH   1   2
ATOM      2  C   UNL A   1      36.034  22.716  25.494  1.00  0.00     0.118 C 
BRANCH   2   3
ATOM      3  N   UNL A   1      35.375  22.251  26.703  1.00  0.00    -0.352 N 
ATOM      4  C   UNL A   1      34.065  21.950  26.957  1.00  0.00     0.252 C 
ATOM      5  O   UNL A   1      33.751  21.394  28.008  1.00  0.00    -0.269 OA
ATOM      6  H   UNL A   1      35.977  22.132  27.475  1.00  0.00     0.163 HD
BRANCH   4   7
ATOM      7  C   UNL A   1      32.996  22.212  25.974  1.00  0.00     0.060 A 
ATOM      8  C   UNL A   1      32.555  21.292  25.024  1.00  0.00     0.100 A 
ATOM      9  C   UNL A   1      31.569  21.663  24.097  1.00  0.00     0.024 A 
ATOM     10  C   UNL A   1      31.114  22.982  24.044  1.00  0.00     0.010 A 
ATOM     11  C   UNL A   1      32.530  23.541  25.911  1.00  0.00     0.024 A 
ATOM     12  C   UNL A   1      31.616  23.949  24.925  1.00  0.00    -0.017 A 
BRANCH   8  13
ATOM     13  S   UNL A   1      33.312  19.705  24.833  1.00  0.00     0.264 S 
ATOM     14  O   UNL A   1      32.678  18.837  25.798  1.00  0.00    -0.201 OA
ATOM     15  O   UNL A   1      34.747  19.834  24.749  1.00  0.00    -0.201 OA
BRANCH  13  16
ATOM     16  N   UNL A   1      32.788  19.195  23.343  1.00  0.00    -0.249 N 
ATOM     17  C   UNL A   1      33.944  16.971  23.241  1.00  0.00     0.115 C 
ATOM     18  C   UNL A   1      32.849  17.903  22.803  1.00  0.00     0.230 C 
ATOM     19  O   UNL A   1      32.087  17.619  21.887  1.00  0.00    -0.274 OA
ATOM     20  H   UNL A   1      32.385  19.884  22.769  1.00  0.00     0.183 HD
ENDBRANCH  13  16
ENDBRANCH   8  13
BRANCH  12  21
ATOM     21  C   UNL A   1      31.310  25.386  24.720  1.00  0.00    -0.011 A 
ATOM     22  C   UNL A   1      31.469  26.364  25.787  1.00  0.00     0.027 A 
ATOM     23  C   UNL A   1      30.960  25.831  23.499  1.00  0.00     0.080 A 
ATOM     24  C   UNL A   1      31.321  27.672  25.553  1.00  0.00     0.095 A 
ATOM     25  C   UNL A   1      30.790  27.289  23.220  1.00  0.00     0.255 A 
ATOM     26  N   UNL A   1      30.999  28.138  24.294  1.00  0.00    -0.258 N 
ATOM     27  O   UNL A   1      30.506  27.634  22.078  1.00  0.00    -0.269 OA
BRANCH  26  28
ATOM     28  C   UNL A   1      30.911  29.555  24.039  1.00  0.00     0.451 C 
ATOM     29  F   UNL A   1      29.628  29.924  23.808  1.00  0.00    -0.185 F 
ATOM     30  F   UNL A   1      31.374  30.275  25.088  1.00  0.00    -0.185 F 
ENDBRANCH  26  28
ENDBRANCH  12  21
ENDBRANCH   4   7
ENDBRANCH   2   3
ENDBRANCH   1   2
BRANCH   1  31
ATOM     31  C   UNL A   1      38.221  23.928  26.068  1.00  0.00     0.118 C 
BRANCH  31  32
ATOM     32  N   UNL A   1      39.671  23.815  26.063  1.00  0.00    -0.352 N 
ATOM     33  C   UNL A   1      40.650  24.615  26.590  1.00  0.00     0.251 C 
ATOM     34  H   UNL A   1      40.010  23.017  25.596  1.00  0.00     0.163 HD
ATOM     35  O   UNL A   1      41.816  24.420  26.250  1.00  0.00    -0.269 OA
BRANCH  33  36
ATOM     36  C   UNL A   1      40.363  25.691  27.566  1.00  0.00     0.039 A 
ATOM     37  C   UNL A   1      41.188  26.824  27.557  1.00  0.00     0.014 A 
ATOM     38  C   UNL A   1      39.417  25.538  28.583  1.00  0.00     0.014 A 
ATOM     39  C   UNL A   1      41.065  27.800  28.551  1.00  0.00     0.010 A 
ATOM     40  C   UNL A   1      39.274  26.527  29.564  1.00  0.00     0.010 A 
ATOM     41  C   UNL A   1      40.111  27.656  29.568  1.00  0.00    -0.014 A 
BRANCH  41  42
ATOM     42  C   UNL A   1      40.034  28.635  30.681  1.00  0.00     0.031 A 
ATOM     43  C   UNL A   1      39.013  29.738  30.642  1.00  0.00     0.074 A 
ATOM     44  C   UNL A   1      40.885  28.559  31.720  1.00  0.00     0.049 A 
ATOM     45  N   UNL A   1      38.872  30.764  31.444  1.00  0.00    -0.248 NA
ATOM     46  C   UNL A   1      38.030  29.688  29.549  1.00  0.00     0.031 C 
ATOM     47  C   UNL A   1      41.925  27.545  31.894  1.00  0.00     0.029 A 
ATOM     48  N   UNL A   1      41.011  29.363  32.826  1.00  0.00    -0.354 N 
ATOM     49  C   UNL A   1      37.825  31.511  30.922  1.00  0.00     0.074 A 
ATOM     50  C   UNL A   1      37.347  30.807  29.750  1.00  0.00     0.031 C 
ATOM     51  C   UNL A   1      42.579  27.785  33.044  1.00  0.00     0.029 A 
ATOM     52  C   UNL A   1      42.020  28.980  33.672  1.00  0.00     0.049 A 
ATOM     53  H   UNL A   1      40.432  30.141  32.994  1.00  0.00     0.167 HD
ATOM     54  C   UNL A   1      37.316  32.683  31.368  1.00  0.00     0.037 A 
ATOM     55  C   UNL A   1      42.455  29.536  34.819  1.00  0.00     0.037 A 
ATOM     56  C   UNL A   1      37.738  33.367  32.560  1.00  0.00     0.049 A 
ATOM     57  C   UNL A   1      41.811  30.784  35.343  1.00  0.00     0.074 A 
ATOM     58  C   UNL A   1      37.268  34.557  33.088  1.00  0.00     0.029 A 
ATOM     59  N   UNL A   1      38.716  32.904  33.423  1.00  0.00    -0.354 N 
ATOM     60  N   UNL A   1      40.851  31.501  34.816  1.00  0.00    -0.248 NA
ATOM     61  C   UNL A   1      42.318  31.305  36.622  1.00  0.00     0.031 C 
ATOM     62  C   UNL A   1      37.962  34.813  34.278  1.00  0.00     0.029 A 
ATOM     63  C   UNL A   1      38.856  33.777  34.489  1.00  0.00     0.049 A 
ATOM     64  H   UNL A   1      39.235  32.076  33.299  1.00  0.00     0.167 HD
ATOM     65  C   UNL A   1      40.642  32.557  35.691  1.00  0.00     0.074 A 
ATOM     66  C   UNL A   1      41.565  32.383  36.793  1.00  0.00     0.031 C 
ATOM     67  C   UNL A   1      39.769  33.586  35.582  1.00  0.00     0.037 A 
BRANCH  54  68
ATOM     68  C   UNL A   1      36.252  33.320  30.534  1.00  0.00     0.057 A 
ATOM     69  C   UNL A   1      36.555  33.997  29.348  1.00  0.00     0.134 A 
ATOM     70  C   UNL A   1      34.908  33.235  30.914  1.00  0.00     0.134 A 
ATOM     71  F   UNL A   1      37.828  34.122  28.942  1.00  0.00    -0.206 F 
ATOM     72  C   UNL A   1      35.552  34.576  28.568  1.00  0.00     0.040 A 
ATOM     73  C   UNL A   1      33.896  33.803  30.140  1.00  0.00     0.040 A 
ATOM     74  F   UNL A   1      34.560  32.602  32.044  1.00  0.00    -0.206 F 
ATOM     75  C   UNL A   1      34.219  34.476  28.963  1.00  0.00     0.006 A 
ENDBRANCH  54  68
BRANCH  55  76
ATOM     76  C   UNL A   1      43.574  28.911  35.554  1.00  0.00     0.057 A 
ATOM     77  C   UNL A   1      43.341  27.910  36.502  1.00  0.00     0.134 A 
ATOM     78  C   UNL A   1      44.896  29.304  35.327  1.00  0.00     0.134 A 
ATOM     79  F   UNL A   1      42.089  27.512  36.769  1.00  0.00    -0.206 F 
ATOM     80  C   UNL A   1      44.390  27.320  37.207  1.00  0.00     0.040 A 
ATOM     81  C   UNL A   1      45.956  28.718  36.021  1.00  0.00     0.040 A 
ATOM     82  F   UNL A   1      45.173  30.264  34.434  1.00  0.00    -0.206 F 
ATOM     83  C   UNL A   1      45.703  27.722  36.964  1.00  0.00     0.006 A 
ENDBRANCH  55  76
BRANCH  67  84
ATOM     84  C   UNL A   1      39.768  34.595  36.684  1.00  0.00     0.057 A 
ATOM     85  C   UNL A   1      38.964  34.429  37.817  1.00  0.00     0.134 A 
ATOM     86  C   UNL A   1      40.596  35.722  36.627  1.00  0.00     0.134 A 
ATOM     87  F   UNL A   1      38.145  33.372  37.920  1.00  0.00    -0.206 F 
ATOM     88  C   UNL A   1      38.980  35.357  38.859  1.00  0.00     0.040 A 
ATOM     89  C   UNL A   1      40.623  36.655  37.664  1.00  0.00     0.040 A 
ATOM     90  F   UNL A   1      41.384  35.934  35.563  1.00  0.00    -0.206 F 
ATOM     91  C   UNL A   1      39.814  36.472  38.786  1.00  0.00     0.006 A 
ENDBRANCH  67  84
ENDBRANCH  41  42
ENDBRANCH  33  36
ENDBRANCH  31  32
ENDBRANCH   1  31
TORSDOF 14
ENDMDL
MODEL 3
REMARK VINA RESULT:     -12.5      4.021      7.735
REMARK SMILES CC(=O)NS(=O)(=O)c1ccc(-c2ccn(C(F)F)c(=O)c2)cc1C(=O)NCCCNC(=O)c1ccc(-c2c3nc(c(-c4c(F)cccc4F)c4ccc([nH]4)c(-c4c(F)cccc4F)c4nc(c(-c5c(F)cccc5F)c5ccc2[nH]5)C=C4)C=C3)cc1
REMARK SMILES IDX 28 1 27 2 26 3 24 4 25 5 23 7 8 8 9 9 10 10 22 11 11 12 5 13
REMARK SMILES IDX 6 14 7 15 4 16 1 17 2 18 3 19 12 21 13 22 21 23 14 24 19 25
REMARK SMILES IDX 15 26 20 27 16 28 17 29 18 30 29 31 30 32 31 33 32 35 33 36
REMARK SMILES IDX 34 37 86 38 35 39 85 40 36 41 37 42 38 43 79 44 39 45 84 46
REMARK SMILES IDX 78 47 80 48 40 49 83 50 77 51 76 52 41 54 67 55 50 56 66 57
REMARK SMILES IDX 51 58 54 59 65 60 81 61 52 62 53 63 64 65 82 66 55 67 42 68
REMARK SMILES IDX 43 69 48 70 44 71 45 72 47 73 49 74 46 75 68 76 69 77 74 78
REMARK SMILES IDX 70 79 71 80 73 81 75 82 72 83 56 84 57 85 62 86 58 87 59 88
REMARK SMILES IDX 61 89 63 90 60 91
REMARK H PARENT 26 6 4 20 30 34 80 53 54 64
REMARK Flexibility Score: inf
ROOT
ATOM      1  C   UNL A   1      33.576  28.953  27.594  1.00  0.00     0.042 C 
ENDROOT
BRANCH   1   2
ATOM      2  C   UNL A   1      33.401  28.066  26.356  1.00  0.00     0.118 C 
BRANCH   2   3
ATOM      3  N   UNL A   1      33.893  28.689  25.139  1.00  0.00    -0.352 N 
ATOM      4  C   UNL A   1      33.576  28.475  23.825  1.00  0.00     0.252 C 
ATOM      5  O   UNL A   1      33.982  29.246  22.958  1.00  0.00    -0.269 OA
ATOM      6  H   UNL A   1      34.575  29.385  25.284  1.00  0.00     0.163 HD
BRANCH   4   7
ATOM      7  C   UNL A   1      32.694  27.370  23.401  1.00  0.00     0.060 A 
ATOM      8  C   UNL A   1      31.346  27.516  23.077  1.00  0.00     0.100 A 
ATOM      9  C   UNL A   1      30.582  26.389  22.739  1.00  0.00     0.024 A 
ATOM     10  C   UNL A   1      31.132  25.110  22.844  1.00  0.00     0.010 A 
ATOM     11  C   UNL A   1      33.239  26.074  23.503  1.00  0.00     0.024 A 
ATOM     12  C   UNL A   1      32.456  24.932  23.264  1.00  0.00    -0.017 A 
BRANCH   8  13
ATOM     13  S   UNL A   1      30.508  29.066  23.230  1.00  0.00     0.264 S 
ATOM     14  O   UNL A   1      30.690  29.749  21.970  1.00  0.00    -0.201 OA
ATOM     15  O   UNL A   1      30.825  29.693  24.490  1.00  0.00    -0.201 OA
BRANCH  13  16
ATOM     16  N   UNL A   1      28.904  28.643  23.295  1.00  0.00    -0.249 N 
ATOM     17  C   UNL A   1      27.885  30.926  23.500  1.00  0.00     0.115 C 
ATOM     18  C   UNL A   1      27.786  29.472  23.132  1.00  0.00     0.230 C 
ATOM     19  O   UNL A   1      26.720  28.954  22.822  1.00  0.00    -0.274 OA
ATOM     20  H   UNL A   1      28.716  27.693  23.469  1.00  0.00     0.183 HD
ENDBRANCH  13  16
ENDBRANCH   8  13
BRANCH  12  21
ATOM     21  C   UNL A   1      32.966  23.578  23.596  1.00  0.00    -0.011 A 
ATOM     22  C   UNL A   1      34.382  23.252  23.521  1.00  0.00     0.027 A 
ATOM     23  C   UNL A   1      32.122  22.640  24.066  1.00  0.00     0.080 A 
ATOM     24  C   UNL A   1      34.844  22.073  23.952  1.00  0.00     0.095 A 
ATOM     25  C   UNL A   1      32.621  21.317  24.550  1.00  0.00     0.255 A 
ATOM     26  N   UNL A   1      33.989  21.120  24.470  1.00  0.00    -0.258 N 
ATOM     27  O   UNL A   1      31.806  20.518  25.001  1.00  0.00    -0.269 OA
BRANCH  26  28
ATOM     28  C   UNL A   1      34.507  19.882  24.995  1.00  0.00     0.451 C 
ATOM     29  F   UNL A   1      34.098  18.831  24.244  1.00  0.00    -0.185 F 
ATOM     30  F   UNL A   1      35.861  19.882  25.016  1.00  0.00    -0.185 F 
ENDBRANCH  26  28
ENDBRANCH  12  21
ENDBRANCH   4   7
ENDBRANCH   2   3
ENDBRANCH   1   2
BRANCH   1  31
ATOM     31  C   UNL A   1      34.201  30.318  27.287  1.00  0.00     0.118 C 
BRANCH  31  32
ATOM     32  N   UNL A   1      34.418  31.083  28.505  1.00  0.00    -0.352 N 
ATOM     33  C   UNL A   1      35.415  31.041  29.442  1.00  0.00     0.251 C 
ATOM     34  H   UNL A   1      33.721  31.754  28.688  1.00  0.00     0.163 HD
ATOM     35  O   UNL A   1      35.249  31.637  30.506  1.00  0.00    -0.269 OA
BRANCH  33  36
ATOM     36  C   UNL A   1      36.692  30.324  29.220  1.00  0.00     0.039 A 
ATOM     37  C   UNL A   1      37.367  29.820  30.339  1.00  0.00     0.014 A 
ATOM     38  C   UNL A   1      37.311  30.283  27.967  1.00  0.00     0.014 A 
ATOM     39  C   UNL A   1      38.648  29.272  30.209  1.00  0.00     0.010 A 
ATOM     40  C   UNL A   1      38.582  29.711  27.831  1.00  0.00     0.010 A 
ATOM     41  C   UNL A   1      39.269  29.220  28.953  1.00  0.00    -0.014 A 
BRANCH  41  42
ATOM     42  C   UNL A   1      40.663  28.729  28.817  1.00  0.00     0.031 A 
ATOM     43  C   UNL A   1      41.816  29.674  29.020  1.00  0.00     0.074 A 
ATOM     44  C   UNL A   1      40.910  27.447  28.492  1.00  0.00     0.049 A 
ATOM     45  N   UNL A   1      43.094  29.476  28.817  1.00  0.00    -0.248 NA
ATOM     46  C   UNL A   1      41.484  31.024  29.501  1.00  0.00     0.031 C 
ATOM     47  C   UNL A   1      39.896  26.418  28.266  1.00  0.00     0.029 A 
ATOM     48  N   UNL A   1      42.101  26.796  28.287  1.00  0.00    -0.354 N 
ATOM     49  C   UNL A   1      43.712  30.688  29.090  1.00  0.00     0.074 A 
ATOM     50  C   UNL A   1      42.674  31.610  29.500  1.00  0.00     0.031 C 
ATOM     51  C   UNL A   1      40.509  25.262  27.960  1.00  0.00     0.029 A 
ATOM     52  C   UNL A   1      41.954  25.476  27.945  1.00  0.00     0.049 A 
ATOM     53  H   UNL A   1      42.977  27.235  28.377  1.00  0.00     0.167 HD
ATOM     54  C   UNL A   1      45.024  31.010  28.995  1.00  0.00     0.037 A 
ATOM     55  C   UNL A   1      42.879  24.546  27.642  1.00  0.00     0.037 A 
ATOM     56  C   UNL A   1      46.076  30.095  28.646  1.00  0.00     0.049 A 
ATOM     57  C   UNL A   1      44.335  24.904  27.635  1.00  0.00     0.074 A 
ATOM     58  C   UNL A   1      47.434  30.339  28.533  1.00  0.00     0.029 A 
ATOM     59  N   UNL A   1      45.887  28.750  28.376  1.00  0.00    -0.354 N 
ATOM     60  N   UNL A   1      44.899  26.064  27.853  1.00  0.00    -0.248 NA
ATOM     61  C   UNL A   1      45.283  23.820  27.332  1.00  0.00     0.031 C 
ATOM     62  C   UNL A   1      48.070  29.136  28.200  1.00  0.00     0.029 A 
ATOM     63  C   UNL A   1      47.105  28.147  28.111  1.00  0.00     0.049 A 
ATOM     64  H   UNL A   1      45.016  28.290  28.374  1.00  0.00     0.167 HD
ATOM     65  C   UNL A   1      46.263  25.854  27.710  1.00  0.00     0.074 A 
ATOM     66  C   UNL A   1      46.446  24.452  27.399  1.00  0.00     0.031 C 
ATOM     67  C   UNL A   1      47.273  26.750  27.815  1.00  0.00     0.037 A 
BRANCH  54  68
ATOM     68  C   UNL A   1      45.391  32.437  29.247  1.00  0.00     0.057 A 
ATOM     69  C   UNL A   1      45.773  32.884  30.516  1.00  0.00     0.134 A 
ATOM     70  C   UNL A   1      45.382  33.366  28.200  1.00  0.00     0.134 A 
ATOM     71  F   UNL A   1      45.786  32.041  31.559  1.00  0.00    -0.206 F 
ATOM     72  C   UNL A   1      46.129  34.216  30.737  1.00  0.00     0.040 A 
ATOM     73  C   UNL A   1      45.742  34.697  28.406  1.00  0.00     0.040 A 
ATOM     74  F   UNL A   1      45.020  32.992  26.963  1.00  0.00    -0.206 F 
ATOM     75  C   UNL A   1      46.116  35.124  29.679  1.00  0.00     0.006 A 
ENDBRANCH  54  68
BRANCH  55  76
ATOM     76  C   UNL A   1      42.449  23.171  27.309  1.00  0.00     0.057 A 
ATOM     77  C   UNL A   1      42.315  22.764  25.979  1.00  0.00     0.134 A 
ATOM     78  C   UNL A   1      42.161  22.241  28.312  1.00  0.00     0.134 A 
ATOM     79  F   UNL A   1      42.560  23.625  24.981  1.00  0.00    -0.206 F 
ATOM     80  C   UNL A   1      41.902  21.471  25.654  1.00  0.00     0.040 A 
ATOM     81  C   UNL A   1      41.754  20.943  28.001  1.00  0.00     0.040 A 
ATOM     82  F   UNL A   1      42.268  22.583  29.604  1.00  0.00    -0.206 F 
ATOM     83  C   UNL A   1      41.624  20.556  26.668  1.00  0.00     0.006 A 
ENDBRANCH  55  76
BRANCH  67  84
ATOM     84  C   UNL A   1      48.660  26.239  27.599  1.00  0.00     0.057 A 
ATOM     85  C   UNL A   1      49.407  25.705  28.655  1.00  0.00     0.134 A 
ATOM     86  C   UNL A   1      49.241  26.253  26.327  1.00  0.00     0.134 A 
ATOM     87  F   UNL A   1      48.903  25.675  29.897  1.00  0.00    -0.206 F 
ATOM     88  C   UNL A   1      50.693  25.203  28.451  1.00  0.00     0.040 A 
ATOM     89  C   UNL A   1      50.525  25.751  26.110  1.00  0.00     0.040 A 
ATOM     90  F   UNL A   1      48.573  26.757  25.279  1.00  0.00    -0.206 F 
ATOM     91  C   UNL A   1      51.254  25.223  27.175  1.00  0.00     0.006 A 
ENDBRANCH  67  84
ENDBRANCH  41  42
ENDBRANCH  33  36
ENDBRANCH  31  32
ENDBRANCH   1  31
TORSDOF 14
ENDMDL
