MODEL 1
REMARK VINA RESULT:     -11.3      0.000      0.000
REMARK SMILES Cc1ccc(-c2noc(CCC(=O)NCCCNC(=O)c3ccc(-c4c5nc(c(-c6c(F)cccc6F)c6ccc([nH]6)c(-c6c(F)cccc6F)c6nc(c(-c7c(F)cccc7F)c7ccc4[nH]7)C=C6)C=C5)cc3)n2)cc1C
REMARK SMILES IDX 15 1 14 2 12 3 13 4 11 6 10 7 9 8 6 9 7 10 75 11 8 12 5 13
REMARK SMILES IDX 1 14 2 15 3 16 77 17 4 18 76 19 78 20 16 21 17 22 18 23
REMARK SMILES IDX 19 24 20 26 21 27 22 28 74 29 23 30 73 31 24 32 25 33 26 34
REMARK SMILES IDX 67 35 27 36 72 37 66 38 68 39 28 40 71 41 65 42 64 43 29 45
REMARK SMILES IDX 55 46 38 47 54 48 39 49 42 50 53 51 69 52 40 53 41 54 52 56
REMARK SMILES IDX 70 57 43 58 30 59 31 60 36 61 32 62 33 63 35 64 37 65 34 66
REMARK SMILES IDX 56 67 57 68 62 69 58 70 59 71 61 72 63 73 60 74 44 75 45 76
REMARK SMILES IDX 50 77 46 78 47 79 49 80 51 81 48 82
REMARK H PARENT 14 5 18 25 68 44 42 55
REMARK Flexibility Score: inf
ROOT
ATOM      1  C   UNL A   1      41.991  19.052  26.405  1.00  0.00     0.117 C 
ENDROOT
BRANCH   1   2
ATOM      2  N   UNL A   1      42.370  20.049  27.391  1.00  0.00    -0.356 N 
ATOM      3  C   UNL A   1      42.249  21.403  27.353  1.00  0.00     0.220 C 
ATOM      4  O   UNL A   1      42.780  22.063  28.247  1.00  0.00    -0.275 OA
ATOM      5  H   UNL A   1      42.776  19.691  28.213  1.00  0.00     0.163 HD
BRANCH   3   6
ATOM      6  C   UNL A   1      41.485  22.084  26.242  1.00  0.00     0.110 C 
BRANCH   6   7
ATOM      7  C   UNL A   1      40.192  22.700  26.752  1.00  0.00     0.110 C 
BRANCH   7   8
ATOM      8  C   UNL A   1      38.975  22.127  26.127  1.00  0.00     0.227 A 
ATOM      9  C   UNL A   1      37.159  21.687  25.163  1.00  0.00     0.202 A 
ATOM     10  N   UNL A   1      37.890  20.571  24.998  1.00  0.00    -0.057 NA
ATOM     11  N   UNL A   1      37.799  22.668  25.896  1.00  0.00    -0.191 NA
ATOM     12  O   UNL A   1      39.091  20.862  25.635  1.00  0.00    -0.339 OA
BRANCH   9  13
ATOM     13  C   UNL A   1      35.824  21.851  24.606  1.00  0.00     0.023 A 
ATOM     14  C   UNL A   1      31.896  22.390  22.862  1.00  0.00     0.044 C 
ATOM     15  C   UNL A   1      33.247  22.173  23.489  1.00  0.00    -0.048 A 
ATOM     16  C   UNL A   1      34.272  23.089  23.211  1.00  0.00     0.004 A 
ATOM     17  C   UNL A   1      33.512  21.084  24.341  1.00  0.00    -0.047 A 
ATOM     18  C   UNL A   1      35.547  22.925  23.755  1.00  0.00     0.012 A 
ATOM     19  C   UNL A   1      34.800  20.941  24.899  1.00  0.00     0.015 A 
ATOM     20  C   UNL A   1      32.492  20.014  24.633  1.00  0.00     0.044 C 
ENDBRANCH   9  13
ENDBRANCH   7   8
ENDBRANCH   6   7
ENDBRANCH   3   6
ENDBRANCH   1   2
BRANCH   1  21
ATOM     21  C   UNL A   1      42.999  17.907  26.372  1.00  0.00     0.042 C 
BRANCH  21  22
ATOM     22  C   UNL A   1      44.432  18.367  26.138  1.00  0.00     0.118 C 
BRANCH  22  23
ATOM     23  N   UNL A   1      44.726  18.520  24.720  1.00  0.00    -0.352 N 
ATOM     24  C   UNL A   1      44.793  19.643  23.941  1.00  0.00     0.251 C 
ATOM     25  H   UNL A   1      44.904  17.677  24.245  1.00  0.00     0.163 HD
ATOM     26  O   UNL A   1      44.790  19.506  22.710  1.00  0.00    -0.269 OA
BRANCH  24  27
ATOM     27  C   UNL A   1      44.875  21.008  24.513  1.00  0.00     0.039 A 
ATOM     28  C   UNL A   1      44.323  22.072  23.789  1.00  0.00     0.014 A 
ATOM     29  C   UNL A   1      45.574  21.279  25.693  1.00  0.00     0.014 A 
ATOM     30  C   UNL A   1      44.452  23.386  24.251  1.00  0.00     0.010 A 
ATOM     31  C   UNL A   1      45.627  22.578  26.199  1.00  0.00     0.010 A 
ATOM     32  C   UNL A   1      45.097  23.651  25.468  1.00  0.00    -0.014 A 
BRANCH  32  33
ATOM     33  C   UNL A   1      45.280  25.043  25.956  1.00  0.00     0.031 A 
ATOM     34  C   UNL A   1      46.635  25.700  25.888  1.00  0.00     0.074 A 
ATOM     35  C   UNL A   1      44.248  25.709  26.508  1.00  0.00     0.049 A 
ATOM     36  N   UNL A   1      47.007  26.880  26.319  1.00  0.00    -0.248 NA
ATOM     37  C   UNL A   1      47.723  24.912  25.288  1.00  0.00     0.031 C 
ATOM     38  C   UNL A   1      42.899  25.176  26.697  1.00  0.00     0.029 A 
ATOM     39  N   UNL A   1      44.180  26.981  27.020  1.00  0.00    -0.354 N 
ATOM     40  C   UNL A   1      48.375  26.955  26.085  1.00  0.00     0.074 A 
ATOM     41  C   UNL A   1      48.773  25.691  25.502  1.00  0.00     0.031 C 
ATOM     42  C   UNL A   1      42.131  26.119  27.265  1.00  0.00     0.029 A 
ATOM     43  C   UNL A   1      42.937  27.315  27.498  1.00  0.00     0.049 A 
ATOM     44  H   UNL A   1      44.948  27.595  27.041  1.00  0.00     0.167 HD
ATOM     45  C   UNL A   1      49.224  27.985  26.316  1.00  0.00     0.037 A 
ATOM     46  C   UNL A   1      42.495  28.455  28.060  1.00  0.00     0.037 A 
ATOM     47  C   UNL A   1      48.823  29.270  26.825  1.00  0.00     0.049 A 
ATOM     48  C   UNL A   1      43.429  29.619  28.219  1.00  0.00     0.074 A 
ATOM     49  C   UNL A   1      49.593  30.407  26.999  1.00  0.00     0.029 A 
ATOM     50  N   UNL A   1      47.539  29.588  27.234  1.00  0.00    -0.354 N 
ATOM     51  N   UNL A   1      44.705  29.698  27.930  1.00  0.00    -0.248 NA
ATOM     52  C   UNL A   1      42.858  30.858  28.769  1.00  0.00     0.031 C 
ATOM     53  C   UNL A   1      48.776  31.411  27.532  1.00  0.00     0.029 A 
ATOM     54  C   UNL A   1      47.493  30.904  27.666  1.00  0.00     0.049 A 
ATOM     55  H   UNL A   1      46.771  28.972  27.219  1.00  0.00     0.167 HD
ATOM     56  C   UNL A   1      45.088  30.993  28.253  1.00  0.00     0.074 A 
ATOM     57  C   UNL A   1      43.907  31.671  28.745  1.00  0.00     0.031 C 
ATOM     58  C   UNL A   1      46.312  31.566  28.151  1.00  0.00     0.037 A 
BRANCH  45  59
ATOM     59  C   UNL A   1      50.673  27.761  26.007  1.00  0.00     0.057 A 
ATOM     60  C   UNL A   1      51.182  27.888  24.708  1.00  0.00     0.134 A 
ATOM     61  C   UNL A   1      51.573  27.422  27.025  1.00  0.00     0.134 A 
ATOM     62  F   UNL A   1      50.368  28.196  23.688  1.00  0.00    -0.206 F 
ATOM     63  C   UNL A   1      52.529  27.652  24.426  1.00  0.00     0.040 A 
ATOM     64  C   UNL A   1      52.926  27.207  26.759  1.00  0.00     0.040 A 
ATOM     65  F   UNL A   1      51.152  27.290  28.292  1.00  0.00    -0.206 F 
ATOM     66  C   UNL A   1      53.406  27.314  25.456  1.00  0.00     0.006 A 
ENDBRANCH  45  59
BRANCH  46  67
ATOM     67  C   UNL A   1      41.076  28.558  28.476  1.00  0.00     0.057 A 
ATOM     68  C   UNL A   1      40.692  28.285  29.792  1.00  0.00     0.134 A 
ATOM     69  C   UNL A   1      40.082  28.960  27.577  1.00  0.00     0.134 A 
ATOM     70  F   UNL A   1      41.603  27.881  30.690  1.00  0.00    -0.206 F 
ATOM     71  C   UNL A   1      39.365  28.405  30.203  1.00  0.00     0.040 A 
ATOM     72  C   UNL A   1      38.753  29.098  27.979  1.00  0.00     0.040 A 
ATOM     73  F   UNL A   1      40.393  29.239  26.304  1.00  0.00    -0.206 F 
ATOM     74  C   UNL A   1      38.392  28.819  29.296  1.00  0.00     0.006 A 
ENDBRANCH  46  67
BRANCH  58  75
ATOM     75  C   UNL A   1      46.432  33.000  28.567  1.00  0.00     0.057 A 
ATOM     76  C   UNL A   1      46.755  33.356  29.882  1.00  0.00     0.134 A 
ATOM     77  C   UNL A   1      46.265  34.031  27.634  1.00  0.00     0.134 A 
ATOM     78  F   UNL A   1      46.915  32.412  30.821  1.00  0.00    -0.206 F 
ATOM     79  C   UNL A   1      46.895  34.692  30.258  1.00  0.00     0.040 A 
ATOM     80  C   UNL A   1      46.419  35.370  27.997  1.00  0.00     0.040 A 
ATOM     81  F   UNL A   1      45.959  33.752  26.358  1.00  0.00    -0.206 F 
ATOM     82  C   UNL A   1      46.733  35.704  29.313  1.00  0.00     0.006 A 
ENDBRANCH  58  75
ENDBRANCH  32  33
ENDBRANCH  24  27
ENDBRANCH  22  23
ENDBRANCH  21  22
ENDBRANCH   1  21
TORSDOF 13
ENDMDL
MODEL 2
REMARK VINA RESULT:     -11.1      4.767      7.901
REMARK SMILES Cc1ccc(-c2noc(CCC(=O)NCCCNC(=O)c3ccc(-c4c5nc(c(-c6c(F)cccc6F)c6ccc([nH]6)c(-c6c(F)cccc6F)c6nc(c(-c7c(F)cccc7F)c7ccc4[nH]7)C=C6)C=C5)cc3)n2)cc1C
REMARK SMILES IDX 15 1 14 2 12 3 13 4 11 6 10 7 9 8 6 9 7 10 75 11 8 12 5 13
REMARK SMILES IDX 1 14 2 15 3 16 77 17 4 18 76 19 78 20 16 21 17 22 18 23
REMARK SMILES IDX 19 24 20 26 21 27 22 28 74 29 23 30 73 31 24 32 25 33 26 34
REMARK SMILES IDX 67 35 27 36 72 37 66 38 68 39 28 40 71 41 65 42 64 43 29 45
REMARK SMILES IDX 55 46 38 47 54 48 39 49 42 50 53 51 69 52 40 53 41 54 52 56
REMARK SMILES IDX 70 57 43 58 30 59 31 60 36 61 32 62 33 63 35 64 37 65 34 66
REMARK SMILES IDX 56 67 57 68 62 69 58 70 59 71 61 72 63 73 60 74 44 75 45 76
REMARK SMILES IDX 50 77 46 78 47 79 49 80 51 81 48 82
REMARK H PARENT 14 5 18 25 68 44 42 55
REMARK Flexibility Score: inf
ROOT
ATOM      1  C   UNL A   1      44.781  22.225  23.724  1.00  0.00     0.117 C 
ENDROOT
BRANCH   1   2
ATOM      2  N   UNL A   1      45.872  21.401  24.215  1.00  0.00    -0.356 N 
ATOM      3  C   UNL A   1      45.908  20.067  24.472  1.00  0.00     0.220 C 
ATOM      4  O   UNL A   1      46.905  19.605  25.030  1.00  0.00    -0.275 OA
ATOM      5  H   UNL A   1      46.713  21.881  24.387  1.00  0.00     0.163 HD
BRANCH   3   6
ATOM      6  C   UNL A   1      44.755  19.169  24.089  1.00  0.00     0.110 C 
BRANCH   6   7
ATOM      7  C   UNL A   1      44.083  18.571  25.316  1.00  0.00     0.110 C 
BRANCH   7   8
ATOM      8  C   UNL A   1      42.935  19.369  25.810  1.00  0.00     0.227 A 
ATOM      9  C   UNL A   1      41.531  20.808  26.427  1.00  0.00     0.202 A 
ATOM     10  N   UNL A   1      40.779  19.745  26.096  1.00  0.00    -0.057 NA
ATOM     11  N   UNL A   1      42.889  20.592  26.291  1.00  0.00    -0.191 NA
ATOM     12  O   UNL A   1      41.706  18.793  25.688  1.00  0.00    -0.339 OA
BRANCH   9  13
ATOM     13  C   UNL A   1      40.966  22.074  26.871  1.00  0.00     0.023 A 
ATOM     14  C   UNL A   1      39.384  25.881  28.199  1.00  0.00     0.044 C 
ATOM     15  C   UNL A   1      39.899  24.551  27.721  1.00  0.00    -0.048 A 
ATOM     16  C   UNL A   1      41.182  24.144  28.118  1.00  0.00     0.004 A 
ATOM     17  C   UNL A   1      39.137  23.705  26.892  1.00  0.00    -0.047 A 
ATOM     18  C   UNL A   1      41.712  22.925  27.691  1.00  0.00     0.012 A 
ATOM     19  C   UNL A   1      39.678  22.468  26.483  1.00  0.00     0.015 A 
ATOM     20  C   UNL A   1      37.783  24.096  26.360  1.00  0.00     0.044 C 
ENDBRANCH   9  13
ENDBRANCH   7   8
ENDBRANCH   6   7
ENDBRANCH   3   6
ENDBRANCH   1   2
BRANCH   1  21
ATOM     21  C   UNL A   1      44.341  23.234  24.781  1.00  0.00     0.042 C 
BRANCH  21  22
ATOM     22  C   UNL A   1      45.488  23.754  25.638  1.00  0.00     0.118 C 
BRANCH  22  23
ATOM     23  N   UNL A   1      46.169  24.875  25.006  1.00  0.00    -0.352 N 
ATOM     24  C   UNL A   1      45.962  26.223  25.121  1.00  0.00     0.251 C 
ATOM     25  H   UNL A   1      46.898  24.620  24.395  1.00  0.00     0.163 HD
ATOM     26  O   UNL A   1      46.482  26.972  24.283  1.00  0.00    -0.269 OA
BRANCH  24  27
ATOM     27  C   UNL A   1      45.148  26.815  26.209  1.00  0.00     0.039 A 
ATOM     28  C   UNL A   1      45.058  28.210  26.294  1.00  0.00     0.014 A 
ATOM     29  C   UNL A   1      44.560  26.034  27.207  1.00  0.00     0.014 A 
ATOM     30  C   UNL A   1      44.372  28.813  27.354  1.00  0.00     0.010 A 
ATOM     31  C   UNL A   1      43.801  26.630  28.215  1.00  0.00     0.010 A 
ATOM     32  C   UNL A   1      43.726  28.027  28.320  1.00  0.00    -0.014 A 
BRANCH  32  33
ATOM     33  C   UNL A   1      43.026  28.647  29.475  1.00  0.00     0.031 A 
ATOM     34  C   UNL A   1      43.675  28.669  30.835  1.00  0.00     0.074 A 
ATOM     35  C   UNL A   1      41.785  29.149  29.326  1.00  0.00     0.049 A 
ATOM     36  N   UNL A   1      43.200  29.107  31.975  1.00  0.00    -0.248 NA
ATOM     37  C   UNL A   1      45.024  28.090  30.933  1.00  0.00     0.031 C 
ATOM     38  C   UNL A   1      41.010  29.138  28.085  1.00  0.00     0.029 A 
ATOM     39  N   UNL A   1      40.956  29.760  30.234  1.00  0.00    -0.354 N 
ATOM     40  C   UNL A   1      44.169  28.814  32.927  1.00  0.00     0.074 A 
ATOM     41  C   UNL A   1      45.245  28.134  32.238  1.00  0.00     0.031 C 
ATOM     42  C   UNL A   1      39.825  29.732  28.304  1.00  0.00     0.029 A 
ATOM     43  C   UNL A   1      39.750  30.147  29.702  1.00  0.00     0.049 A 
ATOM     44  H   UNL A   1      41.201  29.906  31.175  1.00  0.00     0.167 HD
ATOM     45  C   UNL A   1      44.174  29.098  34.252  1.00  0.00     0.037 A 
ATOM     46  C   UNL A   1      38.702  30.767  30.275  1.00  0.00     0.037 A 
ATOM     47  C   UNL A   1      43.142  29.837  34.929  1.00  0.00     0.049 A 
ATOM     48  C   UNL A   1      38.768  31.159  31.722  1.00  0.00     0.074 A 
ATOM     49  C   UNL A   1      43.107  30.259  36.247  1.00  0.00     0.029 A 
ATOM     50  N   UNL A   1      41.968  30.271  34.337  1.00  0.00    -0.354 N 
ATOM     51  N   UNL A   1      39.720  30.936  32.595  1.00  0.00    -0.248 NA
ATOM     52  C   UNL A   1      37.619  31.902  32.262  1.00  0.00     0.031 C 
ATOM     53  C   UNL A   1      41.900  30.935  36.457  1.00  0.00     0.029 A 
ATOM     54  C   UNL A   1      41.196  30.953  35.264  1.00  0.00     0.049 A 
ATOM     55  H   UNL A   1      41.718  30.118  33.397  1.00  0.00     0.167 HD
ATOM     56  C   UNL A   1      39.293  31.516  33.781  1.00  0.00     0.074 A 
ATOM     57  C   UNL A   1      38.002  32.116  33.514  1.00  0.00     0.031 C 
ATOM     58  C   UNL A   1      39.915  31.546  34.984  1.00  0.00     0.037 A 
BRANCH  45  59
ATOM     59  C   UNL A   1      45.344  28.610  35.052  1.00  0.00     0.057 A 
ATOM     60  C   UNL A   1      45.338  27.363  35.688  1.00  0.00     0.134 A 
ATOM     61  C   UNL A   1      46.495  29.397  35.181  1.00  0.00     0.134 A 
ATOM     62  F   UNL A   1      44.259  26.569  35.614  1.00  0.00    -0.206 F 
ATOM     63  C   UNL A   1      46.422  26.928  36.452  1.00  0.00     0.040 A 
ATOM     64  C   UNL A   1      47.595  28.963  35.923  1.00  0.00     0.040 A 
ATOM     65  F   UNL A   1      46.569  30.600  34.592  1.00  0.00    -0.206 F 
ATOM     66  C   UNL A   1      47.557  27.729  36.567  1.00  0.00     0.006 A 
ENDBRANCH  45  59
BRANCH  46  67
ATOM     67  C   UNL A   1      37.513  31.092  29.454  1.00  0.00     0.057 A 
ATOM     68  C   UNL A   1      37.378  32.346  28.849  1.00  0.00     0.134 A 
ATOM     69  C   UNL A   1      36.503  30.149  29.231  1.00  0.00     0.134 A 
ATOM     70  F   UNL A   1      38.309  33.291  29.043  1.00  0.00    -0.206 F 
ATOM     71  C   UNL A   1      36.277  32.655  28.050  1.00  0.00     0.040 A 
ATOM     72  C   UNL A   1      35.404  30.440  28.422  1.00  0.00     0.040 A 
ATOM     73  F   UNL A   1      36.582  28.930  29.782  1.00  0.00    -0.206 F 
ATOM     74  C   UNL A   1      35.289  31.697  27.830  1.00  0.00     0.006 A 
ENDBRANCH  46  67
BRANCH  58  75
ATOM     75  C   UNL A   1      39.217  32.262  36.098  1.00  0.00     0.057 A 
ATOM     76  C   UNL A   1      39.468  33.612  36.372  1.00  0.00     0.134 A 
ATOM     77  C   UNL A   1      38.253  31.608  36.876  1.00  0.00     0.134 A 
ATOM     78  F   UNL A   1      40.389  34.288  35.669  1.00  0.00    -0.206 F 
ATOM     79  C   UNL A   1      38.794  34.284  37.392  1.00  0.00     0.040 A 
ATOM     80  C   UNL A   1      37.561  32.275  37.887  1.00  0.00     0.040 A 
ATOM     81  F   UNL A   1      37.964  30.317  36.658  1.00  0.00    -0.206 F 
ATOM     82  C   UNL A   1      37.832  33.617  38.150  1.00  0.00     0.006 A 
ENDBRANCH  58  75
ENDBRANCH  32  33
ENDBRANCH  24  27
ENDBRANCH  22  23
ENDBRANCH  21  22
ENDBRANCH   1  21
TORSDOF 13
ENDMDL
MODEL 3
REMARK VINA RESULT:     -11.1      4.825      9.543
REMARK SMILES Cc1ccc(-c2noc(CCC(=O)NCCCNC(=O)c3ccc(-c4c5nc(c(-c6c(F)cccc6F)c6ccc([nH]6)c(-c6c(F)cccc6F)c6nc(c(-c7c(F)cccc7F)c7ccc4[nH]7)C=C6)C=C5)cc3)n2)cc1C
REMARK SMILES IDX 15 1 14 2 12 3 13 4 11 6 10 7 9 8 6 9 7 10 75 11 8 12 5 13
REMARK SMILES IDX 1 14 2 15 3 16 77 17 4 18 76 19 78 20 16 21 17 22 18 23
REMARK SMILES IDX 19 24 20 26 21 27 22 28 74 29 23 30 73 31 24 32 25 33 26 34
REMARK SMILES IDX 67 35 27 36 72 37 66 38 68 39 28 40 71 41 65 42 64 43 29 45
REMARK SMILES IDX 55 46 38 47 54 48 39 49 42 50 53 51 69 52 40 53 41 54 52 56
REMARK SMILES IDX 70 57 43 58 30 59 31 60 36 61 32 62 33 63 35 64 37 65 34 66
REMARK SMILES IDX 56 67 57 68 62 69 58 70 59 71 61 72 63 73 60 74 44 75 45 76
REMARK SMILES IDX 50 77 46 78 47 79 49 80 51 81 48 82
REMARK H PARENT 14 5 18 25 68 44 42 55
REMARK Flexibility Score: inf
ROOT
ATOM      1  C   UNL A   1      44.845  22.348  23.700  1.00  0.00     0.117 C 
ENDROOT
BRANCH   1   2
ATOM      2  N   UNL A   1      45.865  21.538  24.344  1.00  0.00    -0.356 N 
ATOM      3  C   UNL A   1      45.883  20.205  24.604  1.00  0.00     0.220 C 
ATOM      4  O   UNL A   1      46.796  19.756  25.300  1.00  0.00    -0.275 OA
ATOM      5  H   UNL A   1      46.666  22.030  24.635  1.00  0.00     0.163 HD
BRANCH   3   6
ATOM      6  C   UNL A   1      44.810  19.291  24.058  1.00  0.00     0.110 C 
BRANCH   6   7
ATOM      7  C   UNL A   1      44.067  18.576  25.176  1.00  0.00     0.110 C 
BRANCH   7   8
ATOM      8  C   UNL A   1      42.915  19.345  25.708  1.00  0.00     0.227 A 
ATOM      9  C   UNL A   1      41.502  20.748  26.382  1.00  0.00     0.202 A 
ATOM     10  N   UNL A   1      40.759  19.682  26.038  1.00  0.00    -0.057 NA
ATOM     11  N   UNL A   1      42.860  20.556  26.219  1.00  0.00    -0.191 NA
ATOM     12  O   UNL A   1      41.693  18.754  25.592  1.00  0.00    -0.339 OA
BRANCH   9  13
ATOM     13  C   UNL A   1      40.925  21.995  26.865  1.00  0.00     0.023 A 
ATOM     14  C   UNL A   1      39.311  25.744  28.314  1.00  0.00     0.044 C 
ATOM     15  C   UNL A   1      39.838  24.434  27.794  1.00  0.00    -0.048 A 
ATOM     16  C   UNL A   1      41.107  24.005  28.211  1.00  0.00     0.004 A 
ATOM     17  C   UNL A   1      39.100  23.630  26.903  1.00  0.00    -0.047 A 
ATOM     18  C   UNL A   1      41.647  22.805  27.746  1.00  0.00     0.012 A 
ATOM     19  C   UNL A   1      39.651  22.410  26.456  1.00  0.00     0.015 A 
ATOM     20  C   UNL A   1      37.765  24.049  26.347  1.00  0.00     0.044 C 
ENDBRANCH   9  13
ENDBRANCH   7   8
ENDBRANCH   6   7
ENDBRANCH   3   6
ENDBRANCH   1   2
BRANCH   1  21
ATOM     21  C   UNL A   1      44.037  23.129  24.732  1.00  0.00     0.042 C 
BRANCH  21  22
ATOM     22  C   UNL A   1      44.900  23.887  25.732  1.00  0.00     0.118 C 
BRANCH  22  23
ATOM     23  N   UNL A   1      45.611  24.991  25.104  1.00  0.00    -0.352 N 
ATOM     24  C   UNL A   1      45.461  26.344  25.247  1.00  0.00     0.251 C 
ATOM     25  H   UNL A   1      46.315  24.719  24.472  1.00  0.00     0.163 HD
ATOM     26  O   UNL A   1      45.992  27.086  24.410  1.00  0.00    -0.269 OA
BRANCH  24  27
ATOM     27  C   UNL A   1      44.698  26.948  26.364  1.00  0.00     0.039 A 
ATOM     28  C   UNL A   1      44.708  28.342  26.505  1.00  0.00     0.014 A 
ATOM     29  C   UNL A   1      44.060  26.171  27.335  1.00  0.00     0.014 A 
ATOM     30  C   UNL A   1      44.071  28.948  27.593  1.00  0.00     0.010 A 
ATOM     31  C   UNL A   1      43.350  26.779  28.371  1.00  0.00     0.010 A 
ATOM     32  C   UNL A   1      43.375  28.172  28.532  1.00  0.00    -0.014 A 
BRANCH  32  33
ATOM     33  C   UNL A   1      42.727  28.794  29.717  1.00  0.00     0.031 A 
ATOM     34  C   UNL A   1      41.324  29.335  29.619  1.00  0.00     0.074 A 
ATOM     35  C   UNL A   1      43.408  28.925  30.871  1.00  0.00     0.049 A 
ATOM     36  N   UNL A   1      40.614  29.967  30.520  1.00  0.00    -0.248 NA
ATOM     37  C   UNL A   1      40.642  29.174  28.325  1.00  0.00     0.031 C 
ATOM     38  C   UNL A   1      44.793  28.507  31.091  1.00  0.00     0.029 A 
ATOM     39  N   UNL A   1      43.025  29.458  32.077  1.00  0.00    -0.354 N 
ATOM     40  C   UNL A   1      39.426  30.318  29.889  1.00  0.00     0.074 A 
ATOM     41  C   UNL A   1      39.523  29.856  28.521  1.00  0.00     0.031 C 
ATOM     42  C   UNL A   1      45.138  28.781  32.359  1.00  0.00     0.029 A 
ATOM     43  C   UNL A   1      44.007  29.411  33.035  1.00  0.00     0.049 A 
ATOM     44  H   UNL A   1      42.132  29.837  32.238  1.00  0.00     0.167 HD
ATOM     45  C   UNL A   1      38.344  30.951  30.402  1.00  0.00     0.037 A 
ATOM     46  C   UNL A   1      43.998  29.827  34.315  1.00  0.00     0.037 A 
ATOM     47  C   UNL A   1      38.211  31.348  31.778  1.00  0.00     0.049 A 
ATOM     48  C   UNL A   1      42.755  30.440  34.891  1.00  0.00     0.074 A 
ATOM     49  C   UNL A   1      37.115  31.906  32.413  1.00  0.00     0.029 A 
ATOM     50  N   UNL A   1      39.205  31.219  32.734  1.00  0.00    -0.354 N 
ATOM     51  N   UNL A   1      41.616  30.704  34.301  1.00  0.00    -0.248 NA
ATOM     52  C   UNL A   1      42.792  30.801  36.317  1.00  0.00     0.031 C 
ATOM     53  C   UNL A   1      37.453  32.131  33.752  1.00  0.00     0.029 A 
ATOM     54  C   UNL A   1      38.751  31.692  33.955  1.00  0.00     0.049 A 
ATOM     55  H   UNL A   1      40.102  30.847  32.571  1.00  0.00     0.167 HD
ATOM     56  C   UNL A   1      40.798  31.251  35.280  1.00  0.00     0.074 A 
ATOM     57  C   UNL A   1      41.565  31.268  36.508  1.00  0.00     0.031 C 
ATOM     58  C   UNL A   1      39.524  31.701  35.168  1.00  0.00     0.037 A 
BRANCH  45  59
ATOM     59  C   UNL A   1      37.214  31.245  29.463  1.00  0.00     0.057 A 
ATOM     60  C   UNL A   1      37.070  32.494  28.844  1.00  0.00     0.134 A 
ATOM     61  C   UNL A   1      36.260  30.263  29.168  1.00  0.00     0.134 A 
ATOM     62  F   UNL A   1      37.943  33.481  29.098  1.00  0.00    -0.206 F 
ATOM     63  C   UNL A   1      36.000  32.766  27.991  1.00  0.00     0.040 A 
ATOM     64  C   UNL A   1      35.199  30.516  28.298  1.00  0.00     0.040 A 
ATOM     65  F   UNL A   1      36.342  29.044  29.722  1.00  0.00    -0.206 F 
ATOM     66  C   UNL A   1      35.062  31.773  27.713  1.00  0.00     0.006 A 
ENDBRANCH  45  59
BRANCH  46  67
ATOM     67  C   UNL A   1      45.207  29.634  35.150  1.00  0.00     0.057 A 
ATOM     68  C   UNL A   1      46.196  30.621  35.221  1.00  0.00     0.134 A 
ATOM     69  C   UNL A   1      45.384  28.478  35.917  1.00  0.00     0.134 A 
ATOM     70  F   UNL A   1      46.083  31.742  34.494  1.00  0.00    -0.206 F 
ATOM     71  C   UNL A   1      47.325  30.463  36.025  1.00  0.00     0.040 A 
ATOM     72  C   UNL A   1      46.501  28.314  36.737  1.00  0.00     0.040 A 
ATOM     73  F   UNL A   1      44.466  27.501  35.892  1.00  0.00    -0.206 F 
ATOM     74  C   UNL A   1      47.476  29.310  36.791  1.00  0.00     0.006 A 
ENDBRANCH  46  67
BRANCH  58  75
ATOM     75  C   UNL A   1      38.877  32.236  36.408  1.00  0.00     0.057 A 
ATOM     76  C   UNL A   1      39.084  33.554  36.832  1.00  0.00     0.134 A 
ATOM     77  C   UNL A   1      38.005  31.438  37.160  1.00  0.00     0.134 A 
ATOM     78  F   UNL A   1      39.917  34.361  36.159  1.00  0.00    -0.206 F 
ATOM     79  C   UNL A   1      38.456  34.057  37.972  1.00  0.00     0.040 A 
ATOM     80  C   UNL A   1      37.358  31.937  38.292  1.00  0.00     0.040 A 
ATOM     81  F   UNL A   1      37.762  30.169  36.801  1.00  0.00    -0.206 F 
ATOM     82  C   UNL A   1      37.585  33.250  38.702  1.00  0.00     0.006 A 
ENDBRANCH  58  75
ENDBRANCH  32  33
ENDBRANCH  24  27
ENDBRANCH  22  23
ENDBRANCH  21  22
ENDBRANCH   1  21
TORSDOF 13
ENDMDL
