MODEL 1
REMARK VINA RESULT:     -12.1      0.000      0.000
REMARK SMILES O=C(COc1ccc(F)cc1)Nc1sccc1C(=O)NCCCNC(=O)c1ccc(-c2c3nc(c(-c4c(F)cccc4F)c4ccc([nH]4)c(-c4c(F)cccc4F)c4nc(c(-c5c(F)cccc5F)c5ccc2[nH]5)C=C4)C=C3)cc1
REMARK SMILES IDX 21 1 20 2 18 3 19 4 17 6 13 7 14 8 15 9 16 10 12 11 1 12
REMARK SMILES IDX 2 13 3 15 4 16 5 17 6 18 11 19 7 20 10 21 8 22 9 23 22 24
REMARK SMILES IDX 23 25 24 26 25 27 26 29 27 30 28 31 80 32 29 33 79 34 30 35
REMARK SMILES IDX 31 36 32 37 73 38 33 39 78 40 72 41 74 42 34 43 77 44 71 45
REMARK SMILES IDX 70 46 35 48 61 49 44 50 60 51 45 52 48 53 59 54 75 55 46 56
REMARK SMILES IDX 47 57 58 59 76 60 49 61 36 62 37 63 42 64 38 65 39 66 41 67
REMARK SMILES IDX 43 68 40 69 62 70 63 71 68 72 64 73 65 74 67 75 69 76 66 77
REMARK SMILES IDX 50 78 51 79 56 80 52 81 53 82 55 83 57 84 54 85
REMARK H PARENT 20 5 12 14 24 28 74 47 48 58
REMARK Flexibility Score: inf
ROOT
ATOM      1  C   UNL A   1      33.498  29.286  25.198  1.00  0.00     0.118 C 
ENDROOT
BRANCH   1   2
ATOM      2  N   UNL A   1      33.927  28.994  23.849  1.00  0.00    -0.352 N 
ATOM      3  C   UNL A   1      33.772  27.842  23.112  1.00  0.00     0.254 C 
ATOM      4  O   UNL A   1      34.239  27.837  21.971  1.00  0.00    -0.269 OA
ATOM      5  H   UNL A   1      34.400  29.726  23.391  1.00  0.00     0.163 HD
BRANCH   3   6
ATOM      6  C   UNL A   1      33.242  26.621  23.716  1.00  0.00     0.074 A 
ATOM      7  C   UNL A   1      31.956  26.313  24.122  1.00  0.00     0.108 A 
ATOM      8  S   UNL A   1      31.865  24.857  25.012  1.00  0.00    -0.126 S 
ATOM      9  C   UNL A   1      33.485  24.468  24.656  1.00  0.00     0.068 A 
ATOM     10  C   UNL A   1      34.103  25.484  23.966  1.00  0.00     0.028 A 
BRANCH   7  11
ATOM     11  N   UNL A   1      30.715  26.895  24.010  1.00  0.00    -0.314 N 
ATOM     12  O   UNL A   1      30.687  27.305  21.721  1.00  0.00    -0.271 OA
ATOM     13  C   UNL A   1      30.185  27.397  22.837  1.00  0.00     0.262 C 
ATOM     14  H   UNL A   1      30.166  26.959  24.824  1.00  0.00     0.170 HD
BRANCH  13  15
ATOM     15  C   UNL A   1      28.912  28.213  23.085  1.00  0.00     0.329 C 
BRANCH  15  16
ATOM     16  O   UNL A   1      29.178  29.466  23.723  1.00  0.00    -0.484 OA
BRANCH  16  17
ATOM     17  C   UNL A   1      28.782  30.490  22.909  1.00  0.00     0.120 A 
ATOM     18  C   UNL A   1      28.821  31.806  23.371  1.00  0.00     0.049 A 
ATOM     19  C   UNL A   1      28.367  30.192  21.612  1.00  0.00     0.049 A 
ATOM     20  C   UNL A   1      28.389  32.835  22.540  1.00  0.00     0.043 A 
ATOM     21  C   UNL A   1      27.938  31.226  20.782  1.00  0.00     0.043 A 
ATOM     22  C   UNL A   1      27.947  32.536  21.255  1.00  0.00     0.123 A 
ATOM     23  F   UNL A   1      27.527  33.526  20.460  1.00  0.00    -0.207 F 
ENDBRANCH  16  17
ENDBRANCH  15  16
ENDBRANCH  13  15
ENDBRANCH   7  11
ENDBRANCH   3   6
ENDBRANCH   1   2
BRANCH   1  24
ATOM     24  C   UNL A   1      32.161  29.992  25.309  1.00  0.00     0.042 C 
BRANCH  24  25
ATOM     25  C   UNL A   1      31.814  30.453  26.721  1.00  0.00     0.118 C 
BRANCH  25  26
ATOM     26  N   UNL A   1      31.855  31.902  26.919  1.00  0.00    -0.352 N 
ATOM     27  C   UNL A   1      32.796  32.747  27.464  1.00  0.00     0.251 C 
ATOM     28  H   UNL A   1      31.049  32.367  26.597  1.00  0.00     0.163 HD
ATOM     29  O   UNL A   1      32.513  33.933  27.622  1.00  0.00    -0.269 OA
BRANCH  27  30
ATOM     30  C   UNL A   1      34.115  32.249  27.922  1.00  0.00     0.039 A 
ATOM     31  C   UNL A   1      35.197  33.134  27.991  1.00  0.00     0.014 A 
ATOM     32  C   UNL A   1      34.304  30.923  28.293  1.00  0.00     0.014 A 
ATOM     33  C   UNL A   1      36.407  32.719  28.559  1.00  0.00     0.010 A 
ATOM     34  C   UNL A   1      35.448  30.552  28.988  1.00  0.00     0.010 A 
ATOM     35  C   UNL A   1      36.516  31.445  29.138  1.00  0.00    -0.014 A 
BRANCH  35  36
ATOM     36  C   UNL A   1      37.713  31.009  29.907  1.00  0.00     0.031 A 
ATOM     37  C   UNL A   1      38.716  30.077  29.277  1.00  0.00     0.074 A 
ATOM     38  C   UNL A   1      37.843  31.348  31.207  1.00  0.00     0.049 A 
ATOM     39  N   UNL A   1      39.697  29.414  29.834  1.00  0.00    -0.248 NA
ATOM     40  C   UNL A   1      38.559  29.816  27.836  1.00  0.00     0.031 C 
ATOM     41  C   UNL A   1      36.923  32.200  31.962  1.00  0.00     0.029 A 
ATOM     42  N   UNL A   1      38.801  31.002  32.128  1.00  0.00    -0.354 N 
ATOM     43  C   UNL A   1      40.240  28.626  28.825  1.00  0.00     0.074 A 
ATOM     44  C   UNL A   1      39.443  28.850  27.639  1.00  0.00     0.031 C 
ATOM     45  C   UNL A   1      37.387  32.353  33.212  1.00  0.00     0.029 A 
ATOM     46  C   UNL A   1      38.604  31.564  33.367  1.00  0.00     0.049 A 
ATOM     47  H   UNL A   1      39.559  30.409  31.921  1.00  0.00     0.167 HD
ATOM     48  C   UNL A   1      41.322  27.814  28.873  1.00  0.00     0.037 A 
ATOM     49  C   UNL A   1      39.320  31.454  34.502  1.00  0.00     0.037 A 
ATOM     50  C   UNL A   1      42.156  27.648  30.031  1.00  0.00     0.049 A 
ATOM     51  C   UNL A   1      40.537  30.575  34.524  1.00  0.00     0.074 A 
ATOM     52  C   UNL A   1      43.309  26.894  30.163  1.00  0.00     0.029 A 
ATOM     53  N   UNL A   1      41.938  28.266  31.254  1.00  0.00    -0.354 N 
ATOM     54  N   UNL A   1      41.043  29.845  33.560  1.00  0.00    -0.248 NA
ATOM     55  C   UNL A   1      41.280  30.500  35.790  1.00  0.00     0.031 C 
ATOM     56  C   UNL A   1      43.780  27.042  31.471  1.00  0.00     0.029 A 
ATOM     57  C   UNL A   1      42.938  27.913  32.144  1.00  0.00     0.049 A 
ATOM     58  H   UNL A   1      41.185  28.866  31.458  1.00  0.00     0.167 HD
ATOM     59  C   UNL A   1      42.173  29.242  34.094  1.00  0.00     0.074 A 
ATOM     60  C   UNL A   1      42.285  29.697  35.464  1.00  0.00     0.031 C 
ATOM     61  C   UNL A   1      43.040  28.387  33.500  1.00  0.00     0.037 A 
BRANCH  48  62
ATOM     62  C   UNL A   1      41.680  27.068  27.620  1.00  0.00     0.057 A 
ATOM     63  C   UNL A   1      41.234  25.758  27.411  1.00  0.00     0.134 A 
ATOM     64  C   UNL A   1      42.491  27.641  26.630  1.00  0.00     0.134 A 
ATOM     65  F   UNL A   1      40.462  25.146  28.322  1.00  0.00    -0.206 F 
ATOM     66  C   UNL A   1      41.579  25.045  26.261  1.00  0.00     0.040 A 
ATOM     67  C   UNL A   1      42.818  26.949  25.464  1.00  0.00     0.040 A 
ATOM     68  F   UNL A   1      42.939  28.899  26.763  1.00  0.00    -0.206 F 
ATOM     69  C   UNL A   1      42.367  25.644  25.280  1.00  0.00     0.006 A 
ENDBRANCH  48  62
BRANCH  49  70
ATOM     70  C   UNL A   1      38.929  32.243  35.696  1.00  0.00     0.057 A 
ATOM     71  C   UNL A   1      39.311  33.578  35.863  1.00  0.00     0.134 A 
ATOM     72  C   UNL A   1      38.183  31.650  36.723  1.00  0.00     0.134 A 
ATOM     73  F   UNL A   1      40.035  34.198  34.920  1.00  0.00    -0.206 F 
ATOM     74  C   UNL A   1      38.978  34.293  37.015  1.00  0.00     0.040 A 
ATOM     75  C   UNL A   1      37.827  32.359  37.871  1.00  0.00     0.040 A 
ATOM     76  F   UNL A   1      37.775  30.378  36.610  1.00  0.00    -0.206 F 
ATOM     77  C   UNL A   1      38.232  33.683  38.022  1.00  0.00     0.006 A 
ENDBRANCH  49  70
BRANCH  61  78
ATOM     78  C   UNL A   1      44.206  27.908  34.310  1.00  0.00     0.057 A 
ATOM     79  C   UNL A   1      44.104  26.743  35.082  1.00  0.00     0.134 A 
ATOM     80  C   UNL A   1      45.395  28.640  34.390  1.00  0.00     0.134 A 
ATOM     81  F   UNL A   1      42.985  26.003  35.053  1.00  0.00    -0.206 F 
ATOM     82  C   UNL A   1      45.142  26.332  35.917  1.00  0.00     0.040 A 
ATOM     83  C   UNL A   1      46.448  28.228  35.207  1.00  0.00     0.040 A 
ATOM     84  F   UNL A   1      45.555  29.759  33.665  1.00  0.00    -0.206 F 
ATOM     85  C   UNL A   1      46.318  27.076  35.982  1.00  0.00     0.006 A 
ENDBRANCH  61  78
ENDBRANCH  35  36
ENDBRANCH  27  30
ENDBRANCH  25  26
ENDBRANCH  24  25
ENDBRANCH   1  24
TORSDOF 14
ENDMDL
MODEL 2
REMARK VINA RESULT:     -12.0      4.935      8.946
REMARK SMILES O=C(COc1ccc(F)cc1)Nc1sccc1C(=O)NCCCNC(=O)c1ccc(-c2c3nc(c(-c4c(F)cccc4F)c4ccc([nH]4)c(-c4c(F)cccc4F)c4nc(c(-c5c(F)cccc5F)c5ccc2[nH]5)C=C4)C=C3)cc1
REMARK SMILES IDX 21 1 20 2 18 3 19 4 17 6 13 7 14 8 15 9 16 10 12 11 1 12
REMARK SMILES IDX 2 13 3 15 4 16 5 17 6 18 11 19 7 20 10 21 8 22 9 23 22 24
REMARK SMILES IDX 23 25 24 26 25 27 26 29 27 30 28 31 80 32 29 33 79 34 30 35
REMARK SMILES IDX 31 36 32 37 73 38 33 39 78 40 72 41 74 42 34 43 77 44 71 45
REMARK SMILES IDX 70 46 35 48 61 49 44 50 60 51 45 52 48 53 59 54 75 55 46 56
REMARK SMILES IDX 47 57 58 59 76 60 49 61 36 62 37 63 42 64 38 65 39 66 41 67
REMARK SMILES IDX 43 68 40 69 62 70 63 71 68 72 64 73 65 74 67 75 69 76 66 77
REMARK SMILES IDX 50 78 51 79 56 80 52 81 53 82 55 83 57 84 54 85
REMARK H PARENT 20 5 12 14 24 28 74 47 48 58
REMARK Flexibility Score: inf
ROOT
ATOM      1  C   UNL A   1      32.482  30.078  25.654  1.00  0.00     0.118 C 
ENDROOT
BRANCH   1   2
ATOM      2  N   UNL A   1      33.277  29.702  24.506  1.00  0.00    -0.352 N 
ATOM      3  C   UNL A   1      33.012  28.777  23.523  1.00  0.00     0.254 C 
ATOM      4  O   UNL A   1      33.863  28.631  22.642  1.00  0.00    -0.269 OA
ATOM      5  H   UNL A   1      34.134  30.178  24.415  1.00  0.00     0.163 HD
BRANCH   3   6
ATOM      6  C   UNL A   1      31.863  27.878  23.618  1.00  0.00     0.074 A 
ATOM      7  C   UNL A   1      31.813  26.515  23.848  1.00  0.00     0.108 A 
ATOM      8  S   UNL A   1      30.255  25.853  23.615  1.00  0.00    -0.126 S 
ATOM      9  C   UNL A   1      29.555  27.398  23.461  1.00  0.00     0.068 A 
ATOM     10  C   UNL A   1      30.513  28.385  23.478  1.00  0.00     0.028 A 
BRANCH   7  11
ATOM     11  N   UNL A   1      32.712  25.536  24.200  1.00  0.00    -0.314 N 
ATOM     12  O   UNL A   1      33.835  25.299  22.177  1.00  0.00    -0.271 OA
ATOM     13  C   UNL A   1      33.623  24.958  23.336  1.00  0.00     0.262 C 
ATOM     14  H   UNL A   1      32.706  25.225  25.134  1.00  0.00     0.170 HD
BRANCH  13  15
ATOM     15  C   UNL A   1      34.294  23.725  23.951  1.00  0.00     0.329 C 
BRANCH  15  16
ATOM     16  O   UNL A   1      35.477  23.336  23.248  1.00  0.00    -0.484 OA
BRANCH  16  17
ATOM     17  C   UNL A   1      36.440  22.957  24.141  1.00  0.00     0.120 A 
ATOM     18  C   UNL A   1      36.998  21.680  24.069  1.00  0.00     0.049 A 
ATOM     19  C   UNL A   1      36.864  23.877  25.098  1.00  0.00     0.049 A 
ATOM     20  C   UNL A   1      37.958  21.300  25.001  1.00  0.00     0.043 A 
ATOM     21  C   UNL A   1      37.829  23.494  26.027  1.00  0.00     0.043 A 
ATOM     22  C   UNL A   1      38.361  22.208  25.975  1.00  0.00     0.123 A 
ATOM     23  F   UNL A   1      39.280  21.839  26.874  1.00  0.00    -0.207 F 
ENDBRANCH  16  17
ENDBRANCH  15  16
ENDBRANCH  13  15
ENDBRANCH   7  11
ENDBRANCH   3   6
ENDBRANCH   1   2
BRANCH   1  24
ATOM     24  C   UNL A   1      32.805  29.329  26.932  1.00  0.00     0.042 C 
BRANCH  24  25
ATOM     25  C   UNL A   1      34.277  29.380  27.329  1.00  0.00     0.118 C 
BRANCH  25  26
ATOM     26  N   UNL A   1      34.594  30.348  28.379  1.00  0.00    -0.352 N 
ATOM     27  C   UNL A   1      35.728  30.583  29.125  1.00  0.00     0.251 C 
ATOM     28  H   UNL A   1      33.848  30.953  28.596  1.00  0.00     0.163 HD
ATOM     29  O   UNL A   1      35.677  31.396  30.047  1.00  0.00    -0.269 OA
BRANCH  27  30
ATOM     30  C   UNL A   1      36.985  29.837  28.883  1.00  0.00     0.039 A 
ATOM     31  C   UNL A   1      37.592  29.902  27.623  1.00  0.00     0.014 A 
ATOM     32  C   UNL A   1      37.585  29.078  29.882  1.00  0.00     0.014 A 
ATOM     33  C   UNL A   1      38.852  29.328  27.421  1.00  0.00     0.010 A 
ATOM     34  C   UNL A   1      38.893  28.637  29.728  1.00  0.00     0.010 A 
ATOM     35  C   UNL A   1      39.550  28.760  28.498  1.00  0.00    -0.014 A 
BRANCH  35  36
ATOM     36  C   UNL A   1      40.958  28.290  28.387  1.00  0.00     0.031 A 
ATOM     37  C   UNL A   1      42.094  29.269  28.533  1.00  0.00     0.074 A 
ATOM     38  C   UNL A   1      41.220  27.013  28.038  1.00  0.00     0.049 A 
ATOM     39  N   UNL A   1      43.365  29.113  28.262  1.00  0.00    -0.248 NA
ATOM     40  C   UNL A   1      41.743  30.623  28.996  1.00  0.00     0.031 C 
ATOM     41  C   UNL A   1      40.219  25.968  27.814  1.00  0.00     0.029 A 
ATOM     42  N   UNL A   1      42.415  26.380  27.798  1.00  0.00    -0.354 N 
ATOM     43  C   UNL A   1      43.951  30.355  28.475  1.00  0.00     0.074 A 
ATOM     44  C   UNL A   1      42.889  31.267  28.840  1.00  0.00     0.031 C 
ATOM     45  C   UNL A   1      40.842  24.815  27.520  1.00  0.00     0.029 A 
ATOM     46  C   UNL A   1      42.280  25.050  27.478  1.00  0.00     0.049 A 
ATOM     47  H   UNL A   1      43.286  26.835  27.852  1.00  0.00     0.167 HD
ATOM     48  C   UNL A   1      45.258  30.699  28.404  1.00  0.00     0.037 A 
ATOM     49  C   UNL A   1      43.210  24.123  27.179  1.00  0.00     0.037 A 
ATOM     50  C   UNL A   1      46.322  29.777  28.112  1.00  0.00     0.049 A 
ATOM     51  C   UNL A   1      44.659  24.518  27.140  1.00  0.00     0.074 A 
ATOM     52  C   UNL A   1      47.684  30.015  28.074  1.00  0.00     0.029 A 
ATOM     53  N   UNL A   1      46.141  28.431  27.830  1.00  0.00    -0.354 N 
ATOM     54  N   UNL A   1      45.198  25.693  27.354  1.00  0.00    -0.248 NA
ATOM     55  C   UNL A   1      45.627  23.461  26.814  1.00  0.00     0.031 C 
ATOM     56  C   UNL A   1      48.328  28.817  27.753  1.00  0.00     0.029 A 
ATOM     57  C   UNL A   1      47.368  27.826  27.620  1.00  0.00     0.049 A 
ATOM     58  H   UNL A   1      45.270  27.975  27.784  1.00  0.00     0.167 HD
ATOM     59  C   UNL A   1      46.567  25.514  27.210  1.00  0.00     0.074 A 
ATOM     60  C   UNL A   1      46.778  24.115  26.899  1.00  0.00     0.031 C 
ATOM     61  C   UNL A   1      47.559  26.429  27.326  1.00  0.00     0.037 A 
BRANCH  48  62
ATOM     62  C   UNL A   1      45.610  32.133  28.680  1.00  0.00     0.057 A 
ATOM     63  C   UNL A   1      45.879  32.570  29.982  1.00  0.00     0.134 A 
ATOM     64  C   UNL A   1      45.658  33.088  27.654  1.00  0.00     0.134 A 
ATOM     65  F   UNL A   1      45.843  31.710  31.012  1.00  0.00    -0.206 F 
ATOM     66  C   UNL A   1      46.185  33.905  30.255  1.00  0.00     0.040 A 
ATOM     67  C   UNL A   1      45.991  34.418  27.910  1.00  0.00     0.040 A 
ATOM     68  F   UNL A   1      45.424  32.730  26.382  1.00  0.00    -0.206 F 
ATOM     69  C   UNL A   1      46.249  34.831  29.216  1.00  0.00     0.006 A 
ENDBRANCH  48  62
BRANCH  49  70
ATOM     70  C   UNL A   1      42.798  22.717  26.948  1.00  0.00     0.057 A 
ATOM     71  C   UNL A   1      42.479  21.852  28.000  1.00  0.00     0.134 A 
ATOM     72  C   UNL A   1      42.750  22.198  25.648  1.00  0.00     0.134 A 
ATOM     73  F   UNL A   1      42.517  22.287  29.269  1.00  0.00    -0.206 F 
ATOM     74  C   UNL A   1      42.141  20.517  27.771  1.00  0.00     0.040 A 
ATOM     75  C   UNL A   1      42.395  20.871  25.402  1.00  0.00     0.040 A 
ATOM     76  F   UNL A   1      43.030  22.985  24.598  1.00  0.00    -0.206 F 
ATOM     77  C   UNL A   1      42.097  20.025  26.468  1.00  0.00     0.006 A 
ENDBRANCH  49  70
BRANCH  61  78
ATOM     78  C   UNL A   1      48.967  25.950  27.149  1.00  0.00     0.057 A 
ATOM     79  C   UNL A   1      49.730  25.559  28.257  1.00  0.00     0.134 A 
ATOM     80  C   UNL A   1      49.592  25.954  25.896  1.00  0.00     0.134 A 
ATOM     81  F   UNL A   1      49.189  25.543  29.484  1.00  0.00    -0.206 F 
ATOM     82  C   UNL A   1      51.072  25.203  28.126  1.00  0.00     0.040 A 
ATOM     83  C   UNL A   1      50.929  25.581  25.751  1.00  0.00     0.040 A 
ATOM     84  F   UNL A   1      48.909  26.309  24.797  1.00  0.00    -0.206 F 
ATOM     85  C   UNL A   1      51.675  25.214  26.870  1.00  0.00     0.006 A 
ENDBRANCH  61  78
ENDBRANCH  35  36
ENDBRANCH  27  30
ENDBRANCH  25  26
ENDBRANCH  24  25
ENDBRANCH   1  24
TORSDOF 14
ENDMDL
MODEL 3
REMARK VINA RESULT:     -11.9      2.729      5.038
REMARK SMILES O=C(COc1ccc(F)cc1)Nc1sccc1C(=O)NCCCNC(=O)c1ccc(-c2c3nc(c(-c4c(F)cccc4F)c4ccc([nH]4)c(-c4c(F)cccc4F)c4nc(c(-c5c(F)cccc5F)c5ccc2[nH]5)C=C4)C=C3)cc1
REMARK SMILES IDX 21 1 20 2 18 3 19 4 17 6 13 7 14 8 15 9 16 10 12 11 1 12
REMARK SMILES IDX 2 13 3 15 4 16 5 17 6 18 11 19 7 20 10 21 8 22 9 23 22 24
REMARK SMILES IDX 23 25 24 26 25 27 26 29 27 30 28 31 80 32 29 33 79 34 30 35
REMARK SMILES IDX 31 36 32 37 73 38 33 39 78 40 72 41 74 42 34 43 77 44 71 45
REMARK SMILES IDX 70 46 35 48 61 49 44 50 60 51 45 52 48 53 59 54 75 55 46 56
REMARK SMILES IDX 47 57 58 59 76 60 49 61 36 62 37 63 42 64 38 65 39 66 41 67
REMARK SMILES IDX 43 68 40 69 62 70 63 71 68 72 64 73 65 74 67 75 69 76 66 77
REMARK SMILES IDX 50 78 51 79 56 80 52 81 53 82 55 83 57 84 54 85
REMARK H PARENT 20 5 12 14 24 28 74 47 48 58
REMARK Flexibility Score: inf
ROOT
ATOM      1  C   UNL A   1      32.197  27.780  26.938  1.00  0.00     0.118 C 
ENDROOT
BRANCH   1   2
ATOM      2  N   UNL A   1      31.194  26.743  27.027  1.00  0.00    -0.352 N 
ATOM      3  C   UNL A   1      30.623  25.988  26.028  1.00  0.00     0.254 C 
ATOM      4  O   UNL A   1      29.773  25.160  26.363  1.00  0.00    -0.269 OA
ATOM      5  H   UNL A   1      30.872  26.548  27.937  1.00  0.00     0.163 HD
BRANCH   3   6
ATOM      6  C   UNL A   1      30.878  26.281  24.619  1.00  0.00     0.074 A 
ATOM      7  C   UNL A   1      31.706  25.644  23.712  1.00  0.00     0.108 A 
ATOM      8  S   UNL A   1      31.876  26.502  22.244  1.00  0.00    -0.126 S 
ATOM      9  C   UNL A   1      30.650  27.603  22.674  1.00  0.00     0.068 A 
ATOM     10  C   UNL A   1      30.205  27.379  23.956  1.00  0.00     0.028 A 
BRANCH   7  11
ATOM     11  N   UNL A   1      32.457  24.493  23.694  1.00  0.00    -0.314 N 
ATOM     12  O   UNL A   1      30.805  22.965  23.109  1.00  0.00    -0.271 OA
ATOM     13  C   UNL A   1      31.954  23.230  23.447  1.00  0.00     0.262 C 
ATOM     14  H   UNL A   1      33.422  24.574  23.870  1.00  0.00     0.170 HD
BRANCH  13  15
ATOM     15  C   UNL A   1      32.978  22.133  23.758  1.00  0.00     0.329 C 
BRANCH  15  16
ATOM     16  O   UNL A   1      32.446  21.109  24.604  1.00  0.00    -0.484 OA
BRANCH  16  17
ATOM     17  C   UNL A   1      32.868  19.885  24.165  1.00  0.00     0.120 A 
ATOM     18  C   UNL A   1      32.205  19.252  23.113  1.00  0.00     0.049 A 
ATOM     19  C   UNL A   1      33.981  19.304  24.771  1.00  0.00     0.049 A 
ATOM     20  C   UNL A   1      32.630  17.994  22.696  1.00  0.00     0.043 A 
ATOM     21  C   UNL A   1      34.405  18.047  24.348  1.00  0.00     0.043 A 
ATOM     22  C   UNL A   1      33.723  17.401  23.320  1.00  0.00     0.123 A 
ATOM     23  F   UNL A   1      34.127  16.189  22.921  1.00  0.00    -0.207 F 
ENDBRANCH  16  17
ENDBRANCH  15  16
ENDBRANCH  13  15
ENDBRANCH   7  11
ENDBRANCH   3   6
ENDBRANCH   1   2
BRANCH   1  24
ATOM     24  C   UNL A   1      31.690  29.188  27.183  1.00  0.00     0.042 C 
BRANCH  24  25
ATOM     25  C   UNL A   1      32.185  30.215  26.170  1.00  0.00     0.118 C 
BRANCH  25  26
ATOM     26  N   UNL A   1      32.066  31.607  26.603  1.00  0.00    -0.352 N 
ATOM     27  C   UNL A   1      32.884  32.431  27.343  1.00  0.00     0.251 C 
ATOM     28  H   UNL A   1      31.234  32.043  26.305  1.00  0.00     0.163 HD
ATOM     29  O   UNL A   1      32.471  33.543  27.670  1.00  0.00    -0.269 OA
BRANCH  27  30
ATOM     30  C   UNL A   1      34.220  31.988  27.805  1.00  0.00     0.039 A 
ATOM     31  C   UNL A   1      35.234  32.936  27.985  1.00  0.00     0.014 A 
ATOM     32  C   UNL A   1      34.491  30.651  28.074  1.00  0.00     0.014 A 
ATOM     33  C   UNL A   1      36.453  32.558  28.561  1.00  0.00     0.010 A 
ATOM     34  C   UNL A   1      35.637  30.302  28.777  1.00  0.00     0.010 A 
ATOM     35  C   UNL A   1      36.634  31.251  29.037  1.00  0.00    -0.014 A 
BRANCH  35  36
ATOM     36  C   UNL A   1      37.835  30.834  29.811  1.00  0.00     0.031 A 
ATOM     37  C   UNL A   1      38.851  29.911  29.188  1.00  0.00     0.074 A 
ATOM     38  C   UNL A   1      37.959  31.182  31.109  1.00  0.00     0.049 A 
ATOM     39  N   UNL A   1      39.839  29.263  29.751  1.00  0.00    -0.248 NA
ATOM     40  C   UNL A   1      38.700  29.639  27.749  1.00  0.00     0.031 C 
ATOM     41  C   UNL A   1      37.027  32.028  31.857  1.00  0.00     0.029 A 
ATOM     42  N   UNL A   1      38.920  30.854  32.034  1.00  0.00    -0.354 N 
ATOM     43  C   UNL A   1      40.393  28.476  28.748  1.00  0.00     0.074 A 
ATOM     44  C   UNL A   1      39.595  28.683  27.559  1.00  0.00     0.031 C 
ATOM     45  C   UNL A   1      37.487  32.194  33.108  1.00  0.00     0.029 A 
ATOM     46  C   UNL A   1      38.714  31.421  33.269  1.00  0.00     0.049 A 
ATOM     47  H   UNL A   1      39.685  30.269  31.831  1.00  0.00     0.167 HD
ATOM     48  C   UNL A   1      41.485  27.678  28.801  1.00  0.00     0.037 A 
ATOM     49  C   UNL A   1      39.429  31.326  34.405  1.00  0.00     0.037 A 
ATOM     50  C   UNL A   1      42.319  27.529  29.963  1.00  0.00     0.049 A 
ATOM     51  C   UNL A   1      40.657  30.463  34.435  1.00  0.00     0.074 A 
ATOM     52  C   UNL A   1      43.482  26.790  30.101  1.00  0.00     0.029 A 
ATOM     53  N   UNL A   1      42.092  28.152  31.181  1.00  0.00    -0.354 N 
ATOM     54  N   UNL A   1      41.174  29.733  33.476  1.00  0.00    -0.248 NA
ATOM     55  C   UNL A   1      41.399  30.405  35.702  1.00  0.00     0.031 C 
ATOM     56  C   UNL A   1      43.949  26.952  31.408  1.00  0.00     0.029 A 
ATOM     57  C   UNL A   1      43.095  27.816  32.075  1.00  0.00     0.049 A 
ATOM     58  H   UNL A   1      41.331  28.744  31.380  1.00  0.00     0.167 HD
ATOM     59  C   UNL A   1      42.311  29.148  34.015  1.00  0.00     0.074 A 
ATOM     60  C   UNL A   1      42.414  29.612  35.383  1.00  0.00     0.031 C 
ATOM     61  C   UNL A   1      43.189  28.300  33.428  1.00  0.00     0.037 A 
BRANCH  48  62
ATOM     62  C   UNL A   1      41.855  26.929  27.554  1.00  0.00     0.057 A 
ATOM     63  C   UNL A   1      41.445  25.605  27.362  1.00  0.00     0.134 A 
ATOM     64  C   UNL A   1      42.641  27.514  26.552  1.00  0.00     0.134 A 
ATOM     65  F   UNL A   1      40.696  24.981  28.286  1.00  0.00    -0.206 F 
ATOM     66  C   UNL A   1      41.801  24.889  26.217  1.00  0.00     0.040 A 
ATOM     67  C   UNL A   1      42.979  26.819  25.390  1.00  0.00     0.040 A 
ATOM     68  F   UNL A   1      43.055  28.785  26.668  1.00  0.00    -0.206 F 
ATOM     69  C   UNL A   1      42.563  25.500  25.224  1.00  0.00     0.006 A 
ENDBRANCH  48  62
BRANCH  49  70
ATOM     70  C   UNL A   1      39.026  32.118  35.594  1.00  0.00     0.057 A 
ATOM     71  C   UNL A   1      38.218  31.584  36.604  1.00  0.00     0.134 A 
ATOM     72  C   UNL A   1      39.421  33.455  35.722  1.00  0.00     0.134 A 
ATOM     73  F   UNL A   1      37.798  30.312  36.534  1.00  0.00    -0.206 F 
ATOM     74  C   UNL A   1      37.805  32.356  37.692  1.00  0.00     0.040 A 
ATOM     75  C   UNL A   1      39.032  34.233  36.813  1.00  0.00     0.040 A 
ATOM     76  F   UNL A   1      40.209  34.016  34.792  1.00  0.00    -0.206 F 
ATOM     77  C   UNL A   1      38.215  33.684  37.798  1.00  0.00     0.006 A 
ENDBRANCH  49  70
BRANCH  61  78
ATOM     78  C   UNL A   1      44.359  27.840  34.243  1.00  0.00     0.057 A 
ATOM     79  C   UNL A   1      45.569  28.546  34.210  1.00  0.00     0.134 A 
ATOM     80  C   UNL A   1      44.313  26.659  34.991  1.00  0.00     0.134 A 
ATOM     81  F   UNL A   1      45.676  29.681  33.503  1.00  0.00    -0.206 F 
ATOM     82  C   UNL A   1      46.698  28.082  34.884  1.00  0.00     0.040 A 
ATOM     83  C   UNL A   1      45.431  26.196  35.685  1.00  0.00     0.040 A 
ATOM     84  F   UNL A   1      43.179  25.946  35.068  1.00  0.00    -0.206 F 
ATOM     85  C   UNL A   1      46.632  26.903  35.623  1.00  0.00     0.006 A 
ENDBRANCH  61  78
ENDBRANCH  35  36
ENDBRANCH  27  30
ENDBRANCH  25  26
ENDBRANCH  24  25
ENDBRANCH   1  24
TORSDOF 14
ENDMDL
