MODEL 1
REMARK VINA RESULT:     -11.5      0.000      0.000
REMARK SMILES C[C@@H]1C[NH+](CC2(C(=O)NCCCNC(=O)c3ccc(-c4c5nc(c(-c6c(F)cccc6F)c6ccc([nH]6)c(-c6c(F)cccc6F)c6nc(c(-c7c(F)cccc7F)c7ccc4[nH]7)C=C6)C=C5)cc3)CCCC2)C[C@H]1C
REMARK SMILES IDX 11 1 10 2 9 3 7 4 8 5 6 7 70 8 73 9 71 10 72 11 5 12 4 13
REMARK SMILES IDX 1 14 2 15 3 16 75 17 74 18 76 19 12 21 13 22 14 23 15 25
REMARK SMILES IDX 16 26 17 27 69 28 18 29 68 30 19 31 20 32 21 33 62 34 22 35
REMARK SMILES IDX 67 36 61 37 63 38 23 39 66 40 60 41 59 42 24 44 50 45 33 46
REMARK SMILES IDX 49 47 34 48 37 49 48 50 64 51 35 52 36 53 47 55 65 56 38 57
REMARK SMILES IDX 25 58 26 59 31 60 27 61 28 62 30 63 32 64 29 65 51 66 52 67
REMARK SMILES IDX 57 68 53 69 54 70 56 71 58 72 55 73 39 74 40 75 45 76 41 77
REMARK SMILES IDX 42 78 44 79 46 80 43 81
REMARK H PARENT 9 6 4 20 13 24 63 43 37 54
REMARK Flexibility Score: inf
ROOT
ATOM      1  C   UNL A   1      37.785  19.556  25.001  1.00  0.00     0.042 C 
ENDROOT
BRANCH   1   2
ATOM      2  C   UNL A   1      36.643  20.553  25.007  1.00  0.00     0.117 C 
BRANCH   2   3
ATOM      3  N   UNL A   1      36.779  21.578  23.998  1.00  0.00    -0.355 N 
ATOM      4  C   UNL A   1      35.943  22.583  23.611  1.00  0.00     0.231 C 
ATOM      5  O   UNL A   1      36.408  23.337  22.751  1.00  0.00    -0.274 OA
ATOM      6  H   UNL A   1      37.627  21.544  23.500  1.00  0.00     0.163 HD
BRANCH   4   7
ATOM      7  C   UNL A   1      34.500  22.767  24.188  1.00  0.00     0.098 C 
ATOM      8  C   UNL A   1      33.786  21.402  24.263  1.00  0.00     0.023 C 
ATOM      9  C   UNL A   1      33.684  23.629  23.211  1.00  0.00     0.023 C 
ATOM     10  C   UNL A   1      32.529  21.458  23.395  1.00  0.00     0.001 C 
ATOM     11  C   UNL A   1      32.452  22.846  22.782  1.00  0.00     0.001 C 
BRANCH   7  12
ATOM     12  C   UNL A   1      34.708  23.456  25.600  1.00  0.00     0.279 C 
BRANCH  12  13
ATOM     13  N   UNL A   1      33.674  24.033  26.464  1.00  0.00    -0.334 N 
ATOM     14  C   UNL A   1      30.155  22.952  26.875  1.00  0.00     0.014 C 
ATOM     15  C   UNL A   1      31.425  23.518  26.273  1.00  0.00     0.049 C 
ATOM     16  C   UNL A   1      32.675  23.161  27.058  1.00  0.00     0.265 C 
ATOM     17  C   UNL A   1      31.521  25.042  26.214  1.00  0.00     0.049 C 
ATOM     18  C   UNL A   1      33.035  25.291  26.088  1.00  0.00     0.265 C 
ATOM     19  C   UNL A   1      30.718  25.670  25.086  1.00  0.00     0.014 C 
ATOM     20  H   UNL A   1      34.362  24.249  27.185  1.00  0.00     0.348 HD
ENDBRANCH  12  13
ENDBRANCH   7  12
ENDBRANCH   4   7
ENDBRANCH   2   3
ENDBRANCH   1   2
BRANCH   1  21
ATOM     21  C   UNL A   1      39.015  20.102  25.695  1.00  0.00     0.118 C 
BRANCH  21  22
ATOM     22  N   UNL A   1      40.049  19.082  25.852  1.00  0.00    -0.352 N 
ATOM     23  C   UNL A   1      41.403  19.206  26.031  1.00  0.00     0.251 C 
ATOM     24  H   UNL A   1      39.720  18.154  25.824  1.00  0.00     0.163 HD
ATOM     25  O   UNL A   1      42.131  18.233  25.884  1.00  0.00    -0.269 OA
BRANCH  23  26
ATOM     26  C   UNL A   1      41.977  20.517  26.390  1.00  0.00     0.039 A 
ATOM     27  C   UNL A   1      42.328  21.411  25.377  1.00  0.00     0.014 A 
ATOM     28  C   UNL A   1      42.175  20.861  27.728  1.00  0.00     0.014 A 
ATOM     29  C   UNL A   1      42.817  22.673  25.714  1.00  0.00     0.010 A 
ATOM     30  C   UNL A   1      42.534  22.156  28.063  1.00  0.00     0.010 A 
ATOM     31  C   UNL A   1      42.883  23.069  27.061  1.00  0.00    -0.014 A 
BRANCH  31  32
ATOM     32  C   UNL A   1      43.348  24.420  27.453  1.00  0.00     0.031 A 
ATOM     33  C   UNL A   1      42.344  25.454  27.890  1.00  0.00     0.074 A 
ATOM     34  C   UNL A   1      44.652  24.736  27.335  1.00  0.00     0.049 A 
ATOM     35  N   UNL A   1      42.531  26.717  28.176  1.00  0.00    -0.248 NA
ATOM     36  C   UNL A   1      40.935  25.026  27.974  1.00  0.00     0.031 C 
ATOM     37  C   UNL A   1      45.705  23.837  26.855  1.00  0.00     0.029 A 
ATOM     38  N   UNL A   1      45.314  25.909  27.595  1.00  0.00    -0.354 N 
ATOM     39  C   UNL A   1      41.269  27.233  28.441  1.00  0.00     0.074 A 
ATOM     40  C   UNL A   1      40.317  26.168  28.229  1.00  0.00     0.031 C 
ATOM     41  C   UNL A   1      46.880  24.483  26.877  1.00  0.00     0.029 A 
ATOM     42  C   UNL A   1      46.661  25.852  27.329  1.00  0.00     0.049 A 
ATOM     43  H   UNL A   1      44.866  26.715  27.939  1.00  0.00     0.167 HD
ATOM     44  C   UNL A   1      40.938  28.479  28.851  1.00  0.00     0.037 A 
ATOM     45  C   UNL A   1      47.607  26.805  27.427  1.00  0.00     0.037 A 
ATOM     46  C   UNL A   1      41.898  29.515  29.114  1.00  0.00     0.049 A 
ATOM     47  C   UNL A   1      47.213  28.171  27.919  1.00  0.00     0.074 A 
ATOM     48  C   UNL A   1      41.679  30.780  29.630  1.00  0.00     0.029 A 
ATOM     49  N   UNL A   1      43.261  29.405  28.883  1.00  0.00    -0.354 N 
ATOM     50  N   UNL A   1      46.028  28.617  28.261  1.00  0.00    -0.248 NA
ATOM     51  C   UNL A   1      48.288  29.164  28.048  1.00  0.00     0.031 C 
ATOM     52  C   UNL A   1      42.902  31.455  29.659  1.00  0.00     0.029 A 
ATOM     53  C   UNL A   1      43.891  30.591  29.217  1.00  0.00     0.049 A 
ATOM     54  H   UNL A   1      43.712  28.603  28.532  1.00  0.00     0.167 HD
ATOM     55  C   UNL A   1      46.220  29.929  28.673  1.00  0.00     0.074 A 
ATOM     56  C   UNL A   1      47.637  30.200  28.557  1.00  0.00     0.031 C 
ATOM     57  C   UNL A   1      45.306  30.832  29.106  1.00  0.00     0.037 A 
BRANCH  44  58
ATOM     58  C   UNL A   1      39.484  28.794  29.050  1.00  0.00     0.057 A 
ATOM     59  C   UNL A   1      38.851  28.630  30.288  1.00  0.00     0.134 A 
ATOM     60  C   UNL A   1      38.725  29.332  28.003  1.00  0.00     0.134 A 
ATOM     61  F   UNL A   1      39.517  28.108  31.330  1.00  0.00    -0.206 F 
ATOM     62  C   UNL A   1      37.511  28.976  30.475  1.00  0.00     0.040 A 
ATOM     63  C   UNL A   1      37.394  29.707  28.184  1.00  0.00     0.040 A 
ATOM     64  F   UNL A   1      39.270  29.517  26.790  1.00  0.00    -0.206 F 
ATOM     65  C   UNL A   1      36.782  29.528  29.423  1.00  0.00     0.006 A 
ENDBRANCH  44  58
BRANCH  45  66
ATOM     66  C   UNL A   1      49.016  26.507  27.061  1.00  0.00     0.057 A 
ATOM     67  C   UNL A   1      49.475  26.667  25.749  1.00  0.00     0.134 A 
ATOM     68  C   UNL A   1      49.928  26.022  28.006  1.00  0.00     0.134 A 
ATOM     69  F   UNL A   1      48.647  27.114  24.794  1.00  0.00    -0.206 F 
ATOM     70  C   UNL A   1      50.777  26.322  25.381  1.00  0.00     0.040 A 
ATOM     71  C   UNL A   1      51.242  25.701  27.660  1.00  0.00     0.040 A 
ATOM     72  F   UNL A   1      49.557  25.857  29.285  1.00  0.00    -0.206 F 
ATOM     73  C   UNL A   1      51.665  25.838  26.339  1.00  0.00     0.006 A 
ENDBRANCH  45  66
BRANCH  57  74
ATOM     74  C   UNL A   1      45.816  32.178  29.527  1.00  0.00     0.057 A 
ATOM     75  C   UNL A   1      46.244  32.432  30.835  1.00  0.00     0.134 A 
ATOM     76  C   UNL A   1      45.923  33.220  28.595  1.00  0.00     0.134 A 
ATOM     77  F   UNL A   1      46.156  31.480  31.777  1.00  0.00    -0.206 F 
ATOM     78  C   UNL A   1      46.735  33.684  31.210  1.00  0.00     0.040 A 
ATOM     79  C   UNL A   1      46.442  34.464  28.950  1.00  0.00     0.040 A 
ATOM     80  F   UNL A   1      45.543  33.037  27.322  1.00  0.00    -0.206 F 
ATOM     81  C   UNL A   1      46.844  34.701  30.263  1.00  0.00     0.006 A 
ENDBRANCH  57  74
ENDBRANCH  31  32
ENDBRANCH  23  26
ENDBRANCH  21  22
ENDBRANCH   1  21
TORSDOF 12
ENDMDL
MODEL 2
REMARK VINA RESULT:     -11.4      1.641      6.547
REMARK SMILES C[C@@H]1C[NH+](CC2(C(=O)NCCCNC(=O)c3ccc(-c4c5nc(c(-c6c(F)cccc6F)c6ccc([nH]6)c(-c6c(F)cccc6F)c6nc(c(-c7c(F)cccc7F)c7ccc4[nH]7)C=C6)C=C5)cc3)CCCC2)C[C@H]1C
REMARK SMILES IDX 11 1 10 2 9 3 7 4 8 5 6 7 70 8 73 9 71 10 72 11 5 12 4 13
REMARK SMILES IDX 1 14 2 15 3 16 75 17 74 18 76 19 12 21 13 22 14 23 15 25
REMARK SMILES IDX 16 26 17 27 69 28 18 29 68 30 19 31 20 32 21 33 62 34 22 35
REMARK SMILES IDX 67 36 61 37 63 38 23 39 66 40 60 41 59 42 24 44 50 45 33 46
REMARK SMILES IDX 49 47 34 48 37 49 48 50 64 51 35 52 36 53 47 55 65 56 38 57
REMARK SMILES IDX 25 58 26 59 31 60 27 61 28 62 30 63 32 64 29 65 51 66 52 67
REMARK SMILES IDX 57 68 53 69 54 70 56 71 58 72 55 73 39 74 40 75 45 76 41 77
REMARK SMILES IDX 42 78 44 79 46 80 43 81
REMARK H PARENT 9 6 4 20 13 24 63 43 37 54
REMARK Flexibility Score: inf
ROOT
ATOM      1  C   UNL A   1      37.809  19.521  24.973  1.00  0.00     0.042 C 
ENDROOT
BRANCH   1   2
ATOM      2  C   UNL A   1      36.578  20.407  24.980  1.00  0.00     0.117 C 
BRANCH   2   3
ATOM      3  N   UNL A   1      35.342  19.661  24.950  1.00  0.00    -0.355 N 
ATOM      4  C   UNL A   1      34.047  20.061  24.802  1.00  0.00     0.231 C 
ATOM      5  O   UNL A   1      33.226  19.141  24.750  1.00  0.00    -0.274 OA
ATOM      6  H   UNL A   1      35.454  18.689  25.058  1.00  0.00     0.163 HD
BRANCH   4   7
ATOM      7  C   UNL A   1      33.619  21.564  24.720  1.00  0.00     0.098 C 
ATOM      8  C   UNL A   1      32.298  21.693  23.934  1.00  0.00     0.023 C 
ATOM      9  C   UNL A   1      34.679  22.336  23.917  1.00  0.00     0.023 C 
ATOM     10  C   UNL A   1      32.542  22.576  22.710  1.00  0.00     0.001 C 
ATOM     11  C   UNL A   1      34.000  23.001  22.728  1.00  0.00     0.001 C 
BRANCH   7  12
ATOM     12  C   UNL A   1      33.512  22.043  26.227  1.00  0.00     0.279 C 
BRANCH  12  13
ATOM     13  N   UNL A   1      33.214  23.395  26.707  1.00  0.00    -0.334 N 
ATOM     14  C   UNL A   1      30.335  25.560  25.845  1.00  0.00     0.014 C 
ATOM     15  C   UNL A   1      31.621  24.767  25.737  1.00  0.00     0.049 C 
ATOM     16  C   UNL A   1      31.830  23.798  26.888  1.00  0.00     0.265 C 
ATOM     17  C   UNL A   1      32.917  25.577  25.776  1.00  0.00     0.049 C 
ATOM     18  C   UNL A   1      33.969  24.531  26.186  1.00  0.00     0.265 C 
ATOM     19  C   UNL A   1      33.249  26.276  24.467  1.00  0.00     0.014 C 
ATOM     20  H   UNL A   1      33.595  23.179  27.629  1.00  0.00     0.348 HD
ENDBRANCH  12  13
ENDBRANCH   7  12
ENDBRANCH   4   7
ENDBRANCH   2   3
ENDBRANCH   1   2
BRANCH   1  21
ATOM     21  C   UNL A   1      38.960  20.148  25.731  1.00  0.00     0.118 C 
BRANCH  21  22
ATOM     22  N   UNL A   1      40.108  19.249  25.817  1.00  0.00    -0.352 N 
ATOM     23  C   UNL A   1      41.434  19.516  26.045  1.00  0.00     0.251 C 
ATOM     24  H   UNL A   1      39.896  18.295  25.691  1.00  0.00     0.163 HD
ATOM     25  O   UNL A   1      42.278  18.656  25.825  1.00  0.00    -0.269 OA
BRANCH  23  26
ATOM     26  C   UNL A   1      41.838  20.845  26.544  1.00  0.00     0.039 A 
ATOM     27  C   UNL A   1      42.292  21.807  25.640  1.00  0.00     0.014 A 
ATOM     28  C   UNL A   1      41.774  21.137  27.908  1.00  0.00     0.014 A 
ATOM     29  C   UNL A   1      42.619  23.082  26.102  1.00  0.00     0.010 A 
ATOM     30  C   UNL A   1      41.972  22.437  28.345  1.00  0.00     0.010 A 
ATOM     31  C   UNL A   1      42.421  23.417  27.452  1.00  0.00    -0.014 A 
BRANCH  31  32
ATOM     32  C   UNL A   1      42.709  24.777  27.967  1.00  0.00     0.031 A 
ATOM     33  C   UNL A   1      44.112  25.131  28.387  1.00  0.00     0.074 A 
ATOM     34  C   UNL A   1      41.700  25.652  28.134  1.00  0.00     0.049 A 
ATOM     35  N   UNL A   1      44.552  26.224  28.953  1.00  0.00    -0.248 NA
ATOM     36  C   UNL A   1      45.151  24.105  28.184  1.00  0.00     0.031 C 
ATOM     37  C   UNL A   1      40.291  25.395  27.828  1.00  0.00     0.029 A 
ATOM     38  N   UNL A   1      41.702  26.936  28.618  1.00  0.00    -0.354 N 
ATOM     39  C   UNL A   1      45.901  26.003  29.200  1.00  0.00     0.074 A 
ATOM     40  C   UNL A   1      46.199  24.656  28.775  1.00  0.00     0.031 C 
ATOM     41  C   UNL A   1      39.571  26.491  28.111  1.00  0.00     0.029 A 
ATOM     42  C   UNL A   1      40.456  27.513  28.657  1.00  0.00     0.049 A 
ATOM     43  H   UNL A   1      42.521  27.399  28.911  1.00  0.00     0.167 HD
ATOM     44  C   UNL A   1      46.815  26.860  29.711  1.00  0.00     0.037 A 
ATOM     45  C   UNL A   1      40.073  28.725  29.098  1.00  0.00     0.037 A 
ATOM     46  C   UNL A   1      46.520  28.218  30.078  1.00  0.00     0.049 A 
ATOM     47  C   UNL A   1      41.119  29.668  29.629  1.00  0.00     0.074 A 
ATOM     48  C   UNL A   1      47.393  29.201  30.508  1.00  0.00     0.029 A 
ATOM     49  N   UNL A   1      45.255  28.785  30.054  1.00  0.00    -0.354 N 
ATOM     50  N   UNL A   1      42.409  29.480  29.764  1.00  0.00    -0.248 NA
ATOM     51  C   UNL A   1      40.657  30.995  30.060  1.00  0.00     0.031 C 
ATOM     52  C   UNL A   1      46.648  30.346  30.799  1.00  0.00     0.029 A 
ATOM     53  C   UNL A   1      45.319  30.096  30.493  1.00  0.00     0.049 A 
ATOM     54  H   UNL A   1      44.434  28.323  29.769  1.00  0.00     0.167 HD
ATOM     55  C   UNL A   1      42.917  30.671  30.265  1.00  0.00     0.074 A 
ATOM     56  C   UNL A   1      41.798  31.581  30.392  1.00  0.00     0.031 C 
ATOM     57  C   UNL A   1      44.193  30.986  30.596  1.00  0.00     0.037 A 
BRANCH  44  58
ATOM     58  C   UNL A   1      48.219  26.365  29.898  1.00  0.00     0.057 A 
ATOM     59  C   UNL A   1      49.199  26.519  28.909  1.00  0.00     0.134 A 
ATOM     60  C   UNL A   1      48.612  25.786  31.111  1.00  0.00     0.134 A 
ATOM     61  F   UNL A   1      48.887  27.053  27.718  1.00  0.00    -0.206 F 
ATOM     62  C   UNL A   1      50.516  26.102  29.114  1.00  0.00     0.040 A 
ATOM     63  C   UNL A   1      49.930  25.391  31.339  1.00  0.00     0.040 A 
ATOM     64  F   UNL A   1      47.724  25.611  32.102  1.00  0.00    -0.206 F 
ATOM     65  C   UNL A   1      50.887  25.546  30.338  1.00  0.00     0.006 A 
ENDBRANCH  44  58
BRANCH  45  66
ATOM     66  C   UNL A   1      38.642  29.125  29.054  1.00  0.00     0.057 A 
ATOM     67  C   UNL A   1      38.067  29.638  27.886  1.00  0.00     0.134 A 
ATOM     68  C   UNL A   1      37.826  29.037  30.188  1.00  0.00     0.134 A 
ATOM     69  F   UNL A   1      38.800  29.762  26.770  1.00  0.00    -0.206 F 
ATOM     70  C   UNL A   1      36.743  30.083  27.856  1.00  0.00     0.040 A 
ATOM     71  C   UNL A   1      36.492  29.449  30.165  1.00  0.00     0.040 A 
ATOM     72  F   UNL A   1      38.311  28.542  31.337  1.00  0.00    -0.206 F 
ATOM     73  C   UNL A   1      35.952  29.987  28.998  1.00  0.00     0.006 A 
ENDBRANCH  45  66
BRANCH  57  74
ATOM     74  C   UNL A   1      44.453  32.381  31.083  1.00  0.00     0.057 A 
ATOM     75  C   UNL A   1      44.440  32.705  32.444  1.00  0.00     0.134 A 
ATOM     76  C   UNL A   1      44.766  33.403  30.176  1.00  0.00     0.134 A 
ATOM     77  F   UNL A   1      44.135  31.775  33.363  1.00  0.00    -0.206 F 
ATOM     78  C   UNL A   1      44.702  34.003  32.886  1.00  0.00     0.040 A 
ATOM     79  C   UNL A   1      45.063  34.695  30.607  1.00  0.00     0.040 A 
ATOM     80  F   UNL A   1      44.809  33.154  28.858  1.00  0.00    -0.206 F 
ATOM     81  C   UNL A   1      45.024  34.999  31.966  1.00  0.00     0.006 A 
ENDBRANCH  57  74
ENDBRANCH  31  32
ENDBRANCH  23  26
ENDBRANCH  21  22
ENDBRANCH   1  21
TORSDOF 12
ENDMDL
MODEL 3
REMARK VINA RESULT:     -11.3      1.699      3.008
REMARK SMILES C[C@@H]1C[NH+](CC2(C(=O)NCCCNC(=O)c3ccc(-c4c5nc(c(-c6c(F)cccc6F)c6ccc([nH]6)c(-c6c(F)cccc6F)c6nc(c(-c7c(F)cccc7F)c7ccc4[nH]7)C=C6)C=C5)cc3)CCCC2)C[C@H]1C
REMARK SMILES IDX 11 1 10 2 9 3 7 4 8 5 6 7 70 8 73 9 71 10 72 11 5 12 4 13
REMARK SMILES IDX 1 14 2 15 3 16 75 17 74 18 76 19 12 21 13 22 14 23 15 25
REMARK SMILES IDX 16 26 17 27 69 28 18 29 68 30 19 31 20 32 21 33 62 34 22 35
REMARK SMILES IDX 67 36 61 37 63 38 23 39 66 40 60 41 59 42 24 44 50 45 33 46
REMARK SMILES IDX 49 47 34 48 37 49 48 50 64 51 35 52 36 53 47 55 65 56 38 57
REMARK SMILES IDX 25 58 26 59 31 60 27 61 28 62 30 63 32 64 29 65 51 66 52 67
REMARK SMILES IDX 57 68 53 69 54 70 56 71 58 72 55 73 39 74 40 75 45 76 41 77
REMARK SMILES IDX 42 78 44 79 46 80 43 81
REMARK H PARENT 9 6 4 20 13 24 63 43 37 54
REMARK Flexibility Score: inf
ROOT
ATOM      1  C   UNL A   1      37.549  19.951  25.001  1.00  0.00     0.042 C 
ENDROOT
BRANCH   1   2
ATOM      2  C   UNL A   1      36.539  21.060  24.778  1.00  0.00     0.117 C 
BRANCH   2   3
ATOM      3  N   UNL A   1      35.916  21.514  25.999  1.00  0.00    -0.355 N 
ATOM      4  C   UNL A   1      34.610  21.555  26.387  1.00  0.00     0.231 C 
ATOM      5  O   UNL A   1      34.429  21.944  27.545  1.00  0.00    -0.274 OA
ATOM      6  H   UNL A   1      36.548  21.856  26.672  1.00  0.00     0.163 HD
BRANCH   4   7
ATOM      7  C   UNL A   1      33.424  21.162  25.445  1.00  0.00     0.098 C 
ATOM      8  C   UNL A   1      33.800  21.452  23.978  1.00  0.00     0.023 C 
ATOM      9  C   UNL A   1      32.218  22.059  25.770  1.00  0.00     0.023 C 
ATOM     10  C   UNL A   1      32.802  22.461  23.408  1.00  0.00     0.001 C 
ATOM     11  C   UNL A   1      31.808  22.800  24.505  1.00  0.00     0.001 C 
BRANCH   7  12
ATOM     12  C   UNL A   1      33.155  19.629  25.743  1.00  0.00     0.279 C 
BRANCH  12  13
ATOM     13  N   UNL A   1      33.295  18.508  24.808  1.00  0.00    -0.334 N 
ATOM     14  C   UNL A   1      32.527  14.929  25.376  1.00  0.00     0.014 C 
ATOM     15  C   UNL A   1      33.191  16.289  25.459  1.00  0.00     0.049 C 
ATOM     16  C   UNL A   1      32.349  17.408  24.870  1.00  0.00     0.265 C 
ATOM     17  C   UNL A   1      34.500  16.447  24.686  1.00  0.00     0.049 C 
ATOM     18  C   UNL A   1      34.621  17.972  24.515  1.00  0.00     0.265 C 
ATOM     19  C   UNL A   1      35.705  15.828  25.376  1.00  0.00     0.014 C 
ATOM     20  H   UNL A   1      33.029  19.099  24.021  1.00  0.00     0.348 HD
ENDBRANCH  12  13
ENDBRANCH   7  12
ENDBRANCH   4   7
ENDBRANCH   2   3
ENDBRANCH   1   2
BRANCH   1  21
ATOM     21  C   UNL A   1      38.786  20.449  25.718  1.00  0.00     0.118 C 
BRANCH  21  22
ATOM     22  N   UNL A   1      39.786  19.395  25.874  1.00  0.00    -0.352 N 
ATOM     23  C   UNL A   1      41.144  19.474  26.050  1.00  0.00     0.251 C 
ATOM     24  H   UNL A   1      39.425  18.478  25.850  1.00  0.00     0.163 HD
ATOM     25  O   UNL A   1      41.838  18.477  25.904  1.00  0.00    -0.269 OA
BRANCH  23  26
ATOM     26  C   UNL A   1      41.762  20.766  26.405  1.00  0.00     0.039 A 
ATOM     27  C   UNL A   1      42.116  21.657  25.390  1.00  0.00     0.014 A 
ATOM     28  C   UNL A   1      41.998  21.094  27.741  1.00  0.00     0.014 A 
ATOM     29  C   UNL A   1      42.647  22.902  25.725  1.00  0.00     0.010 A 
ATOM     30  C   UNL A   1      42.400  22.377  28.076  1.00  0.00     0.010 A 
ATOM     31  C   UNL A   1      42.754  23.287  27.072  1.00  0.00    -0.014 A 
BRANCH  31  32
ATOM     32  C   UNL A   1      43.266  24.621  27.463  1.00  0.00     0.031 A 
ATOM     33  C   UNL A   1      42.298  25.688  27.904  1.00  0.00     0.074 A 
ATOM     34  C   UNL A   1      44.579  24.893  27.340  1.00  0.00     0.049 A 
ATOM     35  N   UNL A   1      42.528  26.944  28.190  1.00  0.00    -0.248 NA
ATOM     36  C   UNL A   1      40.876  25.307  27.994  1.00  0.00     0.031 C 
ATOM     37  C   UNL A   1      45.599  23.960  26.855  1.00  0.00     0.029 A 
ATOM     38  N   UNL A   1      45.281  26.044  27.597  1.00  0.00    -0.354 N 
ATOM     39  C   UNL A   1      41.285  27.502  28.460  1.00  0.00     0.074 A 
ATOM     40  C   UNL A   1      40.297  26.469  28.252  1.00  0.00     0.031 C 
ATOM     41  C   UNL A   1      46.795  24.567  26.872  1.00  0.00     0.029 A 
ATOM     42  C   UNL A   1      46.624  25.942  27.326  1.00  0.00     0.049 A 
ATOM     43  H   UNL A   1      44.861  26.865  27.943  1.00  0.00     0.167 HD
ATOM     44  C   UNL A   1      40.998  28.758  28.871  1.00  0.00     0.037 A 
ATOM     45  C   UNL A   1      47.601  26.862  27.420  1.00  0.00     0.037 A 
ATOM     46  C   UNL A   1      41.993  29.762  29.131  1.00  0.00     0.049 A 
ATOM     47  C   UNL A   1      47.255  28.241  27.914  1.00  0.00     0.074 A 
ATOM     48  C   UNL A   1      41.819  31.032  29.649  1.00  0.00     0.029 A 
ATOM     49  N   UNL A   1      43.351  29.606  28.894  1.00  0.00    -0.354 N 
ATOM     50  N   UNL A   1      46.087  28.726  28.261  1.00  0.00    -0.248 NA
ATOM     51  C   UNL A   1      48.363  29.198  28.038  1.00  0.00     0.031 C 
ATOM     52  C   UNL A   1      43.063  31.666  29.672  1.00  0.00     0.029 A 
ATOM     53  C   UNL A   1      44.021  30.770  29.226  1.00  0.00     0.049 A 
ATOM     54  H   UNL A   1      43.773  28.790  28.542  1.00  0.00     0.167 HD
ATOM     55  C   UNL A   1      46.324  30.030  28.673  1.00  0.00     0.074 A 
ATOM     56  C   UNL A   1      47.749  30.254  28.550  1.00  0.00     0.031 C 
ATOM     57  C   UNL A   1      45.443  30.964  29.109  1.00  0.00     0.037 A 
BRANCH  44  58
ATOM     58  C   UNL A   1      39.556  29.121  29.077  1.00  0.00     0.057 A 
ATOM     59  C   UNL A   1      38.731  29.517  28.016  1.00  0.00     0.134 A 
ATOM     60  C   UNL A   1      38.970  29.010  30.344  1.00  0.00     0.134 A 
ATOM     61  F   UNL A   1      39.232  29.657  26.779  1.00  0.00    -0.206 F 
ATOM     62  C   UNL A   1      37.378  29.802  28.211  1.00  0.00     0.040 A 
ATOM     63  C   UNL A   1      37.614  29.265  30.546  1.00  0.00     0.040 A 
ATOM     64  F   UNL A   1      39.703  28.635  31.404  1.00  0.00    -0.206 F 
ATOM     65  C   UNL A   1      36.813  29.664  29.478  1.00  0.00     0.006 A 
ENDBRANCH  44  58
BRANCH  45  66
ATOM     66  C   UNL A   1      48.998  26.518  27.048  1.00  0.00     0.057 A 
ATOM     67  C   UNL A   1      49.476  26.725  25.749  1.00  0.00     0.134 A 
ATOM     68  C   UNL A   1      49.878  25.941  27.972  1.00  0.00     0.134 A 
ATOM     69  F   UNL A   1      48.679  27.261  24.814  1.00  0.00    -0.206 F 
ATOM     70  C   UNL A   1      50.764  26.339  25.373  1.00  0.00     0.040 A 
ATOM     71  C   UNL A   1      51.178  25.577  27.618  1.00  0.00     0.040 A 
ATOM     72  F   UNL A   1      49.487  25.727  29.238  1.00  0.00    -0.206 F 
ATOM     73  C   UNL A   1      51.619  25.764  26.310  1.00  0.00     0.006 A 
ENDBRANCH  45  66
BRANCH  57  74
ATOM     74  C   UNL A   1      46.000  32.292  29.528  1.00  0.00     0.057 A 
ATOM     75  C   UNL A   1      46.109  33.364  28.635  1.00  0.00     0.134 A 
ATOM     76  C   UNL A   1      46.388  32.512  30.857  1.00  0.00     0.134 A 
ATOM     77  F   UNL A   1      45.766  33.214  27.346  1.00  0.00    -0.206 F 
ATOM     78  C   UNL A   1      46.611  34.601  29.041  1.00  0.00     0.040 A 
ATOM     79  C   UNL A   1      46.860  33.753  31.282  1.00  0.00     0.040 A 
ATOM     80  F   UNL A   1      46.295  31.529  31.766  1.00  0.00    -0.206 F 
ATOM     81  C   UNL A   1      46.979  34.800  30.371  1.00  0.00     0.006 A 
ENDBRANCH  57  74
ENDBRANCH  31  32
ENDBRANCH  23  26
ENDBRANCH  21  22
ENDBRANCH   1  21
TORSDOF 12
ENDMDL
