MODEL 1
REMARK VINA RESULT:     -12.1      0.000      0.000
REMARK SMILES C[C@@H]1CCC[C@@](Cc2ncccn2)(C(=O)NCCCNC(=O)c2ccc(-c3c4nc(c(-c5c(F)cccc5F)c5ccc([nH]5)c(-c5c(F)cccc5F)c5nc(c(-c6c(F)cccc6F)c6ccc3[nH]6)C=C5)C=C4)cc2)C1
REMARK SMILES IDX 18 1 17 2 16 3 14 4 15 5 6 7 1 8 2 9 3 10 77 11 4 12 5 13
REMARK SMILES IDX 7 14 8 15 9 16 13 17 10 18 12 19 11 20 19 21 20 22 21 23
REMARK SMILES IDX 22 25 23 26 24 27 76 28 25 29 75 30 26 31 27 32 28 33 69 34
REMARK SMILES IDX 29 35 74 36 68 37 70 38 30 39 73 40 67 41 66 42 31 44 57 45
REMARK SMILES IDX 40 46 56 47 41 48 44 49 55 50 71 51 42 52 43 53 54 55 72 56
REMARK SMILES IDX 45 57 32 58 33 59 38 60 34 61 35 62 37 63 39 64 36 65 58 66
REMARK SMILES IDX 59 67 64 68 60 69 61 70 63 71 65 72 62 73 46 74 47 75 52 76
REMARK SMILES IDX 48 77 49 78 51 79 53 80 50 81
REMARK H PARENT 16 6 20 24 70 43 44 54
REMARK Flexibility Score: inf
ROOT
ATOM      1  C   UNL A   1      31.028  31.834  25.902  1.00  0.00     0.042 C 
ENDROOT
BRANCH   1   2
ATOM      2  C   UNL A   1      31.027  30.426  25.349  1.00  0.00     0.117 C 
BRANCH   2   3
ATOM      3  N   UNL A   1      32.288  29.999  24.789  1.00  0.00    -0.356 N 
ATOM      4  C   UNL A   1      32.610  28.887  24.075  1.00  0.00     0.226 C 
ATOM      5  O   UNL A   1      33.661  28.977  23.427  1.00  0.00    -0.274 OA
ATOM      6  H   UNL A   1      33.040  30.615  24.952  1.00  0.00     0.163 HD
BRANCH   4   7
ATOM      7  C   UNL A   1      31.762  27.581  24.059  1.00  0.00     0.056 C 
ATOM      8  C   UNL A   1      31.577  24.299  23.135  1.00  0.00     0.007 C 
ATOM      9  C   UNL A   1      32.350  24.979  24.267  1.00  0.00    -0.013 C 
ATOM     10  C   UNL A   1      31.582  24.931  25.587  1.00  0.00     0.003 C 
ATOM     11  C   UNL A   1      32.817  26.412  23.946  1.00  0.00     0.020 C 
ATOM     12  C   UNL A   1      30.485  25.983  25.654  1.00  0.00     0.001 C 
ATOM     13  C   UNL A   1      31.028  27.387  25.410  1.00  0.00     0.017 C 
BRANCH   7  14
ATOM     14  C   UNL A   1      30.878  27.531  22.778  1.00  0.00     0.094 C 
BRANCH  14  15
ATOM     15  C   UNL A   1      29.792  28.552  22.571  1.00  0.00     0.129 A 
ATOM     16  N   UNL A   1      30.081  29.640  21.830  1.00  0.00    -0.241 NA
ATOM     17  N   UNL A   1      28.587  28.313  23.126  1.00  0.00    -0.241 NA
ATOM     18  C   UNL A   1      29.075  30.515  21.626  1.00  0.00     0.115 A 
ATOM     19  C   UNL A   1      27.620  29.225  22.895  1.00  0.00     0.115 A 
ATOM     20  C   UNL A   1      27.808  30.349  22.130  1.00  0.00     0.040 A 
ENDBRANCH  14  15
ENDBRANCH   7  14
ENDBRANCH   4   7
ENDBRANCH   2   3
ENDBRANCH   1   2
BRANCH   1  21
ATOM     21  C   UNL A   1      32.168  32.079  26.876  1.00  0.00     0.118 C 
BRANCH  21  22
ATOM     22  N   UNL A   1      32.218  33.461  27.355  1.00  0.00    -0.352 N 
ATOM     23  C   UNL A   1      33.088  34.093  28.210  1.00  0.00     0.251 C 
ATOM     24  H   UNL A   1      31.503  34.040  27.003  1.00  0.00     0.163 HD
ATOM     25  O   UNL A   1      32.800  35.193  28.674  1.00  0.00    -0.269 OA
BRANCH  23  26
ATOM     26  C   UNL A   1      34.353  33.435  28.599  1.00  0.00     0.039 A 
ATOM     27  C   UNL A   1      35.541  34.170  28.603  1.00  0.00     0.014 A 
ATOM     28  C   UNL A   1      34.362  32.095  28.982  1.00  0.00     0.014 A 
ATOM     29  C   UNL A   1      36.708  33.593  29.111  1.00  0.00     0.010 A 
ATOM     30  C   UNL A   1      35.485  31.564  29.597  1.00  0.00     0.010 A 
ATOM     31  C   UNL A   1      36.670  32.309  29.678  1.00  0.00    -0.014 A 
BRANCH  31  32
ATOM     32  C   UNL A   1      37.834  31.721  30.388  1.00  0.00     0.031 A 
ATOM     33  C   UNL A   1      38.666  30.662  29.717  1.00  0.00     0.074 A 
ATOM     34  C   UNL A   1      38.054  32.040  31.680  1.00  0.00     0.049 A 
ATOM     35  N   UNL A   1      39.606  29.906  30.222  1.00  0.00    -0.248 NA
ATOM     36  C   UNL A   1      38.369  30.382  28.301  1.00  0.00     0.031 C 
ATOM     37  C   UNL A   1      37.267  32.994  32.466  1.00  0.00     0.029 A 
ATOM     38  N   UNL A   1      38.988  31.573  32.571  1.00  0.00    -0.354 N 
ATOM     39  C   UNL A   1      39.980  29.038  29.204  1.00  0.00     0.074 A 
ATOM     40  C   UNL A   1      39.138  29.330  28.065  1.00  0.00     0.031 C 
ATOM     41  C   UNL A   1      37.760  33.053  33.713  1.00  0.00     0.029 A 
ATOM     42  C   UNL A   1      38.864  32.109  33.831  1.00  0.00     0.049 A 
ATOM     43  H   UNL A   1      39.681  30.918  32.329  1.00  0.00     0.167 HD
ATOM     44  C   UNL A   1      40.953  28.097  29.214  1.00  0.00     0.037 A 
ATOM     45  C   UNL A   1      39.550  31.850  34.961  1.00  0.00     0.037 A 
ATOM     46  C   UNL A   1      41.830  27.860  30.327  1.00  0.00     0.049 A 
ATOM     47  C   UNL A   1      40.650  30.827  34.930  1.00  0.00     0.074 A 
ATOM     48  C   UNL A   1      42.930  27.023  30.392  1.00  0.00     0.029 A 
ATOM     49  N   UNL A   1      41.708  28.462  31.569  1.00  0.00    -0.354 N 
ATOM     50  N   UNL A   1      41.061  30.087  33.928  1.00  0.00    -0.248 NA
ATOM     51  C   UNL A   1      41.382  30.600  36.185  1.00  0.00     0.031 C 
ATOM     52  C   UNL A   1      43.447  27.085  31.689  1.00  0.00     0.029 A 
ATOM     53  C   UNL A   1      42.694  27.990  32.419  1.00  0.00     0.049 A 
ATOM     54  H   UNL A   1      41.023  29.125  31.811  1.00  0.00     0.167 HD
ATOM     55  C   UNL A   1      42.107  29.322  34.425  1.00  0.00     0.074 A 
ATOM     56  C   UNL A   1      42.283  29.702  35.812  1.00  0.00     0.031 C 
ATOM     57  C   UNL A   1      42.853  28.385  33.794  1.00  0.00     0.037 A 
BRANCH  44  58
ATOM     58  C   UNL A   1      41.134  27.263  27.980  1.00  0.00     0.057 A 
ATOM     59  C   UNL A   1      40.448  26.057  27.794  1.00  0.00     0.134 A 
ATOM     60  C   UNL A   1      41.962  27.704  26.939  1.00  0.00     0.134 A 
ATOM     61  F   UNL A   1      39.649  25.574  28.757  1.00  0.00    -0.206 F 
ATOM     62  C   UNL A   1      40.591  25.309  26.624  1.00  0.00     0.040 A 
ATOM     63  C   UNL A   1      42.093  26.978  25.754  1.00  0.00     0.040 A 
ATOM     64  F   UNL A   1      42.644  28.854  27.052  1.00  0.00    -0.206 F 
ATOM     65  C   UNL A   1      41.408  25.775  25.596  1.00  0.00     0.006 A 
ENDBRANCH  44  58
BRANCH  45  66
ATOM     66  C   UNL A   1      39.220  32.568  36.218  1.00  0.00     0.057 A 
ATOM     67  C   UNL A   1      38.337  32.015  37.154  1.00  0.00     0.134 A 
ATOM     68  C   UNL A   1      39.755  33.830  36.506  1.00  0.00     0.134 A 
ATOM     69  F   UNL A   1      37.778  30.817  36.926  1.00  0.00    -0.206 F 
ATOM     70  C   UNL A   1      37.979  32.698  38.317  1.00  0.00     0.040 A 
ATOM     71  C   UNL A   1      39.426  34.513  37.677  1.00  0.00     0.040 A 
ATOM     72  F   UNL A   1      40.613  34.411  35.655  1.00  0.00    -0.206 F 
ATOM     73  C   UNL A   1      38.527  33.952  38.582  1.00  0.00     0.006 A 
ENDBRANCH  45  66
BRANCH  57  74
ATOM     74  C   UNL A   1      43.934  27.718  34.588  1.00  0.00     0.057 A 
ATOM     75  C   UNL A   1      43.726  26.488  35.221  1.00  0.00     0.134 A 
ATOM     76  C   UNL A   1      45.212  28.288  34.676  1.00  0.00     0.134 A 
ATOM     77  F   UNL A   1      42.521  25.900  35.185  1.00  0.00    -0.206 F 
ATOM     78  C   UNL A   1      44.748  25.851  35.926  1.00  0.00     0.040 A 
ATOM     79  C   UNL A   1      46.248  27.649  35.356  1.00  0.00     0.040 A 
ATOM     80  F   UNL A   1      45.476  29.463  34.083  1.00  0.00    -0.206 F 
ATOM     81  C   UNL A   1      46.015  26.428  35.987  1.00  0.00     0.006 A 
ENDBRANCH  57  74
ENDBRANCH  31  32
ENDBRANCH  23  26
ENDBRANCH  21  22
ENDBRANCH   1  21
TORSDOF 12
ENDMDL
MODEL 2
REMARK VINA RESULT:     -12.1      5.316      9.753
REMARK SMILES C[C@@H]1CCC[C@@](Cc2ncccn2)(C(=O)NCCCNC(=O)c2ccc(-c3c4nc(c(-c5c(F)cccc5F)c5ccc([nH]5)c(-c5c(F)cccc5F)c5nc(c(-c6c(F)cccc6F)c6ccc3[nH]6)C=C5)C=C4)cc2)C1
REMARK SMILES IDX 18 1 17 2 16 3 14 4 15 5 6 7 1 8 2 9 3 10 77 11 4 12 5 13
REMARK SMILES IDX 7 14 8 15 9 16 13 17 10 18 12 19 11 20 19 21 20 22 21 23
REMARK SMILES IDX 22 25 23 26 24 27 76 28 25 29 75 30 26 31 27 32 28 33 69 34
REMARK SMILES IDX 29 35 74 36 68 37 70 38 30 39 73 40 67 41 66 42 31 44 57 45
REMARK SMILES IDX 40 46 56 47 41 48 44 49 55 50 71 51 42 52 43 53 54 55 72 56
REMARK SMILES IDX 45 57 32 58 33 59 38 60 34 61 35 62 37 63 39 64 36 65 58 66
REMARK SMILES IDX 59 67 64 68 60 69 61 70 63 71 65 72 62 73 46 74 47 75 52 76
REMARK SMILES IDX 48 77 49 78 51 79 53 80 50 81
REMARK H PARENT 16 6 20 24 70 43 44 54
REMARK Flexibility Score: inf
ROOT
ATOM      1  C   UNL A   1      37.413  20.954  24.583  1.00  0.00     0.042 C 
ENDROOT
BRANCH   1   2
ATOM      2  C   UNL A   1      36.080  20.396  25.033  1.00  0.00     0.117 C 
BRANCH   2   3
ATOM      3  N   UNL A   1      35.456  21.128  26.110  1.00  0.00    -0.356 N 
ATOM      4  C   UNL A   1      34.232  21.715  26.189  1.00  0.00     0.226 C 
ATOM      5  O   UNL A   1      33.842  21.939  27.343  1.00  0.00    -0.274 OA
ATOM      6  H   UNL A   1      36.008  21.217  26.921  1.00  0.00     0.163 HD
BRANCH   4   7
ATOM      7  C   UNL A   1      33.367  22.106  24.955  1.00  0.00     0.056 C 
ATOM      8  C   UNL A   1      30.705  23.890  23.774  1.00  0.00     0.007 C 
ATOM      9  C   UNL A   1      32.104  24.341  24.202  1.00  0.00    -0.013 C 
ATOM     10  C   UNL A   1      33.052  24.452  23.009  1.00  0.00     0.003 C 
ATOM     11  C   UNL A   1      32.726  23.498  25.331  1.00  0.00     0.020 C 
ATOM     12  C   UNL A   1      33.584  23.096  22.568  1.00  0.00     0.001 C 
ATOM     13  C   UNL A   1      34.260  22.350  23.713  1.00  0.00     0.017 C 
BRANCH   7  14
ATOM     14  C   UNL A   1      32.197  21.092  24.777  1.00  0.00     0.094 C 
BRANCH  14  15
ATOM     15  C   UNL A   1      32.490  19.627  24.603  1.00  0.00     0.129 A 
ATOM     16  N   UNL A   1      32.521  18.853  25.707  1.00  0.00    -0.241 NA
ATOM     17  N   UNL A   1      32.691  19.168  23.352  1.00  0.00    -0.241 NA
ATOM     18  C   UNL A   1      32.742  17.537  25.514  1.00  0.00     0.115 A 
ATOM     19  C   UNL A   1      32.915  17.844  23.219  1.00  0.00     0.115 A 
ATOM     20  C   UNL A   1      32.936  16.970  24.278  1.00  0.00     0.040 A 
ENDBRANCH  14  15
ENDBRANCH   7  14
ENDBRANCH   4   7
ENDBRANCH   2   3
ENDBRANCH   1   2
BRANCH   1  21
ATOM     21  C   UNL A   1      38.424  21.035  25.714  1.00  0.00     0.118 C 
BRANCH  21  22
ATOM     22  N   UNL A   1      39.363  19.911  25.717  1.00  0.00    -0.352 N 
ATOM     23  C   UNL A   1      40.713  19.859  25.968  1.00  0.00     0.251 C 
ATOM     24  H   UNL A   1      38.956  19.041  25.502  1.00  0.00     0.163 HD
ATOM     25  O   UNL A   1      41.352  18.854  25.670  1.00  0.00    -0.269 OA
BRANCH  23  26
ATOM     26  C   UNL A   1      41.401  21.024  26.562  1.00  0.00     0.039 A 
ATOM     27  C   UNL A   1      41.993  21.977  25.729  1.00  0.00     0.014 A 
ATOM     28  C   UNL A   1      41.444  21.187  27.945  1.00  0.00     0.014 A 
ATOM     29  C   UNL A   1      42.513  23.150  26.281  1.00  0.00     0.010 A 
ATOM     30  C   UNL A   1      41.847  22.401  28.482  1.00  0.00     0.010 A 
ATOM     31  C   UNL A   1      42.378  23.401  27.655  1.00  0.00    -0.014 A 
BRANCH  31  32
ATOM     32  C   UNL A   1      42.751  24.703  28.264  1.00  0.00     0.031 A 
ATOM     33  C   UNL A   1      41.696  25.750  28.500  1.00  0.00     0.074 A 
ATOM     34  C   UNL A   1      44.052  24.990  28.473  1.00  0.00     0.049 A 
ATOM     35  N   UNL A   1      41.838  27.000  28.855  1.00  0.00    -0.248 NA
ATOM     36  C   UNL A   1      40.298  25.351  28.259  1.00  0.00     0.031 C 
ATOM     37  C   UNL A   1      45.175  24.087  28.209  1.00  0.00     0.029 A 
ATOM     38  N   UNL A   1      44.653  26.137  28.930  1.00  0.00    -0.354 N 
ATOM     39  C   UNL A   1      40.560  27.545  28.838  1.00  0.00     0.074 A 
ATOM     40  C   UNL A   1      39.659  26.503  28.398  1.00  0.00     0.031 C 
ATOM     41  C   UNL A   1      46.324  24.707  28.521  1.00  0.00     0.029 A 
ATOM     42  C   UNL A   1      46.026  26.064  28.962  1.00  0.00     0.049 A 
ATOM     43  H   UNL A   1      44.149  26.935  29.208  1.00  0.00     0.167 HD
ATOM     44  C   UNL A   1      40.172  28.796  29.180  1.00  0.00     0.037 A 
ATOM     45  C   UNL A   1      46.942  26.996  29.288  1.00  0.00     0.037 A 
ATOM     46  C   UNL A   1      41.064  29.805  29.682  1.00  0.00     0.049 A 
ATOM     47  C   UNL A   1      46.478  28.364  29.700  1.00  0.00     0.074 A 
ATOM     48  C   UNL A   1      40.752  31.058  30.179  1.00  0.00     0.029 A 
ATOM     49  N   UNL A   1      42.442  29.675  29.751  1.00  0.00    -0.354 N 
ATOM     50  N   UNL A   1      45.256  28.832  29.779  1.00  0.00    -0.248 NA
ATOM     51  C   UNL A   1      47.518  29.336  30.067  1.00  0.00     0.031 C 
ATOM     52  C   UNL A   1      41.947  31.704  30.508  1.00  0.00     0.029 A 
ATOM     53  C   UNL A   1      42.999  30.839  30.253  1.00  0.00     0.049 A 
ATOM     54  H   UNL A   1      42.949  28.876  29.483  1.00  0.00     0.167 HD
ATOM     55  C   UNL A   1      45.378  30.143  30.219  1.00  0.00     0.074 A 
ATOM     56  C   UNL A   1      46.792  30.391  30.412  1.00  0.00     0.031 C 
ATOM     57  C   UNL A   1      44.408  31.062  30.441  1.00  0.00     0.037 A 
BRANCH  44  58
ATOM     58  C   UNL A   1      38.719  29.143  29.041  1.00  0.00     0.057 A 
ATOM     59  C   UNL A   1      37.839  29.096  30.129  1.00  0.00     0.134 A 
ATOM     60  C   UNL A   1      38.209  29.586  27.814  1.00  0.00     0.134 A 
ATOM     61  F   UNL A   1      38.262  28.669  31.328  1.00  0.00    -0.206 F 
ATOM     62  C   UNL A   1      36.498  29.462  29.998  1.00  0.00     0.040 A 
ATOM     63  C   UNL A   1      36.876  29.979  27.677  1.00  0.00     0.040 A 
ATOM     64  F   UNL A   1      39.000  29.659  26.733  1.00  0.00    -0.206 F 
ATOM     65  C   UNL A   1      36.016  29.914  28.772  1.00  0.00     0.006 A 
ENDBRANCH  44  58
BRANCH  45  66
ATOM     66  C   UNL A   1      48.390  26.672  29.238  1.00  0.00     0.057 A 
ATOM     67  C   UNL A   1      49.145  26.914  28.084  1.00  0.00     0.134 A 
ATOM     68  C   UNL A   1      49.050  26.091  30.328  1.00  0.00     0.134 A 
ATOM     69  F   UNL A   1      48.564  27.451  27.000  1.00  0.00    -0.206 F 
ATOM     70  C   UNL A   1      50.495  26.570  28.005  1.00  0.00     0.040 A 
ATOM     71  C   UNL A   1      50.406  25.766  30.272  1.00  0.00     0.040 A 
ATOM     72  F   UNL A   1      48.388  25.842  31.466  1.00  0.00    -0.206 F 
ATOM     73  C   UNL A   1      51.130  25.995  29.104  1.00  0.00     0.006 A 
ENDBRANCH  45  66
BRANCH  57  74
ATOM     74  C   UNL A   1      44.840  32.411  30.930  1.00  0.00     0.057 A 
ATOM     75  C   UNL A   1      45.092  33.465  30.045  1.00  0.00     0.134 A 
ATOM     76  C   UNL A   1      44.953  32.671  32.302  1.00  0.00     0.134 A 
ATOM     77  F   UNL A   1      45.014  33.273  28.720  1.00  0.00    -0.206 F 
ATOM     78  C   UNL A   1      45.454  34.731  30.507  1.00  0.00     0.040 A 
ATOM     79  C   UNL A   1      45.290  33.938  32.777  1.00  0.00     0.040 A 
ATOM     80  F   UNL A   1      44.716  31.703  33.201  1.00  0.00    -0.206 F 
ATOM     81  C   UNL A   1      45.545  34.971  31.877  1.00  0.00     0.006 A 
ENDBRANCH  57  74
ENDBRANCH  31  32
ENDBRANCH  23  26
ENDBRANCH  21  22
ENDBRANCH   1  21
TORSDOF 12
ENDMDL
MODEL 3
REMARK VINA RESULT:     -12.0      0.577      6.429
REMARK SMILES C[C@@H]1CCC[C@@](Cc2ncccn2)(C(=O)NCCCNC(=O)c2ccc(-c3c4nc(c(-c5c(F)cccc5F)c5ccc([nH]5)c(-c5c(F)cccc5F)c5nc(c(-c6c(F)cccc6F)c6ccc3[nH]6)C=C5)C=C4)cc2)C1
REMARK SMILES IDX 18 1 17 2 16 3 14 4 15 5 6 7 1 8 2 9 3 10 77 11 4 12 5 13
REMARK SMILES IDX 7 14 8 15 9 16 13 17 10 18 12 19 11 20 19 21 20 22 21 23
REMARK SMILES IDX 22 25 23 26 24 27 76 28 25 29 75 30 26 31 27 32 28 33 69 34
REMARK SMILES IDX 29 35 74 36 68 37 70 38 30 39 73 40 67 41 66 42 31 44 57 45
REMARK SMILES IDX 40 46 56 47 41 48 44 49 55 50 71 51 42 52 43 53 54 55 72 56
REMARK SMILES IDX 45 57 32 58 33 59 38 60 34 61 35 62 37 63 39 64 36 65 58 66
REMARK SMILES IDX 59 67 64 68 60 69 61 70 63 71 65 72 62 73 46 74 47 75 52 76
REMARK SMILES IDX 48 77 49 78 51 79 53 80 50 81
REMARK H PARENT 16 6 20 24 70 43 44 54
REMARK Flexibility Score: inf
ROOT
ATOM      1  C   UNL A   1      31.007  31.855  25.805  1.00  0.00     0.042 C 
ENDROOT
BRANCH   1   2
ATOM      2  C   UNL A   1      31.011  30.446  25.256  1.00  0.00     0.117 C 
BRANCH   2   3
ATOM      3  N   UNL A   1      32.298  29.984  24.793  1.00  0.00    -0.356 N 
ATOM      4  C   UNL A   1      32.646  28.852  24.125  1.00  0.00     0.226 C 
ATOM      5  O   UNL A   1      33.741  28.909  23.550  1.00  0.00    -0.274 OA
ATOM      6  H   UNL A   1      33.049  30.589  24.996  1.00  0.00     0.163 HD
BRANCH   4   7
ATOM      7  C   UNL A   1      31.774  27.562  24.076  1.00  0.00     0.056 C 
ATOM      8  C   UNL A   1      31.573  24.277  23.165  1.00  0.00     0.007 C 
ATOM      9  C   UNL A   1      32.302  24.951  24.330  1.00  0.00    -0.013 C 
ATOM     10  C   UNL A   1      31.468  24.927  25.610  1.00  0.00     0.003 C 
ATOM     11  C   UNL A   1      32.811  26.372  24.024  1.00  0.00     0.020 C 
ATOM     12  C   UNL A   1      30.390  26.000  25.615  1.00  0.00     0.001 C 
ATOM     13  C   UNL A   1      30.971  27.392  25.389  1.00  0.00     0.017 C 
BRANCH   7  14
ATOM     14  C   UNL A   1      30.955  27.519  22.752  1.00  0.00     0.094 C 
BRANCH  14  15
ATOM     15  C   UNL A   1      29.828  28.491  22.531  1.00  0.00     0.129 A 
ATOM     16  N   UNL A   1      28.643  28.229  23.118  1.00  0.00    -0.241 NA
ATOM     17  N   UNL A   1      30.072  29.576  21.770  1.00  0.00    -0.241 NA
ATOM     18  C   UNL A   1      27.666  29.140  22.937  1.00  0.00     0.115 A 
ATOM     19  C   UNL A   1      29.056  30.451  21.617  1.00  0.00     0.115 A 
ATOM     20  C   UNL A   1      27.823  30.288  22.199  1.00  0.00     0.040 A 
ENDBRANCH  14  15
ENDBRANCH   7  14
ENDBRANCH   4   7
ENDBRANCH   2   3
ENDBRANCH   1   2
BRANCH   1  21
ATOM     21  C   UNL A   1      31.947  32.023  26.988  1.00  0.00     0.118 C 
BRANCH  21  22
ATOM     22  N   UNL A   1      32.251  33.427  27.276  1.00  0.00    -0.352 N 
ATOM     23  C   UNL A   1      33.283  34.005  27.975  1.00  0.00     0.251 C 
ATOM     24  H   UNL A   1      31.603  34.068  26.904  1.00  0.00     0.163 HD
ATOM     25  O   UNL A   1      33.210  35.185  28.309  1.00  0.00    -0.269 OA
BRANCH  23  26
ATOM     26  C   UNL A   1      34.463  33.201  28.355  1.00  0.00     0.039 A 
ATOM     27  C   UNL A   1      35.710  33.818  28.477  1.00  0.00     0.014 A 
ATOM     28  C   UNL A   1      34.333  31.837  28.612  1.00  0.00     0.014 A 
ATOM     29  C   UNL A   1      36.794  33.093  28.978  1.00  0.00     0.010 A 
ATOM     30  C   UNL A   1      35.372  31.152  29.223  1.00  0.00     0.010 A 
ATOM     31  C   UNL A   1      36.613  31.773  29.422  1.00  0.00    -0.014 A 
BRANCH  31  32
ATOM     32  C   UNL A   1      37.682  31.020  30.124  1.00  0.00     0.031 A 
ATOM     33  C   UNL A   1      37.965  31.295  31.576  1.00  0.00     0.074 A 
ATOM     34  C   UNL A   1      38.483  30.193  29.421  1.00  0.00     0.049 A 
ATOM     35  N   UNL A   1      38.956  30.876  32.319  1.00  0.00    -0.248 NA
ATOM     36  C   UNL A   1      37.034  32.199  32.274  1.00  0.00     0.031 C 
ATOM     37  C   UNL A   1      38.361  29.904  27.990  1.00  0.00     0.029 A 
ATOM     38  N   UNL A   1      39.580  29.465  29.810  1.00  0.00    -0.354 N 
ATOM     39  C   UNL A   1      38.793  31.497  33.551  1.00  0.00     0.074 A 
ATOM     40  C   UNL A   1      37.633  32.354  33.446  1.00  0.00     0.031 C 
ATOM     41  C   UNL A   1      39.332  29.052  27.626  1.00  0.00     0.029 A 
ATOM     42  C   UNL A   1      40.173  28.770  28.782  1.00  0.00     0.049 A 
ATOM     43  H   UNL A   1      39.910  29.443  30.736  1.00  0.00     0.167 HD
ATOM     44  C   UNL A   1      39.533  31.348  34.674  1.00  0.00     0.037 A 
ATOM     45  C   UNL A   1      41.284  28.009  28.770  1.00  0.00     0.037 A 
ATOM     46  C   UNL A   1      40.644  30.443  34.791  1.00  0.00     0.049 A 
ATOM     47  C   UNL A   1      42.063  27.833  30.043  1.00  0.00     0.074 A 
ATOM     48  C   UNL A   1      41.375  30.122  35.920  1.00  0.00     0.029 A 
ATOM     49  N   UNL A   1      41.180  29.715  33.742  1.00  0.00    -0.354 N 
ATOM     50  N   UNL A   1      41.835  28.345  31.228  1.00  0.00    -0.248 NA
ATOM     51  C   UNL A   1      43.254  26.973  29.978  1.00  0.00     0.031 C 
ATOM     52  C   UNL A   1      42.385  29.231  35.545  1.00  0.00     0.029 A 
ATOM     53  C   UNL A   1      42.256  28.968  34.191  1.00  0.00     0.049 A 
ATOM     54  H   UNL A   1      40.847  29.727  32.816  1.00  0.00     0.167 HD
ATOM     55  C   UNL A   1      42.841  27.859  32.052  1.00  0.00     0.074 A 
ATOM     56  C   UNL A   1      43.669  26.993  31.238  1.00  0.00     0.031 C 
ATOM     57  C   UNL A   1      43.063  28.110  33.364  1.00  0.00     0.037 A 
BRANCH  44  58
ATOM     58  C   UNL A   1      39.159  32.167  35.874  1.00  0.00     0.057 A 
ATOM     59  C   UNL A   1      39.644  33.467  36.064  1.00  0.00     0.134 A 
ATOM     60  C   UNL A   1      38.255  31.670  36.821  1.00  0.00     0.134 A 
ATOM     61  F   UNL A   1      40.523  33.998  35.200  1.00  0.00    -0.206 F 
ATOM     62  C   UNL A   1      39.257  34.238  37.162  1.00  0.00     0.040 A 
ATOM     63  C   UNL A   1      37.840  32.440  37.909  1.00  0.00     0.040 A 
ATOM     64  F   UNL A   1      37.748  30.434  36.696  1.00  0.00    -0.206 F 
ATOM     65  C   UNL A   1      38.345  33.727  38.082  1.00  0.00     0.006 A 
ENDBRANCH  44  58
BRANCH  45  66
ATOM     66  C   UNL A   1      41.730  27.356  27.513  1.00  0.00     0.057 A 
ATOM     67  C   UNL A   1      42.511  28.047  26.578  1.00  0.00     0.134 A 
ATOM     68  C   UNL A   1      41.371  26.039  27.202  1.00  0.00     0.134 A 
ATOM     69  F   UNL A   1      42.871  29.318  26.811  1.00  0.00    -0.206 F 
ATOM     70  C   UNL A   1      42.897  27.464  25.371  1.00  0.00     0.040 A 
ATOM     71  C   UNL A   1      41.772  25.434  26.010  1.00  0.00     0.040 A 
ATOM     72  F   UNL A   1      40.633  25.318  28.058  1.00  0.00    -0.206 F 
ATOM     73  C   UNL A   1      42.529  26.151  25.085  1.00  0.00     0.006 A 
ENDBRANCH  45  66
BRANCH  57  74
ATOM     74  C   UNL A   1      44.235  27.429  34.003  1.00  0.00     0.057 A 
ATOM     75  C   UNL A   1      44.129  26.143  34.544  1.00  0.00     0.134 A 
ATOM     76  C   UNL A   1      45.493  28.046  34.029  1.00  0.00     0.134 A 
ATOM     77  F   UNL A   1      42.949  25.508  34.561  1.00  0.00    -0.206 F 
ATOM     78  C   UNL A   1      45.233  25.496  35.102  1.00  0.00     0.040 A 
ATOM     79  C   UNL A   1      46.609  27.400  34.561  1.00  0.00     0.040 A 
ATOM     80  F   UNL A   1      45.660  29.275  33.518  1.00  0.00    -0.206 F 
ATOM     81  C   UNL A   1      46.478  26.122  35.103  1.00  0.00     0.006 A 
ENDBRANCH  57  74
ENDBRANCH  31  32
ENDBRANCH  23  26
ENDBRANCH  21  22
ENDBRANCH   1  21
TORSDOF 12
ENDMDL
