MODEL 1
REMARK VINA RESULT:     -11.8      0.000      0.000
REMARK SMILES C[NH2+][C@@]1(C(=O)NCCCNC(=O)c2ccc(-c3c4nc(c(-c5c(F)cccc5F)c5ccc([nH]5)c(-c5c(F)cccc5F)c5nc(c(-c6c(F)cccc6F)c6ccc3[nH]6)C=C5)C=C4)cc2)CCC[C@H]([N@H+](C)C2CC[NH+](C)CC2)C1
REMARK SMILES IDX 8 1 7 2 6 3 4 4 5 5 3 7 67 8 80 9 68 10 70 11 69 12 2 13
REMARK SMILES IDX 1 14 71 17 72 18 73 20 74 21 79 22 75 23 78 24 76 25 77 26
REMARK SMILES IDX 9 28 10 29 11 30 12 32 13 33 14 34 66 35 15 36 65 37 16 38
REMARK SMILES IDX 17 39 18 40 59 41 19 42 64 43 58 44 60 45 20 46 63 47 57 48
REMARK SMILES IDX 56 49 21 51 47 52 30 53 46 54 31 55 34 56 45 57 61 58 32 59
REMARK SMILES IDX 33 60 44 62 62 63 35 64 22 65 23 66 28 67 24 68 25 69 27 70
REMARK SMILES IDX 29 71 26 72 48 73 49 74 54 75 50 76 51 77 53 78 55 79 52 80
REMARK SMILES IDX 36 81 37 82 42 83 38 84 39 85 41 86 43 87 40 88
REMARK H PARENT 6 6 2 15 2 16 71 19 76 27 10 31 60 50 34 61
REMARK Flexibility Score: inf
ROOT
ATOM      1  C   UNL A   1      34.901  24.124  25.520  1.00  0.00     0.042 C 
ENDROOT
BRANCH   1   2
ATOM      2  C   UNL A   1      33.866  25.096  26.097  1.00  0.00     0.118 C 
BRANCH   2   3
ATOM      3  N   UNL A   1      34.162  26.521  25.915  1.00  0.00    -0.351 N 
ATOM      4  C   UNL A   1      33.176  27.480  26.176  1.00  0.00     0.281 C 
ATOM      5  O   UNL A   1      32.303  27.270  27.022  1.00  0.00    -0.268 OA
ATOM      6  H   UNL A   1      35.054  26.803  25.608  1.00  0.00     0.163 HD
BRANCH   4   7
ATOM      7  C   UNL A   1      33.255  28.852  25.377  1.00  0.00     0.181 C 
ATOM      8  C   UNL A   1      31.922  29.670  25.409  1.00  0.00     0.079 C 
ATOM      9  C   UNL A   1      33.637  28.593  23.896  1.00  0.00     0.144 C 
ATOM     10  C   UNL A   1      30.830  29.307  24.419  1.00  0.00     0.013 C 
ATOM     11  C   UNL A   1      32.490  27.978  23.023  1.00  0.00     0.190 C 
ATOM     12  C   UNL A   1      31.333  28.972  23.036  1.00  0.00     0.065 C 
BRANCH   7  13
ATOM     13  N   UNL A   1      34.352  29.665  26.026  1.00  0.00    -0.336 N 
ATOM     14  C   UNL A   1      33.901  30.478  27.166  1.00  0.00     0.331 C 
ATOM     15  H   UNL A   1      35.074  29.024  26.355  1.00  0.00     0.346 HD
ATOM     16  H   UNL A   1      34.695  30.314  25.318  1.00  0.00     0.346 HD
ENDBRANCH   7  13
BRANCH  11  17
ATOM     17  N   UNL A   1      32.294  26.515  23.300  1.00  0.00    -0.332 N 
ATOM     18  C   UNL A   1      33.281  25.847  22.393  1.00  0.00     0.333 C 
ATOM     19  H   UNL A   1      32.404  26.435  24.312  1.00  0.00     0.348 HD
BRANCH  17  20
ATOM     20  C   UNL A   1      30.958  25.823  23.161  1.00  0.00     0.195 C 
ATOM     21  C   UNL A   1      29.839  25.933  24.212  1.00  0.00     0.126 C 
ATOM     22  C   UNL A   1      31.067  24.266  22.993  1.00  0.00     0.126 C 
ATOM     23  C   UNL A   1      30.190  25.245  25.530  1.00  0.00     0.268 C 
ATOM     24  C   UNL A   1      30.969  23.368  24.257  1.00  0.00     0.268 C 
ATOM     25  N   UNL A   1      30.199  23.798  25.417  1.00  0.00    -0.337 N 
ATOM     26  C   UNL A   1      30.784  23.221  26.646  1.00  0.00     0.332 C 
ATOM     27  H   UNL A   1      29.240  23.473  25.296  1.00  0.00     0.347 HD
ENDBRANCH  17  20
ENDBRANCH  11  17
ENDBRANCH   4   7
ENDBRANCH   2   3
ENDBRANCH   1   2
BRANCH   1  28
ATOM     28  C   UNL A   1      35.592  23.060  26.415  1.00  0.00     0.118 C 
BRANCH  28  29
ATOM     29  N   UNL A   1      36.381  21.969  25.833  1.00  0.00    -0.352 N 
ATOM     30  C   UNL A   1      37.748  21.753  25.716  1.00  0.00     0.251 C 
ATOM     31  H   UNL A   1      35.834  21.246  25.450  1.00  0.00     0.163 HD
ATOM     32  O   UNL A   1      38.180  20.732  25.175  1.00  0.00    -0.269 OA
BRANCH  30  33
ATOM     33  C   UNL A   1      38.736  22.700  26.257  1.00  0.00     0.039 A 
ATOM     34  C   UNL A   1      39.798  22.282  27.079  1.00  0.00     0.014 A 
ATOM     35  C   UNL A   1      38.537  24.050  26.016  1.00  0.00     0.014 A 
ATOM     36  C   UNL A   1      40.692  23.230  27.598  1.00  0.00     0.010 A 
ATOM     37  C   UNL A   1      39.494  24.963  26.404  1.00  0.00     0.010 A 
ATOM     38  C   UNL A   1      40.555  24.576  27.237  1.00  0.00    -0.014 A 
BRANCH  38  39
ATOM     39  C   UNL A   1      41.399  25.682  27.746  1.00  0.00     0.031 A 
ATOM     40  C   UNL A   1      40.728  26.747  28.577  1.00  0.00     0.074 A 
ATOM     41  C   UNL A   1      42.651  25.845  27.286  1.00  0.00     0.049 A 
ATOM     42  N   UNL A   1      41.086  27.983  28.798  1.00  0.00    -0.248 NA
ATOM     43  C   UNL A   1      39.409  26.395  29.141  1.00  0.00     0.031 C 
ATOM     44  C   UNL A   1      43.374  24.907  26.426  1.00  0.00     0.029 A 
ATOM     45  N   UNL A   1      43.522  26.892  27.442  1.00  0.00    -0.354 N 
ATOM     46  C   UNL A   1      40.006  28.571  29.446  1.00  0.00     0.074 A 
ATOM     47  C   UNL A   1      38.956  27.580  29.515  1.00  0.00     0.031 C 
ATOM     48  C   UNL A   1      44.584  25.416  26.140  1.00  0.00     0.029 A 
ATOM     49  C   UNL A   1      44.700  26.734  26.756  1.00  0.00     0.049 A 
ATOM     50  H   UNL A   1      43.321  27.683  27.994  1.00  0.00     0.167 HD
ATOM     51  C   UNL A   1      39.913  29.819  29.964  1.00  0.00     0.037 A 
ATOM     52  C   UNL A   1      45.745  27.572  26.634  1.00  0.00     0.037 A 
ATOM     53  C   UNL A   1      41.013  30.743  29.966  1.00  0.00     0.049 A 
ATOM     54  C   UNL A   1      45.667  28.912  27.314  1.00  0.00     0.074 A 
ATOM     55  C   UNL A   1      41.097  31.992  30.553  1.00  0.00     0.029 A 
ATOM     56  N   UNL A   1      42.243  30.492  29.371  1.00  0.00    -0.354 N 
ATOM     57  N   UNL A   1      44.663  29.451  27.967  1.00  0.00    -0.248 NA
ATOM     58  C   UNL A   1      46.865  29.759  27.250  1.00  0.00     0.031 C 
ATOM     59  C   UNL A   1      42.373  32.505  30.296  1.00  0.00     0.029 A 
ATOM     60  C   UNL A   1      43.096  31.560  29.582  1.00  0.00     0.049 A 
ATOM     61  H   UNL A   1      42.473  29.676  28.873  1.00  0.00     0.167 HD
ATOM     62  C   UNL A   1      45.118  30.681  28.421  1.00  0.00     0.074 A 
ATOM     63  C   UNL A   1      46.493  30.802  27.976  1.00  0.00     0.031 C 
ATOM     64  C   UNL A   1      44.465  31.629  29.137  1.00  0.00     0.037 A 
BRANCH  51  65
ATOM     65  C   UNL A   1      38.607  30.225  30.590  1.00  0.00     0.057 A 
ATOM     66  C   UNL A   1      37.605  30.884  29.860  1.00  0.00     0.134 A 
ATOM     67  C   UNL A   1      38.341  29.956  31.938  1.00  0.00     0.134 A 
ATOM     68  F   UNL A   1      37.793  31.183  28.566  1.00  0.00    -0.206 F 
ATOM     69  C   UNL A   1      36.414  31.301  30.457  1.00  0.00     0.040 A 
ATOM     70  C   UNL A   1      37.136  30.335  32.538  1.00  0.00     0.040 A 
ATOM     71  F   UNL A   1      39.245  29.324  32.701  1.00  0.00    -0.206 F 
ATOM     72  C   UNL A   1      36.174  31.021  31.801  1.00  0.00     0.006 A 
ENDBRANCH  51  65
BRANCH  52  73
ATOM     73  C   UNL A   1      46.964  27.143  25.903  1.00  0.00     0.057 A 
ATOM     74  C   UNL A   1      47.965  26.416  26.559  1.00  0.00     0.134 A 
ATOM     75  C   UNL A   1      47.155  27.413  24.543  1.00  0.00     0.134 A 
ATOM     76  F   UNL A   1      47.846  26.133  27.865  1.00  0.00    -0.206 F 
ATOM     77  C   UNL A   1      49.118  25.991  25.898  1.00  0.00     0.040 A 
ATOM     78  C   UNL A   1      48.292  26.972  23.861  1.00  0.00     0.040 A 
ATOM     79  F   UNL A   1      46.227  28.088  23.848  1.00  0.00    -0.206 F 
ATOM     80  C   UNL A   1      49.282  26.264  24.542  1.00  0.00     0.006 A 
ENDBRANCH  52  73
BRANCH  64  81
ATOM     81  C   UNL A   1      45.245  32.849  29.519  1.00  0.00     0.057 A 
ATOM     82  C   UNL A   1      45.250  34.000  28.722  1.00  0.00     0.134 A 
ATOM     83  C   UNL A   1      45.953  32.888  30.726  1.00  0.00     0.134 A 
ATOM     84  F   UNL A   1      44.599  34.019  27.550  1.00  0.00    -0.206 F 
ATOM     85  C   UNL A   1      45.953  35.143  29.105  1.00  0.00     0.040 A 
ATOM     86  C   UNL A   1      46.635  34.033  31.132  1.00  0.00     0.040 A 
ATOM     87  F   UNL A   1      45.975  31.819  31.538  1.00  0.00    -0.206 F 
ATOM     88  C   UNL A   1      46.641  35.163  30.318  1.00  0.00     0.006 A 
ENDBRANCH  64  81
ENDBRANCH  38  39
ENDBRANCH  30  33
ENDBRANCH  28  29
ENDBRANCH   1  28
TORSDOF 13
ENDMDL
MODEL 2
REMARK VINA RESULT:     -11.8      3.373      8.398
REMARK SMILES C[NH2+][C@@]1(C(=O)NCCCNC(=O)c2ccc(-c3c4nc(c(-c5c(F)cccc5F)c5ccc([nH]5)c(-c5c(F)cccc5F)c5nc(c(-c6c(F)cccc6F)c6ccc3[nH]6)C=C5)C=C4)cc2)CCC[C@H]([N@H+](C)C2CC[NH+](C)CC2)C1
REMARK SMILES IDX 8 1 7 2 6 3 4 4 5 5 3 7 67 8 80 9 68 10 70 11 69 12 2 13
REMARK SMILES IDX 1 14 71 17 72 18 73 20 74 21 79 22 75 23 78 24 76 25 77 26
REMARK SMILES IDX 9 28 10 29 11 30 12 32 13 33 14 34 66 35 15 36 65 37 16 38
REMARK SMILES IDX 17 39 18 40 59 41 19 42 64 43 58 44 60 45 20 46 63 47 57 48
REMARK SMILES IDX 56 49 21 51 47 52 30 53 46 54 31 55 34 56 45 57 61 58 32 59
REMARK SMILES IDX 33 60 44 62 62 63 35 64 22 65 23 66 28 67 24 68 25 69 27 70
REMARK SMILES IDX 29 71 26 72 48 73 49 74 54 75 50 76 51 77 53 78 55 79 52 80
REMARK SMILES IDX 36 81 37 82 42 83 38 84 39 85 41 86 43 87 40 88
REMARK H PARENT 6 6 2 15 2 16 71 19 76 27 10 31 60 50 34 61
REMARK Flexibility Score: inf
ROOT
ATOM      1  C   UNL A   1      33.646  27.023  25.433  1.00  0.00     0.042 C 
ENDROOT
BRANCH   1   2
ATOM      2  C   UNL A   1      34.338  25.919  24.625  1.00  0.00     0.118 C 
BRANCH   2   3
ATOM      3  N   UNL A   1      35.102  24.943  25.410  1.00  0.00    -0.351 N 
ATOM      4  C   UNL A   1      35.496  23.731  24.829  1.00  0.00     0.281 C 
ATOM      5  O   UNL A   1      35.714  23.657  23.617  1.00  0.00    -0.268 OA
ATOM      6  H   UNL A   1      35.336  25.138  26.346  1.00  0.00     0.163 HD
BRANCH   4   7
ATOM      7  C   UNL A   1      35.691  22.482  25.793  1.00  0.00     0.181 C 
ATOM      8  C   UNL A   1      35.683  21.109  25.043  1.00  0.00     0.079 C 
ATOM      9  C   UNL A   1      34.580  22.457  26.875  1.00  0.00     0.144 C 
ATOM     10  C   UNL A   1      34.343  20.477  24.709  1.00  0.00     0.013 C 
ATOM     11  C   UNL A   1      33.166  22.023  26.352  1.00  0.00     0.190 C 
ATOM     12  C   UNL A   1      33.307  20.608  25.799  1.00  0.00     0.065 C 
BRANCH   7  13
ATOM     13  N   UNL A   1      37.027  22.668  26.474  1.00  0.00    -0.336 N 
ATOM     14  C   UNL A   1      38.171  22.167  25.696  1.00  0.00     0.331 C 
ATOM     15  H   UNL A   1      37.165  23.665  26.641  1.00  0.00     0.346 HD
ATOM     16  H   UNL A   1      36.996  22.125  27.336  1.00  0.00     0.346 HD
ENDBRANCH   7  13
BRANCH  11  17
ATOM     17  N   UNL A   1      32.490  23.122  25.583  1.00  0.00    -0.332 N 
ATOM     18  C   UNL A   1      31.773  23.904  26.640  1.00  0.00     0.333 C 
ATOM     19  H   UNL A   1      33.245  23.560  25.055  1.00  0.00     0.348 HD
BRANCH  17  20
ATOM     20  C   UNL A   1      31.536  22.859  24.441  1.00  0.00     0.195 C 
ATOM     21  C   UNL A   1      32.002  22.442  23.034  1.00  0.00     0.126 C 
ATOM     22  C   UNL A   1      30.602  24.074  24.105  1.00  0.00     0.126 C 
ATOM     23  C   UNL A   1      32.758  23.550  22.303  1.00  0.00     0.268 C 
ATOM     24  C   UNL A   1      31.043  25.075  23.001  1.00  0.00     0.268 C 
ATOM     25  N   UNL A   1      31.889  24.640  21.898  1.00  0.00    -0.337 N 
ATOM     26  C   UNL A   1      32.719  25.770  21.429  1.00  0.00     0.332 C 
ATOM     27  H   UNL A   1      31.283  24.313  21.146  1.00  0.00     0.347 HD
ENDBRANCH  17  20
ENDBRANCH  11  17
ENDBRANCH   4   7
ENDBRANCH   2   3
ENDBRANCH   1   2
BRANCH   1  28
ATOM     28  C   UNL A   1      33.779  28.516  25.031  1.00  0.00     0.118 C 
BRANCH  28  29
ATOM     29  N   UNL A   1      32.887  29.539  25.588  1.00  0.00    -0.352 N 
ATOM     30  C   UNL A   1      33.035  30.455  26.622  1.00  0.00     0.251 C 
ATOM     31  H   UNL A   1      32.011  29.587  25.141  1.00  0.00     0.163 HD
ATOM     32  O   UNL A   1      32.121  31.232  26.909  1.00  0.00    -0.269 OA
BRANCH  30  33
ATOM     33  C   UNL A   1      34.283  30.566  27.393  1.00  0.00     0.039 A 
ATOM     34  C   UNL A   1      34.951  31.793  27.558  1.00  0.00     0.014 A 
ATOM     35  C   UNL A   1      34.852  29.398  27.877  1.00  0.00     0.014 A 
ATOM     36  C   UNL A   1      36.158  31.839  28.272  1.00  0.00     0.010 A 
ATOM     37  C   UNL A   1      35.956  29.464  28.698  1.00  0.00     0.010 A 
ATOM     38  C   UNL A   1      36.650  30.671  28.869  1.00  0.00    -0.014 A 
BRANCH  38  39
ATOM     39  C   UNL A   1      37.929  30.571  29.609  1.00  0.00     0.031 A 
ATOM     40  C   UNL A   1      39.013  29.706  29.015  1.00  0.00     0.074 A 
ATOM     41  C   UNL A   1      38.023  31.040  30.865  1.00  0.00     0.049 A 
ATOM     42  N   UNL A   1      40.023  29.117  29.596  1.00  0.00    -0.248 NA
ATOM     43  C   UNL A   1      38.864  29.369  27.585  1.00  0.00     0.031 C 
ATOM     44  C   UNL A   1      37.008  31.835  31.558  1.00  0.00     0.029 A 
ATOM     45  N   UNL A   1      39.010  30.871  31.800  1.00  0.00    -0.354 N 
ATOM     46  C   UNL A   1      40.571  28.282  28.629  1.00  0.00     0.074 A 
ATOM     47  C   UNL A   1      39.739  28.386  27.452  1.00  0.00     0.031 C 
ATOM     48  C   UNL A   1      37.431  32.094  32.806  1.00  0.00     0.029 A 
ATOM     49  C   UNL A   1      38.721  31.444  33.014  1.00  0.00     0.049 A 
ATOM     50  H   UNL A   1      39.847  30.383  31.620  1.00  0.00     0.167 HD
ATOM     51  C   UNL A   1      41.688  27.521  28.709  1.00  0.00     0.037 A 
ATOM     52  C   UNL A   1      39.420  31.427  34.163  1.00  0.00     0.037 A 
ATOM     53  C   UNL A   1      42.548  27.522  29.860  1.00  0.00     0.049 A 
ATOM     54  C   UNL A   1      40.719  30.667  34.196  1.00  0.00     0.074 A 
ATOM     55  C   UNL A   1      43.765  26.890  30.035  1.00  0.00     0.029 A 
ATOM     56  N   UNL A   1      42.285  28.225  31.029  1.00  0.00    -0.354 N 
ATOM     57  N   UNL A   1      41.261  29.916  33.266  1.00  0.00    -0.248 NA
ATOM     58  C   UNL A   1      41.508  30.758  35.431  1.00  0.00     0.031 C 
ATOM     59  C   UNL A   1      44.229  27.197  31.319  1.00  0.00     0.029 A 
ATOM     60  C   UNL A   1      43.320  28.049  31.928  1.00  0.00     0.049 A 
ATOM     61  H   UNL A   1      41.480  28.767  31.193  1.00  0.00     0.167 HD
ATOM     62  C   UNL A   1      42.468  29.472  33.788  1.00  0.00     0.074 A 
ATOM     63  C   UNL A   1      42.582  30.051  35.113  1.00  0.00     0.031 C 
ATOM     64  C   UNL A   1      43.400  28.660  33.231  1.00  0.00     0.037 A 
BRANCH  51  65
ATOM     65  C   UNL A   1      42.048  26.672  27.520  1.00  0.00     0.057 A 
ATOM     66  C   UNL A   1      41.641  25.334  27.411  1.00  0.00     0.134 A 
ATOM     67  C   UNL A   1      42.809  27.195  26.467  1.00  0.00     0.134 A 
ATOM     68  F   UNL A   1      40.917  24.762  28.386  1.00  0.00    -0.206 F 
ATOM     69  C   UNL A   1      42.017  24.536  26.328  1.00  0.00     0.040 A 
ATOM     70  C   UNL A   1      43.160  26.418  25.359  1.00  0.00     0.040 A 
ATOM     71  F   UNL A   1      43.230  28.469  26.494  1.00  0.00    -0.206 F 
ATOM     72  C   UNL A   1      42.775  25.081  25.294  1.00  0.00     0.006 A 
ENDBRANCH  51  65
BRANCH  52  73
ATOM     73  C   UNL A   1      38.945  32.202  35.337  1.00  0.00     0.057 A 
ATOM     74  C   UNL A   1      38.286  31.558  36.392  1.00  0.00     0.134 A 
ATOM     75  C   UNL A   1      39.153  33.581  35.458  1.00  0.00     0.134 A 
ATOM     76  F   UNL A   1      38.048  30.240  36.333  1.00  0.00    -0.206 F 
ATOM     77  C   UNL A   1      37.835  32.258  37.513  1.00  0.00     0.040 A 
ATOM     78  C   UNL A   1      38.730  34.290  36.585  1.00  0.00     0.040 A 
ATOM     79  F   UNL A   1      39.794  34.257  34.492  1.00  0.00    -0.206 F 
ATOM     80  C   UNL A   1      38.062  33.628  37.614  1.00  0.00     0.006 A 
ENDBRANCH  52  73
BRANCH  64  81
ATOM     81  C   UNL A   1      44.636  28.394  34.034  1.00  0.00     0.057 A 
ATOM     82  C   UNL A   1      45.748  29.242  33.977  1.00  0.00     0.134 A 
ATOM     83  C   UNL A   1      44.687  27.308  34.917  1.00  0.00     0.134 A 
ATOM     84  F   UNL A   1      45.762  30.292  33.143  1.00  0.00    -0.206 F 
ATOM     85  C   UNL A   1      46.881  29.004  34.756  1.00  0.00     0.040 A 
ATOM     86  C   UNL A   1      45.802  27.077  35.720  1.00  0.00     0.040 A 
ATOM     87  F   UNL A   1      43.646  26.468  35.024  1.00  0.00    -0.206 F 
ATOM     88  C   UNL A   1      46.905  27.923  35.637  1.00  0.00     0.006 A 
ENDBRANCH  64  81
ENDBRANCH  38  39
ENDBRANCH  30  33
ENDBRANCH  28  29
ENDBRANCH   1  28
TORSDOF 13
ENDMDL
MODEL 3
REMARK VINA RESULT:     -11.7      4.213      8.031
REMARK SMILES C[NH2+][C@@]1(C(=O)NCCCNC(=O)c2ccc(-c3c4nc(c(-c5c(F)cccc5F)c5ccc([nH]5)c(-c5c(F)cccc5F)c5nc(c(-c6c(F)cccc6F)c6ccc3[nH]6)C=C5)C=C4)cc2)CCC[C@H]([N@H+](C)C2CC[NH+](C)CC2)C1
REMARK SMILES IDX 8 1 7 2 6 3 4 4 5 5 3 7 67 8 80 9 68 10 70 11 69 12 2 13
REMARK SMILES IDX 1 14 71 17 72 18 73 20 74 21 79 22 75 23 78 24 76 25 77 26
REMARK SMILES IDX 9 28 10 29 11 30 12 32 13 33 14 34 66 35 15 36 65 37 16 38
REMARK SMILES IDX 17 39 18 40 59 41 19 42 64 43 58 44 60 45 20 46 63 47 57 48
REMARK SMILES IDX 56 49 21 51 47 52 30 53 46 54 31 55 34 56 45 57 61 58 32 59
REMARK SMILES IDX 33 60 44 62 62 63 35 64 22 65 23 66 28 67 24 68 25 69 27 70
REMARK SMILES IDX 29 71 26 72 48 73 49 74 54 75 50 76 51 77 53 78 55 79 52 80
REMARK SMILES IDX 36 81 37 82 42 83 38 84 39 85 41 86 43 87 40 88
REMARK H PARENT 6 6 2 15 2 16 71 19 76 27 10 31 60 50 34 61
REMARK Flexibility Score: inf
ROOT
ATOM      1  C   UNL A   1      36.047  23.368  24.976  1.00  0.00     0.042 C 
ENDROOT
BRANCH   1   2
ATOM      2  C   UNL A   1      34.811  22.847  25.718  1.00  0.00     0.118 C 
BRANCH   2   3
ATOM      3  N   UNL A   1      33.519  23.313  25.203  1.00  0.00    -0.351 N 
ATOM      4  C   UNL A   1      32.514  23.714  26.092  1.00  0.00     0.281 C 
ATOM      5  O   UNL A   1      32.802  24.197  27.190  1.00  0.00    -0.268 OA
ATOM      6  H   UNL A   1      33.357  23.342  24.233  1.00  0.00     0.163 HD
BRANCH   4   7
ATOM      7  C   UNL A   1      31.005  23.562  25.614  1.00  0.00     0.181 C 
ATOM      8  C   UNL A   1      30.854  23.420  24.064  1.00  0.00     0.079 C 
ATOM      9  C   UNL A   1      30.166  24.780  26.080  1.00  0.00     0.144 C 
ATOM     10  C   UNL A   1      30.858  24.683  23.220  1.00  0.00     0.013 C 
ATOM     11  C   UNL A   1      30.442  26.105  25.288  1.00  0.00     0.190 C 
ATOM     12  C   UNL A   1      30.095  25.836  23.827  1.00  0.00     0.065 C 
BRANCH   7  13
ATOM     13  N   UNL A   1      30.465  22.318  26.282  1.00  0.00    -0.336 N 
ATOM     14  C   UNL A   1      29.388  22.578  27.250  1.00  0.00     0.331 C 
ATOM     15  H   UNL A   1      30.102  21.698  25.558  1.00  0.00     0.346 HD
ATOM     16  H   UNL A   1      31.237  21.905  26.803  1.00  0.00     0.346 HD
ENDBRANCH   7  13
BRANCH  11  17
ATOM     17  N   UNL A   1      31.733  26.749  25.701  1.00  0.00    -0.332 N 
ATOM     18  C   UNL A   1      31.401  27.407  27.005  1.00  0.00     0.333 C 
ATOM     19  H   UNL A   1      32.412  25.988  25.678  1.00  0.00     0.348 HD
BRANCH  17  20
ATOM     20  C   UNL A   1      32.474  27.739  24.832  1.00  0.00     0.195 C 
ATOM     21  C   UNL A   1      33.951  28.112  25.051  1.00  0.00     0.126 C 
ATOM     22  C   UNL A   1      31.806  29.158  24.778  1.00  0.00     0.126 C 
ATOM     23  C   UNL A   1      34.182  28.895  26.343  1.00  0.00     0.268 C 
ATOM     24  C   UNL A   1      32.289  30.251  25.771  1.00  0.00     0.268 C 
ATOM     25  N   UNL A   1      33.656  30.246  26.275  1.00  0.00    -0.337 N 
ATOM     26  C   UNL A   1      33.692  30.847  27.625  1.00  0.00     0.332 C 
ATOM     27  H   UNL A   1      34.230  30.790  25.632  1.00  0.00     0.347 HD
ENDBRANCH  17  20
ENDBRANCH  11  17
ENDBRANCH   4   7
ENDBRANCH   2   3
ENDBRANCH   1   2
BRANCH   1  28
ATOM     28  C   UNL A   1      37.203  24.073  25.735  1.00  0.00     0.118 C 
BRANCH  28  29
ATOM     29  N   UNL A   1      38.521  23.444  25.873  1.00  0.00    -0.352 N 
ATOM     30  C   UNL A   1      39.696  23.846  26.496  1.00  0.00     0.251 C 
ATOM     31  H   UNL A   1      38.587  22.563  25.439  1.00  0.00     0.163 HD
ATOM     32  O   UNL A   1      40.697  23.125  26.476  1.00  0.00    -0.269 OA
BRANCH  30  33
ATOM     33  C   UNL A   1      39.794  25.117  27.231  1.00  0.00     0.039 A 
ATOM     34  C   UNL A   1      40.450  26.240  26.696  1.00  0.00     0.014 A 
ATOM     35  C   UNL A   1      39.304  25.155  28.527  1.00  0.00     0.014 A 
ATOM     36  C   UNL A   1      40.547  27.417  27.452  1.00  0.00     0.010 A 
ATOM     37  C   UNL A   1      39.271  26.350  29.212  1.00  0.00     0.010 A 
ATOM     38  C   UNL A   1      39.930  27.481  28.708  1.00  0.00    -0.014 A 
BRANCH  38  39
ATOM     39  C   UNL A   1      39.993  28.642  29.626  1.00  0.00     0.031 A 
ATOM     40  C   UNL A   1      40.947  28.559  30.791  1.00  0.00     0.074 A 
ATOM     41  C   UNL A   1      39.070  29.616  29.550  1.00  0.00     0.049 A 
ATOM     42  N   UNL A   1      40.926  29.192  31.933  1.00  0.00    -0.248 NA
ATOM     43  C   UNL A   1      42.004  27.533  30.693  1.00  0.00     0.031 C 
ATOM     44  C   UNL A   1      38.060  29.756  28.499  1.00  0.00     0.029 A 
ATOM     45  N   UNL A   1      38.802  30.650  30.408  1.00  0.00    -0.354 N 
ATOM     46  C   UNL A   1      41.904  28.584  32.712  1.00  0.00     0.074 A 
ATOM     47  C   UNL A   1      42.445  27.488  31.940  1.00  0.00     0.031 C 
ATOM     48  C   UNL A   1      37.291  30.823  28.769  1.00  0.00     0.029 A 
ATOM     49  C   UNL A   1      37.721  31.410  30.034  1.00  0.00     0.049 A 
ATOM     50  H   UNL A   1      39.334  30.830  31.218  1.00  0.00     0.167 HD
ATOM     51  C   UNL A   1      42.332  28.930  33.949  1.00  0.00     0.037 A 
ATOM     52  C   UNL A   1      37.144  32.452  30.658  1.00  0.00     0.037 A 
ATOM     53  C   UNL A   1      41.841  30.088  34.645  1.00  0.00     0.049 A 
ATOM     54  C   UNL A   1      37.708  32.893  31.981  1.00  0.00     0.074 A 
ATOM     55  C   UNL A   1      42.263  30.620  35.848  1.00  0.00     0.029 A 
ATOM     56  N   UNL A   1      40.830  30.913  34.168  1.00  0.00    -0.354 N 
ATOM     57  N   UNL A   1      38.665  32.346  32.695  1.00  0.00    -0.248 NA
ATOM     58  C   UNL A   1      37.124  34.098  32.582  1.00  0.00     0.031 C 
ATOM     59  C   UNL A   1      41.493  31.759  36.110  1.00  0.00     0.029 A 
ATOM     60  C   UNL A   1      40.619  31.956  35.050  1.00  0.00     0.049 A 
ATOM     61  H   UNL A   1      40.338  30.775  33.328  1.00  0.00     0.167 HD
ATOM     62  C   UNL A   1      38.820  33.157  33.811  1.00  0.00     0.074 A 
ATOM     63  C   UNL A   1      37.866  34.240  33.670  1.00  0.00     0.031 C 
ATOM     64  C   UNL A   1      39.669  33.024  34.860  1.00  0.00     0.037 A 
BRANCH  51  65
ATOM     65  C   UNL A   1      43.390  28.076  34.592  1.00  0.00     0.057 A 
ATOM     66  C   UNL A   1      44.759  28.313  34.396  1.00  0.00     0.134 A 
ATOM     67  C   UNL A   1      43.042  27.001  35.419  1.00  0.00     0.134 A 
ATOM     68  F   UNL A   1      45.168  29.320  33.608  1.00  0.00    -0.206 F 
ATOM     69  C   UNL A   1      45.737  27.489  34.957  1.00  0.00     0.040 A 
ATOM     70  C   UNL A   1      44.011  26.191  36.017  1.00  0.00     0.040 A 
ATOM     71  F   UNL A   1      41.754  26.714  35.661  1.00  0.00    -0.206 F 
ATOM     72  C   UNL A   1      45.363  26.426  35.776  1.00  0.00     0.006 A 
ENDBRANCH  51  65
BRANCH  52  73
ATOM     73  C   UNL A   1      36.025  33.182  30.010  1.00  0.00     0.057 A 
ATOM     74  C   UNL A   1      34.724  33.082  30.519  1.00  0.00     0.134 A 
ATOM     75  C   UNL A   1      36.217  34.012  28.900  1.00  0.00     0.134 A 
ATOM     76  F   UNL A   1      34.473  32.295  31.576  1.00  0.00    -0.206 F 
ATOM     77  C   UNL A   1      33.653  33.762  29.938  1.00  0.00     0.040 A 
ATOM     78  C   UNL A   1      35.159  34.720  28.323  1.00  0.00     0.040 A 
ATOM     79  F   UNL A   1      37.440  34.169  28.373  1.00  0.00    -0.206 F 
ATOM     80  C   UNL A   1      33.870  34.590  28.838  1.00  0.00     0.006 A 
ENDBRANCH  52  73
BRANCH  64  81
ATOM     81  C   UNL A   1      39.632  34.098  35.903  1.00  0.00     0.057 A 
ATOM     82  C   UNL A   1      38.903  33.948  37.089  1.00  0.00     0.134 A 
ATOM     83  C   UNL A   1      40.382  35.269  35.741  1.00  0.00     0.134 A 
ATOM     84  F   UNL A   1      38.158  32.853  37.296  1.00  0.00    -0.206 F 
ATOM     85  C   UNL A   1      38.904  34.941  38.070  1.00  0.00     0.040 A 
ATOM     86  C   UNL A   1      40.412  36.255  36.726  1.00  0.00     0.040 A 
ATOM     87  F   UNL A   1      41.111  35.463  34.631  1.00  0.00    -0.206 F 
ATOM     88  C   UNL A   1      39.667  36.094  37.892  1.00  0.00     0.006 A 
ENDBRANCH  64  81
ENDBRANCH  38  39
ENDBRANCH  30  33
ENDBRANCH  28  29
ENDBRANCH   1  28
TORSDOF 13
ENDMDL
