MODEL 1
REMARK VINA RESULT:     -12.8      0.000      0.000
REMARK SMILES CCc1c(C(=O)NCC(=O)NCCCNC(=O)c2ccc(-c3c4nc(c(-c5c(F)cccc5F)c5ccc([nH]5)c(-c5c(F)cccc5F)c5nc(c(-c6c(F)cccc6F)c6ccc3[nH]6)C=C5)C=C4)cc2)nnn1-c1ccc(Cl)cc1
REMARK SMILES IDX 12 1 11 2 9 3 10 4 8 6 7 7 5 8 6 9 4 11 3 12 74 13 72 14
REMARK SMILES IDX 73 15 2 16 1 17 75 18 76 19 81 20 77 21 80 22 78 23 79 24
REMARK SMILES IDX 13 25 14 26 15 27 16 28 17 30 18 31 19 32 71 33 20 34 70 35
REMARK SMILES IDX 21 36 22 37 23 38 64 39 24 40 69 41 63 42 65 43 25 44 68 45
REMARK SMILES IDX 62 46 61 47 26 49 52 50 35 51 51 52 36 53 39 54 50 55 66 56
REMARK SMILES IDX 37 57 38 58 49 60 67 61 40 62 27 63 28 64 33 65 29 66 30 67
REMARK SMILES IDX 32 68 34 69 31 70 53 71 54 72 59 73 55 74 56 75 58 76 60 77
REMARK SMILES IDX 57 78 41 79 42 80 47 81 43 82 44 83 46 84 48 85 45 86
REMARK H PARENT 11 5 7 10 15 29 65 48 39 59
REMARK Flexibility Score: inf
ROOT
ATOM      1  C   UNL A   1      32.198  29.719  25.498  1.00  0.00     0.117 C 
ENDROOT
BRANCH   1   2
ATOM      2  N   UNL A   1      31.028  30.188  24.781  1.00  0.00    -0.355 N 
ATOM      3  C   UNL A   1      30.467  29.786  23.609  1.00  0.00     0.239 C 
ATOM      4  O   UNL A   1      29.360  30.265  23.334  1.00  0.00    -0.273 OA
ATOM      5  H   UNL A   1      30.555  30.932  25.220  1.00  0.00     0.163 HD
BRANCH   3   6
ATOM      6  C   UNL A   1      31.048  28.679  22.718  1.00  0.00     0.216 C 
BRANCH   6   7
ATOM      7  N   UNL A   1      32.438  28.688  22.387  1.00  0.00    -0.342 N 
ATOM      8  C   UNL A   1      33.365  27.723  22.136  1.00  0.00     0.274 C 
ATOM      9  O   UNL A   1      34.391  28.194  21.626  1.00  0.00    -0.267 OA
ATOM     10  H   UNL A   1      32.810  29.598  22.328  1.00  0.00     0.164 HD
BRANCH   8  11
ATOM     11  C   UNL A   1      33.306  26.285  22.469  1.00  0.00     0.174 A 
ATOM     12  C   UNL A   1      33.424  25.402  23.567  1.00  0.00     0.077 A 
ATOM     13  N   UNL A   1      33.341  24.141  22.943  1.00  0.00    -0.217 N 
ATOM     14  N   UNL A   1      33.285  25.504  21.315  1.00  0.00    -0.124 NA
ATOM     15  N   UNL A   1      33.462  24.243  21.620  1.00  0.00    -0.061 NA
BRANCH  12  16
ATOM     16  C   UNL A   1      33.845  25.417  25.026  1.00  0.00     0.055 C 
ATOM     17  C   UNL A   1      32.856  25.740  26.123  1.00  0.00     0.011 C 
ENDBRANCH  12  16
BRANCH  13  18
ATOM     18  C   UNL A   1      33.330  22.865  23.540  1.00  0.00     0.067 A 
ATOM     19  C   UNL A   1      34.543  22.253  23.879  1.00  0.00     0.030 A 
ATOM     20  C   UNL A   1      32.104  22.259  23.834  1.00  0.00     0.030 A 
ATOM     21  C   UNL A   1      34.520  21.056  24.595  1.00  0.00     0.023 A 
ATOM     22  C   UNL A   1      32.092  21.047  24.518  1.00  0.00     0.023 A 
ATOM     23  C   UNL A   1      33.296  20.462  24.916  1.00  0.00     0.041 A 
ATOM     24  Cl  UNL A   1      33.269  19.006  25.830  1.00  0.00    -0.084 Cl
ENDBRANCH  13  18
ENDBRANCH   8  11
ENDBRANCH   6   7
ENDBRANCH   3   6
ENDBRANCH   1   2
BRANCH   1  25
ATOM     25  C   UNL A   1      32.178  29.995  26.997  1.00  0.00     0.042 C 
BRANCH  25  26
ATOM     26  C   UNL A   1      33.576  30.158  27.560  1.00  0.00     0.118 C 
BRANCH  26  27
ATOM     27  N   UNL A   1      34.169  31.463  27.238  1.00  0.00    -0.352 N 
ATOM     28  C   UNL A   1      35.358  31.986  27.700  1.00  0.00     0.251 C 
ATOM     29  H   UNL A   1      33.658  32.032  26.617  1.00  0.00     0.163 HD
ATOM     30  O   UNL A   1      35.586  33.197  27.661  1.00  0.00    -0.269 OA
BRANCH  28  31
ATOM     31  C   UNL A   1      36.359  31.060  28.242  1.00  0.00     0.039 A 
ATOM     32  C   UNL A   1      36.409  29.717  27.865  1.00  0.00     0.014 A 
ATOM     33  C   UNL A   1      37.330  31.612  29.070  1.00  0.00     0.014 A 
ATOM     34  C   UNL A   1      37.509  28.959  28.257  1.00  0.00     0.010 A 
ATOM     35  C   UNL A   1      38.497  30.930  29.270  1.00  0.00     0.010 A 
ATOM     36  C   UNL A   1      38.569  29.584  28.936  1.00  0.00    -0.014 A 
BRANCH  36  37
ATOM     37  C   UNL A   1      39.805  28.874  29.234  1.00  0.00     0.031 A 
ATOM     38  C   UNL A   1      40.125  28.748  30.681  1.00  0.00     0.074 A 
ATOM     39  C   UNL A   1      40.506  28.201  28.293  1.00  0.00     0.049 A 
ATOM     40  N   UNL A   1      41.093  29.317  31.319  1.00  0.00    -0.248 NA
ATOM     41  C   UNL A   1      39.191  28.017  31.551  1.00  0.00     0.031 C 
ATOM     42  C   UNL A   1      40.171  27.966  26.882  1.00  0.00     0.029 A 
ATOM     43  N   UNL A   1      41.654  27.489  28.441  1.00  0.00    -0.354 N 
ATOM     44  C   UNL A   1      41.019  28.856  32.631  1.00  0.00     0.074 A 
ATOM     45  C   UNL A   1      39.739  28.208  32.754  1.00  0.00     0.031 C 
ATOM     46  C   UNL A   1      40.954  26.985  26.383  1.00  0.00     0.029 A 
ATOM     47  C   UNL A   1      41.965  26.660  27.370  1.00  0.00     0.049 A 
ATOM     48  H   UNL A   1      42.221  27.555  29.243  1.00  0.00     0.167 HD
ATOM     49  C   UNL A   1      42.122  28.847  33.432  1.00  0.00     0.037 A 
ATOM     50  C   UNL A   1      42.979  25.765  27.305  1.00  0.00     0.037 A 
ATOM     51  C   UNL A   1      43.166  29.677  32.880  1.00  0.00     0.049 A 
ATOM     52  C   UNL A   1      43.971  26.156  28.338  1.00  0.00     0.074 A 
ATOM     53  C   UNL A   1      43.269  31.014  32.547  1.00  0.00     0.029 A 
ATOM     54  N   UNL A   1      44.196  29.050  32.221  1.00  0.00    -0.354 N 
ATOM     55  N   UNL A   1      44.688  27.244  28.272  1.00  0.00    -0.248 NA
ATOM     56  C   UNL A   1      43.814  25.589  29.668  1.00  0.00     0.031 C 
ATOM     57  C   UNL A   1      44.015  31.031  31.332  1.00  0.00     0.029 A 
ATOM     58  C   UNL A   1      44.389  29.719  31.040  1.00  0.00     0.049 A 
ATOM     59  H   UNL A   1      44.702  28.269  32.539  1.00  0.00     0.167 HD
ATOM     60  C   UNL A   1      44.696  27.739  29.568  1.00  0.00     0.074 A 
ATOM     61  C   UNL A   1      44.217  26.633  30.399  1.00  0.00     0.031 C 
ATOM     62  C   UNL A   1      44.805  29.077  29.814  1.00  0.00     0.037 A 
BRANCH  49  63
ATOM     63  C   UNL A   1      42.412  27.810  34.491  1.00  0.00     0.057 A 
ATOM     64  C   UNL A   1      42.878  26.542  34.093  1.00  0.00     0.134 A 
ATOM     65  C   UNL A   1      41.970  27.890  35.827  1.00  0.00     0.134 A 
ATOM     66  F   UNL A   1      43.327  26.333  32.846  1.00  0.00    -0.206 F 
ATOM     67  C   UNL A   1      42.817  25.421  34.929  1.00  0.00     0.040 A 
ATOM     68  C   UNL A   1      41.952  26.787  36.686  1.00  0.00     0.040 A 
ATOM     69  F   UNL A   1      41.438  29.002  36.345  1.00  0.00    -0.206 F 
ATOM     70  C   UNL A   1      42.340  25.539  36.228  1.00  0.00     0.006 A 
ENDBRANCH  49  63
BRANCH  50  71
ATOM     71  C   UNL A   1      43.019  24.455  26.619  1.00  0.00     0.057 A 
ATOM     72  C   UNL A   1      43.780  24.267  25.457  1.00  0.00     0.134 A 
ATOM     73  C   UNL A   1      42.545  23.287  27.243  1.00  0.00     0.134 A 
ATOM     74  F   UNL A   1      44.304  25.318  24.811  1.00  0.00    -0.206 F 
ATOM     75  C   UNL A   1      44.082  22.991  24.962  1.00  0.00     0.040 A 
ATOM     76  C   UNL A   1      42.836  22.007  26.757  1.00  0.00     0.040 A 
ATOM     77  F   UNL A   1      41.864  23.344  28.396  1.00  0.00    -0.206 F 
ATOM     78  C   UNL A   1      43.620  21.855  25.620  1.00  0.00     0.006 A 
ENDBRANCH  50  71
BRANCH  62  79
ATOM     79  C   UNL A   1      45.156  29.982  28.663  1.00  0.00     0.057 A 
ATOM     80  C   UNL A   1      44.212  30.632  27.852  1.00  0.00     0.134 A 
ATOM     81  C   UNL A   1      46.496  30.333  28.471  1.00  0.00     0.134 A 
ATOM     82  F   UNL A   1      42.899  30.441  28.022  1.00  0.00    -0.206 F 
ATOM     83  C   UNL A   1      44.590  31.557  26.872  1.00  0.00     0.040 A 
ATOM     84  C   UNL A   1      46.884  31.278  27.518  1.00  0.00     0.040 A 
ATOM     85  F   UNL A   1      47.452  29.796  29.246  1.00  0.00    -0.206 F 
ATOM     86  C   UNL A   1      45.930  31.888  26.708  1.00  0.00     0.006 A 
ENDBRANCH  62  79
ENDBRANCH  36  37
ENDBRANCH  28  31
ENDBRANCH  26  27
ENDBRANCH  25  26
ENDBRANCH   1  25
TORSDOF 14
ENDMDL
MODEL 2
REMARK VINA RESULT:     -12.7      2.145      6.183
REMARK SMILES CCc1c(C(=O)NCC(=O)NCCCNC(=O)c2ccc(-c3c4nc(c(-c5c(F)cccc5F)c5ccc([nH]5)c(-c5c(F)cccc5F)c5nc(c(-c6c(F)cccc6F)c6ccc3[nH]6)C=C5)C=C4)cc2)nnn1-c1ccc(Cl)cc1
REMARK SMILES IDX 12 1 11 2 9 3 10 4 8 6 7 7 5 8 6 9 4 11 3 12 74 13 72 14
REMARK SMILES IDX 73 15 2 16 1 17 75 18 76 19 81 20 77 21 80 22 78 23 79 24
REMARK SMILES IDX 13 25 14 26 15 27 16 28 17 30 18 31 19 32 71 33 20 34 70 35
REMARK SMILES IDX 21 36 22 37 23 38 64 39 24 40 69 41 63 42 65 43 25 44 68 45
REMARK SMILES IDX 62 46 61 47 26 49 52 50 35 51 51 52 36 53 39 54 50 55 66 56
REMARK SMILES IDX 37 57 38 58 49 60 67 61 40 62 27 63 28 64 33 65 29 66 30 67
REMARK SMILES IDX 32 68 34 69 31 70 53 71 54 72 59 73 55 74 56 75 58 76 60 77
REMARK SMILES IDX 57 78 41 79 42 80 47 81 43 82 44 83 46 84 48 85 45 86
REMARK H PARENT 11 5 7 10 15 29 65 48 39 59
REMARK Flexibility Score: inf
ROOT
ATOM      1  C   UNL A   1      33.482  28.964  26.162  1.00  0.00     0.117 C 
ENDROOT
BRANCH   1   2
ATOM      2  N   UNL A   1      32.391  29.388  25.306  1.00  0.00    -0.355 N 
ATOM      3  C   UNL A   1      31.690  28.728  24.345  1.00  0.00     0.239 C 
ATOM      4  O   UNL A   1      30.690  29.303  23.899  1.00  0.00    -0.273 OA
ATOM      5  H   UNL A   1      32.107  30.320  25.444  1.00  0.00     0.163 HD
BRANCH   3   6
ATOM      6  C   UNL A   1      31.978  27.283  23.917  1.00  0.00     0.216 C 
BRANCH   6   7
ATOM      7  N   UNL A   1      32.668  27.027  22.691  1.00  0.00    -0.342 N 
ATOM      8  C   UNL A   1      32.990  25.904  21.994  1.00  0.00     0.274 C 
ATOM      9  O   UNL A   1      33.360  26.168  20.842  1.00  0.00    -0.267 OA
ATOM     10  H   UNL A   1      32.982  27.851  22.252  1.00  0.00     0.164 HD
BRANCH   8  11
ATOM     11  C   UNL A   1      33.025  24.506  22.472  1.00  0.00     0.174 A 
ATOM     12  C   UNL A   1      32.234  23.554  23.156  1.00  0.00     0.077 A 
ATOM     13  N   UNL A   1      33.124  22.470  23.288  1.00  0.00    -0.217 N 
ATOM     14  N   UNL A   1      34.308  23.973  22.365  1.00  0.00    -0.124 NA
ATOM     15  N   UNL A   1      34.374  22.826  22.995  1.00  0.00    -0.061 NA
BRANCH  12  16
ATOM     16  C   UNL A   1      30.939  23.477  23.945  1.00  0.00     0.055 C 
ATOM     17  C   UNL A   1      30.878  23.910  25.392  1.00  0.00     0.011 C 
ENDBRANCH  12  16
BRANCH  13  18
ATOM     18  C   UNL A   1      32.879  21.194  23.833  1.00  0.00     0.067 A 
ATOM     19  C   UNL A   1      32.379  20.177  23.011  1.00  0.00     0.030 A 
ATOM     20  C   UNL A   1      33.195  20.954  25.175  1.00  0.00     0.030 A 
ATOM     21  C   UNL A   1      32.274  18.883  23.523  1.00  0.00     0.023 A 
ATOM     22  C   UNL A   1      33.053  19.666  25.686  1.00  0.00     0.023 A 
ATOM     23  C   UNL A   1      32.616  18.633  24.853  1.00  0.00     0.041 A 
ATOM     24  Cl  UNL A   1      32.519  17.032  25.472  1.00  0.00    -0.084 Cl
ENDBRANCH  13  18
ENDBRANCH   8  11
ENDBRANCH   6   7
ENDBRANCH   3   6
ENDBRANCH   1   2
BRANCH   1  25
ATOM     25  C   UNL A   1      34.077  30.069  27.028  1.00  0.00     0.042 C 
BRANCH  25  26
ATOM     26  C   UNL A   1      35.410  29.663  27.624  1.00  0.00     0.118 C 
BRANCH  26  27
ATOM     27  N   UNL A   1      35.513  29.977  29.055  1.00  0.00    -0.352 N 
ATOM     28  C   UNL A   1      36.462  29.531  29.951  1.00  0.00     0.251 C 
ATOM     29  H   UNL A   1      34.823  30.579  29.419  1.00  0.00     0.163 HD
ATOM     30  O   UNL A   1      36.260  29.557  31.167  1.00  0.00    -0.269 OA
BRANCH  28  31
ATOM     31  C   UNL A   1      37.732  29.023  29.420  1.00  0.00     0.039 A 
ATOM     32  C   UNL A   1      38.352  29.593  28.306  1.00  0.00     0.014 A 
ATOM     33  C   UNL A   1      38.348  28.012  30.148  1.00  0.00     0.014 A 
ATOM     34  C   UNL A   1      39.649  29.194  27.994  1.00  0.00     0.010 A 
ATOM     35  C   UNL A   1      39.683  27.783  29.967  1.00  0.00     0.010 A 
ATOM     36  C   UNL A   1      40.322  28.307  28.852  1.00  0.00    -0.014 A 
BRANCH  36  37
ATOM     37  C   UNL A   1      41.727  27.978  28.655  1.00  0.00     0.031 A 
ATOM     38  C   UNL A   1      41.979  26.734  27.880  1.00  0.00     0.074 A 
ATOM     39  C   UNL A   1      42.728  28.832  28.967  1.00  0.00     0.049 A 
ATOM     40  N   UNL A   1      42.481  25.628  28.319  1.00  0.00    -0.248 NA
ATOM     41  C   UNL A   1      41.498  26.656  26.492  1.00  0.00     0.031 C 
ATOM     42  C   UNL A   1      42.646  30.216  29.453  1.00  0.00     0.029 A 
ATOM     43  N   UNL A   1      44.068  28.657  28.818  1.00  0.00    -0.354 N 
ATOM     44  C   UNL A   1      42.574  24.778  27.220  1.00  0.00     0.074 A 
ATOM     45  C   UNL A   1      41.798  25.394  26.175  1.00  0.00     0.031 C 
ATOM     46  C   UNL A   1      43.849  30.818  29.326  1.00  0.00     0.029 A 
ATOM     47  C   UNL A   1      44.821  29.818  28.935  1.00  0.00     0.049 A 
ATOM     48  H   UNL A   1      44.472  27.777  28.640  1.00  0.00     0.167 HD
ATOM     49  C   UNL A   1      43.476  23.757  27.200  1.00  0.00     0.037 A 
ATOM     50  C   UNL A   1      46.153  29.946  28.719  1.00  0.00     0.037 A 
ATOM     51  C   UNL A   1      43.982  23.491  28.525  1.00  0.00     0.049 A 
ATOM     52  C   UNL A   1      46.742  28.587  28.817  1.00  0.00     0.074 A 
ATOM     53  C   UNL A   1      43.408  23.122  29.727  1.00  0.00     0.029 A 
ATOM     54  N   UNL A   1      45.225  23.982  28.843  1.00  0.00    -0.354 N 
ATOM     55  N   UNL A   1      46.806  27.909  29.930  1.00  0.00    -0.248 NA
ATOM     56  C   UNL A   1      46.816  27.798  27.598  1.00  0.00     0.031 C 
ATOM     57  C   UNL A   1      44.112  23.874  30.714  1.00  0.00     0.029 A 
ATOM     58  C   UNL A   1      45.121  24.590  30.068  1.00  0.00     0.049 A 
ATOM     59  H   UNL A   1      46.039  23.910  28.295  1.00  0.00     0.167 HD
ATOM     60  C   UNL A   1      46.483  26.609  29.568  1.00  0.00     0.074 A 
ATOM     61  C   UNL A   1      46.585  26.585  28.109  1.00  0.00     0.031 C 
ATOM     62  C   UNL A   1      45.879  25.759  30.450  1.00  0.00     0.037 A 
BRANCH  49  63
ATOM     63  C   UNL A   1      44.190  23.260  25.965  1.00  0.00     0.057 A 
ATOM     64  C   UNL A   1      44.196  21.878  25.692  1.00  0.00     0.134 A 
ATOM     65  C   UNL A   1      45.113  24.019  25.218  1.00  0.00     0.134 A 
ATOM     66  F   UNL A   1      43.365  21.044  26.336  1.00  0.00    -0.206 F 
ATOM     67  C   UNL A   1      45.116  21.288  24.817  1.00  0.00     0.040 A 
ATOM     68  C   UNL A   1      46.001  23.445  24.304  1.00  0.00     0.040 A 
ATOM     69  F   UNL A   1      45.280  25.333  25.401  1.00  0.00    -0.206 F 
ATOM     70  C   UNL A   1      46.032  22.072  24.128  1.00  0.00     0.006 A 
ENDBRANCH  49  63
BRANCH  50  71
ATOM     71  C   UNL A   1      46.896  31.098  28.163  1.00  0.00     0.057 A 
ATOM     72  C   UNL A   1      46.529  31.677  26.941  1.00  0.00     0.134 A 
ATOM     73  C   UNL A   1      47.799  31.836  28.949  1.00  0.00     0.134 A 
ATOM     74  F   UNL A   1      45.647  31.066  26.137  1.00  0.00    -0.206 F 
ATOM     75  C   UNL A   1      47.003  32.933  26.538  1.00  0.00     0.040 A 
ATOM     76  C   UNL A   1      48.283  33.088  28.557  1.00  0.00     0.040 A 
ATOM     77  F   UNL A   1      48.168  31.409  30.166  1.00  0.00    -0.206 F 
ATOM     78  C   UNL A   1      47.874  33.649  27.354  1.00  0.00     0.006 A 
ENDBRANCH  50  71
BRANCH  62  79
ATOM     79  C   UNL A   1      45.787  26.183  31.892  1.00  0.00     0.057 A 
ATOM     80  C   UNL A   1      44.656  26.778  32.471  1.00  0.00     0.134 A 
ATOM     81  C   UNL A   1      46.823  25.827  32.761  1.00  0.00     0.134 A 
ATOM     82  F   UNL A   1      43.571  27.066  31.743  1.00  0.00    -0.206 F 
ATOM     83  C   UNL A   1      44.578  27.042  33.843  1.00  0.00     0.040 A 
ATOM     84  C   UNL A   1      46.746  26.056  34.137  1.00  0.00     0.040 A 
ATOM     85  F   UNL A   1      47.915  25.203  32.290  1.00  0.00    -0.206 F 
ATOM     86  C   UNL A   1      45.624  26.674  34.682  1.00  0.00     0.006 A 
ENDBRANCH  62  79
ENDBRANCH  36  37
ENDBRANCH  28  31
ENDBRANCH  26  27
ENDBRANCH  25  26
ENDBRANCH   1  25
TORSDOF 14
ENDMDL
MODEL 3
REMARK VINA RESULT:     -12.6      3.356      8.108
REMARK SMILES CCc1c(C(=O)NCC(=O)NCCCNC(=O)c2ccc(-c3c4nc(c(-c5c(F)cccc5F)c5ccc([nH]5)c(-c5c(F)cccc5F)c5nc(c(-c6c(F)cccc6F)c6ccc3[nH]6)C=C5)C=C4)cc2)nnn1-c1ccc(Cl)cc1
REMARK SMILES IDX 12 1 11 2 9 3 10 4 8 6 7 7 5 8 6 9 4 11 3 12 74 13 72 14
REMARK SMILES IDX 73 15 2 16 1 17 75 18 76 19 81 20 77 21 80 22 78 23 79 24
REMARK SMILES IDX 13 25 14 26 15 27 16 28 17 30 18 31 19 32 71 33 20 34 70 35
REMARK SMILES IDX 21 36 22 37 23 38 64 39 24 40 69 41 63 42 65 43 25 44 68 45
REMARK SMILES IDX 62 46 61 47 26 49 52 50 35 51 51 52 36 53 39 54 50 55 66 56
REMARK SMILES IDX 37 57 38 58 49 60 67 61 40 62 27 63 28 64 33 65 29 66 30 67
REMARK SMILES IDX 32 68 34 69 31 70 53 71 54 72 59 73 55 74 56 75 58 76 60 77
REMARK SMILES IDX 57 78 41 79 42 80 47 81 43 82 44 83 46 84 48 85 45 86
REMARK H PARENT 11 5 7 10 15 29 65 48 39 59
REMARK Flexibility Score: inf
ROOT
ATOM      1  C   UNL A   1      35.998  21.479  24.945  1.00  0.00     0.117 C 
ENDROOT
BRANCH   1   2
ATOM      2  N   UNL A   1      34.912  21.780  24.033  1.00  0.00    -0.355 N 
ATOM      3  C   UNL A   1      33.571  21.574  24.127  1.00  0.00     0.239 C 
ATOM      4  O   UNL A   1      32.870  22.099  23.255  1.00  0.00    -0.273 OA
ATOM      5  H   UNL A   1      35.197  22.211  23.194  1.00  0.00     0.163 HD
BRANCH   3   6
ATOM      6  C   UNL A   1      32.895  20.877  25.315  1.00  0.00     0.216 C 
BRANCH   6   7
ATOM      7  N   UNL A   1      32.946  21.472  26.614  1.00  0.00    -0.342 N 
ATOM      8  C   UNL A   1      32.390  22.578  27.178  1.00  0.00     0.274 C 
ATOM      9  O   UNL A   1      32.492  22.564  28.413  1.00  0.00    -0.267 OA
ATOM     10  H   UNL A   1      33.514  20.969  27.241  1.00  0.00     0.164 HD
BRANCH   8  11
ATOM     11  C   UNL A   1      31.796  23.753  26.505  1.00  0.00     0.174 A 
ATOM     12  C   UNL A   1      32.118  24.773  25.582  1.00  0.00     0.077 A 
ATOM     13  N   UNL A   1      30.954  25.567  25.601  1.00  0.00    -0.217 N 
ATOM     14  N   UNL A   1      30.562  24.079  27.065  1.00  0.00    -0.124 NA
ATOM     15  N   UNL A   1      30.159  25.242  26.619  1.00  0.00    -0.061 NA
BRANCH  12  16
ATOM     16  C   UNL A   1      33.328  25.350  24.867  1.00  0.00     0.055 C 
ATOM     17  C   UNL A   1      34.733  25.030  25.324  1.00  0.00     0.011 C 
ENDBRANCH  12  16
BRANCH  13  18
ATOM     18  C   UNL A   1      30.653  26.704  24.825  1.00  0.00     0.067 A 
ATOM     19  C   UNL A   1      29.642  26.632  23.860  1.00  0.00     0.030 A 
ATOM     20  C   UNL A   1      31.334  27.900  25.076  1.00  0.00     0.030 A 
ATOM     21  C   UNL A   1      29.255  27.797  23.196  1.00  0.00     0.023 A 
ATOM     22  C   UNL A   1      30.964  29.050  24.383  1.00  0.00     0.023 A 
ATOM     23  C   UNL A   1      29.913  29.000  23.465  1.00  0.00     0.041 A 
ATOM     24  Cl  UNL A   1      29.411  30.442  22.673  1.00  0.00    -0.084 Cl
ENDBRANCH  13  18
ENDBRANCH   8  11
ENDBRANCH   6   7
ENDBRANCH   3   6
ENDBRANCH   1   2
BRANCH   1  25
ATOM     25  C   UNL A   1      37.337  22.102  24.569  1.00  0.00     0.042 C 
BRANCH  25  26
ATOM     26  C   UNL A   1      37.942  22.880  25.721  1.00  0.00     0.118 C 
BRANCH  26  27
ATOM     27  N   UNL A   1      38.831  22.061  26.555  1.00  0.00    -0.352 N 
ATOM     28  C   UNL A   1      39.988  22.456  27.195  1.00  0.00     0.251 C 
ATOM     29  H   UNL A   1      38.571  21.118  26.674  1.00  0.00     0.163 HD
ATOM     30  O   UNL A   1      40.832  21.635  27.560  1.00  0.00    -0.269 OA
BRANCH  28  31
ATOM     31  C   UNL A   1      40.191  23.888  27.438  1.00  0.00     0.039 A 
ATOM     32  C   UNL A   1      39.154  24.816  27.327  1.00  0.00     0.014 A 
ATOM     33  C   UNL A   1      41.449  24.266  27.895  1.00  0.00     0.014 A 
ATOM     34  C   UNL A   1      39.374  26.114  27.775  1.00  0.00     0.010 A 
ATOM     35  C   UNL A   1      41.591  25.471  28.524  1.00  0.00     0.010 A 
ATOM     36  C   UNL A   1      40.592  26.428  28.404  1.00  0.00    -0.014 A 
BRANCH  36  37
ATOM     37  C   UNL A   1      40.815  27.726  29.026  1.00  0.00     0.031 A 
ATOM     38  C   UNL A   1      41.980  28.485  28.498  1.00  0.00     0.074 A 
ATOM     39  C   UNL A   1      39.924  28.294  29.870  1.00  0.00     0.049 A 
ATOM     40  N   UNL A   1      43.080  28.757  29.116  1.00  0.00    -0.248 NA
ATOM     41  C   UNL A   1      41.986  28.873  27.079  1.00  0.00     0.031 C 
ATOM     42  C   UNL A   1      38.588  27.824  30.259  1.00  0.00     0.029 A 
ATOM     43  N   UNL A   1      40.001  29.498  30.497  1.00  0.00    -0.354 N 
ATOM     44  C   UNL A   1      43.839  29.528  28.240  1.00  0.00     0.074 A 
ATOM     45  C   UNL A   1      43.199  29.417  26.955  1.00  0.00     0.031 C 
ATOM     46  C   UNL A   1      37.901  28.828  30.847  1.00  0.00     0.029 A 
ATOM     47  C   UNL A   1      38.806  29.942  31.048  1.00  0.00     0.049 A 
ATOM     48  H   UNL A   1      40.838  30.013  30.557  1.00  0.00     0.167 HD
ATOM     49  C   UNL A   1      44.796  30.379  28.707  1.00  0.00     0.037 A 
ATOM     50  C   UNL A   1      38.577  31.148  31.623  1.00  0.00     0.037 A 
ATOM     51  C   UNL A   1      45.126  30.079  30.079  1.00  0.00     0.049 A 
ATOM     52  C   UNL A   1      39.898  31.706  32.003  1.00  0.00     0.074 A 
ATOM     53  C   UNL A   1      45.618  28.969  30.739  1.00  0.00     0.029 A 
ATOM     54  N   UNL A   1      44.581  30.878  31.055  1.00  0.00    -0.354 N 
ATOM     55  N   UNL A   1      40.651  31.200  32.941  1.00  0.00    -0.248 NA
ATOM     56  C   UNL A   1      40.589  32.525  31.019  1.00  0.00     0.031 C 
ATOM     57  C   UNL A   1      44.898  28.926  31.969  1.00  0.00     0.029 A 
ATOM     58  C   UNL A   1      44.073  30.050  32.022  1.00  0.00     0.049 A 
ATOM     59  H   UNL A   1      44.560  31.862  31.060  1.00  0.00     0.167 HD
ATOM     60  C   UNL A   1      41.939  31.259  32.428  1.00  0.00     0.074 A 
ATOM     61  C   UNL A   1      41.849  32.163  31.280  1.00  0.00     0.031 C 
ATOM     62  C   UNL A   1      42.889  30.349  32.794  1.00  0.00     0.037 A 
BRANCH  49  63
ATOM     63  C   UNL A   1      45.154  31.705  28.078  1.00  0.00     0.057 A 
ATOM     64  C   UNL A   1      44.160  32.697  27.966  1.00  0.00     0.134 A 
ATOM     65  C   UNL A   1      46.315  31.937  27.314  1.00  0.00     0.134 A 
ATOM     66  F   UNL A   1      43.006  32.595  28.643  1.00  0.00    -0.206 F 
ATOM     67  C   UNL A   1      44.274  33.781  27.088  1.00  0.00     0.040 A 
ATOM     68  C   UNL A   1      46.460  33.044  26.473  1.00  0.00     0.040 A 
ATOM     69  F   UNL A   1      47.326  31.064  27.257  1.00  0.00    -0.206 F 
ATOM     70  C   UNL A   1      45.424  33.951  26.328  1.00  0.00     0.006 A 
ENDBRANCH  49  63
BRANCH  50  71
ATOM     71  C   UNL A   1      37.342  31.962  31.612  1.00  0.00     0.057 A 
ATOM     72  C   UNL A   1      36.825  32.480  30.417  1.00  0.00     0.134 A 
ATOM     73  C   UNL A   1      36.486  32.011  32.727  1.00  0.00     0.134 A 
ATOM     74  F   UNL A   1      37.552  32.446  29.291  1.00  0.00    -0.206 F 
ATOM     75  C   UNL A   1      35.521  32.985  30.325  1.00  0.00     0.040 A 
ATOM     76  C   UNL A   1      35.184  32.516  32.651  1.00  0.00     0.040 A 
ATOM     77  F   UNL A   1      36.852  31.484  33.905  1.00  0.00    -0.206 F 
ATOM     78  C   UNL A   1      34.691  32.992  31.442  1.00  0.00     0.006 A 
ENDBRANCH  50  71
BRANCH  62  79
ATOM     79  C   UNL A   1      42.580  29.427  33.943  1.00  0.00     0.057 A 
ATOM     80  C   UNL A   1      41.969  28.171  33.806  1.00  0.00     0.134 A 
ATOM     81  C   UNL A   1      43.064  29.755  35.213  1.00  0.00     0.134 A 
ATOM     82  F   UNL A   1      41.561  27.721  32.615  1.00  0.00    -0.206 F 
ATOM     83  C   UNL A   1      41.813  27.301  34.892  1.00  0.00     0.040 A 
ATOM     84  C   UNL A   1      42.943  28.883  36.299  1.00  0.00     0.040 A 
ATOM     85  F   UNL A   1      43.709  30.915  35.411  1.00  0.00    -0.206 F 
ATOM     86  C   UNL A   1      42.308  27.654  36.142  1.00  0.00     0.006 A 
ENDBRANCH  62  79
ENDBRANCH  36  37
ENDBRANCH  28  31
ENDBRANCH  26  27
ENDBRANCH  25  26
ENDBRANCH   1  25
TORSDOF 14
ENDMDL
