MODEL 1
REMARK VINA RESULT:      -9.8      0.000      0.000
REMARK SMILES CC(C)c1cc(=O)[nH]c(SCC(=O)NCCCNC(=O)c2ccc(-c3c4nc(c(-c5c(F)cccc5F)c5ccc([nH]5)c(-c5c(F)cccc5F)c5nc(c(-c6c(F)cccc6F)c6ccc3[nH]6)C=C5)C=C4)cc2)n1
REMARK SMILES IDX 15 1 14 2 12 3 13 4 11 6 10 7 9 8 4 9 5 10 75 11 6 12 7 13
REMARK SMILES IDX 8 14 2 16 1 17 3 18 16 19 17 20 18 21 19 22 20 24 21 25
REMARK SMILES IDX 22 26 74 27 23 28 73 29 24 30 25 31 26 32 67 33 27 34 72 35
REMARK SMILES IDX 66 36 68 37 28 38 71 39 65 40 64 41 29 43 55 44 38 45 54 46
REMARK SMILES IDX 39 47 42 48 53 49 69 50 40 51 41 52 52 54 70 55 43 56 30 57
REMARK SMILES IDX 31 58 36 59 32 60 33 61 35 62 37 63 34 64 56 65 57 66 62 67
REMARK SMILES IDX 58 68 59 69 61 70 63 71 60 72 44 73 45 74 50 75 46 76 47 77
REMARK SMILES IDX 49 78 51 79 48 80
REMARK H PARENT 14 5 8 15 18 23 68 42 42 53
REMARK Flexibility Score: inf
ROOT
ATOM      1  C   UNL A   1      32.836  36.193  30.963  1.00  0.00     0.117 C 
ENDROOT
BRANCH   1   2
ATOM      2  N   UNL A   1      32.992  36.807  32.268  1.00  0.00    -0.355 N 
ATOM      3  C   UNL A   1      33.913  36.585  33.248  1.00  0.00     0.230 C 
ATOM      4  O   UNL A   1      33.875  37.339  34.222  1.00  0.00    -0.274 OA
ATOM      5  H   UNL A   1      32.323  37.497  32.481  1.00  0.00     0.163 HD
BRANCH   3   6
ATOM      6  C   UNL A   1      35.018  35.556  33.084  1.00  0.00     0.178 C 
BRANCH   6   7
ATOM      7  S   UNL A   1      34.576  33.874  33.584  1.00  0.00    -0.078 SA
BRANCH   7   8
ATOM      8  C   UNL A   1      36.100  33.226  34.088  1.00  0.00     0.168 A 
ATOM      9  C   UNL A   1      37.740  31.662  34.286  1.00  0.00     0.051 A 
ATOM     10  C   UNL A   1      38.552  32.499  34.952  1.00  0.00     0.095 A 
ATOM     11  N   UNL A   1      36.483  32.021  33.849  1.00  0.00    -0.229 NA
ATOM     12  C   UNL A   1      38.070  33.854  35.249  1.00  0.00     0.251 A 
ATOM     13  O   UNL A   1      38.746  34.653  35.887  1.00  0.00    -0.269 OA
ATOM     14  N   UNL A   1      36.834  34.144  34.767  1.00  0.00    -0.301 N 
ATOM     15  H   UNL A   1      36.461  35.043  34.914  1.00  0.00     0.172 HD
BRANCH   9  16
ATOM     16  C   UNL A   1      38.198  30.243  33.974  1.00  0.00     0.032 C 
ATOM     17  C   UNL A   1      37.422  29.684  32.781  1.00  0.00     0.014 C 
ATOM     18  C   UNL A   1      39.705  30.137  33.724  1.00  0.00     0.014 C 
ENDBRANCH   9  16
ENDBRANCH   7   8
ENDBRANCH   6   7
ENDBRANCH   3   6
ENDBRANCH   1   2
BRANCH   1  19
ATOM     19  C   UNL A   1      33.106  37.182  29.831  1.00  0.00     0.042 C 
BRANCH  19  20
ATOM     20  C   UNL A   1      33.589  36.537  28.533  1.00  0.00     0.118 C 
BRANCH  20  21
ATOM     21  N   UNL A   1      32.838  35.339  28.180  1.00  0.00    -0.352 N 
ATOM     22  C   UNL A   1      33.223  34.021  28.147  1.00  0.00     0.251 C 
ATOM     23  H   UNL A   1      31.902  35.502  27.922  1.00  0.00     0.163 HD
ATOM     24  O   UNL A   1      32.471  33.187  27.650  1.00  0.00    -0.269 OA
BRANCH  22  25
ATOM     25  C   UNL A   1      34.540  33.597  28.672  1.00  0.00     0.039 A 
ATOM     26  C   UNL A   1      34.577  32.848  29.853  1.00  0.00     0.014 A 
ATOM     27  C   UNL A   1      35.732  33.947  28.033  1.00  0.00     0.014 A 
ATOM     28  C   UNL A   1      35.799  32.378  30.342  1.00  0.00     0.010 A 
ATOM     29  C   UNL A   1      36.943  33.418  28.480  1.00  0.00     0.010 A 
ATOM     30  C   UNL A   1      36.987  32.615  29.630  1.00  0.00    -0.014 A 
BRANCH  30  31
ATOM     31  C   UNL A   1      38.266  31.982  30.046  1.00  0.00     0.031 A 
ATOM     32  C   UNL A   1      39.224  32.699  30.955  1.00  0.00     0.074 A 
ATOM     33  C   UNL A   1      38.594  30.775  29.543  1.00  0.00     0.049 A 
ATOM     34  N   UNL A   1      40.408  32.321  31.370  1.00  0.00    -0.248 NA
ATOM     35  C   UNL A   1      38.809  34.020  31.449  1.00  0.00     0.031 C 
ATOM     36  C   UNL A   1      37.772  29.994  28.616  1.00  0.00     0.029 A 
ATOM     37  N   UNL A   1      39.710  29.997  29.730  1.00  0.00    -0.354 N 
ATOM     38  C   UNL A   1      40.881  33.357  32.165  1.00  0.00     0.074 A 
ATOM     39  C   UNL A   1      39.877  34.400  32.136  1.00  0.00     0.031 C 
ATOM     40  C   UNL A   1      38.399  28.843  28.333  1.00  0.00     0.029 A 
ATOM     41  C   UNL A   1      39.687  28.822  29.017  1.00  0.00     0.049 A 
ATOM     42  H   UNL A   1      40.456  30.256  30.318  1.00  0.00     0.167 HD
ATOM     43  C   UNL A   1      42.037  33.425  32.868  1.00  0.00     0.037 A 
ATOM     44  C   UNL A   1      40.606  27.843  28.913  1.00  0.00     0.037 A 
ATOM     45  C   UNL A   1      43.032  32.383  32.901  1.00  0.00     0.049 A 
ATOM     46  C   UNL A   1      41.894  27.960  29.679  1.00  0.00     0.074 A 
ATOM     47  C   UNL A   1      44.208  32.336  33.630  1.00  0.00     0.029 A 
ATOM     48  N   UNL A   1      42.973  31.209  32.164  1.00  0.00    -0.354 N 
ATOM     49  N   UNL A   1      42.294  28.912  30.485  1.00  0.00    -0.248 NA
ATOM     50  C   UNL A   1      42.859  26.862  29.520  1.00  0.00     0.031 C 
ATOM     51  C   UNL A   1      44.888  31.163  33.291  1.00  0.00     0.029 A 
ATOM     52  C   UNL A   1      44.109  30.448  32.397  1.00  0.00     0.049 A 
ATOM     53  H   UNL A   1      42.235  30.954  31.564  1.00  0.00     0.167 HD
ATOM     54  C   UNL A   1      43.542  28.518  30.949  1.00  0.00     0.074 A 
ATOM     55  C   UNL A   1      43.824  27.231  30.350  1.00  0.00     0.031 C 
ATOM     56  C   UNL A   1      44.381  29.166  31.794  1.00  0.00     0.037 A 
BRANCH  43  57
ATOM     57  C   UNL A   1      42.295  34.674  33.663  1.00  0.00     0.057 A 
ATOM     58  C   UNL A   1      42.082  34.728  35.047  1.00  0.00     0.134 A 
ATOM     59  C   UNL A   1      42.812  35.821  33.046  1.00  0.00     0.134 A 
ATOM     60  F   UNL A   1      41.581  33.668  35.699  1.00  0.00    -0.206 F 
ATOM     61  C   UNL A   1      42.350  35.883  35.783  1.00  0.00     0.040 A 
ATOM     62  C   UNL A   1      43.112  36.972  33.776  1.00  0.00     0.040 A 
ATOM     63  F   UNL A   1      43.051  35.836  31.726  1.00  0.00    -0.206 F 
ATOM     64  C   UNL A   1      42.874  37.008  35.149  1.00  0.00     0.006 A 
ENDBRANCH  43  57
BRANCH  44  65
ATOM     65  C   UNL A   1      40.339  26.662  28.053  1.00  0.00     0.057 A 
ATOM     66  C   UNL A   1      40.936  26.536  26.792  1.00  0.00     0.134 A 
ATOM     67  C   UNL A   1      39.475  25.639  28.460  1.00  0.00     0.134 A 
ATOM     68  F   UNL A   1      41.759  27.492  26.337  1.00  0.00    -0.206 F 
ATOM     69  C   UNL A   1      40.666  25.448  25.960  1.00  0.00     0.040 A 
ATOM     70  C   UNL A   1      39.217  24.532  27.651  1.00  0.00     0.040 A 
ATOM     71  F   UNL A   1      38.878  25.695  29.659  1.00  0.00    -0.206 F 
ATOM     72  C   UNL A   1      39.808  24.439  26.392  1.00  0.00     0.006 A 
ENDBRANCH  44  65
BRANCH  56  73
ATOM     73  C   UNL A   1      45.670  28.480  32.144  1.00  0.00     0.057 A 
ATOM     74  C   UNL A   1      45.765  27.587  33.220  1.00  0.00     0.134 A 
ATOM     75  C   UNL A   1      46.823  28.692  31.378  1.00  0.00     0.134 A 
ATOM     76  F   UNL A   1      44.702  27.348  34.003  1.00  0.00    -0.206 F 
ATOM     77  C   UNL A   1      46.967  26.951  33.536  1.00  0.00     0.040 A 
ATOM     78  C   UNL A   1      48.022  28.040  31.666  1.00  0.00     0.040 A 
ATOM     79  F   UNL A   1      46.800  29.528  30.329  1.00  0.00    -0.206 F 
ATOM     80  C   UNL A   1      48.098  27.172  32.753  1.00  0.00     0.006 A 
ENDBRANCH  56  73
ENDBRANCH  30  31
ENDBRANCH  22  25
ENDBRANCH  20  21
ENDBRANCH  19  20
ENDBRANCH   1  19
TORSDOF 13
ENDMDL
MODEL 2
REMARK VINA RESULT:      -9.6      4.370      9.513
REMARK SMILES CC(C)c1cc(=O)[nH]c(SCC(=O)NCCCNC(=O)c2ccc(-c3c4nc(c(-c5c(F)cccc5F)c5ccc([nH]5)c(-c5c(F)cccc5F)c5nc(c(-c6c(F)cccc6F)c6ccc3[nH]6)C=C5)C=C4)cc2)n1
REMARK SMILES IDX 15 1 14 2 12 3 13 4 11 6 10 7 9 8 4 9 5 10 75 11 6 12 7 13
REMARK SMILES IDX 8 14 2 16 1 17 3 18 16 19 17 20 18 21 19 22 20 24 21 25
REMARK SMILES IDX 22 26 74 27 23 28 73 29 24 30 25 31 26 32 67 33 27 34 72 35
REMARK SMILES IDX 66 36 68 37 28 38 71 39 65 40 64 41 29 43 55 44 38 45 54 46
REMARK SMILES IDX 39 47 42 48 53 49 69 50 40 51 41 52 52 54 70 55 43 56 30 57
REMARK SMILES IDX 31 58 36 59 32 60 33 61 35 62 37 63 34 64 56 65 57 66 62 67
REMARK SMILES IDX 58 68 59 69 61 70 63 71 60 72 44 73 45 74 50 75 46 76 47 77
REMARK SMILES IDX 49 78 51 79 48 80
REMARK H PARENT 14 5 8 15 18 23 68 42 42 53
REMARK Flexibility Score: inf
ROOT
ATOM      1  C   UNL A   1      31.778  30.299  26.225  1.00  0.00     0.117 C 
ENDROOT
BRANCH   1   2
ATOM      2  N   UNL A   1      32.689  30.079  25.119  1.00  0.00    -0.355 N 
ATOM      3  C   UNL A   1      32.786  29.039  24.243  1.00  0.00     0.230 C 
ATOM      4  O   UNL A   1      33.593  29.167  23.321  1.00  0.00    -0.274 OA
ATOM      5  H   UNL A   1      33.347  30.798  24.978  1.00  0.00     0.163 HD
BRANCH   3   6
ATOM      6  C   UNL A   1      31.849  27.846  24.317  1.00  0.00     0.178 C 
BRANCH   6   7
ATOM      7  S   UNL A   1      31.037  27.414  22.757  1.00  0.00    -0.078 SA
BRANCH   7   8
ATOM      8  C   UNL A   1      29.758  28.577  22.673  1.00  0.00     0.168 A 
ATOM      9  C   UNL A   1      28.789  30.582  22.211  1.00  0.00     0.051 A 
ATOM     10  C   UNL A   1      27.575  30.164  22.605  1.00  0.00     0.095 A 
ATOM     11  N   UNL A   1      29.911  29.783  22.251  1.00  0.00    -0.229 NA
ATOM     12  C   UNL A   1      27.441  28.796  23.124  1.00  0.00     0.251 A 
ATOM     13  O   UNL A   1      26.370  28.366  23.536  1.00  0.00    -0.269 OA
ATOM     14  N   UNL A   1      28.582  28.060  23.111  1.00  0.00    -0.301 N 
ATOM     15  H   UNL A   1      28.555  27.128  23.426  1.00  0.00     0.172 HD
BRANCH   9  16
ATOM     16  C   UNL A   1      28.970  31.999  21.682  1.00  0.00     0.032 C 
ATOM     17  C   UNL A   1      28.025  32.254  20.507  1.00  0.00     0.014 C 
ATOM     18  C   UNL A   1      28.781  33.073  22.757  1.00  0.00     0.014 C 
ENDBRANCH   9  16
ENDBRANCH   7   8
ENDBRANCH   6   7
ENDBRANCH   3   6
ENDBRANCH   1   2
BRANCH   1  19
ATOM     19  C   UNL A   1      31.565  31.786  26.501  1.00  0.00     0.042 C 
BRANCH  19  20
ATOM     20  C   UNL A   1      32.714  32.458  27.251  1.00  0.00     0.118 C 
BRANCH  20  21
ATOM     21  N   UNL A   1      32.447  33.856  27.565  1.00  0.00    -0.352 N 
ATOM     22  C   UNL A   1      33.025  34.690  28.491  1.00  0.00     0.251 C 
ATOM     23  H   UNL A   1      31.735  34.270  27.026  1.00  0.00     0.163 HD
ATOM     24  O   UNL A   1      32.524  35.790  28.706  1.00  0.00    -0.269 OA
BRANCH  22  25
ATOM     25  C   UNL A   1      34.222  34.270  29.254  1.00  0.00     0.039 A 
ATOM     26  C   UNL A   1      34.043  33.713  30.523  1.00  0.00     0.014 A 
ATOM     27  C   UNL A   1      35.513  34.442  28.746  1.00  0.00     0.014 A 
ATOM     28  C   UNL A   1      35.147  33.249  31.243  1.00  0.00     0.010 A 
ATOM     29  C   UNL A   1      36.607  33.914  29.431  1.00  0.00     0.010 A 
ATOM     30  C   UNL A   1      36.433  33.298  30.680  1.00  0.00    -0.014 A 
BRANCH  30  31
ATOM     31  C   UNL A   1      37.590  32.657  31.360  1.00  0.00     0.031 A 
ATOM     32  C   UNL A   1      38.263  31.450  30.770  1.00  0.00     0.074 A 
ATOM     33  C   UNL A   1      37.992  33.132  32.556  1.00  0.00     0.049 A 
ATOM     34  N   UNL A   1      39.243  30.731  31.257  1.00  0.00    -0.248 NA
ATOM     35  C   UNL A   1      37.758  30.976  29.473  1.00  0.00     0.031 C 
ATOM     36  C   UNL A   1      37.394  34.270  33.258  1.00  0.00     0.029 A 
ATOM     37  N   UNL A   1      38.991  32.712  33.399  1.00  0.00    -0.354 N 
ATOM     38  C   UNL A   1      39.468  29.718  30.333  1.00  0.00     0.074 A 
ATOM     39  C   UNL A   1      38.490  29.887  29.280  1.00  0.00     0.031 C 
ATOM     40  C   UNL A   1      38.049  34.470  34.411  1.00  0.00     0.029 A 
ATOM     41  C   UNL A   1      39.081  33.449  34.556  1.00  0.00     0.049 A 
ATOM     42  H   UNL A   1      39.586  31.954  33.196  1.00  0.00     0.167 HD
ATOM     43  C   UNL A   1      40.414  28.749  30.353  1.00  0.00     0.037 A 
ATOM     44  C   UNL A   1      39.892  33.311  35.621  1.00  0.00     0.037 A 
ATOM     45  C   UNL A   1      41.391  28.586  31.399  1.00  0.00     0.049 A 
ATOM     46  C   UNL A   1      40.910  32.206  35.632  1.00  0.00     0.074 A 
ATOM     47  C   UNL A   1      42.426  27.670  31.479  1.00  0.00     0.029 A 
ATOM     48  N   UNL A   1      41.448  29.352  32.555  1.00  0.00    -0.354 N 
ATOM     49  N   UNL A   1      41.159  31.302  34.716  1.00  0.00    -0.248 NA
ATOM     50  C   UNL A   1      41.763  32.104  36.825  1.00  0.00     0.031 C 
ATOM     51  C   UNL A   1      43.072  27.842  32.706  1.00  0.00     0.029 A 
ATOM     52  C   UNL A   1      42.480  28.905  33.367  1.00  0.00     0.049 A 
ATOM     53  H   UNL A   1      40.846  30.101  32.768  1.00  0.00     0.167 HD
ATOM     54  C   UNL A   1      42.211  30.541  35.210  1.00  0.00     0.074 A 
ATOM     55  C   UNL A   1      42.567  31.102  36.495  1.00  0.00     0.031 C 
ATOM     56  C   UNL A   1      42.826  29.471  34.648  1.00  0.00     0.037 A 
BRANCH  43  57
ATOM     57  C   UNL A   1      40.439  27.778  29.206  1.00  0.00     0.057 A 
ATOM     58  C   UNL A   1      39.636  26.630  29.190  1.00  0.00     0.134 A 
ATOM     59  C   UNL A   1      41.239  28.021  28.081  1.00  0.00     0.134 A 
ATOM     60  F   UNL A   1      38.854  26.334  30.238  1.00  0.00    -0.206 F 
ATOM     61  C   UNL A   1      39.645  25.747  28.109  1.00  0.00     0.040 A 
ATOM     62  C   UNL A   1      41.234  27.161  26.981  1.00  0.00     0.040 A 
ATOM     63  F   UNL A   1      42.025  29.106  28.023  1.00  0.00    -0.206 F 
ATOM     64  C   UNL A   1      40.440  26.015  26.996  1.00  0.00     0.006 A 
ENDBRANCH  43  57
BRANCH  44  65
ATOM     65  C   UNL A   1      39.778  34.248  36.769  1.00  0.00     0.057 A 
ATOM     66  C   UNL A   1      39.044  33.907  37.912  1.00  0.00     0.134 A 
ATOM     67  C   UNL A   1      40.387  35.509  36.748  1.00  0.00     0.134 A 
ATOM     68  F   UNL A   1      38.421  32.721  37.984  1.00  0.00    -0.206 F 
ATOM     69  C   UNL A   1      38.900  34.792  38.981  1.00  0.00     0.040 A 
ATOM     70  C   UNL A   1      40.276  36.393  37.822  1.00  0.00     0.040 A 
ATOM     71  F   UNL A   1      41.111  35.893  35.688  1.00  0.00    -0.206 F 
ATOM     72  C   UNL A   1      39.523  36.038  38.939  1.00  0.00     0.006 A 
ENDBRANCH  44  65
BRANCH  56  73
ATOM     73  C   UNL A   1      43.965  28.856  35.408  1.00  0.00     0.057 A 
ATOM     74  C   UNL A   1      45.291  29.270  35.219  1.00  0.00     0.134 A 
ATOM     75  C   UNL A   1      43.732  27.857  36.362  1.00  0.00     0.134 A 
ATOM     76  F   UNL A   1      45.587  30.213  34.311  1.00  0.00    -0.206 F 
ATOM     77  C   UNL A   1      46.344  28.694  35.933  1.00  0.00     0.040 A 
ATOM     78  C   UNL A   1      44.772  27.296  37.102  1.00  0.00     0.040 A 
ATOM     79  F   UNL A   1      42.486  27.420  36.599  1.00  0.00    -0.206 F 
ATOM     80  C   UNL A   1      46.084  27.709  36.883  1.00  0.00     0.006 A 
ENDBRANCH  56  73
ENDBRANCH  30  31
ENDBRANCH  22  25
ENDBRANCH  20  21
ENDBRANCH  19  20
ENDBRANCH   1  19
TORSDOF 13
ENDMDL
MODEL 3
REMARK VINA RESULT:      -9.5      6.575     11.982
REMARK SMILES CC(C)c1cc(=O)[nH]c(SCC(=O)NCCCNC(=O)c2ccc(-c3c4nc(c(-c5c(F)cccc5F)c5ccc([nH]5)c(-c5c(F)cccc5F)c5nc(c(-c6c(F)cccc6F)c6ccc3[nH]6)C=C5)C=C4)cc2)n1
REMARK SMILES IDX 15 1 14 2 12 3 13 4 11 6 10 7 9 8 4 9 5 10 75 11 6 12 7 13
REMARK SMILES IDX 8 14 2 16 1 17 3 18 16 19 17 20 18 21 19 22 20 24 21 25
REMARK SMILES IDX 22 26 74 27 23 28 73 29 24 30 25 31 26 32 67 33 27 34 72 35
REMARK SMILES IDX 66 36 68 37 28 38 71 39 65 40 64 41 29 43 55 44 38 45 54 46
REMARK SMILES IDX 39 47 42 48 53 49 69 50 40 51 41 52 52 54 70 55 43 56 30 57
REMARK SMILES IDX 31 58 36 59 32 60 33 61 35 62 37 63 34 64 56 65 57 66 62 67
REMARK SMILES IDX 58 68 59 69 61 70 63 71 60 72 44 73 45 74 50 75 46 76 47 77
REMARK SMILES IDX 49 78 51 79 48 80
REMARK H PARENT 14 5 8 15 18 23 68 42 42 53
REMARK Flexibility Score: inf
ROOT
ATOM      1  C   UNL A   1      36.642  20.996  24.972  1.00  0.00     0.117 C 
ENDROOT
BRANCH   1   2
ATOM      2  N   UNL A   1      35.850  21.077  26.185  1.00  0.00    -0.355 N 
ATOM      3  C   UNL A   1      34.572  21.505  26.383  1.00  0.00     0.230 C 
ATOM      4  O   UNL A   1      34.109  21.358  27.516  1.00  0.00    -0.274 OA
ATOM      5  H   UNL A   1      36.313  20.773  26.999  1.00  0.00     0.163 HD
BRANCH   3   6
ATOM      6  C   UNL A   1      33.713  22.007  25.235  1.00  0.00     0.178 C 
BRANCH   6   7
ATOM      7  S   UNL A   1      32.080  21.235  25.108  1.00  0.00    -0.078 SA
BRANCH   7   8
ATOM      8  C   UNL A   1      32.468  19.643  24.548  1.00  0.00     0.168 A 
ATOM      9  C   UNL A   1      33.163  17.484  24.716  1.00  0.00     0.051 A 
ATOM     10  C   UNL A   1      32.936  17.238  23.415  1.00  0.00     0.095 A 
ATOM     11  N   UNL A   1      32.936  18.711  25.301  1.00  0.00    -0.229 NA
ATOM     12  C   UNL A   1      32.444  18.334  22.571  1.00  0.00     0.251 A 
ATOM     13  O   UNL A   1      32.254  18.187  21.369  1.00  0.00    -0.269 OA
ATOM     14  N   UNL A   1      32.220  19.506  23.220  1.00  0.00    -0.301 N 
ATOM     15  H   UNL A   1      31.869  20.275  22.715  1.00  0.00     0.172 HD
BRANCH   9  16
ATOM     16  C   UNL A   1      33.690  16.377  25.619  1.00  0.00     0.032 C 
ATOM     17  C   UNL A   1      32.719  15.194  25.632  1.00  0.00     0.014 C 
ATOM     18  C   UNL A   1      35.096  15.904  25.238  1.00  0.00     0.014 C 
ENDBRANCH   9  16
ENDBRANCH   7   8
ENDBRANCH   6   7
ENDBRANCH   3   6
ENDBRANCH   1   2
BRANCH   1  19
ATOM     19  C   UNL A   1      37.719  19.919  25.065  1.00  0.00     0.042 C 
BRANCH  19  20
ATOM     20  C   UNL A   1      39.061  20.414  25.601  1.00  0.00     0.118 C 
BRANCH  20  21
ATOM     21  N   UNL A   1      40.043  19.348  25.751  1.00  0.00    -0.352 N 
ATOM     22  C   UNL A   1      41.376  19.399  26.080  1.00  0.00     0.251 C 
ATOM     23  H   UNL A   1      39.693  18.442  25.589  1.00  0.00     0.163 HD
ATOM     24  O   UNL A   1      42.059  18.384  25.981  1.00  0.00    -0.269 OA
BRANCH  22  25
ATOM     25  C   UNL A   1      42.005  20.663  26.521  1.00  0.00     0.039 A 
ATOM     26  C   UNL A   1      42.542  21.515  25.552  1.00  0.00     0.014 A 
ATOM     27  C   UNL A   1      42.092  21.006  27.873  1.00  0.00     0.014 A 
ATOM     28  C   UNL A   1      43.087  22.746  25.930  1.00  0.00     0.010 A 
ATOM     29  C   UNL A   1      42.568  22.264  28.244  1.00  0.00     0.010 A 
ATOM     30  C   UNL A   1      43.056  23.153  27.274  1.00  0.00    -0.014 A 
BRANCH  30  31
ATOM     31  C   UNL A   1      43.477  24.524  27.667  1.00  0.00     0.031 A 
ATOM     32  C   UNL A   1      42.460  25.573  28.020  1.00  0.00     0.074 A 
ATOM     33  C   UNL A   1      44.786  24.841  27.639  1.00  0.00     0.049 A 
ATOM     34  N   UNL A   1      42.647  26.833  28.326  1.00  0.00    -0.248 NA
ATOM     35  C   UNL A   1      41.049  25.160  28.009  1.00  0.00     0.031 C 
ATOM     36  C   UNL A   1      45.870  23.926  27.271  1.00  0.00     0.029 A 
ATOM     37  N   UNL A   1      45.431  26.022  27.913  1.00  0.00    -0.354 N 
ATOM     38  C   UNL A   1      41.381  27.364  28.538  1.00  0.00     0.074 A 
ATOM     39  C   UNL A   1      40.432  26.303  28.279  1.00  0.00     0.031 C 
ATOM     40  C   UNL A   1      47.042  24.572  27.362  1.00  0.00     0.029 A 
ATOM     41  C   UNL A   1      46.794  25.957  27.749  1.00  0.00     0.049 A 
ATOM     42  H   UNL A   1      44.961  26.838  28.201  1.00  0.00     0.167 HD
ATOM     43  C   UNL A   1      41.043  28.616  28.930  1.00  0.00     0.037 A 
ATOM     44  C   UNL A   1      47.738  26.907  27.879  1.00  0.00     0.037 A 
ATOM     45  C   UNL A   1      41.990  29.670  29.194  1.00  0.00     0.049 A 
ATOM     46  C   UNL A   1      47.332  28.297  28.283  1.00  0.00     0.074 A 
ATOM     47  C   UNL A   1      41.747  30.953  29.652  1.00  0.00     0.029 A 
ATOM     48  N   UNL A   1      43.362  29.565  29.015  1.00  0.00    -0.354 N 
ATOM     49  N   UNL A   1      46.137  28.764  28.552  1.00  0.00    -0.248 NA
ATOM     50  C   UNL A   1      48.407  29.292  28.404  1.00  0.00     0.031 C 
ATOM     51  C   UNL A   1      42.962  31.642  29.694  1.00  0.00     0.029 A 
ATOM     52  C   UNL A   1      43.972  30.772  29.320  1.00  0.00     0.049 A 
ATOM     53  H   UNL A   1      43.833  28.754  28.714  1.00  0.00     0.167 HD
ATOM     54  C   UNL A   1      46.319  30.097  28.897  1.00  0.00     0.074 A 
ATOM     55  C   UNL A   1      47.741  30.358  28.824  1.00  0.00     0.031 C 
ATOM     56  C   UNL A   1      45.390  31.022  29.243  1.00  0.00     0.037 A 
BRANCH  43  57
ATOM     57  C   UNL A   1      39.581  28.923  29.096  1.00  0.00     0.057 A 
ATOM     58  C   UNL A   1      38.776  29.299  28.013  1.00  0.00     0.134 A 
ATOM     59  C   UNL A   1      38.959  28.790  30.345  1.00  0.00     0.134 A 
ATOM     60  F   UNL A   1      39.309  29.453  26.791  1.00  0.00    -0.206 F 
ATOM     61  C   UNL A   1      37.413  29.556  28.170  1.00  0.00     0.040 A 
ATOM     62  C   UNL A   1      37.592  29.016  30.508  1.00  0.00     0.040 A 
ATOM     63  F   UNL A   1      39.667  28.422  31.424  1.00  0.00    -0.206 F 
ATOM     64  C   UNL A   1      36.815  29.407  29.419  1.00  0.00     0.006 A 
ENDBRANCH  43  57
BRANCH  44  65
ATOM     65  C   UNL A   1      49.165  26.578  27.629  1.00  0.00     0.057 A 
ATOM     66  C   UNL A   1      49.720  26.690  26.348  1.00  0.00     0.134 A 
ATOM     67  C   UNL A   1      50.004  26.130  28.656  1.00  0.00     0.134 A 
ATOM     68  F   UNL A   1      48.962  27.096  25.318  1.00  0.00    -0.206 F 
ATOM     69  C   UNL A   1      51.049  26.350  26.094  1.00  0.00     0.040 A 
ATOM     70  C   UNL A   1      51.343  25.813  28.422  1.00  0.00     0.040 A 
ATOM     71  F   UNL A   1      49.537  26.008  29.907  1.00  0.00    -0.206 F 
ATOM     72  C   UNL A   1      51.866  25.914  27.135  1.00  0.00     0.006 A 
ENDBRANCH  44  65
BRANCH  56  73
ATOM     73  C   UNL A   1      45.886  32.395  29.595  1.00  0.00     0.057 A 
ATOM     74  C   UNL A   1      46.263  32.733  30.902  1.00  0.00     0.134 A 
ATOM     75  C   UNL A   1      46.016  33.383  28.611  1.00  0.00     0.134 A 
ATOM     76  F   UNL A   1      46.150  31.839  31.896  1.00  0.00    -0.206 F 
ATOM     77  C   UNL A   1      46.726  34.012  31.220  1.00  0.00     0.040 A 
ATOM     78  C   UNL A   1      46.506  34.654  28.910  1.00  0.00     0.040 A 
ATOM     79  F   UNL A   1      45.682  33.124  27.337  1.00  0.00    -0.206 F 
ATOM     80  C   UNL A   1      46.855  34.974  30.220  1.00  0.00     0.006 A 
ENDBRANCH  56  73
ENDBRANCH  30  31
ENDBRANCH  22  25
ENDBRANCH  20  21
ENDBRANCH  19  20
ENDBRANCH   1  19
TORSDOF 13
ENDMDL
