MODEL 1
REMARK VINA RESULT:     -14.0      0.000      0.000
REMARK SMILES COc1ccc(-c2[nH]nc3nc(-c4ccc(C(F)(F)F)cc4)cc(C(=O)NCCCNC(=O)c4ccc(-c5c6nc(c(-c7c(F)cccc7F)c7ccc([nH]7)c(-c7c(F)cccc7F)c7nc(c(-c8c(F)cccc8F)c8ccc5[nH]8)C=C7)C=C6)cc4)c23)cc1
REMARK SMILES IDX 29 1 28 2 27 3 25 4 26 5 24 7 7 8 8 9 88 10 9 11 10 13 11 14
REMARK SMILES IDX 23 15 12 16 6 17 3 18 4 19 90 20 5 21 89 22 2 23 1 24 13 25
REMARK SMILES IDX 14 26 22 27 15 28 21 29 16 30 17 31 18 32 19 33 20 34 30 35
REMARK SMILES IDX 31 36 32 37 33 39 34 40 35 41 87 42 36 43 86 44 37 45 38 46
REMARK SMILES IDX 39 47 80 48 40 49 85 50 79 51 81 52 41 53 84 54 78 55 77 56
REMARK SMILES IDX 42 58 68 59 51 60 67 61 52 62 55 63 66 64 82 65 53 66 54 67
REMARK SMILES IDX 65 69 83 70 56 71 43 72 44 73 49 74 45 75 46 76 48 77 50 78
REMARK SMILES IDX 47 79 69 80 70 81 75 82 71 83 72 84 74 85 76 86 73 87 57 88
REMARK SMILES IDX 58 89 63 90 59 91 60 92 62 93 64 94 61 95
REMARK H PARENT 27 6 8 12 31 38 81 57 55 68
REMARK Flexibility Score: inf
ROOT
ATOM      1  C   UNL A   1      34.104  29.794  26.717  1.00  0.00     0.042 C 
ENDROOT
BRANCH   1   2
ATOM      2  C   UNL A   1      33.651  28.829  25.613  1.00  0.00     0.118 C 
BRANCH   2   3
ATOM      3  N   UNL A   1      32.747  27.804  26.107  1.00  0.00    -0.352 N 
ATOM      4  C   UNL A   1      32.624  26.445  25.939  1.00  0.00     0.252 C 
ATOM      5  O   UNL A   1      31.837  25.921  26.718  1.00  0.00    -0.269 OA
ATOM      6  H   UNL A   1      32.057  28.171  26.707  1.00  0.00     0.163 HD
BRANCH   4   7
ATOM      7  C   UNL A   1      33.390  25.644  24.952  1.00  0.00     0.055 A 
ATOM      8  C   UNL A   1      32.012  25.789  22.811  1.00  0.00     0.075 A 
ATOM      9  N   UNL A   1      32.156  25.098  21.629  1.00  0.00    -0.275 N 
ATOM     10  C   UNL A   1      33.036  25.321  23.624  1.00  0.00     0.059 A 
ATOM     11  N   UNL A   1      33.194  24.254  21.584  1.00  0.00    -0.154 NA
ATOM     12  H   UNL A   1      31.540  25.216  20.871  1.00  0.00     0.190 HD
ATOM     13  C   UNL A   1      33.756  24.384  22.783  1.00  0.00     0.182 A 
ATOM     14  N   UNL A   1      34.865  23.716  23.194  1.00  0.00    -0.226 NA
ATOM     15  C   UNL A   1      34.606  25.025  25.260  1.00  0.00     0.043 A 
ATOM     16  C   UNL A   1      35.248  24.066  24.442  1.00  0.00     0.074 A 
BRANCH   8  17
ATOM     17  C   UNL A   1      30.966  26.798  22.926  1.00  0.00     0.001 A 
ATOM     18  C   UNL A   1      28.900  28.707  23.024  1.00  0.00     0.118 A 
ATOM     19  C   UNL A   1      30.147  29.037  22.487  1.00  0.00     0.047 A 
ATOM     20  C   UNL A   1      28.695  27.428  23.539  1.00  0.00     0.047 A 
ATOM     21  C   UNL A   1      31.178  28.093  22.444  1.00  0.00     0.014 A 
ATOM     22  C   UNL A   1      29.730  26.484  23.508  1.00  0.00     0.014 A 
BRANCH  18  23
ATOM     23  O   UNL A   1      27.960  29.697  22.944  1.00  0.00    -0.497 OA
ATOM     24  C   UNL A   1      27.948  30.459  21.745  1.00  0.00     0.278 C 
ENDBRANCH  18  23
ENDBRANCH   8  17
BRANCH  16  25
ATOM     25  C   UNL A   1      36.383  23.337  25.031  1.00  0.00     0.000 A 
ATOM     26  C   UNL A   1      36.715  22.037  24.632  1.00  0.00     0.011 A 
ATOM     27  C   UNL A   1      37.238  23.995  25.938  1.00  0.00     0.011 A 
ATOM     28  C   UNL A   1      37.896  21.436  25.085  1.00  0.00     0.014 A 
ATOM     29  C   UNL A   1      38.415  23.397  26.391  1.00  0.00     0.014 A 
ATOM     30  C   UNL A   1      38.764  22.115  25.956  1.00  0.00     0.056 A 
BRANCH  30  31
ATOM     31  C   UNL A   1      40.056  21.472  26.401  1.00  0.00     0.416 C 
ATOM     32  F   UNL A   1      39.998  20.112  26.390  1.00  0.00    -0.166 F 
ATOM     33  F   UNL A   1      41.104  21.810  25.600  1.00  0.00    -0.166 F 
ATOM     34  F   UNL A   1      40.430  21.822  27.664  1.00  0.00    -0.166 F 
ENDBRANCH  30  31
ENDBRANCH  16  25
ENDBRANCH   4   7
ENDBRANCH   2   3
ENDBRANCH   1   2
BRANCH   1  35
ATOM     35  C   UNL A   1      35.309  29.260  27.476  1.00  0.00     0.118 C 
BRANCH  35  36
ATOM     36  N   UNL A   1      35.401  29.839  28.815  1.00  0.00    -0.352 N 
ATOM     37  C   UNL A   1      36.366  29.668  29.785  1.00  0.00     0.251 C 
ATOM     38  H   UNL A   1      34.662  30.441  29.063  1.00  0.00     0.163 HD
ATOM     39  O   UNL A   1      36.133  29.967  30.943  1.00  0.00    -0.269 OA
BRANCH  37  40
ATOM     40  C   UNL A   1      37.678  29.112  29.410  1.00  0.00     0.039 A 
ATOM     41  C   UNL A   1      38.401  29.671  28.354  1.00  0.00     0.014 A 
ATOM     42  C   UNL A   1      38.183  28.026  30.123  1.00  0.00     0.014 A 
ATOM     43  C   UNL A   1      39.673  29.183  28.075  1.00  0.00     0.010 A 
ATOM     44  C   UNL A   1      39.485  27.632  29.936  1.00  0.00     0.010 A 
ATOM     45  C   UNL A   1      40.219  28.178  28.890  1.00  0.00    -0.014 A 
BRANCH  45  46
ATOM     46  C   UNL A   1      41.632  27.827  28.777  1.00  0.00     0.031 A 
ATOM     47  C   UNL A   1      41.858  26.567  28.014  1.00  0.00     0.074 A 
ATOM     48  C   UNL A   1      42.631  28.677  29.101  1.00  0.00     0.049 A 
ATOM     49  N   UNL A   1      42.316  25.444  28.458  1.00  0.00    -0.248 NA
ATOM     50  C   UNL A   1      41.339  26.490  26.636  1.00  0.00     0.031 C 
ATOM     51  C   UNL A   1      42.514  30.070  29.550  1.00  0.00     0.029 A 
ATOM     52  N   UNL A   1      43.980  28.516  28.995  1.00  0.00    -0.354 N 
ATOM     53  C   UNL A   1      42.372  24.594  27.353  1.00  0.00     0.074 A 
ATOM     54  C   UNL A   1      41.553  25.205  26.345  1.00  0.00     0.031 C 
ATOM     55  C   UNL A   1      43.712  30.684  29.452  1.00  0.00     0.029 A 
ATOM     56  C   UNL A   1      44.715  29.698  29.093  1.00  0.00     0.049 A 
ATOM     57  H   UNL A   1      44.403  27.637  28.861  1.00  0.00     0.167 HD
ATOM     58  C   UNL A   1      43.334  23.633  27.273  1.00  0.00     0.037 A 
ATOM     59  C   UNL A   1      46.045  29.853  28.871  1.00  0.00     0.037 A 
ATOM     60  C   UNL A   1      43.901  23.390  28.581  1.00  0.00     0.049 A 
ATOM     61  C   UNL A   1      46.656  28.505  28.933  1.00  0.00     0.074 A 
ATOM     62  C   UNL A   1      43.416  22.972  29.805  1.00  0.00     0.029 A 
ATOM     63  N   UNL A   1      45.119  23.968  28.836  1.00  0.00    -0.354 N 
ATOM     64  N   UNL A   1      46.761  27.804  30.026  1.00  0.00    -0.248 NA
ATOM     65  C   UNL A   1      46.765  27.755  27.694  1.00  0.00     0.031 C 
ATOM     66  C   UNL A   1      44.161  23.711  30.774  1.00  0.00     0.029 A 
ATOM     67  C   UNL A   1      45.113  24.480  30.101  1.00  0.00     0.049 A 
ATOM     68  H   UNL A   1      45.876  24.009  28.206  1.00  0.00     0.167 HD
ATOM     69  C   UNL A   1      46.487  26.505  29.631  1.00  0.00     0.074 A 
ATOM     70  C   UNL A   1      46.616  26.518  28.175  1.00  0.00     0.031 C 
ATOM     71  C   UNL A   1      45.891  25.631  30.496  1.00  0.00     0.037 A 
BRANCH  58  72
ATOM     72  C   UNL A   1      44.100  23.287  26.000  1.00  0.00     0.057 A 
ATOM     73  C   UNL A   1      44.305  21.925  25.694  1.00  0.00     0.134 A 
ATOM     74  C   UNL A   1      44.904  24.176  25.256  1.00  0.00     0.134 A 
ATOM     75  F   UNL A   1      43.586  20.967  26.296  1.00  0.00    -0.206 F 
ATOM     76  C   UNL A   1      45.325  21.484  24.841  1.00  0.00     0.040 A 
ATOM     77  C   UNL A   1      45.896  23.746  24.369  1.00  0.00     0.040 A 
ATOM     78  F   UNL A   1      44.845  25.504  25.388  1.00  0.00    -0.206 F 
ATOM     79  C   UNL A   1      46.142  22.396  24.192  1.00  0.00     0.006 A 
ENDBRANCH  58  72
BRANCH  59  80
ATOM     80  C   UNL A   1      46.809  31.018  28.364  1.00  0.00     0.057 A 
ATOM     81  C   UNL A   1      46.629  31.484  27.051  1.00  0.00     0.134 A 
ATOM     82  C   UNL A   1      47.503  31.880  29.230  1.00  0.00     0.134 A 
ATOM     83  F   UNL A   1      45.950  30.753  26.156  1.00  0.00    -0.206 F 
ATOM     84  C   UNL A   1      47.071  32.748  26.636  1.00  0.00     0.040 A 
ATOM     85  C   UNL A   1      47.957  33.142  28.825  1.00  0.00     0.040 A 
ATOM     86  F   UNL A   1      47.679  31.568  30.522  1.00  0.00    -0.206 F 
ATOM     87  C   UNL A   1      47.725  33.588  27.530  1.00  0.00     0.006 A 
ENDBRANCH  59  80
BRANCH  71  88
ATOM     88  C   UNL A   1      45.860  26.000  31.954  1.00  0.00     0.057 A 
ATOM     89  C   UNL A   1      46.926  25.823  32.849  1.00  0.00     0.134 A 
ATOM     90  C   UNL A   1      44.743  26.693  32.433  1.00  0.00     0.134 A 
ATOM     91  F   UNL A   1      48.074  25.252  32.462  1.00  0.00    -0.206 F 
ATOM     92  C   UNL A   1      46.864  26.282  34.168  1.00  0.00     0.040 A 
ATOM     93  C   UNL A   1      44.683  27.189  33.735  1.00  0.00     0.040 A 
ATOM     94  F   UNL A   1      43.704  26.941  31.619  1.00  0.00    -0.206 F 
ATOM     95  C   UNL A   1      45.742  26.976  34.613  1.00  0.00     0.006 A 
ENDBRANCH  71  88
ENDBRANCH  45  46
ENDBRANCH  37  40
ENDBRANCH  35  36
ENDBRANCH   1  35
TORSDOF 14
ENDMDL
MODEL 2
REMARK VINA RESULT:     -13.7      4.637      9.266
REMARK SMILES COc1ccc(-c2[nH]nc3nc(-c4ccc(C(F)(F)F)cc4)cc(C(=O)NCCCNC(=O)c4ccc(-c5c6nc(c(-c7c(F)cccc7F)c7ccc([nH]7)c(-c7c(F)cccc7F)c7nc(c(-c8c(F)cccc8F)c8ccc5[nH]8)C=C7)C=C6)cc4)c23)cc1
REMARK SMILES IDX 29 1 28 2 27 3 25 4 26 5 24 7 7 8 8 9 88 10 9 11 10 13 11 14
REMARK SMILES IDX 23 15 12 16 6 17 3 18 4 19 90 20 5 21 89 22 2 23 1 24 13 25
REMARK SMILES IDX 14 26 22 27 15 28 21 29 16 30 17 31 18 32 19 33 20 34 30 35
REMARK SMILES IDX 31 36 32 37 33 39 34 40 35 41 87 42 36 43 86 44 37 45 38 46
REMARK SMILES IDX 39 47 80 48 40 49 85 50 79 51 81 52 41 53 84 54 78 55 77 56
REMARK SMILES IDX 42 58 68 59 51 60 67 61 52 62 55 63 66 64 82 65 53 66 54 67
REMARK SMILES IDX 65 69 83 70 56 71 43 72 44 73 49 74 45 75 46 76 48 77 50 78
REMARK SMILES IDX 47 79 69 80 70 81 75 82 71 83 72 84 74 85 76 86 73 87 57 88
REMARK SMILES IDX 58 89 63 90 59 91 60 92 62 93 64 94 61 95
REMARK H PARENT 27 6 8 12 31 38 81 57 55 68
REMARK Flexibility Score: inf
ROOT
ATOM      1  C   UNL A   1      37.672  23.162  25.887  1.00  0.00     0.042 C 
ENDROOT
BRANCH   1   2
ATOM      2  C   UNL A   1      36.148  23.321  25.951  1.00  0.00     0.118 C 
BRANCH   2   3
ATOM      3  N   UNL A   1      35.567  23.643  24.658  1.00  0.00    -0.352 N 
ATOM      4  C   UNL A   1      34.542  24.448  24.220  1.00  0.00     0.252 C 
ATOM      5  O   UNL A   1      34.519  24.600  23.004  1.00  0.00    -0.269 OA
ATOM      6  H   UNL A   1      36.016  23.173  23.918  1.00  0.00     0.163 HD
BRANCH   4   7
ATOM      7  C   UNL A   1      33.565  25.128  25.106  1.00  0.00     0.055 A 
ATOM      8  C   UNL A   1      31.600  23.507  25.246  1.00  0.00     0.075 A 
ATOM      9  N   UNL A   1      30.349  23.693  25.788  1.00  0.00    -0.275 N 
ATOM     10  C   UNL A   1      32.262  24.710  25.455  1.00  0.00     0.059 A 
ATOM     11  N   UNL A   1      30.146  24.886  26.360  1.00  0.00    -0.154 NA
ATOM     12  H   UNL A   1      29.653  22.998  25.759  1.00  0.00     0.190 HD
ATOM     13  C   UNL A   1      31.303  25.519  26.184  1.00  0.00     0.182 A 
ATOM     14  N   UNL A   1      31.570  26.779  26.616  1.00  0.00    -0.226 NA
ATOM     15  C   UNL A   1      33.813  26.373  25.693  1.00  0.00     0.043 A 
ATOM     16  C   UNL A   1      32.836  27.164  26.342  1.00  0.00     0.074 A 
BRANCH   8  17
ATOM     17  C   UNL A   1      31.949  22.208  24.682  1.00  0.00     0.001 A 
ATOM     18  C   UNL A   1      32.489  19.665  23.604  1.00  0.00     0.118 A 
ATOM     19  C   UNL A   1      32.573  19.885  24.980  1.00  0.00     0.047 A 
ATOM     20  C   UNL A   1      32.162  20.727  22.761  1.00  0.00     0.047 A 
ATOM     21  C   UNL A   1      32.314  21.149  25.519  1.00  0.00     0.014 A 
ATOM     22  C   UNL A   1      31.913  21.997  23.296  1.00  0.00     0.014 A 
BRANCH  18  23
ATOM     23  O   UNL A   1      32.700  18.372  23.214  1.00  0.00    -0.497 OA
ATOM     24  C   UNL A   1      32.763  17.403  24.252  1.00  0.00     0.278 C 
ENDBRANCH  18  23
ENDBRANCH   8  17
BRANCH  16  25
ATOM     25  C   UNL A   1      33.211  28.547  26.678  1.00  0.00     0.000 A 
ATOM     26  C   UNL A   1      32.264  29.575  26.743  1.00  0.00     0.011 A 
ATOM     27  C   UNL A   1      34.536  28.836  27.062  1.00  0.00     0.011 A 
ATOM     28  C   UNL A   1      32.621  30.839  27.229  1.00  0.00     0.014 A 
ATOM     29  C   UNL A   1      34.894  30.095  27.546  1.00  0.00     0.014 A 
ATOM     30  C   UNL A   1      33.935  31.107  27.649  1.00  0.00     0.056 A 
BRANCH  30  31
ATOM     31  C   UNL A   1      34.296  32.461  28.213  1.00  0.00     0.416 C 
ATOM     32  F   UNL A   1      33.473  33.450  27.770  1.00  0.00    -0.166 F 
ATOM     33  F   UNL A   1      34.222  32.490  29.573  1.00  0.00    -0.166 F 
ATOM     34  F   UNL A   1      35.562  32.858  27.903  1.00  0.00    -0.166 F 
ENDBRANCH  30  31
ENDBRANCH  16  25
ENDBRANCH   4   7
ENDBRANCH   2   3
ENDBRANCH   1   2
BRANCH   1  35
ATOM     35  C   UNL A   1      38.392  24.350  26.508  1.00  0.00     0.118 C 
BRANCH  35  36
ATOM     36  N   UNL A   1      39.720  24.538  25.927  1.00  0.00    -0.352 N 
ATOM     37  C   UNL A   1      40.575  25.616  26.013  1.00  0.00     0.251 C 
ATOM     38  H   UNL A   1      40.055  23.781  25.392  1.00  0.00     0.163 HD
ATOM     39  O   UNL A   1      41.494  25.737  25.222  1.00  0.00    -0.269 OA
BRANCH  37  40
ATOM     40  C   UNL A   1      40.362  26.627  27.064  1.00  0.00     0.039 A 
ATOM     41  C   UNL A   1      40.106  26.228  28.379  1.00  0.00     0.014 A 
ATOM     42  C   UNL A   1      40.422  27.978  26.729  1.00  0.00     0.014 A 
ATOM     43  C   UNL A   1      39.993  27.199  29.367  1.00  0.00     0.010 A 
ATOM     44  C   UNL A   1      40.442  28.928  27.719  1.00  0.00     0.010 A 
ATOM     45  C   UNL A   1      40.189  28.549  29.032  1.00  0.00    -0.014 A 
BRANCH  45  46
ATOM     46  C   UNL A   1      40.324  29.555  30.082  1.00  0.00     0.031 A 
ATOM     47  C   UNL A   1      39.082  30.353  30.284  1.00  0.00     0.074 A 
ATOM     48  C   UNL A   1      41.363  29.585  30.945  1.00  0.00     0.049 A 
ATOM     49  N   UNL A   1      38.901  31.609  30.047  1.00  0.00    -0.248 NA
ATOM     50  C   UNL A   1      37.839  29.629  30.612  1.00  0.00     0.031 C 
ATOM     51  C   UNL A   1      42.477  28.635  31.041  1.00  0.00     0.029 A 
ATOM     52  N   UNL A   1      41.595  30.415  32.001  1.00  0.00    -0.354 N 
ATOM     53  C   UNL A   1      37.588  31.883  30.432  1.00  0.00     0.074 A 
ATOM     54  C   UNL A   1      36.936  30.608  30.539  1.00  0.00     0.031 C 
ATOM     55  C   UNL A   1      43.121  28.802  32.216  1.00  0.00     0.029 A 
ATOM     56  C   UNL A   1      42.577  29.969  32.884  1.00  0.00     0.049 A 
ATOM     57  H   UNL A   1      41.108  31.262  32.129  1.00  0.00     0.167 HD
ATOM     58  C   UNL A   1      37.257  33.109  30.924  1.00  0.00     0.037 A 
ATOM     59  C   UNL A   1      42.898  30.510  34.088  1.00  0.00     0.037 A 
ATOM     60  C   UNL A   1      38.274  34.075  30.573  1.00  0.00     0.049 A 
ATOM     61  C   UNL A   1      42.344  31.883  34.109  1.00  0.00     0.074 A 
ATOM     62  C   UNL A   1      38.810  34.560  29.396  1.00  0.00     0.029 A 
ATOM     63  N   UNL A   1      39.169  34.407  31.559  1.00  0.00    -0.354 N 
ATOM     64  N   UNL A   1      42.793  32.860  33.374  1.00  0.00    -0.248 NA
ATOM     65  C   UNL A   1      41.004  32.063  34.639  1.00  0.00     0.031 C 
ATOM     66  C   UNL A   1      40.196  34.764  29.673  1.00  0.00     0.029 A 
ATOM     67  C   UNL A   1      40.421  34.473  31.020  1.00  0.00     0.049 A 
ATOM     68  H   UNL A   1      38.944  34.569  32.504  1.00  0.00     0.167 HD
ATOM     69  C   UNL A   1      41.657  33.543  32.974  1.00  0.00     0.074 A 
ATOM     70  C   UNL A   1      40.603  33.082  33.876  1.00  0.00     0.031 C 
ATOM     71  C   UNL A   1      41.623  34.180  31.766  1.00  0.00     0.037 A 
BRANCH  58  72
ATOM     72  C   UNL A   1      36.324  33.336  32.110  1.00  0.00     0.057 A 
ATOM     73  C   UNL A   1      35.339  34.342  32.001  1.00  0.00     0.134 A 
ATOM     74  C   UNL A   1      36.535  32.873  33.425  1.00  0.00     0.134 A 
ATOM     75  F   UNL A   1      35.005  34.853  30.807  1.00  0.00    -0.206 F 
ATOM     76  C   UNL A   1      34.737  34.938  33.116  1.00  0.00     0.040 A 
ATOM     77  C   UNL A   1      35.905  33.432  34.541  1.00  0.00     0.040 A 
ATOM     78  F   UNL A   1      37.412  31.913  33.733  1.00  0.00    -0.206 F 
ATOM     79  C   UNL A   1      35.037  34.499  34.395  1.00  0.00     0.006 A 
ENDBRANCH  58  72
BRANCH  59  80
ATOM     80  C   UNL A   1      43.423  29.875  35.321  1.00  0.00     0.057 A 
ATOM     81  C   UNL A   1      42.797  28.746  35.875  1.00  0.00     0.134 A 
ATOM     82  C   UNL A   1      44.706  30.169  35.815  1.00  0.00     0.134 A 
ATOM     83  F   UNL A   1      41.586  28.360  35.448  1.00  0.00    -0.206 F 
ATOM     84  C   UNL A   1      43.425  27.931  36.827  1.00  0.00     0.040 A 
ATOM     85  C   UNL A   1      45.340  29.368  36.772  1.00  0.00     0.040 A 
ATOM     86  F   UNL A   1      45.423  31.185  35.316  1.00  0.00    -0.206 F 
ATOM     87  C   UNL A   1      44.708  28.234  37.268  1.00  0.00     0.006 A 
ENDBRANCH  59  80
BRANCH  71  88
ATOM     88  C   UNL A   1      42.931  34.408  31.057  1.00  0.00     0.057 A 
ATOM     89  C   UNL A   1      43.456  33.576  30.057  1.00  0.00     0.134 A 
ATOM     90  C   UNL A   1      43.615  35.603  31.309  1.00  0.00     0.134 A 
ATOM     91  F   UNL A   1      42.827  32.456  29.681  1.00  0.00    -0.206 F 
ATOM     92  C   UNL A   1      44.629  33.903  29.369  1.00  0.00     0.040 A 
ATOM     93  C   UNL A   1      44.764  35.959  30.604  1.00  0.00     0.040 A 
ATOM     94  F   UNL A   1      43.144  36.471  32.219  1.00  0.00    -0.206 F 
ATOM     95  C   UNL A   1      45.283  35.103  29.636  1.00  0.00     0.006 A 
ENDBRANCH  71  88
ENDBRANCH  45  46
ENDBRANCH  37  40
ENDBRANCH  35  36
ENDBRANCH   1  35
TORSDOF 14
ENDMDL
MODEL 3
REMARK VINA RESULT:     -13.7      3.757      8.013
REMARK SMILES COc1ccc(-c2[nH]nc3nc(-c4ccc(C(F)(F)F)cc4)cc(C(=O)NCCCNC(=O)c4ccc(-c5c6nc(c(-c7c(F)cccc7F)c7ccc([nH]7)c(-c7c(F)cccc7F)c7nc(c(-c8c(F)cccc8F)c8ccc5[nH]8)C=C7)C=C6)cc4)c23)cc1
REMARK SMILES IDX 29 1 28 2 27 3 25 4 26 5 24 7 7 8 8 9 88 10 9 11 10 13 11 14
REMARK SMILES IDX 23 15 12 16 6 17 3 18 4 19 90 20 5 21 89 22 2 23 1 24 13 25
REMARK SMILES IDX 14 26 22 27 15 28 21 29 16 30 17 31 18 32 19 33 20 34 30 35
REMARK SMILES IDX 31 36 32 37 33 39 34 40 35 41 87 42 36 43 86 44 37 45 38 46
REMARK SMILES IDX 39 47 80 48 40 49 85 50 79 51 81 52 41 53 84 54 78 55 77 56
REMARK SMILES IDX 42 58 68 59 51 60 67 61 52 62 55 63 66 64 82 65 53 66 54 67
REMARK SMILES IDX 65 69 83 70 56 71 43 72 44 73 49 74 45 75 46 76 48 77 50 78
REMARK SMILES IDX 47 79 69 80 70 81 75 82 71 83 72 84 74 85 76 86 73 87 57 88
REMARK SMILES IDX 58 89 63 90 59 91 60 92 62 93 64 94 61 95
REMARK H PARENT 27 6 8 12 31 38 81 57 55 68
REMARK Flexibility Score: inf
ROOT
ATOM      1  C   UNL A   1      36.805  20.620  25.340  1.00  0.00     0.042 C 
ENDROOT
BRANCH   1   2
ATOM      2  C   UNL A   1      35.994  21.903  25.565  1.00  0.00     0.118 C 
BRANCH   2   3
ATOM      3  N   UNL A   1      35.444  22.437  24.330  1.00  0.00    -0.352 N 
ATOM      4  C   UNL A   1      34.459  23.340  24.008  1.00  0.00     0.252 C 
ATOM      5  O   UNL A   1      34.457  23.669  22.828  1.00  0.00    -0.269 OA
ATOM      6  H   UNL A   1      35.882  22.061  23.532  1.00  0.00     0.163 HD
BRANCH   4   7
ATOM      7  C   UNL A   1      33.499  23.924  24.978  1.00  0.00     0.055 A 
ATOM      8  C   UNL A   1      31.821  22.054  25.416  1.00  0.00     0.075 A 
ATOM      9  N   UNL A   1      30.626  22.092  26.097  1.00  0.00    -0.275 N 
ATOM     10  C   UNL A   1      32.319  23.348  25.497  1.00  0.00     0.059 A 
ATOM     11  N   UNL A   1      30.317  23.275  26.643  1.00  0.00    -0.154 NA
ATOM     12  H   UNL A   1      30.040  21.306  26.179  1.00  0.00     0.190 HD
ATOM     13  C   UNL A   1      31.342  24.054  26.304  1.00  0.00     0.182 A 
ATOM     14  N   UNL A   1      31.469  25.360  26.652  1.00  0.00    -0.226 NA
ATOM     15  C   UNL A   1      33.628  25.223  25.483  1.00  0.00     0.043 A 
ATOM     16  C   UNL A   1      32.626  25.903  26.213  1.00  0.00     0.074 A 
BRANCH   8  17
ATOM     17  C   UNL A   1      32.290  20.788  24.865  1.00  0.00     0.001 A 
ATOM     18  C   UNL A   1      33.069  18.291  23.826  1.00  0.00     0.118 A 
ATOM     19  C   UNL A   1      33.254  18.586  25.179  1.00  0.00     0.047 A 
ATOM     20  C   UNL A   1      32.518  19.257  22.985  1.00  0.00     0.047 A 
ATOM     21  C   UNL A   1      32.876  19.829  25.697  1.00  0.00     0.014 A 
ATOM     22  C   UNL A   1      32.149  20.507  23.499  1.00  0.00     0.014 A 
BRANCH  18  23
ATOM     23  O   UNL A   1      33.417  17.019  23.463  1.00  0.00    -0.497 OA
ATOM     24  C   UNL A   1      33.273  16.017  24.460  1.00  0.00     0.278 C 
ENDBRANCH  18  23
ENDBRANCH   8  17
BRANCH  16  25
ATOM     25  C   UNL A   1      32.831  27.342  26.447  1.00  0.00     0.000 A 
ATOM     26  C   UNL A   1      31.800  28.171  26.905  1.00  0.00     0.011 A 
ATOM     27  C   UNL A   1      34.123  27.891  26.325  1.00  0.00     0.011 A 
ATOM     28  C   UNL A   1      32.067  29.494  27.280  1.00  0.00     0.014 A 
ATOM     29  C   UNL A   1      34.391  29.209  26.698  1.00  0.00     0.014 A 
ATOM     30  C   UNL A   1      33.367  30.021  27.195  1.00  0.00     0.056 A 
BRANCH  30  31
ATOM     31  C   UNL A   1      33.649  31.435  27.644  1.00  0.00     0.416 C 
ATOM     32  F   UNL A   1      34.802  31.932  27.120  1.00  0.00    -0.166 F 
ATOM     33  F   UNL A   1      32.663  32.300  27.276  1.00  0.00    -0.166 F 
ATOM     34  F   UNL A   1      33.766  31.562  28.996  1.00  0.00    -0.166 F 
ENDBRANCH  30  31
ENDBRANCH  16  25
ENDBRANCH   4   7
ENDBRANCH   2   3
ENDBRANCH   1   2
BRANCH   1  35
ATOM     35  C   UNL A   1      38.276  20.916  25.092  1.00  0.00     0.118 C 
BRANCH  35  36
ATOM     36  N   UNL A   1      39.109  19.739  25.330  1.00  0.00    -0.352 N 
ATOM     37  C   UNL A   1      40.406  19.656  25.789  1.00  0.00     0.251 C 
ATOM     38  H   UNL A   1      38.680  18.875  25.131  1.00  0.00     0.163 HD
ATOM     39  O   UNL A   1      41.050  18.633  25.631  1.00  0.00    -0.269 OA
BRANCH  37  40
ATOM     40  C   UNL A   1      41.012  20.817  26.464  1.00  0.00     0.039 A 
ATOM     41  C   UNL A   1      41.640  21.815  25.714  1.00  0.00     0.014 A 
ATOM     42  C   UNL A   1      40.948  20.904  27.853  1.00  0.00     0.014 A 
ATOM     43  C   UNL A   1      42.129  22.942  26.367  1.00  0.00     0.010 A 
ATOM     44  C   UNL A   1      41.310  22.070  28.482  1.00  0.00     0.010 A 
ATOM     45  C   UNL A   1      41.936  23.073  27.751  1.00  0.00    -0.014 A 
BRANCH  45  46
ATOM     46  C   UNL A   1      42.212  24.344  28.415  1.00  0.00     0.031 A 
ATOM     47  C   UNL A   1      41.128  25.349  28.219  1.00  0.00     0.074 A 
ATOM     48  C   UNL A   1      43.207  24.505  29.315  1.00  0.00     0.049 A 
ATOM     49  N   UNL A   1      41.187  26.459  27.562  1.00  0.00    -0.248 NA
ATOM     50  C   UNL A   1      39.764  24.988  28.648  1.00  0.00     0.031 C 
ATOM     51  C   UNL A   1      44.126  23.483  29.828  1.00  0.00     0.029 A 
ATOM     52  N   UNL A   1      43.546  25.600  30.051  1.00  0.00    -0.354 N 
ATOM     53  C   UNL A   1      39.933  27.051  27.706  1.00  0.00     0.074 A 
ATOM     54  C   UNL A   1      39.056  26.012  28.166  1.00  0.00     0.031 C 
ATOM     55  C   UNL A   1      44.746  23.940  30.937  1.00  0.00     0.029 A 
ATOM     56  C   UNL A   1      44.398  25.337  31.123  1.00  0.00     0.049 A 
ATOM     57  H   UNL A   1      43.217  26.505  29.844  1.00  0.00     0.167 HD
ATOM     58  C   UNL A   1      39.811  28.408  27.728  1.00  0.00     0.037 A 
ATOM     59  C   UNL A   1      44.768  26.200  32.104  1.00  0.00     0.037 A 
ATOM     60  C   UNL A   1      40.999  29.021  27.175  1.00  0.00     0.049 A 
ATOM     61  C   UNL A   1      44.472  27.566  31.614  1.00  0.00     0.074 A 
ATOM     62  C   UNL A   1      41.657  28.980  25.962  1.00  0.00     0.029 A 
ATOM     63  N   UNL A   1      41.902  29.526  28.076  1.00  0.00    -0.354 N 
ATOM     64  N   UNL A   1      45.117  28.147  30.643  1.00  0.00    -0.248 NA
ATOM     65  C   UNL A   1      43.168  28.127  31.922  1.00  0.00     0.031 C 
ATOM     66  C   UNL A   1      43.046  29.045  26.287  1.00  0.00     0.029 A 
ATOM     67  C   UNL A   1      43.165  29.203  27.669  1.00  0.00     0.049 A 
ATOM     68  H   UNL A   1      41.676  30.037  28.888  1.00  0.00     0.167 HD
ATOM     69  C   UNL A   1      44.139  28.821  29.931  1.00  0.00     0.074 A 
ATOM     70  C   UNL A   1      42.986  28.871  30.829  1.00  0.00     0.031 C 
ATOM     71  C   UNL A   1      44.266  29.000  28.582  1.00  0.00     0.037 A 
BRANCH  58  72
ATOM     72  C   UNL A   1      38.892  29.174  28.675  1.00  0.00     0.057 A 
ATOM     73  C   UNL A   1      38.987  28.908  30.057  1.00  0.00     0.134 A 
ATOM     74  C   UNL A   1      37.735  29.888  28.300  1.00  0.00     0.134 A 
ATOM     75  F   UNL A   1      40.051  28.268  30.565  1.00  0.00    -0.206 F 
ATOM     76  C   UNL A   1      37.951  29.189  30.957  1.00  0.00     0.040 A 
ATOM     77  C   UNL A   1      36.714  30.212  29.200  1.00  0.00     0.040 A 
ATOM     78  F   UNL A   1      37.471  30.250  27.042  1.00  0.00    -0.206 F 
ATOM     79  C   UNL A   1      36.798  29.823  30.525  1.00  0.00     0.006 A 
ENDBRANCH  58  72
BRANCH  59  80
ATOM     80  C   UNL A   1      45.123  25.954  33.522  1.00  0.00     0.057 A 
ATOM     81  C   UNL A   1      44.137  25.629  34.468  1.00  0.00     0.134 A 
ATOM     82  C   UNL A   1      46.453  25.739  33.924  1.00  0.00     0.134 A 
ATOM     83  F   UNL A   1      42.837  25.765  34.170  1.00  0.00    -0.206 F 
ATOM     84  C   UNL A   1      44.449  25.080  35.719  1.00  0.00     0.040 A 
ATOM     85  C   UNL A   1      46.778  25.199  35.175  1.00  0.00     0.040 A 
ATOM     86  F   UNL A   1      47.473  25.954  33.083  1.00  0.00    -0.206 F 
ATOM     87  C   UNL A   1      45.775  24.850  36.070  1.00  0.00     0.006 A 
ENDBRANCH  59  80
BRANCH  71  88
ATOM     88  C   UNL A   1      45.618  28.761  27.968  1.00  0.00     0.057 A 
ATOM     89  C   UNL A   1      46.063  27.529  27.464  1.00  0.00     0.134 A 
ATOM     90  C   UNL A   1      46.448  29.867  27.755  1.00  0.00     0.134 A 
ATOM     91  F   UNL A   1      45.302  26.430  27.537  1.00  0.00    -0.206 F 
ATOM     92  C   UNL A   1      47.294  27.402  26.814  1.00  0.00     0.040 A 
ATOM     93  C   UNL A   1      47.661  29.760  27.076  1.00  0.00     0.040 A 
ATOM     94  F   UNL A   1      46.066  31.086  28.168  1.00  0.00    -0.206 F 
ATOM     95  C   UNL A   1      48.095  28.522  26.610  1.00  0.00     0.006 A 
ENDBRANCH  71  88
ENDBRANCH  45  46
ENDBRANCH  37  40
ENDBRANCH  35  36
ENDBRANCH   1  35
TORSDOF 14
ENDMDL
