MODEL 1
REMARK VINA RESULT:     -10.4      0.000      0.000
REMARK SMILES CC(C)(Br)[C@H](Br)C(=O)NCCCNC(=O)c1ccc(-c2c3nc(c(-c4c(F)cccc4F)c4ccc([nH]4)c(-c4c(F)cccc4F)c4nc(c(-c5c(F)cccc5F)c5ccc2[nH]5)C=C4)C=C3)cc1
REMARK SMILES IDX 11 1 10 2 9 3 7 4 8 5 5 7 6 8 2 9 1 10 3 11 4 12 12 13 13 14
REMARK SMILES IDX 14 15 15 17 16 18 17 19 69 20 18 21 68 22 19 23 20 24 21 25
REMARK SMILES IDX 62 26 22 27 67 28 61 29 63 30 23 31 66 32 60 33 59 34 24 36
REMARK SMILES IDX 50 37 33 38 49 39 34 40 37 41 48 42 64 43 35 44 36 45 47 47
REMARK SMILES IDX 65 48 38 49 25 50 26 51 31 52 27 53 28 54 30 55 32 56 29 57
REMARK SMILES IDX 51 58 52 59 57 60 53 61 54 62 56 63 58 64 55 65 39 66 40 67
REMARK SMILES IDX 45 68 41 69 42 70 44 71 46 72 43 73
REMARK H PARENT 9 6 13 16 63 35 37 46
REMARK Flexibility Score: inf
ROOT
ATOM      1  C   UNL A   1      37.795  19.838  24.984  1.00  0.00     0.042 C 
ENDROOT
BRANCH   1   2
ATOM      2  C   UNL A   1      36.621  20.786  25.160  1.00  0.00     0.117 C 
BRANCH   2   3
ATOM      3  N   UNL A   1      35.340  20.102  25.202  1.00  0.00    -0.355 N 
ATOM      4  C   UNL A   1      34.071  20.540  25.000  1.00  0.00     0.235 C 
ATOM      5  O   UNL A   1      33.188  19.673  25.056  1.00  0.00    -0.274 OA
ATOM      6  H   UNL A   1      35.405  19.144  25.416  1.00  0.00     0.163 HD
BRANCH   4   7
ATOM      7  C   UNL A   1      33.682  21.977  24.667  1.00  0.00     0.162 C 
ATOM      8  Br  UNL A   1      32.262  21.995  23.325  1.00  0.00    -0.077 Br
BRANCH   7   9
ATOM      9  C   UNL A   1      33.556  22.990  25.819  1.00  0.00     0.042 C 
ATOM     10  C   UNL A   1      32.219  23.749  25.779  1.00  0.00     0.025 C 
ATOM     11  C   UNL A   1      34.706  24.012  25.755  1.00  0.00     0.025 C 
ATOM     12  Br  UNL A   1      33.653  22.203  27.625  1.00  0.00    -0.084 Br
ENDBRANCH   7   9
ENDBRANCH   4   7
ENDBRANCH   2   3
ENDBRANCH   1   2
BRANCH   1  13
ATOM     13  C   UNL A   1      39.044  20.261  25.740  1.00  0.00     0.118 C 
BRANCH  13  14
ATOM     14  N   UNL A   1      40.022  19.187  25.870  1.00  0.00    -0.352 N 
ATOM     15  C   UNL A   1      41.379  19.230  26.079  1.00  0.00     0.251 C 
ATOM     16  H   UNL A   1      39.647  18.280  25.795  1.00  0.00     0.163 HD
ATOM     17  O   UNL A   1      42.046  18.204  25.969  1.00  0.00    -0.269 OA
BRANCH  15  18
ATOM     18  C   UNL A   1      42.044  20.506  26.411  1.00  0.00     0.039 A 
ATOM     19  C   UNL A   1      42.494  21.331  25.376  1.00  0.00     0.014 A 
ATOM     20  C   UNL A   1      42.227  20.891  27.739  1.00  0.00     0.014 A 
ATOM     21  C   UNL A   1      43.041  22.581  25.675  1.00  0.00     0.010 A 
ATOM     22  C   UNL A   1      42.669  22.174  28.031  1.00  0.00     0.010 A 
ATOM     23  C   UNL A   1      43.085  23.033  27.003  1.00  0.00    -0.014 A 
BRANCH  23  24
ATOM     24  C   UNL A   1      43.568  24.391  27.357  1.00  0.00     0.031 A 
ATOM     25  C   UNL A   1      42.588  25.439  27.809  1.00  0.00     0.074 A 
ATOM     26  C   UNL A   1      44.865  24.710  27.177  1.00  0.00     0.049 A 
ATOM     27  N   UNL A   1      42.780  26.716  28.023  1.00  0.00    -0.248 NA
ATOM     28  C   UNL A   1      41.197  25.002  28.007  1.00  0.00     0.031 C 
ATOM     29  C   UNL A   1      45.906  23.798  26.696  1.00  0.00     0.029 A 
ATOM     30  N   UNL A   1      45.526  25.898  27.359  1.00  0.00    -0.354 N 
ATOM     31  C   UNL A   1      41.534  27.234  28.350  1.00  0.00     0.074 A 
ATOM     32  C   UNL A   1      40.584  26.149  28.253  1.00  0.00     0.031 C 
ATOM     33  C   UNL A   1      47.075  24.453  26.642  1.00  0.00     0.029 A 
ATOM     34  C   UNL A   1      46.862  25.841  27.040  1.00  0.00     0.049 A 
ATOM     35  H   UNL A   1      45.087  26.715  27.688  1.00  0.00     0.167 HD
ATOM     36  C   UNL A   1      41.214  28.496  28.722  1.00  0.00     0.037 A 
ATOM     37  C   UNL A   1      47.804  26.803  27.053  1.00  0.00     0.037 A 
ATOM     38  C   UNL A   1      42.169  29.562  28.859  1.00  0.00     0.049 A 
ATOM     39  C   UNL A   1      47.426  28.194  27.477  1.00  0.00     0.074 A 
ATOM     40  C   UNL A   1      41.959  30.856  29.300  1.00  0.00     0.029 A 
ATOM     41  N   UNL A   1      43.518  29.453  28.560  1.00  0.00    -0.354 N 
ATOM     42  N   UNL A   1      46.255  28.656  27.845  1.00  0.00    -0.248 NA
ATOM     43  C   UNL A   1      48.498  29.199  27.490  1.00  0.00     0.031 C 
ATOM     44  C   UNL A   1      43.175  31.543  29.230  1.00  0.00     0.029 A 
ATOM     45  C   UNL A   1      44.151  30.664  28.788  1.00  0.00     0.049 A 
ATOM     46  H   UNL A   1      43.962  28.637  28.233  1.00  0.00     0.167 HD
ATOM     47  C   UNL A   1      46.455  29.994  28.160  1.00  0.00     0.074 A 
ATOM     48  C   UNL A   1      47.862  30.267  27.949  1.00  0.00     0.031 C 
ATOM     49  C   UNL A   1      45.555  30.912  28.587  1.00  0.00     0.037 A 
BRANCH  36  50
ATOM     50  C   UNL A   1      39.770  28.786  29.018  1.00  0.00     0.057 A 
ATOM     51  C   UNL A   1      39.245  28.679  30.312  1.00  0.00     0.134 A 
ATOM     52  C   UNL A   1      38.902  29.203  28.001  1.00  0.00     0.134 A 
ATOM     53  F   UNL A   1      40.021  28.272  31.329  1.00  0.00    -0.206 F 
ATOM     54  C   UNL A   1      37.902  28.947  30.581  1.00  0.00     0.040 A 
ATOM     55  C   UNL A   1      37.564  29.502  28.262  1.00  0.00     0.040 A 
ATOM     56  F   UNL A   1      39.340  29.331  26.740  1.00  0.00    -0.206 F 
ATOM     57  C   UNL A   1      37.059  29.368  29.554  1.00  0.00     0.006 A 
ENDBRANCH  36  50
BRANCH  37  58
ATOM     58  C   UNL A   1      49.203  26.479  26.674  1.00  0.00     0.057 A 
ATOM     59  C   UNL A   1      49.672  26.724  25.380  1.00  0.00     0.134 A 
ATOM     60  C   UNL A   1      50.099  25.915  27.590  1.00  0.00     0.134 A 
ATOM     61  F   UNL A   1      48.855  27.246  24.453  1.00  0.00    -0.206 F 
ATOM     62  C   UNL A   1      50.978  26.404  25.001  1.00  0.00     0.040 A 
ATOM     63  C   UNL A   1      51.415  25.612  27.233  1.00  0.00     0.040 A 
ATOM     64  F   UNL A   1      49.713  25.663  28.849  1.00  0.00    -0.206 F 
ATOM     65  C   UNL A   1      51.855  25.851  25.932  1.00  0.00     0.006 A 
ENDBRANCH  37  58
BRANCH  49  66
ATOM     66  C   UNL A   1      46.067  32.287  28.894  1.00  0.00     0.057 A 
ATOM     67  C   UNL A   1      46.576  32.623  30.155  1.00  0.00     0.134 A 
ATOM     68  C   UNL A   1      46.105  33.270  27.896  1.00  0.00     0.134 A 
ATOM     69  F   UNL A   1      46.556  31.728  31.155  1.00  0.00    -0.206 F 
ATOM     70  C   UNL A   1      47.091  33.893  30.417  1.00  0.00     0.040 A 
ATOM     71  C   UNL A   1      46.640  34.535  28.140  1.00  0.00     0.040 A 
ATOM     72  F   UNL A   1      45.641  33.009  26.665  1.00  0.00    -0.206 F 
ATOM     73  C   UNL A   1      47.131  34.851  29.404  1.00  0.00     0.006 A 
ENDBRANCH  49  66
ENDBRANCH  23  24
ENDBRANCH  15  18
ENDBRANCH  13  14
ENDBRANCH   1  13
TORSDOF 11
ENDMDL
MODEL 2
REMARK VINA RESULT:     -10.3      1.066      6.752
REMARK SMILES CC(C)(Br)[C@H](Br)C(=O)NCCCNC(=O)c1ccc(-c2c3nc(c(-c4c(F)cccc4F)c4ccc([nH]4)c(-c4c(F)cccc4F)c4nc(c(-c5c(F)cccc5F)c5ccc2[nH]5)C=C4)C=C3)cc1
REMARK SMILES IDX 11 1 10 2 9 3 7 4 8 5 5 7 6 8 2 9 1 10 3 11 4 12 12 13 13 14
REMARK SMILES IDX 14 15 15 17 16 18 17 19 69 20 18 21 68 22 19 23 20 24 21 25
REMARK SMILES IDX 62 26 22 27 67 28 61 29 63 30 23 31 66 32 60 33 59 34 24 36
REMARK SMILES IDX 50 37 33 38 49 39 34 40 37 41 48 42 64 43 35 44 36 45 47 47
REMARK SMILES IDX 65 48 38 49 25 50 26 51 31 52 27 53 28 54 30 55 32 56 29 57
REMARK SMILES IDX 51 58 52 59 57 60 53 61 54 62 56 63 58 64 55 65 39 66 40 67
REMARK SMILES IDX 45 68 41 69 42 70 44 71 46 72 43 73
REMARK H PARENT 9 6 13 16 63 35 37 46
REMARK Flexibility Score: inf
ROOT
ATOM      1  C   UNL A   1      37.815  19.620  25.000  1.00  0.00     0.042 C 
ENDROOT
BRANCH   1   2
ATOM      2  C   UNL A   1      36.629  20.565  24.918  1.00  0.00     0.117 C 
BRANCH   2   3
ATOM      3  N   UNL A   1      35.351  19.886  25.035  1.00  0.00    -0.355 N 
ATOM      4  C   UNL A   1      34.074  20.329  24.917  1.00  0.00     0.235 C 
ATOM      5  O   UNL A   1      33.193  19.465  25.020  1.00  0.00    -0.274 OA
ATOM      6  H   UNL A   1      35.426  18.925  25.235  1.00  0.00     0.163 HD
BRANCH   4   7
ATOM      7  C   UNL A   1      33.670  21.771  24.623  1.00  0.00     0.162 C 
ATOM      8  Br  UNL A   1      32.426  21.826  23.117  1.00  0.00    -0.077 Br
BRANCH   7   9
ATOM      9  C   UNL A   1      33.362  22.704  25.808  1.00  0.00     0.042 C 
ATOM     10  C   UNL A   1      31.867  23.055  25.895  1.00  0.00     0.025 C 
ATOM     11  C   UNL A   1      34.168  24.010  25.678  1.00  0.00     0.025 C 
ATOM     12  Br  UNL A   1      33.828  21.973  27.579  1.00  0.00    -0.084 Br
ENDBRANCH   7   9
ENDBRANCH   4   7
ENDBRANCH   2   3
ENDBRANCH   1   2
BRANCH   1  13
ATOM     13  C   UNL A   1      39.018  20.205  25.723  1.00  0.00     0.118 C 
BRANCH  13  14
ATOM     14  N   UNL A   1      40.109  19.249  25.880  1.00  0.00    -0.352 N 
ATOM     15  C   UNL A   1      41.444  19.446  26.129  1.00  0.00     0.251 C 
ATOM     16  H   UNL A   1      39.842  18.305  25.792  1.00  0.00     0.163 HD
ATOM     17  O   UNL A   1      42.228  18.504  26.037  1.00  0.00    -0.269 OA
BRANCH  15  18
ATOM     18  C   UNL A   1      41.949  20.788  26.483  1.00  0.00     0.039 A 
ATOM     19  C   UNL A   1      42.297  21.678  25.463  1.00  0.00     0.014 A 
ATOM     20  C   UNL A   1      42.081  21.171  27.818  1.00  0.00     0.014 A 
ATOM     21  C   UNL A   1      42.688  22.980  25.784  1.00  0.00     0.010 A 
ATOM     22  C   UNL A   1      42.364  22.494  28.131  1.00  0.00     0.010 A 
ATOM     23  C   UNL A   1      42.674  23.413  27.119  1.00  0.00    -0.014 A 
BRANCH  23  24
ATOM     24  C   UNL A   1      42.988  24.814  27.496  1.00  0.00     0.031 A 
ATOM     25  C   UNL A   1      44.423  25.249  27.627  1.00  0.00     0.074 A 
ATOM     26  C   UNL A   1      41.992  25.663  27.816  1.00  0.00     0.049 A 
ATOM     27  N   UNL A   1      44.910  26.375  28.083  1.00  0.00    -0.248 NA
ATOM     28  C   UNL A   1      45.449  24.270  27.231  1.00  0.00     0.031 C 
ATOM     29  C   UNL A   1      40.562  25.348  27.779  1.00  0.00     0.029 A 
ATOM     30  N   UNL A   1      42.033  26.962  28.257  1.00  0.00    -0.354 N 
ATOM     31  C   UNL A   1      46.290  26.227  28.055  1.00  0.00     0.074 A 
ATOM     32  C   UNL A   1      46.564  24.885  27.591  1.00  0.00     0.031 C 
ATOM     33  C   UNL A   1      39.863  26.429  28.158  1.00  0.00     0.029 A 
ATOM     34  C   UNL A   1      40.793  27.498  28.509  1.00  0.00     0.049 A 
ATOM     35  H   UNL A   1      42.870  27.464  28.380  1.00  0.00     0.167 HD
ATOM     36  C   UNL A   1      47.244  27.135  28.366  1.00  0.00     0.037 A 
ATOM     37  C   UNL A   1      40.445  28.709  28.984  1.00  0.00     0.037 A 
ATOM     38  C   UNL A   1      46.967  28.483  28.786  1.00  0.00     0.049 A 
ATOM     39  C   UNL A   1      41.523  29.703  29.314  1.00  0.00     0.074 A 
ATOM     40  C   UNL A   1      47.862  29.503  29.053  1.00  0.00     0.029 A 
ATOM     41  N   UNL A   1      45.697  28.996  28.995  1.00  0.00    -0.354 N 
ATOM     42  N   UNL A   1      42.824  29.572  29.223  1.00  0.00    -0.248 NA
ATOM     43  C   UNL A   1      41.085  31.015  29.810  1.00  0.00     0.031 C 
ATOM     44  C   UNL A   1      47.134  30.625  29.462  1.00  0.00     0.029 A 
ATOM     45  C   UNL A   1      45.784  30.316  29.407  1.00  0.00     0.049 A 
ATOM     46  H   UNL A   1      44.857  28.498  28.869  1.00  0.00     0.167 HD
ATOM     47  C   UNL A   1      43.359  30.790  29.622  1.00  0.00     0.074 A 
ATOM     48  C   UNL A   1      42.240  31.651  29.946  1.00  0.00     0.031 C 
ATOM     49  C   UNL A   1      44.658  31.162  29.710  1.00  0.00     0.037 A 
BRANCH  36  50
ATOM     50  C   UNL A   1      48.677  26.702  28.250  1.00  0.00     0.057 A 
ATOM     51  C   UNL A   1      49.366  26.129  29.326  1.00  0.00     0.134 A 
ATOM     52  C   UNL A   1      49.368  26.835  27.038  1.00  0.00     0.134 A 
ATOM     53  F   UNL A   1      48.766  25.985  30.518  1.00  0.00    -0.206 F 
ATOM     54  C   UNL A   1      50.698  25.731  29.213  1.00  0.00     0.040 A 
ATOM     55  C   UNL A   1      50.693  26.414  26.904  1.00  0.00     0.040 A 
ATOM     56  F   UNL A   1      48.768  27.371  25.965  1.00  0.00    -0.206 F 
ATOM     57  C   UNL A   1      51.364  25.866  27.995  1.00  0.00     0.006 A 
ENDBRANCH  36  50
BRANCH  37  58
ATOM     58  C   UNL A   1      39.012  29.058  29.154  1.00  0.00     0.057 A 
ATOM     59  C   UNL A   1      38.379  28.914  30.393  1.00  0.00     0.134 A 
ATOM     60  C   UNL A   1      38.242  29.537  28.087  1.00  0.00     0.134 A 
ATOM     61  F   UNL A   1      39.061  28.443  31.448  1.00  0.00    -0.206 F 
ATOM     62  C   UNL A   1      37.027  29.217  30.564  1.00  0.00     0.040 A 
ATOM     63  C   UNL A   1      36.895  29.867  28.249  1.00  0.00     0.040 A 
ATOM     64  F   UNL A   1      38.791  29.704  26.876  1.00  0.00    -0.206 F 
ATOM     65  C   UNL A   1      36.282  29.700  29.490  1.00  0.00     0.006 A 
ENDBRANCH  37  58
BRANCH  49  66
ATOM     66  C   UNL A   1      44.945  32.570  30.136  1.00  0.00     0.057 A 
ATOM     67  C   UNL A   1      45.202  32.901  31.472  1.00  0.00     0.134 A 
ATOM     68  C   UNL A   1      45.021  33.598  29.187  1.00  0.00     0.134 A 
ATOM     69  F   UNL A   1      45.132  31.963  32.430  1.00  0.00    -0.206 F 
ATOM     70  C   UNL A   1      45.511  34.208  31.852  1.00  0.00     0.040 A 
ATOM     71  C   UNL A   1      45.353  34.903  29.551  1.00  0.00     0.040 A 
ATOM     72  F   UNL A   1      44.794  33.344  27.889  1.00  0.00    -0.206 F 
ATOM     73  C   UNL A   1      45.595  35.211  30.887  1.00  0.00     0.006 A 
ENDBRANCH  49  66
ENDBRANCH  23  24
ENDBRANCH  15  18
ENDBRANCH  13  14
ENDBRANCH   1  13
TORSDOF 11
ENDMDL
MODEL 3
REMARK VINA RESULT:     -10.3      6.370     11.223
REMARK SMILES CC(C)(Br)[C@H](Br)C(=O)NCCCNC(=O)c1ccc(-c2c3nc(c(-c4c(F)cccc4F)c4ccc([nH]4)c(-c4c(F)cccc4F)c4nc(c(-c5c(F)cccc5F)c5ccc2[nH]5)C=C4)C=C3)cc1
REMARK SMILES IDX 11 1 10 2 9 3 7 4 8 5 5 7 6 8 2 9 1 10 3 11 4 12 12 13 13 14
REMARK SMILES IDX 14 15 15 17 16 18 17 19 69 20 18 21 68 22 19 23 20 24 21 25
REMARK SMILES IDX 62 26 22 27 67 28 61 29 63 30 23 31 66 32 60 33 59 34 24 36
REMARK SMILES IDX 50 37 33 38 49 39 34 40 37 41 48 42 64 43 35 44 36 45 47 47
REMARK SMILES IDX 65 48 38 49 25 50 26 51 31 52 27 53 28 54 30 55 32 56 29 57
REMARK SMILES IDX 51 58 52 59 57 60 53 61 54 62 56 63 58 64 55 65 39 66 40 67
REMARK SMILES IDX 45 68 41 69 42 70 44 71 46 72 43 73
REMARK H PARENT 9 6 13 16 63 35 37 46
REMARK Flexibility Score: inf
ROOT
ATOM      1  C   UNL A   1      31.531  32.040  26.520  1.00  0.00     0.042 C 
ENDROOT
BRANCH   1   2
ATOM      2  C   UNL A   1      31.750  30.575  26.184  1.00  0.00     0.117 C 
BRANCH   2   3
ATOM      3  N   UNL A   1      31.151  30.187  24.919  1.00  0.00    -0.355 N 
ATOM      4  C   UNL A   1      31.180  29.023  24.221  1.00  0.00     0.235 C 
ATOM      5  O   UNL A   1      30.505  29.002  23.183  1.00  0.00    -0.274 OA
ATOM      6  H   UNL A   1      30.627  30.900  24.489  1.00  0.00     0.163 HD
BRANCH   4   7
ATOM      7  C   UNL A   1      31.925  27.763  24.649  1.00  0.00     0.162 C 
ATOM      8  Br  UNL A   1      30.661  26.425  25.306  1.00  0.00    -0.077 Br
BRANCH   7   9
ATOM      9  C   UNL A   1      33.073  27.250  23.760  1.00  0.00     0.042 C 
ATOM     10  C   UNL A   1      33.965  26.235  24.495  1.00  0.00     0.025 C 
ATOM     11  C   UNL A   1      33.948  28.428  23.292  1.00  0.00     0.025 C 
ATOM     12  Br  UNL A   1      32.495  26.336  22.111  1.00  0.00    -0.084 Br
ENDBRANCH   7   9
ENDBRANCH   4   7
ENDBRANCH   2   3
ENDBRANCH   1   2
BRANCH   1  13
ATOM     13  C   UNL A   1      32.697  32.681  27.255  1.00  0.00     0.118 C 
BRANCH  13  14
ATOM     14  N   UNL A   1      32.456  34.080  27.595  1.00  0.00    -0.352 N 
ATOM     15  C   UNL A   1      33.019  34.878  28.560  1.00  0.00     0.251 C 
ATOM     16  H   UNL A   1      31.775  34.525  27.040  1.00  0.00     0.163 HD
ATOM     17  O   UNL A   1      32.533  35.980  28.800  1.00  0.00    -0.269 OA
BRANCH  15  18
ATOM     18  C   UNL A   1      34.188  34.408  29.329  1.00  0.00     0.039 A 
ATOM     19  C   UNL A   1      33.990  33.803  30.574  1.00  0.00     0.014 A 
ATOM     20  C   UNL A   1      35.481  34.565  28.829  1.00  0.00     0.014 A 
ATOM     21  C   UNL A   1      35.080  33.273  31.268  1.00  0.00     0.010 A 
ATOM     22  C   UNL A   1      36.547  33.944  29.465  1.00  0.00     0.010 A 
ATOM     23  C   UNL A   1      36.361  33.293  30.693  1.00  0.00    -0.014 A 
BRANCH  23  24
ATOM     24  C   UNL A   1      37.530  32.657  31.351  1.00  0.00     0.031 A 
ATOM     25  C   UNL A   1      38.237  31.515  30.675  1.00  0.00     0.074 A 
ATOM     26  C   UNL A   1      37.889  33.037  32.593  1.00  0.00     0.049 A 
ATOM     27  N   UNL A   1      39.178  30.732  31.139  1.00  0.00    -0.248 NA
ATOM     28  C   UNL A   1      37.801  31.182  29.309  1.00  0.00     0.031 C 
ATOM     29  C   UNL A   1      37.250  34.097  33.376  1.00  0.00     0.029 A 
ATOM     30  N   UNL A   1      38.871  32.558  33.424  1.00  0.00    -0.354 N 
ATOM     31  C   UNL A   1      39.422  29.802  30.137  1.00  0.00     0.074 A 
ATOM     32  C   UNL A   1      38.494  30.082  29.063  1.00  0.00     0.031 C 
ATOM     33  C   UNL A   1      37.870  34.202  34.562  1.00  0.00     0.029 A 
ATOM     34  C   UNL A   1      38.918  33.190  34.643  1.00  0.00     0.049 A 
ATOM     35  H   UNL A   1      39.485  31.831  33.171  1.00  0.00     0.167 HD
ATOM     36  C   UNL A   1      40.351  28.818  30.103  1.00  0.00     0.037 A 
ATOM     37  C   UNL A   1      39.707  32.968  35.712  1.00  0.00     0.037 A 
ATOM     38  C   UNL A   1      41.300  28.571  31.156  1.00  0.00     0.049 A 
ATOM     39  C   UNL A   1      40.736  31.875  35.648  1.00  0.00     0.074 A 
ATOM     40  C   UNL A   1      42.329  27.648  31.188  1.00  0.00     0.029 A 
ATOM     41  N   UNL A   1      41.336  29.257  32.359  1.00  0.00    -0.354 N 
ATOM     42  N   UNL A   1      40.998  31.043  34.669  1.00  0.00    -0.248 NA
ATOM     43  C   UNL A   1      41.582  31.689  36.835  1.00  0.00     0.031 C 
ATOM     44  C   UNL A   1      42.965  27.747  32.430  1.00  0.00     0.029 A 
ATOM     45  C   UNL A   1      42.360  28.763  33.152  1.00  0.00     0.049 A 
ATOM     46  H   UNL A   1      40.726  29.987  32.614  1.00  0.00     0.167 HD
ATOM     47  C   UNL A   1      42.055  30.257  35.109  1.00  0.00     0.074 A 
ATOM     48  C   UNL A   1      42.392  30.718  36.440  1.00  0.00     0.031 C 
ATOM     49  C   UNL A   1      42.690  29.246  34.468  1.00  0.00     0.037 A 
BRANCH  36  50
ATOM     50  C   UNL A   1      40.392  27.944  28.883  1.00  0.00     0.057 A 
ATOM     51  C   UNL A   1      41.170  28.272  27.765  1.00  0.00     0.134 A 
ATOM     52  C   UNL A   1      39.665  26.748  28.836  1.00  0.00     0.134 A 
ATOM     53  F   UNL A   1      41.879  29.411  27.740  1.00  0.00    -0.206 F 
ATOM     54  C   UNL A   1      41.201  27.457  26.633  1.00  0.00     0.040 A 
ATOM     55  C   UNL A   1      39.711  25.910  27.721  1.00  0.00     0.040 A 
ATOM     56  F   UNL A   1      38.903  26.371  29.874  1.00  0.00    -0.206 F 
ATOM     57  C   UNL A   1      40.475  26.267  26.612  1.00  0.00     0.006 A 
ENDBRANCH  36  50
BRANCH  37  58
ATOM     58  C   UNL A   1      39.571  33.813  36.925  1.00  0.00     0.057 A 
ATOM     59  C   UNL A   1      38.751  33.418  37.988  1.00  0.00     0.134 A 
ATOM     60  C   UNL A   1      40.249  35.031  37.051  1.00  0.00     0.134 A 
ATOM     61  F   UNL A   1      38.062  32.269  37.918  1.00  0.00    -0.206 F 
ATOM     62  C   UNL A   1      38.595  34.211  39.126  1.00  0.00     0.040 A 
ATOM     63  C   UNL A   1      40.122  35.823  38.194  1.00  0.00     0.040 A 
ATOM     64  F   UNL A   1      41.056  35.461  36.071  1.00  0.00    -0.206 F 
ATOM     65  C   UNL A   1      39.287  35.416  39.233  1.00  0.00     0.006 A 
ENDBRANCH  37  58
BRANCH  49  66
ATOM     66  C   UNL A   1      43.839  28.594  35.178  1.00  0.00     0.057 A 
ATOM     67  C   UNL A   1      43.662  27.468  35.992  1.00  0.00     0.134 A 
ATOM     68  C   UNL A   1      45.145  29.065  34.996  1.00  0.00     0.134 A 
ATOM     69  F   UNL A   1      42.433  26.977  36.215  1.00  0.00    -0.206 F 
ATOM     70  C   UNL A   1      44.744  26.843  36.612  1.00  0.00     0.040 A 
ATOM     71  C   UNL A   1      46.237  28.433  35.591  1.00  0.00     0.040 A 
ATOM     72  F   UNL A   1      45.382  30.134  34.221  1.00  0.00    -0.206 F 
ATOM     73  C   UNL A   1      46.037  27.321  36.405  1.00  0.00     0.006 A 
ENDBRANCH  49  66
ENDBRANCH  23  24
ENDBRANCH  15  18
ENDBRANCH  13  14
ENDBRANCH   1  13
TORSDOF 11
ENDMDL
