MODEL 1
REMARK VINA RESULT:     -11.4      0.000      0.000
REMARK SMILES COC[C@@H](C)CC(=O)Nc1cccc(/C=C/C(=O)NCCCNC(=O)c2ccc(-c3c4nc(c(-c5c(F)cccc5F)c5ccc([nH]5)c(-c5c(F)cccc5F)c5nc(c(-c6c(F)cccc6F)c6ccc3[nH]6)C=C5)C=C4)cc2)c1
REMARK SMILES IDX 17 1 18 2 19 3 16 5 15 6 14 7 10 8 11 9 80 10 12 11 13 12
REMARK SMILES IDX 9 13 7 14 8 15 6 17 4 18 5 19 3 20 2 21 1 22 20 23 21 24
REMARK SMILES IDX 22 25 23 26 24 27 25 29 26 30 27 31 79 32 28 33 78 34 29 35
REMARK SMILES IDX 30 36 31 37 72 38 32 39 77 40 71 41 73 42 33 43 76 44 70 45
REMARK SMILES IDX 69 46 34 48 60 49 43 50 59 51 44 52 47 53 58 54 74 55 45 56
REMARK SMILES IDX 46 57 57 59 75 60 48 61 35 62 36 63 41 64 37 65 38 66 40 67
REMARK SMILES IDX 42 68 39 69 61 70 62 71 67 72 63 73 64 74 66 75 68 76 65 77
REMARK SMILES IDX 49 78 50 79 55 80 51 81 52 82 54 83 56 84 53 85
REMARK H PARENT 19 4 9 16 23 28 73 47 47 58
REMARK Flexibility Score: inf
ROOT
ATOM      1  C   UNL A   1      37.517  23.483  25.751  1.00  0.00     0.244 C 
ATOM      2  O   UNL A   1      38.306  24.312  26.196  1.00  0.00    -0.270 OA
ATOM      3  N   UNL A   1      37.977  22.417  25.037  1.00  0.00    -0.352 N 
ATOM      4  H   UNL A   1      38.911  22.481  24.733  1.00  0.00     0.163 HD
ENDROOT
BRANCH   1   5
ATOM      5  C   UNL A   1      36.077  23.596  26.079  1.00  0.00     0.072 C 
ATOM      6  C   UNL A   1      35.214  24.340  25.368  1.00  0.00     0.014 C 
BRANCH   6   7
ATOM      7  C   UNL A   1      33.777  24.397  25.681  1.00  0.00    -0.023 A 
ATOM      8  C   UNL A   1      31.849  25.750  26.317  1.00  0.00     0.041 A 
ATOM      9  C   UNL A   1      31.028  24.628  26.236  1.00  0.00     0.026 A 
ATOM     10  C   UNL A   1      33.225  25.610  26.117  1.00  0.00     0.034 A 
ATOM     11  C   UNL A   1      31.569  23.404  25.838  1.00  0.00     0.003 A 
ATOM     12  C   UNL A   1      32.933  23.291  25.546  1.00  0.00     0.008 A 
BRANCH   8  13
ATOM     13  N   UNL A   1      31.299  26.986  26.683  1.00  0.00    -0.326 N 
ATOM     14  C   UNL A   1      31.575  28.217  26.136  1.00  0.00     0.224 C 
ATOM     15  O   UNL A   1      31.557  29.225  26.844  1.00  0.00    -0.275 OA
ATOM     16  H   UNL A   1      30.641  26.971  27.414  1.00  0.00     0.169 HD
BRANCH  14  17
ATOM     17  C   UNL A   1      31.639  28.321  24.611  1.00  0.00     0.106 C 
BRANCH  17  18
ATOM     18  C   UNL A   1      30.290  28.405  23.875  1.00  0.00     0.021 C 
ATOM     19  C   UNL A   1      29.793  27.009  23.490  1.00  0.00     0.010 C 
BRANCH  18  20
ATOM     20  C   UNL A   1      30.408  29.329  22.654  1.00  0.00     0.163 C 
BRANCH  20  21
ATOM     21  O   UNL A   1      29.291  29.266  21.771  1.00  0.00    -0.384 OA
ATOM     22  C   UNL A   1      28.216  30.093  22.216  1.00  0.00     0.194 C 
ENDBRANCH  20  21
ENDBRANCH  18  20
ENDBRANCH  17  18
ENDBRANCH  14  17
ENDBRANCH   8  13
ENDBRANCH   6   7
ENDBRANCH   1   5
BRANCH   3  23
ATOM     23  C   UNL A   1      37.278  21.200  24.665  1.00  0.00     0.118 C 
BRANCH  23  24
ATOM     24  C   UNL A   1      38.055  19.936  24.993  1.00  0.00     0.042 C 
BRANCH  24  25
ATOM     25  C   UNL A   1      39.228  20.177  25.933  1.00  0.00     0.118 C 
BRANCH  25  26
ATOM     26  N   UNL A   1      40.230  19.118  25.892  1.00  0.00    -0.352 N 
ATOM     27  C   UNL A   1      41.600  19.155  26.047  1.00  0.00     0.251 C 
ATOM     28  H   UNL A   1      39.865  18.218  25.724  1.00  0.00     0.163 HD
ATOM     29  O   UNL A   1      42.260  18.144  25.868  1.00  0.00    -0.269 OA
BRANCH  27  30
ATOM     30  C   UNL A   1      42.287  20.426  26.388  1.00  0.00     0.039 A 
ATOM     31  C   UNL A   1      42.955  21.123  25.376  1.00  0.00     0.014 A 
ATOM     32  C   UNL A   1      42.275  20.936  27.684  1.00  0.00     0.014 A 
ATOM     33  C   UNL A   1      43.516  22.376  25.646  1.00  0.00     0.010 A 
ATOM     34  C   UNL A   1      42.730  22.228  27.925  1.00  0.00     0.010 A 
ATOM     35  C   UNL A   1      43.356  22.966  26.909  1.00  0.00    -0.014 A 
BRANCH  35  36
ATOM     36  C   UNL A   1      43.831  24.346  27.200  1.00  0.00     0.031 A 
ATOM     37  C   UNL A   1      42.860  25.397  27.672  1.00  0.00     0.074 A 
ATOM     38  C   UNL A   1      45.112  24.684  26.949  1.00  0.00     0.049 A 
ATOM     39  N   UNL A   1      43.052  26.679  27.860  1.00  0.00    -0.248 NA
ATOM     40  C   UNL A   1      41.480  24.955  27.929  1.00  0.00     0.031 C 
ATOM     41  C   UNL A   1      46.145  23.780  26.437  1.00  0.00     0.029 A 
ATOM     42  N   UNL A   1      45.764  25.886  27.080  1.00  0.00    -0.354 N 
ATOM     43  C   UNL A   1      41.813  27.196  28.220  1.00  0.00     0.074 A 
ATOM     44  C   UNL A   1      40.868  26.104  28.169  1.00  0.00     0.031 C 
ATOM     45  C   UNL A   1      47.304  24.449  26.330  1.00  0.00     0.029 A 
ATOM     46  C   UNL A   1      47.089  25.838  26.721  1.00  0.00     0.049 A 
ATOM     47  H   UNL A   1      45.322  26.705  27.401  1.00  0.00     0.167 HD
ATOM     48  C   UNL A   1      41.495  28.461  28.586  1.00  0.00     0.037 A 
ATOM     49  C   UNL A   1      48.026  26.806  26.703  1.00  0.00     0.037 A 
ATOM     50  C   UNL A   1      42.446  29.536  28.684  1.00  0.00     0.049 A 
ATOM     51  C   UNL A   1      47.651  28.199  27.127  1.00  0.00     0.074 A 
ATOM     52  C   UNL A   1      42.240  30.832  29.126  1.00  0.00     0.029 A 
ATOM     53  N   UNL A   1      43.786  29.439  28.339  1.00  0.00    -0.354 N 
ATOM     54  N   UNL A   1      46.492  28.658  27.533  1.00  0.00    -0.248 NA
ATOM     55  C   UNL A   1      48.718  29.211  27.090  1.00  0.00     0.031 C 
ATOM     56  C   UNL A   1      43.446  31.531  29.007  1.00  0.00     0.029 A 
ATOM     57  C   UNL A   1      44.413  30.658  28.537  1.00  0.00     0.049 A 
ATOM     58  H   UNL A   1      44.225  28.625  28.003  1.00  0.00     0.167 HD
ATOM     59  C   UNL A   1      46.697  29.998  27.831  1.00  0.00     0.074 A 
ATOM     60  C   UNL A   1      48.094  30.278  27.570  1.00  0.00     0.031 C 
ATOM     61  C   UNL A   1      45.807  30.916  28.283  1.00  0.00     0.037 A 
BRANCH  48  62
ATOM     62  C   UNL A   1      40.057  28.745  28.914  1.00  0.00     0.057 A 
ATOM     63  C   UNL A   1      39.139  29.151  27.936  1.00  0.00     0.134 A 
ATOM     64  C   UNL A   1      39.579  28.592  30.222  1.00  0.00     0.134 A 
ATOM     65  F   UNL A   1      39.533  29.329  26.666  1.00  0.00    -0.206 F 
ATOM     66  C   UNL A   1      37.807  29.429  28.253  1.00  0.00     0.040 A 
ATOM     67  C   UNL A   1      38.243  28.836  30.546  1.00  0.00     0.040 A 
ATOM     68  F   UNL A   1      40.400  28.197  31.207  1.00  0.00    -0.206 F 
ATOM     69  C   UNL A   1      37.356  29.266  29.560  1.00  0.00     0.006 A 
ENDBRANCH  48  62
BRANCH  49  70
ATOM     70  C   UNL A   1      49.421  26.488  26.303  1.00  0.00     0.057 A 
ATOM     71  C   UNL A   1      50.322  25.937  27.223  1.00  0.00     0.134 A 
ATOM     72  C   UNL A   1      49.891  26.734  25.008  1.00  0.00     0.134 A 
ATOM     73  F   UNL A   1      49.935  25.697  28.484  1.00  0.00    -0.206 F 
ATOM     74  C   UNL A   1      51.645  25.660  26.876  1.00  0.00     0.040 A 
ATOM     75  C   UNL A   1      51.206  26.439  24.640  1.00  0.00     0.040 A 
ATOM     76  F   UNL A   1      49.076  27.255  24.078  1.00  0.00    -0.206 F 
ATOM     77  C   UNL A   1      52.089  25.906  25.578  1.00  0.00     0.006 A 
ENDBRANCH  49  70
BRANCH  61  78
ATOM     78  C   UNL A   1      46.327  32.295  28.564  1.00  0.00     0.057 A 
ATOM     79  C   UNL A   1      46.309  33.305  27.595  1.00  0.00     0.134 A 
ATOM     80  C   UNL A   1      46.813  32.626  29.836  1.00  0.00     0.134 A 
ATOM     81  F   UNL A   1      45.868  33.050  26.354  1.00  0.00    -0.206 F 
ATOM     82  C   UNL A   1      46.778  34.590  27.873  1.00  0.00     0.040 A 
ATOM     83  C   UNL A   1      47.259  33.914  30.134  1.00  0.00     0.040 A 
ATOM     84  F   UNL A   1      46.849  31.707  30.812  1.00  0.00    -0.206 F 
ATOM     85  C   UNL A   1      47.247  34.899  29.150  1.00  0.00     0.006 A 
ENDBRANCH  61  78
ENDBRANCH  35  36
ENDBRANCH  27  30
ENDBRANCH  25  26
ENDBRANCH  24  25
ENDBRANCH  23  24
ENDBRANCH   3  23
TORSDOF 16
ENDMDL
MODEL 2
REMARK VINA RESULT:     -11.3      1.190      2.203
REMARK SMILES COC[C@@H](C)CC(=O)Nc1cccc(/C=C/C(=O)NCCCNC(=O)c2ccc(-c3c4nc(c(-c5c(F)cccc5F)c5ccc([nH]5)c(-c5c(F)cccc5F)c5nc(c(-c6c(F)cccc6F)c6ccc3[nH]6)C=C5)C=C4)cc2)c1
REMARK SMILES IDX 17 1 18 2 19 3 16 5 15 6 14 7 10 8 11 9 80 10 12 11 13 12
REMARK SMILES IDX 9 13 7 14 8 15 6 17 4 18 5 19 3 20 2 21 1 22 20 23 21 24
REMARK SMILES IDX 22 25 23 26 24 27 25 29 26 30 27 31 79 32 28 33 78 34 29 35
REMARK SMILES IDX 30 36 31 37 72 38 32 39 77 40 71 41 73 42 33 43 76 44 70 45
REMARK SMILES IDX 69 46 34 48 60 49 43 50 59 51 44 52 47 53 58 54 74 55 45 56
REMARK SMILES IDX 46 57 57 59 75 60 48 61 35 62 36 63 41 64 37 65 38 66 40 67
REMARK SMILES IDX 42 68 39 69 61 70 62 71 67 72 63 73 64 74 66 75 68 76 65 77
REMARK SMILES IDX 49 78 50 79 55 80 51 81 52 82 54 83 56 84 53 85
REMARK H PARENT 19 4 9 16 23 28 73 47 47 58
REMARK Flexibility Score: inf
ROOT
ATOM      1  C   UNL A   1      37.423  23.539  25.767  1.00  0.00     0.244 C 
ATOM      2  O   UNL A   1      38.115  24.338  26.393  1.00  0.00    -0.270 OA
ATOM      3  N   UNL A   1      38.001  22.458  25.170  1.00  0.00    -0.352 N 
ATOM      4  H   UNL A   1      38.982  22.489  25.095  1.00  0.00     0.163 HD
ENDROOT
BRANCH   1   5
ATOM      5  C   UNL A   1      35.952  23.703  25.749  1.00  0.00     0.072 C 
ATOM      6  C   UNL A   1      35.274  24.166  24.686  1.00  0.00     0.014 C 
BRANCH   6   7
ATOM      7  C   UNL A   1      33.805  24.273  24.671  1.00  0.00    -0.023 A 
ATOM      8  C   UNL A   1      31.791  25.251  25.639  1.00  0.00     0.041 A 
ATOM      9  C   UNL A   1      31.010  24.596  24.690  1.00  0.00     0.026 A 
ATOM     10  C   UNL A   1      33.169  25.023  25.671  1.00  0.00     0.034 A 
ATOM     11  C   UNL A   1      31.626  23.816  23.709  1.00  0.00     0.003 A 
ATOM     12  C   UNL A   1      33.018  23.667  23.689  1.00  0.00     0.008 A 
BRANCH   8  13
ATOM     13  N   UNL A   1      31.175  26.062  26.602  1.00  0.00    -0.326 N 
ATOM     14  C   UNL A   1      31.420  27.392  26.854  1.00  0.00     0.224 C 
ATOM     15  O   UNL A   1      31.333  27.829  28.002  1.00  0.00    -0.275 OA
ATOM     16  H   UNL A   1      30.491  25.631  27.161  1.00  0.00     0.169 HD
BRANCH  14  17
ATOM     17  C   UNL A   1      31.540  28.334  25.654  1.00  0.00     0.106 C 
BRANCH  17  18
ATOM     18  C   UNL A   1      32.954  28.841  25.323  1.00  0.00     0.021 C 
ATOM     19  C   UNL A   1      33.463  28.220  24.019  1.00  0.00     0.010 C 
BRANCH  18  20
ATOM     20  C   UNL A   1      33.905  28.569  26.497  1.00  0.00     0.163 C 
BRANCH  20  21
ATOM     21  O   UNL A   1      34.485  29.745  27.057  1.00  0.00    -0.384 OA
ATOM     22  C   UNL A   1      33.516  30.774  27.250  1.00  0.00     0.194 C 
ENDBRANCH  20  21
ENDBRANCH  18  20
ENDBRANCH  17  18
ENDBRANCH  14  17
ENDBRANCH   8  13
ENDBRANCH   6   7
ENDBRANCH   1   5
BRANCH   3  23
ATOM     23  C   UNL A   1      37.367  21.268  24.632  1.00  0.00     0.118 C 
BRANCH  23  24
ATOM     24  C   UNL A   1      38.096  19.983  24.992  1.00  0.00     0.042 C 
BRANCH  24  25
ATOM     25  C   UNL A   1      39.244  20.196  25.969  1.00  0.00     0.118 C 
BRANCH  25  26
ATOM     26  N   UNL A   1      40.247  19.139  25.921  1.00  0.00    -0.352 N 
ATOM     27  C   UNL A   1      41.618  19.178  26.075  1.00  0.00     0.251 C 
ATOM     28  H   UNL A   1      39.884  18.240  25.749  1.00  0.00     0.163 HD
ATOM     29  O   UNL A   1      42.280  18.169  25.889  1.00  0.00    -0.269 OA
BRANCH  27  30
ATOM     30  C   UNL A   1      42.303  20.448  26.420  1.00  0.00     0.039 A 
ATOM     31  C   UNL A   1      42.912  21.186  25.400  1.00  0.00     0.014 A 
ATOM     32  C   UNL A   1      42.346  20.920  27.731  1.00  0.00     0.014 A 
ATOM     33  C   UNL A   1      43.468  22.439  25.681  1.00  0.00     0.010 A 
ATOM     34  C   UNL A   1      42.793  22.211  27.988  1.00  0.00     0.010 A 
ATOM     35  C   UNL A   1      43.360  22.989  26.968  1.00  0.00    -0.014 A 
BRANCH  35  36
ATOM     36  C   UNL A   1      43.829  24.366  27.277  1.00  0.00     0.031 A 
ATOM     37  C   UNL A   1      42.845  25.423  27.705  1.00  0.00     0.074 A 
ATOM     38  C   UNL A   1      45.122  24.697  27.081  1.00  0.00     0.049 A 
ATOM     39  N   UNL A   1      43.034  26.704  27.899  1.00  0.00    -0.248 NA
ATOM     40  C   UNL A   1      41.452  24.989  27.901  1.00  0.00     0.031 C 
ATOM     41  C   UNL A   1      46.171  23.787  26.616  1.00  0.00     0.029 A 
ATOM     42  N   UNL A   1      45.774  25.896  27.239  1.00  0.00    -0.354 N 
ATOM     43  C   UNL A   1      41.784  27.229  28.204  1.00  0.00     0.074 A 
ATOM     44  C   UNL A   1      40.836  26.141  28.113  1.00  0.00     0.031 C 
ATOM     45  C   UNL A   1      47.338  24.449  26.560  1.00  0.00     0.029 A 
ATOM     46  C   UNL A   1      47.114  25.840  26.939  1.00  0.00     0.049 A 
ATOM     47  H   UNL A   1      45.322  26.718  27.540  1.00  0.00     0.167 HD
ATOM     48  C   UNL A   1      41.457  28.495  28.554  1.00  0.00     0.037 A 
ATOM     49  C   UNL A   1      48.056  26.803  26.961  1.00  0.00     0.037 A 
ATOM     50  C   UNL A   1      42.409  29.566  28.692  1.00  0.00     0.049 A 
ATOM     51  C   UNL A   1      47.670  28.199  27.366  1.00  0.00     0.074 A 
ATOM     52  C   UNL A   1      42.191  30.863  29.123  1.00  0.00     0.029 A 
ATOM     53  N   UNL A   1      43.761  29.462  28.406  1.00  0.00    -0.354 N 
ATOM     54  N   UNL A   1      46.497  28.664  27.720  1.00  0.00    -0.248 NA
ATOM     55  C   UNL A   1      48.742  29.205  27.375  1.00  0.00     0.031 C 
ATOM     56  C   UNL A   1      43.404  31.556  29.056  1.00  0.00     0.029 A 
ATOM     57  C   UNL A   1      44.386  30.677  28.630  1.00  0.00     0.049 A 
ATOM     58  H   UNL A   1      44.211  28.644  28.090  1.00  0.00     0.167 HD
ATOM     59  C   UNL A   1      46.695  30.005  28.026  1.00  0.00     0.074 A 
ATOM     60  C   UNL A   1      48.103  30.276  27.825  1.00  0.00     0.031 C 
ATOM     61  C   UNL A   1      45.792  30.927  28.437  1.00  0.00     0.037 A 
BRANCH  48  62
ATOM     62  C   UNL A   1      40.008  28.788  28.819  1.00  0.00     0.057 A 
ATOM     63  C   UNL A   1      39.452  28.683  30.101  1.00  0.00     0.134 A 
ATOM     64  C   UNL A   1      39.161  29.198  27.781  1.00  0.00     0.134 A 
ATOM     65  F   UNL A   1      40.205  28.284  31.138  1.00  0.00    -0.206 F 
ATOM     66  C   UNL A   1      38.100  28.943  30.335  1.00  0.00     0.040 A 
ATOM     67  C   UNL A   1      37.815  29.490  28.008  1.00  0.00     0.040 A 
ATOM     68  F   UNL A   1      39.627  29.328  26.530  1.00  0.00    -0.206 F 
ATOM     69  C   UNL A   1      37.279  29.352  29.288  1.00  0.00     0.006 A 
ENDBRANCH  48  62
BRANCH  49  70
ATOM     70  C   UNL A   1      49.465  26.478  26.623  1.00  0.00     0.057 A 
ATOM     71  C   UNL A   1      49.950  26.660  25.321  1.00  0.00     0.134 A 
ATOM     72  C   UNL A   1      50.354  25.971  27.577  1.00  0.00     0.134 A 
ATOM     73  F   UNL A   1      49.140  27.124  24.359  1.00  0.00    -0.206 F 
ATOM     74  C   UNL A   1      51.261  26.331  24.976  1.00  0.00     0.040 A 
ATOM     75  C   UNL A   1      51.677  25.662  27.251  1.00  0.00     0.040 A 
ATOM     76  F   UNL A   1      49.954  25.780  28.843  1.00  0.00    -0.206 F 
ATOM     77  C   UNL A   1      52.131  25.835  25.945  1.00  0.00     0.006 A 
ENDBRANCH  49  70
BRANCH  61  78
ATOM     78  C   UNL A   1      46.305  32.304  28.738  1.00  0.00     0.057 A 
ATOM     79  C   UNL A   1      46.786  32.656  30.005  1.00  0.00     0.134 A 
ATOM     80  C   UNL A   1      46.357  33.279  27.732  1.00  0.00     0.134 A 
ATOM     81  F   UNL A   1      46.752  31.773  31.014  1.00  0.00    -0.206 F 
ATOM     82  C   UNL A   1      47.279  33.935  30.268  1.00  0.00     0.040 A 
ATOM     83  C   UNL A   1      46.872  34.552  27.976  1.00  0.00     0.040 A 
ATOM     84  F   UNL A   1      45.921  33.004  26.494  1.00  0.00    -0.206 F 
ATOM     85  C   UNL A   1      47.330  34.885  29.249  1.00  0.00     0.006 A 
ENDBRANCH  61  78
ENDBRANCH  35  36
ENDBRANCH  27  30
ENDBRANCH  25  26
ENDBRANCH  24  25
ENDBRANCH  23  24
ENDBRANCH   3  23
TORSDOF 16
ENDMDL
MODEL 3
REMARK VINA RESULT:     -11.1      0.684      6.369
REMARK SMILES COC[C@@H](C)CC(=O)Nc1cccc(/C=C/C(=O)NCCCNC(=O)c2ccc(-c3c4nc(c(-c5c(F)cccc5F)c5ccc([nH]5)c(-c5c(F)cccc5F)c5nc(c(-c6c(F)cccc6F)c6ccc3[nH]6)C=C5)C=C4)cc2)c1
REMARK SMILES IDX 17 1 18 2 19 3 16 5 15 6 14 7 10 8 11 9 80 10 12 11 13 12
REMARK SMILES IDX 9 13 7 14 8 15 6 17 4 18 5 19 3 20 2 21 1 22 20 23 21 24
REMARK SMILES IDX 22 25 23 26 24 27 25 29 26 30 27 31 79 32 28 33 78 34 29 35
REMARK SMILES IDX 30 36 31 37 72 38 32 39 77 40 71 41 73 42 33 43 76 44 70 45
REMARK SMILES IDX 69 46 34 48 60 49 43 50 59 51 44 52 47 53 58 54 74 55 45 56
REMARK SMILES IDX 46 57 57 59 75 60 48 61 35 62 36 63 41 64 37 65 38 66 40 67
REMARK SMILES IDX 42 68 39 69 61 70 62 71 67 72 63 73 64 74 66 75 68 76 65 77
REMARK SMILES IDX 49 78 50 79 55 80 51 81 52 82 54 83 56 84 53 85
REMARK H PARENT 19 4 9 16 23 28 73 47 47 58
REMARK Flexibility Score: inf
ROOT
ATOM      1  C   UNL A   1      37.403  23.192  25.565  1.00  0.00     0.244 C 
ATOM      2  O   UNL A   1      38.148  24.078  25.974  1.00  0.00    -0.270 OA
ATOM      3  N   UNL A   1      37.927  22.066  25.002  1.00  0.00    -0.352 N 
ATOM      4  H   UNL A   1      38.880  22.118  24.758  1.00  0.00     0.163 HD
ENDROOT
BRANCH   1   5
ATOM      5  C   UNL A   1      35.942  23.308  25.779  1.00  0.00     0.072 C 
ATOM      6  C   UNL A   1      35.259  24.450  25.599  1.00  0.00     0.014 C 
BRANCH   6   7
ATOM      7  C   UNL A   1      33.798  24.531  25.767  1.00  0.00    -0.023 A 
ATOM      8  C   UNL A   1      31.830  25.927  26.123  1.00  0.00     0.041 A 
ATOM      9  C   UNL A   1      31.011  24.805  26.038  1.00  0.00     0.026 A 
ATOM     10  C   UNL A   1      33.218  25.772  26.066  1.00  0.00     0.034 A 
ATOM     11  C   UNL A   1      31.577  23.555  25.776  1.00  0.00     0.003 A 
ATOM     12  C   UNL A   1      32.962  23.420  25.626  1.00  0.00     0.008 A 
BRANCH   8  13
ATOM     13  N   UNL A   1      31.258  27.187  26.350  1.00  0.00    -0.326 N 
ATOM     14  C   UNL A   1      31.413  28.323  25.591  1.00  0.00     0.224 C 
ATOM     15  O   UNL A   1      31.417  29.430  26.131  1.00  0.00    -0.275 OA
ATOM     16  H   UNL A   1      30.681  27.267  27.143  1.00  0.00     0.169 HD
BRANCH  14  17
ATOM     17  C   UNL A   1      31.313  28.183  24.071  1.00  0.00     0.106 C 
BRANCH  17  18
ATOM     18  C   UNL A   1      29.916  28.381  23.458  1.00  0.00     0.021 C 
ATOM     19  C   UNL A   1      29.113  27.078  23.503  1.00  0.00     0.010 C 
BRANCH  18  20
ATOM     20  C   UNL A   1      30.036  28.930  22.029  1.00  0.00     0.163 C 
BRANCH  20  21
ATOM     21  O   UNL A   1      29.079  29.938  21.713  1.00  0.00    -0.384 OA
ATOM     22  C   UNL A   1      28.648  30.644  22.875  1.00  0.00     0.194 C 
ENDBRANCH  20  21
ENDBRANCH  18  20
ENDBRANCH  17  18
ENDBRANCH  14  17
ENDBRANCH   8  13
ENDBRANCH   6   7
ENDBRANCH   1   5
BRANCH   3  23
ATOM     23  C   UNL A   1      37.272  20.803  24.712  1.00  0.00     0.118 C 
BRANCH  23  24
ATOM     24  C   UNL A   1      38.147  19.593  24.998  1.00  0.00     0.042 C 
BRANCH  24  25
ATOM     25  C   UNL A   1      39.250  19.873  26.010  1.00  0.00     0.118 C 
BRANCH  25  26
ATOM     26  N   UNL A   1      40.348  18.916  25.948  1.00  0.00    -0.352 N 
ATOM     27  C   UNL A   1      41.712  19.086  26.079  1.00  0.00     0.251 C 
ATOM     28  H   UNL A   1      40.069  17.985  25.783  1.00  0.00     0.163 HD
ATOM     29  O   UNL A   1      42.463  18.143  25.885  1.00  0.00    -0.269 OA
BRANCH  27  30
ATOM     30  C   UNL A   1      42.278  20.416  26.412  1.00  0.00     0.039 A 
ATOM     31  C   UNL A   1      42.766  21.219  25.376  1.00  0.00     0.014 A 
ATOM     32  C   UNL A   1      42.327  20.880  27.725  1.00  0.00     0.014 A 
ATOM     33  C   UNL A   1      43.204  22.520  25.649  1.00  0.00     0.010 A 
ATOM     34  C   UNL A   1      42.652  22.208  27.979  1.00  0.00     0.010 A 
ATOM     35  C   UNL A   1      43.094  23.047  26.945  1.00  0.00    -0.014 A 
BRANCH  35  36
ATOM     36  C   UNL A   1      43.434  24.462  27.250  1.00  0.00     0.031 A 
ATOM     37  C   UNL A   1      44.867  24.924  27.198  1.00  0.00     0.074 A 
ATOM     38  C   UNL A   1      42.473  25.311  27.669  1.00  0.00     0.049 A 
ATOM     39  N   UNL A   1      45.381  26.077  27.547  1.00  0.00    -0.248 NA
ATOM     40  C   UNL A   1      45.861  23.945  26.729  1.00  0.00     0.031 C 
ATOM     41  C   UNL A   1      41.054  24.980  27.819  1.00  0.00     0.029 A 
ATOM     42  N   UNL A   1      42.546  26.626  28.057  1.00  0.00    -0.354 N 
ATOM     43  C   UNL A   1      46.754  25.948  27.373  1.00  0.00     0.074 A 
ATOM     44  C   UNL A   1      46.998  24.589  26.943  1.00  0.00     0.031 C 
ATOM     45  C   UNL A   1      40.388  26.070  28.233  1.00  0.00     0.029 A 
ATOM     46  C   UNL A   1      41.335  27.163  28.422  1.00  0.00     0.049 A 
ATOM     47  H   UNL A   1      43.389  27.136  28.072  1.00  0.00     0.167 HD
ATOM     48  C   UNL A   1      47.722  26.881  27.530  1.00  0.00     0.037 A 
ATOM     49  C   UNL A   1      41.023  28.397  28.865  1.00  0.00     0.037 A 
ATOM     50  C   UNL A   1      47.472  28.247  27.910  1.00  0.00     0.049 A 
ATOM     51  C   UNL A   1      42.114  29.420  29.018  1.00  0.00     0.074 A 
ATOM     52  C   UNL A   1      48.374  29.291  28.016  1.00  0.00     0.029 A 
ATOM     53  N   UNL A   1      46.227  28.759  28.243  1.00  0.00    -0.354 N 
ATOM     54  N   UNL A   1      43.398  29.304  28.782  1.00  0.00    -0.248 NA
ATOM     55  C   UNL A   1      41.711  30.749  29.501  1.00  0.00     0.031 C 
ATOM     56  C   UNL A   1      47.682  30.424  28.455  1.00  0.00     0.029 A 
ATOM     57  C   UNL A   1      46.341  30.098  28.576  1.00  0.00     0.049 A 
ATOM     58  H   UNL A   1      45.387  28.245  28.244  1.00  0.00     0.167 HD
ATOM     59  C   UNL A   1      43.950  30.549  29.053  1.00  0.00     0.074 A 
ATOM     60  C   UNL A   1      42.860  31.410  29.463  1.00  0.00     0.031 C 
ATOM     61  C   UNL A   1      45.244  30.944  28.969  1.00  0.00     0.037 A 
BRANCH  48  62
ATOM     62  C   UNL A   1      49.140  26.456  27.284  1.00  0.00     0.057 A 
ATOM     63  C   UNL A   1      49.963  25.983  28.315  1.00  0.00     0.134 A 
ATOM     64  C   UNL A   1      49.686  26.500  25.994  1.00  0.00     0.134 A 
ATOM     65  F   UNL A   1      49.508  25.925  29.575  1.00  0.00    -0.206 F 
ATOM     66  C   UNL A   1      51.287  25.603  28.079  1.00  0.00     0.040 A 
ATOM     67  C   UNL A   1      50.997  26.094  25.740  1.00  0.00     0.040 A 
ATOM     68  F   UNL A   1      48.953  26.934  24.957  1.00  0.00    -0.206 F 
ATOM     69  C   UNL A   1      51.804  25.654  26.788  1.00  0.00     0.006 A 
ENDBRANCH  48  62
BRANCH  49  70
ATOM     70  C   UNL A   1      39.611  28.749  29.162  1.00  0.00     0.057 A 
ATOM     71  C   UNL A   1      38.769  29.242  28.157  1.00  0.00     0.134 A 
ATOM     72  C   UNL A   1      39.072  28.613  30.446  1.00  0.00     0.134 A 
ATOM     73  F   UNL A   1      39.234  29.412  26.912  1.00  0.00    -0.206 F 
ATOM     74  C   UNL A   1      37.449  29.608  28.423  1.00  0.00     0.040 A 
ATOM     75  C   UNL A   1      37.745  28.952  30.720  1.00  0.00     0.040 A 
ATOM     76  F   UNL A   1      39.824  28.140  31.451  1.00  0.00    -0.206 F 
ATOM     77  C   UNL A   1      36.932  29.458  29.708  1.00  0.00     0.006 A 
ENDBRANCH  49  70
BRANCH  61  78
ATOM     78  C   UNL A   1      45.545  32.380  29.286  1.00  0.00     0.057 A 
ATOM     79  C   UNL A   1      45.912  32.794  30.572  1.00  0.00     0.134 A 
ATOM     80  C   UNL A   1      45.505  33.353  28.278  1.00  0.00     0.134 A 
ATOM     81  F   UNL A   1      45.956  31.914  31.583  1.00  0.00    -0.206 F 
ATOM     82  C   UNL A   1      46.208  34.129  30.850  1.00  0.00     0.040 A 
ATOM     83  C   UNL A   1      45.825  34.685  28.538  1.00  0.00     0.040 A 
ATOM     84  F   UNL A   1      45.170  33.021  27.022  1.00  0.00    -0.206 F 
ATOM     85  C   UNL A   1      46.173  35.078  29.829  1.00  0.00     0.006 A 
ENDBRANCH  61  78
ENDBRANCH  35  36
ENDBRANCH  27  30
ENDBRANCH  25  26
ENDBRANCH  24  25
ENDBRANCH  23  24
ENDBRANCH   3  23
TORSDOF 16
ENDMDL
