MODEL 1
REMARK VINA RESULT:     -11.9      0.000      0.000
REMARK SMILES Cc1ccc(Br)cc1S(=O)(=O)N[C@H]1C=C[C@H](C(=O)NCCCNC(=O)c2ccc(-c3c4nc(c(-c5c(F)cccc5F)c5ccc([nH]5)c(-c5c(F)cccc5F)c5nc(c(-c6c(F)cccc6F)c6ccc3[nH]6)C=C5)C=C4)cc2)C1
REMARK SMILES IDX 20 1 19 2 17 3 18 4 16 6 13 7 14 8 80 9 15 10 12 11 9 13
REMARK SMILES IDX 10 14 11 15 8 16 1 17 2 18 3 19 4 20 7 21 5 22 6 23 21 24
REMARK SMILES IDX 22 25 23 26 24 27 25 29 26 30 27 31 79 32 28 33 78 34 29 35
REMARK SMILES IDX 30 36 31 37 72 38 32 39 77 40 71 41 73 42 33 43 76 44 70 45
REMARK SMILES IDX 69 46 34 48 60 49 43 50 59 51 44 52 47 53 58 54 74 55 45 56
REMARK SMILES IDX 46 57 57 59 75 60 48 61 35 62 36 63 41 64 37 65 38 66 40 67
REMARK SMILES IDX 42 68 39 69 61 70 62 71 67 72 63 73 64 74 66 75 68 76 65 77
REMARK SMILES IDX 49 78 50 79 55 80 51 81 52 82 54 83 56 84 53 85
REMARK H PARENT 19 5 12 12 23 28 73 47 47 58
REMARK Flexibility Score: inf
ROOT
ATOM      1  C   UNL A   1      36.853  20.217  24.890  1.00  0.00     0.117 C 
ENDROOT
BRANCH   1   2
ATOM      2  N   UNL A   1      37.117  21.429  24.131  1.00  0.00    -0.356 N 
ATOM      3  C   UNL A   1      36.384  22.496  23.738  1.00  0.00     0.226 C 
ATOM      4  O   UNL A   1      36.945  23.249  22.929  1.00  0.00    -0.274 OA
ATOM      5  H   UNL A   1      38.053  21.487  23.833  1.00  0.00     0.163 HD
BRANCH   3   6
ATOM      6  C   UNL A   1      34.953  22.825  24.177  1.00  0.00     0.103 C 
ATOM      7  C   UNL A   1      34.011  24.994  23.610  1.00  0.00     0.093 C 
ATOM      8  C   UNL A   1      34.342  24.919  25.064  1.00  0.00    -0.011 C 
ATOM      9  C   UNL A   1      33.984  23.510  23.229  1.00  0.00     0.042 C 
ATOM     10  C   UNL A   1      34.904  23.740  25.367  1.00  0.00    -0.016 C 
BRANCH   7  11
ATOM     11  N   UNL A   1      32.721  25.604  23.399  1.00  0.00    -0.204 NA
ATOM     12  H   UNL A   1      32.065  24.845  23.218  1.00  0.00     0.142 HD
BRANCH  11  13
ATOM     13  S   UNL A   1      32.502  26.726  22.179  1.00  0.00     0.241 S 
ATOM     14  O   UNL A   1      31.584  26.123  21.229  1.00  0.00    -0.207 OA
ATOM     15  O   UNL A   1      33.807  27.186  21.780  1.00  0.00    -0.207 OA
BRANCH  13  16
ATOM     16  C   UNL A   1      31.658  28.099  22.952  1.00  0.00     0.086 A 
ATOM     17  C   UNL A   1      33.504  28.542  24.710  1.00  0.00     0.046 C 
ATOM     18  C   UNL A   1      32.156  28.770  24.086  1.00  0.00    -0.031 A 
ATOM     19  C   UNL A   1      31.348  29.763  24.678  1.00  0.00     0.006 A 
ATOM     20  C   UNL A   1      30.113  30.118  24.131  1.00  0.00     0.016 A 
ATOM     21  C   UNL A   1      30.425  28.476  22.390  1.00  0.00     0.037 A 
ATOM     22  C   UNL A   1      29.670  29.488  22.975  1.00  0.00     0.019 A 
ATOM     23  Br  UNL A   1      28.032  30.013  22.192  1.00  0.00    -0.051 Br
ENDBRANCH  13  16
ENDBRANCH  11  13
ENDBRANCH   7  11
ENDBRANCH   3   6
ENDBRANCH   1   2
BRANCH   1  24
ATOM     24  C   UNL A   1      38.092  19.334  24.989  1.00  0.00     0.042 C 
BRANCH  24  25
ATOM     25  C   UNL A   1      39.197  19.954  25.833  1.00  0.00     0.118 C 
BRANCH  25  26
ATOM     26  N   UNL A   1      40.415  19.153  25.824  1.00  0.00    -0.352 N 
ATOM     27  C   UNL A   1      41.720  19.529  26.023  1.00  0.00     0.251 C 
ATOM     28  H   UNL A   1      40.281  18.193  25.648  1.00  0.00     0.163 HD
ATOM     29  O   UNL A   1      42.627  18.743  25.769  1.00  0.00    -0.269 OA
BRANCH  27  30
ATOM     30  C   UNL A   1      42.036  20.879  26.535  1.00  0.00     0.039 A 
ATOM     31  C   UNL A   1      42.446  21.868  25.636  1.00  0.00     0.014 A 
ATOM     32  C   UNL A   1      41.962  21.162  27.901  1.00  0.00     0.014 A 
ATOM     33  C   UNL A   1      42.723  23.155  26.101  1.00  0.00     0.010 A 
ATOM     34  C   UNL A   1      42.150  22.464  28.350  1.00  0.00     0.010 A 
ATOM     35  C   UNL A   1      42.548  23.470  27.458  1.00  0.00    -0.014 A 
BRANCH  35  36
ATOM     36  C   UNL A   1      42.806  24.834  27.980  1.00  0.00     0.031 A 
ATOM     37  C   UNL A   1      44.198  25.220  28.401  1.00  0.00     0.074 A 
ATOM     38  C   UNL A   1      41.783  25.691  28.157  1.00  0.00     0.049 A 
ATOM     39  N   UNL A   1      44.612  26.309  28.997  1.00  0.00    -0.248 NA
ATOM     40  C   UNL A   1      45.261  24.232  28.155  1.00  0.00     0.031 C 
ATOM     41  C   UNL A   1      40.381  25.417  27.839  1.00  0.00     0.029 A 
ATOM     42  N   UNL A   1      41.766  26.967  28.661  1.00  0.00    -0.354 N 
ATOM     43  C   UNL A   1      45.968  26.119  29.231  1.00  0.00     0.074 A 
ATOM     44  C   UNL A   1      46.300  24.795  28.754  1.00  0.00     0.031 C 
ATOM     45  C   UNL A   1      39.643  26.500  28.132  1.00  0.00     0.029 A 
ATOM     46  C   UNL A   1      40.514  27.530  28.689  1.00  0.00     0.049 A 
ATOM     47  H   UNL A   1      42.574  27.434  28.973  1.00  0.00     0.167 HD
ATOM     48  C   UNL A   1      46.862  26.978  29.777  1.00  0.00     0.037 A 
ATOM     49  C   UNL A   1      40.115  28.741  29.119  1.00  0.00     0.037 A 
ATOM     50  C   UNL A   1      46.541  28.317  30.193  1.00  0.00     0.049 A 
ATOM     51  C   UNL A   1      41.134  29.696  29.673  1.00  0.00     0.074 A 
ATOM     52  C   UNL A   1      47.390  29.296  30.679  1.00  0.00     0.029 A 
ATOM     53  N   UNL A   1      45.270  28.868  30.158  1.00  0.00    -0.354 N 
ATOM     54  N   UNL A   1      42.423  29.524  29.839  1.00  0.00    -0.248 NA
ATOM     55  C   UNL A   1      40.644  31.016  30.094  1.00  0.00     0.031 C 
ATOM     56  C   UNL A   1      46.626  30.433  30.962  1.00  0.00     0.029 A 
ATOM     57  C   UNL A   1      45.308  30.172  30.621  1.00  0.00     0.049 A 
ATOM     58  H   UNL A   1      44.460  28.401  29.850  1.00  0.00     0.167 HD
ATOM     59  C   UNL A   1      42.902  30.718  30.360  1.00  0.00     0.074 A 
ATOM     60  C   UNL A   1      41.766  31.611  30.472  1.00  0.00     0.031 C 
ATOM     61  C   UNL A   1      44.168  31.045  30.714  1.00  0.00     0.037 A 
BRANCH  48  62
ATOM     62  C   UNL A   1      48.272  26.494  29.942  1.00  0.00     0.057 A 
ATOM     63  C   UNL A   1      48.684  25.796  31.084  1.00  0.00     0.134 A 
ATOM     64  C   UNL A   1      49.225  26.714  28.939  1.00  0.00     0.134 A 
ATOM     65  F   UNL A   1      47.824  25.566  32.088  1.00  0.00    -0.206 F 
ATOM     66  C   UNL A   1      50.001  25.359  31.237  1.00  0.00     0.040 A 
ATOM     67  C   UNL A   1      50.538  26.258  29.068  1.00  0.00     0.040 A 
ATOM     68  F   UNL A   1      48.894  27.371  27.817  1.00  0.00    -0.206 F 
ATOM     69  C   UNL A   1      50.932  25.585  30.223  1.00  0.00     0.006 A 
ENDBRANCH  48  62
BRANCH  49  70
ATOM     70  C   UNL A   1      38.688  29.134  29.008  1.00  0.00     0.057 A 
ATOM     71  C   UNL A   1      37.838  29.059  30.118  1.00  0.00     0.134 A 
ATOM     72  C   UNL A   1      38.143  29.592  27.805  1.00  0.00     0.134 A 
ATOM     73  F   UNL A   1      38.301  28.610  31.294  1.00  0.00    -0.206 F 
ATOM     74  C   UNL A   1      36.491  29.413  30.031  1.00  0.00     0.040 A 
ATOM     75  C   UNL A   1      36.802  29.969  27.708  1.00  0.00     0.040 A 
ATOM     76  F   UNL A   1      38.910  29.692  26.708  1.00  0.00    -0.206 F 
ATOM     77  C   UNL A   1      35.971  29.875  28.823  1.00  0.00     0.006 A 
ENDBRANCH  49  70
BRANCH  61  78
ATOM     78  C   UNL A   1      44.394  32.435  31.225  1.00  0.00     0.057 A 
ATOM     79  C   UNL A   1      44.675  33.500  30.362  1.00  0.00     0.134 A 
ATOM     80  C   UNL A   1      44.291  32.716  32.593  1.00  0.00     0.134 A 
ATOM     81  F   UNL A   1      44.799  33.290  29.041  1.00  0.00    -0.206 F 
ATOM     82  C   UNL A   1      44.863  34.796  30.842  1.00  0.00     0.040 A 
ATOM     83  C   UNL A   1      44.456  34.012  33.084  1.00  0.00     0.040 A 
ATOM     84  F   UNL A   1      44.017  31.741  33.471  1.00  0.00    -0.206 F 
ATOM     85  C   UNL A   1      44.747  35.055  32.206  1.00  0.00     0.006 A 
ENDBRANCH  61  78
ENDBRANCH  35  36
ENDBRANCH  27  30
ENDBRANCH  25  26
ENDBRANCH  24  25
ENDBRANCH   1  24
TORSDOF 13
ENDMDL
MODEL 2
REMARK VINA RESULT:     -11.8      4.630      9.572
REMARK SMILES Cc1ccc(Br)cc1S(=O)(=O)N[C@H]1C=C[C@H](C(=O)NCCCNC(=O)c2ccc(-c3c4nc(c(-c5c(F)cccc5F)c5ccc([nH]5)c(-c5c(F)cccc5F)c5nc(c(-c6c(F)cccc6F)c6ccc3[nH]6)C=C5)C=C4)cc2)C1
REMARK SMILES IDX 20 1 19 2 17 3 18 4 16 6 13 7 14 8 80 9 15 10 12 11 9 13
REMARK SMILES IDX 10 14 11 15 8 16 1 17 2 18 3 19 4 20 7 21 5 22 6 23 21 24
REMARK SMILES IDX 22 25 23 26 24 27 25 29 26 30 27 31 79 32 28 33 78 34 29 35
REMARK SMILES IDX 30 36 31 37 72 38 32 39 77 40 71 41 73 42 33 43 76 44 70 45
REMARK SMILES IDX 69 46 34 48 60 49 43 50 59 51 44 52 47 53 58 54 74 55 45 56
REMARK SMILES IDX 46 57 57 59 75 60 48 61 35 62 36 63 41 64 37 65 38 66 40 67
REMARK SMILES IDX 42 68 39 69 61 70 62 71 67 72 63 73 64 74 66 75 68 76 65 77
REMARK SMILES IDX 49 78 50 79 55 80 51 81 52 82 54 83 56 84 53 85
REMARK H PARENT 19 5 12 12 23 28 73 47 47 58
REMARK Flexibility Score: inf
ROOT
ATOM      1  C   UNL A   1      31.581  30.860  25.940  1.00  0.00     0.117 C 
ENDROOT
BRANCH   1   2
ATOM      2  N   UNL A   1      31.608  29.844  26.981  1.00  0.00    -0.356 N 
ATOM      3  C   UNL A   1      31.637  28.491  27.004  1.00  0.00     0.226 C 
ATOM      4  O   UNL A   1      31.463  27.982  28.121  1.00  0.00    -0.274 OA
ATOM      5  H   UNL A   1      31.605  30.234  27.884  1.00  0.00     0.163 HD
BRANCH   3   6
ATOM      6  C   UNL A   1      31.835  27.567  25.798  1.00  0.00     0.103 C 
ATOM      7  C   UNL A   1      32.301  25.211  26.177  1.00  0.00     0.093 C 
ATOM      8  C   UNL A   1      33.525  25.930  25.711  1.00  0.00    -0.011 C 
ATOM      9  C   UNL A   1      31.198  26.189  25.757  1.00  0.00     0.042 C 
ATOM     10  C   UNL A   1      33.279  27.238  25.547  1.00  0.00    -0.016 C 
BRANCH   7  11
ATOM     11  N   UNL A   1      32.151  23.944  25.502  1.00  0.00    -0.204 NA
ATOM     12  H   UNL A   1      31.362  24.046  24.864  1.00  0.00     0.142 HD
BRANCH  11  13
ATOM     13  S   UNL A   1      31.882  22.544  26.375  1.00  0.00     0.241 S 
ATOM     14  O   UNL A   1      30.579  22.051  25.966  1.00  0.00    -0.207 OA
ATOM     15  O   UNL A   1      32.180  22.835  27.754  1.00  0.00    -0.207 OA
BRANCH  13  16
ATOM     16  C   UNL A   1      33.111  21.386  25.790  1.00  0.00     0.086 A 
ATOM     17  C   UNL A   1      35.140  22.820  26.508  1.00  0.00     0.046 C 
ATOM     18  C   UNL A   1      34.495  21.639  25.838  1.00  0.00    -0.031 A 
ATOM     19  C   UNL A   1      35.363  20.701  25.242  1.00  0.00     0.006 A 
ATOM     20  C   UNL A   1      34.879  19.525  24.667  1.00  0.00     0.016 A 
ATOM     21  C   UNL A   1      32.629  20.188  25.232  1.00  0.00     0.037 A 
ATOM     22  C   UNL A   1      33.515  19.263  24.687  1.00  0.00     0.019 A 
ATOM     23  Br  UNL A   1      32.862  17.641  23.972  1.00  0.00    -0.051 Br
ENDBRANCH  13  16
ENDBRANCH  11  13
ENDBRANCH   7  11
ENDBRANCH   3   6
ENDBRANCH   1   2
BRANCH   1  24
ATOM     24  C   UNL A   1      31.337  32.249  26.516  1.00  0.00     0.042 C 
BRANCH  24  25
ATOM     25  C   UNL A   1      32.520  32.776  27.318  1.00  0.00     0.118 C 
BRANCH  25  26
ATOM     26  N   UNL A   1      32.365  34.180  27.676  1.00  0.00    -0.352 N 
ATOM     27  C   UNL A   1      33.024  34.929  28.618  1.00  0.00     0.251 C 
ATOM     28  H   UNL A   1      31.680  34.667  27.163  1.00  0.00     0.163 HD
ATOM     29  O   UNL A   1      32.605  36.044  28.914  1.00  0.00    -0.269 OA
BRANCH  27  30
ATOM     30  C   UNL A   1      34.232  34.395  29.282  1.00  0.00     0.039 A 
ATOM     31  C   UNL A   1      34.104  33.775  30.529  1.00  0.00     0.014 A 
ATOM     32  C   UNL A   1      35.492  34.533  28.695  1.00  0.00     0.014 A 
ATOM     33  C   UNL A   1      35.232  33.242  31.156  1.00  0.00     0.010 A 
ATOM     34  C   UNL A   1      36.598  33.925  29.277  1.00  0.00     0.010 A 
ATOM     35  C   UNL A   1      36.483  33.287  30.520  1.00  0.00    -0.014 A 
BRANCH  35  36
ATOM     36  C   UNL A   1      37.696  32.706  31.146  1.00  0.00     0.031 A 
ATOM     37  C   UNL A   1      38.359  31.510  30.520  1.00  0.00     0.074 A 
ATOM     38  C   UNL A   1      38.149  33.196  32.316  1.00  0.00     0.049 A 
ATOM     39  N   UNL A   1      39.345  30.778  30.970  1.00  0.00    -0.248 NA
ATOM     40  C   UNL A   1      37.813  31.051  29.232  1.00  0.00     0.031 C 
ATOM     41  C   UNL A   1      37.561  34.317  33.051  1.00  0.00     0.029 A 
ATOM     42  N   UNL A   1      39.203  32.802  33.098  1.00  0.00    -0.354 N 
ATOM     43  C   UNL A   1      39.509  29.754  30.046  1.00  0.00     0.074 A 
ATOM     44  C   UNL A   1      38.495  29.933  29.030  1.00  0.00     0.031 C 
ATOM     45  C   UNL A   1      38.279  34.538  34.165  1.00  0.00     0.029 A 
ATOM     46  C   UNL A   1      39.353  33.552  34.239  1.00  0.00     0.049 A 
ATOM     47  H   UNL A   1      39.797  32.053  32.866  1.00  0.00     0.167 HD
ATOM     48  C   UNL A   1      40.434  28.765  30.032  1.00  0.00     0.037 A 
ATOM     49  C   UNL A   1      40.254  33.453  35.233  1.00  0.00     0.037 A 
ATOM     50  C   UNL A   1      41.480  28.628  31.009  1.00  0.00     0.049 A 
ATOM     51  C   UNL A   1      41.303  32.380  35.168  1.00  0.00     0.074 A 
ATOM     52  C   UNL A   1      42.518  27.712  31.039  1.00  0.00     0.029 A 
ATOM     53  N   UNL A   1      41.627  29.439  32.122  1.00  0.00    -0.354 N 
ATOM     54  N   UNL A   1      41.480  31.451  34.261  1.00  0.00    -0.248 NA
ATOM     55  C   UNL A   1      42.282  32.343  36.265  1.00  0.00     0.031 C 
ATOM     56  C   UNL A   1      43.280  27.956  32.187  1.00  0.00     0.029 A 
ATOM     57  C   UNL A   1      42.734  29.042  32.852  1.00  0.00     0.049 A 
ATOM     58  H   UNL A   1      41.033  30.188  32.360  1.00  0.00     0.167 HD
ATOM     59  C   UNL A   1      42.601  30.736  34.661  1.00  0.00     0.074 A 
ATOM     60  C   UNL A   1      43.069  31.346  35.889  1.00  0.00     0.031 C 
ATOM     61  C   UNL A   1      43.188  29.670  34.066  1.00  0.00     0.037 A 
BRANCH  48  62
ATOM     62  C   UNL A   1      40.358  27.765  28.917  1.00  0.00     0.057 A 
ATOM     63  C   UNL A   1      41.088  27.923  27.731  1.00  0.00     0.134 A 
ATOM     64  C   UNL A   1      39.559  26.621  29.037  1.00  0.00     0.134 A 
ATOM     65  F   UNL A   1      41.861  29.004  27.547  1.00  0.00    -0.206 F 
ATOM     66  C   UNL A   1      41.003  26.993  26.693  1.00  0.00     0.040 A 
ATOM     67  C   UNL A   1      39.487  25.671  28.017  1.00  0.00     0.040 A 
ATOM     68  F   UNL A   1      38.839  26.406  30.148  1.00  0.00    -0.206 F 
ATOM     69  C   UNL A   1      40.204  25.860  26.837  1.00  0.00     0.006 A 
ENDBRANCH  48  62
BRANCH  49  70
ATOM     70  C   UNL A   1      40.228  34.422  36.356  1.00  0.00     0.057 A 
ATOM     71  C   UNL A   1      39.522  34.136  37.530  1.00  0.00     0.134 A 
ATOM     72  C   UNL A   1      40.903  35.645  36.289  1.00  0.00     0.134 A 
ATOM     73  F   UNL A   1      38.841  32.986  37.645  1.00  0.00    -0.206 F 
ATOM     74  C   UNL A   1      39.476  35.039  38.594  1.00  0.00     0.040 A 
ATOM     75  C   UNL A   1      40.883  36.550  37.352  1.00  0.00     0.040 A 
ATOM     76  F   UNL A   1      41.603  35.973  35.192  1.00  0.00    -0.206 F 
ATOM     77  C   UNL A   1      40.163  36.249  38.507  1.00  0.00     0.006 A 
ENDBRANCH  49  70
BRANCH  61  78
ATOM     78  C   UNL A   1      44.418  29.119  34.718  1.00  0.00     0.057 A 
ATOM     79  C   UNL A   1      44.350  28.103  35.679  1.00  0.00     0.134 A 
ATOM     80  C   UNL A   1      45.688  29.583  34.352  1.00  0.00     0.134 A 
ATOM     81  F   UNL A   1      43.161  27.626  36.080  1.00  0.00    -0.206 F 
ATOM     82  C   UNL A   1      45.501  27.579  36.266  1.00  0.00     0.040 A 
ATOM     83  C   UNL A   1      46.848  29.052  34.916  1.00  0.00     0.040 A 
ATOM     84  F   UNL A   1      45.820  30.550  33.432  1.00  0.00    -0.206 F 
ATOM     85  C   UNL A   1      46.755  28.049  35.880  1.00  0.00     0.006 A 
ENDBRANCH  61  78
ENDBRANCH  35  36
ENDBRANCH  27  30
ENDBRANCH  25  26
ENDBRANCH  24  25
ENDBRANCH   1  24
TORSDOF 13
ENDMDL
MODEL 3
REMARK VINA RESULT:     -11.8      1.650      6.367
REMARK SMILES Cc1ccc(Br)cc1S(=O)(=O)N[C@H]1C=C[C@H](C(=O)NCCCNC(=O)c2ccc(-c3c4nc(c(-c5c(F)cccc5F)c5ccc([nH]5)c(-c5c(F)cccc5F)c5nc(c(-c6c(F)cccc6F)c6ccc3[nH]6)C=C5)C=C4)cc2)C1
REMARK SMILES IDX 20 1 19 2 17 3 18 4 16 6 13 7 14 8 80 9 15 10 12 11 9 13
REMARK SMILES IDX 10 14 11 15 8 16 1 17 2 18 3 19 4 20 7 21 5 22 6 23 21 24
REMARK SMILES IDX 22 25 23 26 24 27 25 29 26 30 27 31 79 32 28 33 78 34 29 35
REMARK SMILES IDX 30 36 31 37 72 38 32 39 77 40 71 41 73 42 33 43 76 44 70 45
REMARK SMILES IDX 69 46 34 48 60 49 43 50 59 51 44 52 47 53 58 54 74 55 45 56
REMARK SMILES IDX 46 57 57 59 75 60 48 61 35 62 36 63 41 64 37 65 38 66 40 67
REMARK SMILES IDX 42 68 39 69 61 70 62 71 67 72 63 73 64 74 66 75 68 76 65 77
REMARK SMILES IDX 49 78 50 79 55 80 51 81 52 82 54 83 56 84 53 85
REMARK H PARENT 19 5 12 12 23 28 73 47 47 58
REMARK Flexibility Score: inf
ROOT
ATOM      1  C   UNL A   1      36.860  20.394  25.015  1.00  0.00     0.117 C 
ENDROOT
BRANCH   1   2
ATOM      2  N   UNL A   1      37.092  21.583  24.210  1.00  0.00    -0.356 N 
ATOM      3  C   UNL A   1      36.313  22.561  23.693  1.00  0.00     0.226 C 
ATOM      4  O   UNL A   1      36.881  23.316  22.890  1.00  0.00    -0.274 OA
ATOM      5  H   UNL A   1      38.043  21.705  23.988  1.00  0.00     0.163 HD
BRANCH   3   6
ATOM      6  C   UNL A   1      34.827  22.790  23.989  1.00  0.00     0.103 C 
ATOM      7  C   UNL A   1      33.823  24.931  23.421  1.00  0.00     0.093 C 
ATOM      8  C   UNL A   1      34.004  24.800  24.898  1.00  0.00    -0.011 C 
ATOM      9  C   UNL A   1      33.924  23.468  22.974  1.00  0.00     0.042 C 
ATOM     10  C   UNL A   1      34.600  23.639  25.207  1.00  0.00    -0.016 C 
BRANCH   7  11
ATOM     11  N   UNL A   1      32.528  25.480  23.099  1.00  0.00    -0.204 NA
ATOM     12  H   UNL A   1      31.960  24.705  22.757  1.00  0.00     0.142 HD
BRANCH  11  13
ATOM     13  S   UNL A   1      32.383  26.711  21.978  1.00  0.00     0.241 S 
ATOM     14  O   UNL A   1      31.425  26.251  20.988  1.00  0.00    -0.207 OA
ATOM     15  O   UNL A   1      33.715  27.114  21.609  1.00  0.00    -0.207 OA
BRANCH  13  16
ATOM     16  C   UNL A   1      31.635  28.068  22.868  1.00  0.00     0.086 A 
ATOM     17  C   UNL A   1      33.669  28.480  24.413  1.00  0.00     0.046 C 
ATOM     18  C   UNL A   1      32.259  28.718  23.951  1.00  0.00    -0.031 A 
ATOM     19  C   UNL A   1      31.524  29.698  24.649  1.00  0.00     0.006 A 
ATOM     20  C   UNL A   1      30.236  30.062  24.254  1.00  0.00     0.016 A 
ATOM     21  C   UNL A   1      30.347  28.455  22.457  1.00  0.00     0.037 A 
ATOM     22  C   UNL A   1      29.664  29.455  23.143  1.00  0.00     0.019 A 
ATOM     23  Br  UNL A   1      27.948  29.992  22.562  1.00  0.00    -0.051 Br
ENDBRANCH  13  16
ENDBRANCH  11  13
ENDBRANCH   7  11
ENDBRANCH   3   6
ENDBRANCH   1   2
BRANCH   1  24
ATOM     24  C   UNL A   1      38.058  19.453  24.987  1.00  0.00     0.042 C 
BRANCH  24  25
ATOM     25  C   UNL A   1      39.258  19.995  25.753  1.00  0.00     0.118 C 
BRANCH  25  26
ATOM     26  N   UNL A   1      40.320  19.007  25.889  1.00  0.00    -0.352 N 
ATOM     27  C   UNL A   1      41.669  19.180  26.072  1.00  0.00     0.251 C 
ATOM     28  H   UNL A   1      40.024  18.068  25.843  1.00  0.00     0.163 HD
ATOM     29  O   UNL A   1      42.429  18.223  25.955  1.00  0.00    -0.269 OA
BRANCH  27  30
ATOM     30  C   UNL A   1      42.210  20.515  26.401  1.00  0.00     0.039 A 
ATOM     31  C   UNL A   1      42.635  21.352  25.364  1.00  0.00     0.014 A 
ATOM     32  C   UNL A   1      42.332  20.931  27.729  1.00  0.00     0.014 A 
ATOM     33  C   UNL A   1      43.124  22.626  25.658  1.00  0.00     0.010 A 
ATOM     34  C   UNL A   1      42.734  22.230  28.015  1.00  0.00     0.010 A 
ATOM     35  C   UNL A   1      43.149  23.085  26.984  1.00  0.00    -0.014 A 
BRANCH  35  36
ATOM     36  C   UNL A   1      43.636  24.443  27.329  1.00  0.00     0.031 A 
ATOM     37  C   UNL A   1      42.659  25.496  27.778  1.00  0.00     0.074 A 
ATOM     38  C   UNL A   1      44.935  24.755  27.156  1.00  0.00     0.049 A 
ATOM     39  N   UNL A   1      42.857  26.769  28.003  1.00  0.00    -0.248 NA
ATOM     40  C   UNL A   1      41.263  25.066  27.959  1.00  0.00     0.031 C 
ATOM     41  C   UNL A   1      45.971  23.840  26.675  1.00  0.00     0.029 A 
ATOM     42  N   UNL A   1      45.602  25.937  27.356  1.00  0.00    -0.354 N 
ATOM     43  C   UNL A   1      41.609  27.296  28.312  1.00  0.00     0.074 A 
ATOM     44  C   UNL A   1      40.653  26.217  28.204  1.00  0.00     0.031 C 
ATOM     45  C   UNL A   1      47.148  24.486  26.641  1.00  0.00     0.029 A 
ATOM     46  C   UNL A   1      46.942  25.868  27.063  1.00  0.00     0.049 A 
ATOM     47  H   UNL A   1      45.163  26.756  27.678  1.00  0.00     0.167 HD
ATOM     48  C   UNL A   1      41.291  28.562  28.673  1.00  0.00     0.037 A 
ATOM     49  C   UNL A   1      47.895  26.816  27.126  1.00  0.00     0.037 A 
ATOM     50  C   UNL A   1      42.253  29.618  28.841  1.00  0.00     0.049 A 
ATOM     51  C   UNL A   1      47.526  28.199  27.580  1.00  0.00     0.074 A 
ATOM     52  C   UNL A   1      42.045  30.912  29.285  1.00  0.00     0.029 A 
ATOM     53  N   UNL A   1      43.609  29.494  28.582  1.00  0.00    -0.354 N 
ATOM     54  N   UNL A   1      46.352  28.671  27.921  1.00  0.00    -0.248 NA
ATOM     55  C   UNL A   1      48.616  29.182  27.662  1.00  0.00     0.031 C 
ATOM     56  C   UNL A   1      43.275  31.579  29.272  1.00  0.00     0.029 A 
ATOM     57  C   UNL A   1      44.251  30.691  28.850  1.00  0.00     0.049 A 
ATOM     58  H   UNL A   1      44.050  28.676  28.257  1.00  0.00     0.167 HD
ATOM     59  C   UNL A   1      46.563  29.995  28.281  1.00  0.00     0.074 A 
ATOM     60  C   UNL A   1      47.982  30.249  28.127  1.00  0.00     0.031 C 
ATOM     61  C   UNL A   1      45.664  30.918  28.700  1.00  0.00     0.037 A 
BRANCH  48  62
ATOM     62  C   UNL A   1      39.843  28.865  28.921  1.00  0.00     0.057 A 
ATOM     63  C   UNL A   1      39.283  28.801  30.204  1.00  0.00     0.134 A 
ATOM     64  C   UNL A   1      39.001  29.243  27.867  1.00  0.00     0.134 A 
ATOM     65  F   UNL A   1      40.032  28.431  31.254  1.00  0.00    -0.206 F 
ATOM     66  C   UNL A   1      37.932  29.073  30.425  1.00  0.00     0.040 A 
ATOM     67  C   UNL A   1      37.655  29.543  28.080  1.00  0.00     0.040 A 
ATOM     68  F   UNL A   1      39.475  29.329  26.614  1.00  0.00    -0.206 F 
ATOM     69  C   UNL A   1      37.115  29.451  29.361  1.00  0.00     0.006 A 
ENDBRANCH  48  62
BRANCH  49  70
ATOM     70  C   UNL A   1      49.300  26.477  26.787  1.00  0.00     0.057 A 
ATOM     71  C   UNL A   1      50.180  26.014  27.771  1.00  0.00     0.134 A 
ATOM     72  C   UNL A   1      49.793  26.604  25.485  1.00  0.00     0.134 A 
ATOM     73  F   UNL A   1      49.768  25.889  29.042  1.00  0.00    -0.206 F 
ATOM     74  C   UNL A   1      51.508  25.701  27.475  1.00  0.00     0.040 A 
ATOM     75  C   UNL A   1      51.113  26.275  25.170  1.00  0.00     0.040 A 
ATOM     76  F   UNL A   1      48.995  27.036  24.497  1.00  0.00    -0.206 F 
ATOM     77  C   UNL A   1      51.975  25.827  26.168  1.00  0.00     0.006 A 
ENDBRANCH  49  70
BRANCH  61  78
ATOM     78  C   UNL A   1      46.194  32.274  29.052  1.00  0.00     0.057 A 
ATOM     79  C   UNL A   1      46.653  32.573  30.339  1.00  0.00     0.134 A 
ATOM     80  C   UNL A   1      46.281  33.278  28.079  1.00  0.00     0.134 A 
ATOM     81  F   UNL A   1      46.583  31.656  31.317  1.00  0.00    -0.206 F 
ATOM     82  C   UNL A   1      47.166  33.832  30.654  1.00  0.00     0.040 A 
ATOM     83  C   UNL A   1      46.812  34.534  28.376  1.00  0.00     0.040 A 
ATOM     84  F   UNL A   1      45.865  33.051  26.825  1.00  0.00    -0.206 F 
ATOM     85  C   UNL A   1      47.252  34.814  29.669  1.00  0.00     0.006 A 
ENDBRANCH  61  78
ENDBRANCH  35  36
ENDBRANCH  27  30
ENDBRANCH  25  26
ENDBRANCH  24  25
ENDBRANCH   1  24
TORSDOF 13
ENDMDL
