MODEL 1
REMARK VINA RESULT:     -11.6      0.000      0.000
REMARK SMILES O=C(NCCCNC(=O)[C@@H]1Sc2c(sc(=O)n2Cc2ccccc2)[C@H]2c3ccccc3OC(=O)[C@@H]21)c1ccc(-c2c3nc(c(-c4c(F)cccc4F)c4ccc([nH]4)c(-c4c(F)cccc4F)c4nc(c(-c5c(F)cccc5F)c5ccc2[nH]5)C=C4)C=C3)cc1
REMARK SMILES IDX 5 1 4 2 3 3 1 4 2 5 36 7 37 8 89 9 38 10 88 11 39 12 40 13
REMARK SMILES IDX 41 14 82 15 42 16 87 17 81 18 83 19 43 20 86 21 80 22 79 23
REMARK SMILES IDX 44 25 70 26 53 27 69 28 54 29 57 30 68 31 84 32 55 33 56 34
REMARK SMILES IDX 67 36 85 37 58 38 45 39 46 40 51 41 47 42 48 43 50 44 52 45
REMARK SMILES IDX 49 46 71 47 72 48 77 49 73 50 74 51 76 52 78 53 75 54 59 55
REMARK SMILES IDX 60 56 65 57 61 58 62 59 64 60 66 61 63 62 6 63 7 64 8 65
REMARK SMILES IDX 9 67 10 68 11 69 35 70 12 71 25 72 33 73 13 74 17 75 26 76
REMARK SMILES IDX 32 77 34 78 14 79 15 80 27 81 31 82 16 83 28 84 30 85 29 86
REMARK SMILES IDX 18 87 19 88 20 89 24 90 21 91 23 92 22 93
REMARK H PARENT 3 6 83 24 57 35 7 66
REMARK Flexibility Score: inf
ROOT
ATOM      1  C   UNL A   1      39.909  33.466  32.028  1.00  0.00     0.042 C 
ENDROOT
BRANCH   1   2
ATOM      2  C   UNL A   1      40.306  33.306  30.580  1.00  0.00     0.118 C 
BRANCH   2   3
ATOM      3  N   UNL A   1      41.087  34.418  30.012  1.00  0.00    -0.352 N 
ATOM      4  O   UNL A   1      43.050  35.562  29.702  1.00  0.00    -0.269 OA
ATOM      5  C   UNL A   1      42.477  34.502  29.917  1.00  0.00     0.251 C 
ATOM      6  H   UNL A   1      40.576  35.183  29.663  1.00  0.00     0.163 HD
BRANCH   5   7
ATOM      7  C   UNL A   1      43.235  33.246  30.061  1.00  0.00     0.039 A 
ATOM      8  C   UNL A   1      43.499  32.604  31.271  1.00  0.00     0.014 A 
ATOM      9  C   UNL A   1      43.527  32.628  28.862  1.00  0.00     0.014 A 
ATOM     10  C   UNL A   1      43.994  31.301  31.212  1.00  0.00     0.010 A 
ATOM     11  C   UNL A   1      43.525  31.273  28.851  1.00  0.00     0.010 A 
ATOM     12  C   UNL A   1      43.989  30.635  29.973  1.00  0.00    -0.014 A 
BRANCH  12  13
ATOM     13  C   UNL A   1      44.409  29.257  29.771  1.00  0.00     0.031 A 
ATOM     14  C   UNL A   1      45.343  29.094  28.642  1.00  0.00     0.074 A 
ATOM     15  C   UNL A   1      44.105  28.251  30.630  1.00  0.00     0.049 A 
ATOM     16  N   UNL A   1      45.047  28.669  27.462  1.00  0.00    -0.248 NA
ATOM     17  C   UNL A   1      46.692  29.668  28.753  1.00  0.00     0.031 C 
ATOM     18  C   UNL A   1      43.434  28.298  31.940  1.00  0.00     0.029 A 
ATOM     19  N   UNL A   1      44.406  26.927  30.519  1.00  0.00    -0.354 N 
ATOM     20  C   UNL A   1      46.241  28.671  26.755  1.00  0.00     0.074 A 
ATOM     21  C   UNL A   1      47.146  29.499  27.509  1.00  0.00     0.031 C 
ATOM     22  C   UNL A   1      43.588  27.123  32.590  1.00  0.00     0.029 A 
ATOM     23  C   UNL A   1      44.185  26.176  31.674  1.00  0.00     0.049 A 
ATOM     24  H   UNL A   1      44.753  26.530  29.687  1.00  0.00     0.167 HD
ATOM     25  C   UNL A   1      46.450  27.747  25.778  1.00  0.00     0.037 A 
ATOM     26  C   UNL A   1      44.465  24.860  31.848  1.00  0.00     0.037 A 
ATOM     27  C   UNL A   1      45.203  27.117  25.398  1.00  0.00     0.049 A 
ATOM     28  C   UNL A   1      44.569  24.262  30.493  1.00  0.00     0.074 A 
ATOM     29  C   UNL A   1      43.997  27.568  24.895  1.00  0.00     0.029 A 
ATOM     30  N   UNL A   1      44.941  25.872  25.924  1.00  0.00    -0.354 N 
ATOM     31  N   UNL A   1      43.548  24.135  29.689  1.00  0.00    -0.248 NA
ATOM     32  C   UNL A   1      45.872  24.292  29.850  1.00  0.00     0.031 C 
ATOM     33  C   UNL A   1      43.002  26.800  25.575  1.00  0.00     0.029 A 
ATOM     34  C   UNL A   1      43.650  25.867  26.384  1.00  0.00     0.049 A 
ATOM     35  H   UNL A   1      45.573  25.118  25.965  1.00  0.00     0.167 HD
ATOM     36  C   UNL A   1      44.030  24.518  28.445  1.00  0.00     0.074 A 
ATOM     37  C   UNL A   1      45.486  24.538  28.594  1.00  0.00     0.031 C 
ATOM     38  C   UNL A   1      43.204  25.076  27.509  1.00  0.00     0.037 A 
BRANCH  25  39
ATOM     39  C   UNL A   1      47.782  27.094  25.500  1.00  0.00     0.057 A 
ATOM     40  C   UNL A   1      48.537  27.277  24.323  1.00  0.00     0.134 A 
ATOM     41  C   UNL A   1      48.488  26.532  26.579  1.00  0.00     0.134 A 
ATOM     42  F   UNL A   1      48.034  27.825  23.213  1.00  0.00    -0.206 F 
ATOM     43  C   UNL A   1      49.903  26.996  24.249  1.00  0.00     0.040 A 
ATOM     44  C   UNL A   1      49.865  26.292  26.530  1.00  0.00     0.040 A 
ATOM     45  F   UNL A   1      47.877  26.292  27.750  1.00  0.00    -0.206 F 
ATOM     46  C   UNL A   1      50.582  26.543  25.367  1.00  0.00     0.006 A 
ENDBRANCH  25  39
BRANCH  26  47
ATOM     47  C   UNL A   1      44.946  24.164  33.064  1.00  0.00     0.057 A 
ATOM     48  C   UNL A   1      46.227  24.415  33.585  1.00  0.00     0.134 A 
ATOM     49  C   UNL A   1      44.289  23.032  33.570  1.00  0.00     0.134 A 
ATOM     50  F   UNL A   1      46.974  25.427  33.120  1.00  0.00    -0.206 F 
ATOM     51  C   UNL A   1      46.830  23.581  34.534  1.00  0.00     0.040 A 
ATOM     52  C   UNL A   1      44.882  22.186  34.519  1.00  0.00     0.040 A 
ATOM     53  F   UNL A   1      43.081  22.684  33.105  1.00  0.00    -0.206 F 
ATOM     54  C   UNL A   1      46.163  22.452  34.994  1.00  0.00     0.006 A 
ENDBRANCH  26  47
BRANCH  38  55
ATOM     55  C   UNL A   1      41.722  25.039  27.778  1.00  0.00     0.057 A 
ATOM     56  C   UNL A   1      40.926  24.171  27.025  1.00  0.00     0.134 A 
ATOM     57  C   UNL A   1      41.051  25.910  28.651  1.00  0.00     0.134 A 
ATOM     58  F   UNL A   1      41.490  23.349  26.126  1.00  0.00    -0.206 F 
ATOM     59  C   UNL A   1      39.535  24.151  27.145  1.00  0.00     0.040 A 
ATOM     60  C   UNL A   1      39.659  25.880  28.805  1.00  0.00     0.040 A 
ATOM     61  F   UNL A   1      41.712  26.846  29.341  1.00  0.00    -0.206 F 
ATOM     62  C   UNL A   1      38.896  24.998  28.047  1.00  0.00     0.006 A 
ENDBRANCH  38  55
ENDBRANCH  12  13
ENDBRANCH   5   7
ENDBRANCH   2   3
ENDBRANCH   1   2
BRANCH   1  63
ATOM     63  C   UNL A   1      38.481  33.964  32.196  1.00  0.00     0.117 C 
BRANCH  63  64
ATOM     64  N   UNL A   1      37.893  33.679  33.499  1.00  0.00    -0.355 N 
ATOM     65  C   UNL A   1      37.034  32.692  33.886  1.00  0.00     0.234 C 
ATOM     66  H   UNL A   1      38.158  34.299  34.216  1.00  0.00     0.163 HD
ATOM     67  O   UNL A   1      37.108  32.341  35.068  1.00  0.00    -0.274 OA
BRANCH  65  68
ATOM     68  C   UNL A   1      36.003  32.041  32.948  1.00  0.00     0.157 C 
ATOM     69  S   UNL A   1      36.821  30.693  31.983  1.00  0.00    -0.093 SA
ATOM     70  C   UNL A   1      35.035  32.975  32.180  1.00  0.00     0.135 C 
ATOM     71  C   UNL A   1      36.249  30.966  30.389  1.00  0.00     0.094 A 
ATOM     72  C   UNL A   1      35.546  33.380  30.795  1.00  0.00     0.082 C 
ATOM     73  C   UNL A   1      34.560  34.168  32.981  1.00  0.00     0.317 C 
ATOM     74  C   UNL A   1      35.635  32.093  29.988  1.00  0.00     0.049 A 
ATOM     75  N   UNL A   1      36.271  29.965  29.437  1.00  0.00    -0.289 N 
ATOM     76  C   UNL A   1      34.713  34.489  30.180  1.00  0.00     0.004 A 
ATOM     77  O   UNL A   1      33.641  34.967  32.315  1.00  0.00    -0.426 OA
ATOM     78  O   UNL A   1      34.796  34.354  34.164  1.00  0.00    -0.251 OA
ATOM     79  S   UNL A   1      34.780  31.793  28.489  1.00  0.00    -0.077 S 
ATOM     80  C   UNL A   1      35.377  30.145  28.389  1.00  0.00     0.308 A 
ATOM     81  C   UNL A   1      34.902  34.929  28.858  1.00  0.00     0.008 A 
ATOM     82  C   UNL A   1      33.728  35.125  30.927  1.00  0.00     0.134 A 
ATOM     83  O   UNL A   1      35.024  29.366  27.532  1.00  0.00    -0.257 OA
ATOM     84  C   UNL A   1      34.003  35.817  28.260  1.00  0.00     0.001 A 
ATOM     85  C   UNL A   1      32.834  36.029  30.350  1.00  0.00     0.047 A 
ATOM     86  C   UNL A   1      32.949  36.343  28.999  1.00  0.00     0.004 A 
BRANCH  75  87
ATOM     87  C   UNL A   1      37.168  28.815  29.435  1.00  0.00     0.163 C 
BRANCH  87  88
ATOM     88  C   UNL A   1      38.487  29.144  28.751  1.00  0.00    -0.028 A 
ATOM     89  C   UNL A   1      38.688  28.885  27.385  1.00  0.00     0.005 A 
ATOM     90  C   UNL A   1      39.573  29.589  29.520  1.00  0.00     0.005 A 
ATOM     91  C   UNL A   1      39.959  29.029  26.819  1.00  0.00     0.000 A 
ATOM     92  C   UNL A   1      40.840  29.725  28.954  1.00  0.00     0.000 A 
ATOM     93  C   UNL A   1      41.035  29.436  27.606  1.00  0.00     0.000 A 
ENDBRANCH  87  88
ENDBRANCH  75  87
ENDBRANCH  65  68
ENDBRANCH  63  64
ENDBRANCH   1  63
TORSDOF 12
ENDMDL
MODEL 2
REMARK VINA RESULT:     -11.2      4.647     11.788
REMARK SMILES O=C(NCCCNC(=O)[C@@H]1Sc2c(sc(=O)n2Cc2ccccc2)[C@H]2c3ccccc3OC(=O)[C@@H]21)c1ccc(-c2c3nc(c(-c4c(F)cccc4F)c4ccc([nH]4)c(-c4c(F)cccc4F)c4nc(c(-c5c(F)cccc5F)c5ccc2[nH]5)C=C4)C=C3)cc1
REMARK SMILES IDX 5 1 4 2 3 3 1 4 2 5 36 7 37 8 89 9 38 10 88 11 39 12 40 13
REMARK SMILES IDX 41 14 82 15 42 16 87 17 81 18 83 19 43 20 86 21 80 22 79 23
REMARK SMILES IDX 44 25 70 26 53 27 69 28 54 29 57 30 68 31 84 32 55 33 56 34
REMARK SMILES IDX 67 36 85 37 58 38 45 39 46 40 51 41 47 42 48 43 50 44 52 45
REMARK SMILES IDX 49 46 71 47 72 48 77 49 73 50 74 51 76 52 78 53 75 54 59 55
REMARK SMILES IDX 60 56 65 57 61 58 62 59 64 60 66 61 63 62 6 63 7 64 8 65
REMARK SMILES IDX 9 67 10 68 11 69 35 70 12 71 25 72 33 73 13 74 17 75 26 76
REMARK SMILES IDX 32 77 34 78 14 79 15 80 27 81 31 82 16 83 28 84 30 85 29 86
REMARK SMILES IDX 18 87 19 88 20 89 24 90 21 91 23 92 22 93
REMARK H PARENT 3 6 83 24 57 35 7 66
REMARK Flexibility Score: inf
ROOT
ATOM      1  C   UNL A   1      45.355  25.551  28.951  1.00  0.00     0.042 C 
ENDROOT
BRANCH   1   2
ATOM      2  C   UNL A   1      44.336  25.468  30.062  1.00  0.00     0.118 C 
BRANCH   2   3
ATOM      3  N   UNL A   1      44.838  24.932  31.340  1.00  0.00    -0.352 N 
ATOM      4  O   UNL A   1      45.881  25.174  33.366  1.00  0.00    -0.269 OA
ATOM      5  C   UNL A   1      45.215  25.665  32.465  1.00  0.00     0.251 C 
ATOM      6  H   UNL A   1      44.915  23.953  31.406  1.00  0.00     0.163 HD
BRANCH   5   7
ATOM      7  C   UNL A   1      44.752  27.063  32.540  1.00  0.00     0.039 A 
ATOM      8  C   UNL A   1      45.378  28.147  31.925  1.00  0.00     0.014 A 
ATOM      9  C   UNL A   1      43.514  27.212  33.131  1.00  0.00     0.014 A 
ATOM     10  C   UNL A   1      44.673  29.351  31.874  1.00  0.00     0.010 A 
ATOM     11  C   UNL A   1      42.710  28.186  32.643  1.00  0.00     0.010 A 
ATOM     12  C   UNL A   1      43.313  29.349  32.231  1.00  0.00    -0.014 A 
BRANCH  12  13
ATOM     13  C   UNL A   1      42.435  30.507  32.162  1.00  0.00     0.031 A 
ATOM     14  C   UNL A   1      41.694  30.750  33.413  1.00  0.00     0.074 A 
ATOM     15  C   UNL A   1      42.423  31.372  31.116  1.00  0.00     0.049 A 
ATOM     16  N   UNL A   1      40.465  30.439  33.645  1.00  0.00    -0.248 NA
ATOM     17  C   UNL A   1      42.442  31.174  34.606  1.00  0.00     0.031 C 
ATOM     18  C   UNL A   1      43.297  31.434  29.932  1.00  0.00     0.029 A 
ATOM     19  N   UNL A   1      41.620  32.456  30.927  1.00  0.00    -0.354 N 
ATOM     20  C   UNL A   1      40.207  30.874  34.937  1.00  0.00     0.074 A 
ATOM     21  C   UNL A   1      41.494  31.096  35.544  1.00  0.00     0.031 C 
ATOM     22  C   UNL A   1      43.131  32.610  29.287  1.00  0.00     0.029 A 
ATOM     23  C   UNL A   1      42.006  33.297  29.882  1.00  0.00     0.049 A 
ATOM     24  H   UNL A   1      40.827  32.632  31.484  1.00  0.00     0.167 HD
ATOM     25  C   UNL A   1      38.957  31.293  35.272  1.00  0.00     0.037 A 
ATOM     26  C   UNL A   1      41.421  34.470  29.532  1.00  0.00     0.037 A 
ATOM     27  C   UNL A   1      37.994  30.869  34.277  1.00  0.00     0.049 A 
ATOM     28  C   UNL A   1      40.050  34.452  30.100  1.00  0.00     0.074 A 
ATOM     29  C   UNL A   1      37.591  29.647  33.770  1.00  0.00     0.029 A 
ATOM     30  N   UNL A   1      37.594  31.804  33.351  1.00  0.00    -0.354 N 
ATOM     31  N   UNL A   1      39.115  33.641  29.684  1.00  0.00    -0.248 NA
ATOM     32  C   UNL A   1      39.884  34.955  31.454  1.00  0.00     0.031 C 
ATOM     33  C   UNL A   1      37.418  29.867  32.369  1.00  0.00     0.029 A 
ATOM     34  C   UNL A   1      37.637  31.220  32.111  1.00  0.00     0.049 A 
ATOM     35  H   UNL A   1      37.325  32.731  33.544  1.00  0.00     0.167 HD
ATOM     36  C   UNL A   1      38.503  33.184  30.844  1.00  0.00     0.074 A 
ATOM     37  C   UNL A   1      38.976  34.081  31.899  1.00  0.00     0.031 C 
ATOM     38  C   UNL A   1      37.922  31.947  30.894  1.00  0.00     0.037 A 
BRANCH  25  39
ATOM     39  C   UNL A   1      38.671  32.440  36.211  1.00  0.00     0.057 A 
ATOM     40  C   UNL A   1      38.064  32.311  37.477  1.00  0.00     0.134 A 
ATOM     41  C   UNL A   1      39.323  33.666  35.984  1.00  0.00     0.134 A 
ATOM     42  F   UNL A   1      37.429  31.203  37.871  1.00  0.00    -0.206 F 
ATOM     43  C   UNL A   1      38.166  33.290  38.468  1.00  0.00     0.040 A 
ATOM     44  C   UNL A   1      39.470  34.633  36.985  1.00  0.00     0.040 A 
ATOM     45  F   UNL A   1      39.923  33.919  34.811  1.00  0.00    -0.206 F 
ATOM     46  C   UNL A   1      38.907  34.437  38.240  1.00  0.00     0.006 A 
ENDBRANCH  25  39
BRANCH  26  47
ATOM     47  C   UNL A   1      42.053  35.708  29.018  1.00  0.00     0.057 A 
ATOM     48  C   UNL A   1      41.827  36.146  27.702  1.00  0.00     0.134 A 
ATOM     49  C   UNL A   1      43.113  36.326  29.697  1.00  0.00     0.134 A 
ATOM     50  F   UNL A   1      40.887  35.573  26.936  1.00  0.00    -0.206 F 
ATOM     51  C   UNL A   1      42.622  37.121  27.087  1.00  0.00     0.040 A 
ATOM     52  C   UNL A   1      43.918  37.303  29.093  1.00  0.00     0.040 A 
ATOM     53  F   UNL A   1      43.435  35.948  30.943  1.00  0.00    -0.206 F 
ATOM     54  C   UNL A   1      43.682  37.695  27.779  1.00  0.00     0.006 A 
ENDBRANCH  26  47
BRANCH  38  55
ATOM     55  C   UNL A   1      37.755  31.203  29.595  1.00  0.00     0.057 A 
ATOM     56  C   UNL A   1      36.473  31.084  29.051  1.00  0.00     0.134 A 
ATOM     57  C   UNL A   1      38.783  30.502  28.942  1.00  0.00     0.134 A 
ATOM     58  F   UNL A   1      35.429  31.676  29.652  1.00  0.00    -0.206 F 
ATOM     59  C   UNL A   1      36.222  30.325  27.906  1.00  0.00     0.040 A 
ATOM     60  C   UNL A   1      38.551  29.764  27.775  1.00  0.00     0.040 A 
ATOM     61  F   UNL A   1      40.024  30.470  29.438  1.00  0.00    -0.206 F 
ATOM     62  C   UNL A   1      37.265  29.672  27.255  1.00  0.00     0.006 A 
ENDBRANCH  38  55
ENDBRANCH  12  13
ENDBRANCH   5   7
ENDBRANCH   2   3
ENDBRANCH   1   2
BRANCH   1  63
ATOM     63  C   UNL A   1      45.226  24.414  27.947  1.00  0.00     0.117 C 
BRANCH  63  64
ATOM     64  N   UNL A   1      45.864  24.670  26.662  1.00  0.00    -0.355 N 
ATOM     65  C   UNL A   1      45.320  24.975  25.449  1.00  0.00     0.234 C 
ATOM     66  H   UNL A   1      46.846  24.613  26.670  1.00  0.00     0.163 HD
ATOM     67  O   UNL A   1      46.027  25.648  24.691  1.00  0.00    -0.274 OA
BRANCH  65  68
ATOM     68  C   UNL A   1      43.924  24.513  24.997  1.00  0.00     0.157 C 
ATOM     69  S   UNL A   1      42.647  25.649  25.703  1.00  0.00    -0.093 SA
ATOM     70  C   UNL A   1      43.620  22.995  25.034  1.00  0.00     0.135 C 
ATOM     71  C   UNL A   1      41.453  24.562  26.285  1.00  0.00     0.094 A 
ATOM     72  C   UNL A   1      42.986  22.529  26.347  1.00  0.00     0.082 C 
ATOM     73  C   UNL A   1      44.785  22.119  24.625  1.00  0.00     0.317 C 
ATOM     74  C   UNL A   1      41.644  23.240  26.440  1.00  0.00     0.049 A 
ATOM     75  N   UNL A   1      40.154  24.976  26.507  1.00  0.00    -0.289 N 
ATOM     76  C   UNL A   1      42.941  21.016  26.457  1.00  0.00     0.004 A 
ATOM     77  O   UNL A   1      44.491  20.763  24.595  1.00  0.00    -0.426 OA
ATOM     78  O   UNL A   1      45.847  22.530  24.185  1.00  0.00    -0.251 OA
ATOM     79  S   UNL A   1      40.093  22.435  26.562  1.00  0.00    -0.077 S 
ATOM     80  C   UNL A   1      39.214  23.954  26.505  1.00  0.00     0.308 A 
ATOM     81  C   UNL A   1      42.277  20.356  27.505  1.00  0.00     0.008 A 
ATOM     82  C   UNL A   1      43.580  20.224  25.510  1.00  0.00     0.134 A 
ATOM     83  O   UNL A   1      38.005  24.015  26.468  1.00  0.00    -0.257 OA
ATOM     84  C   UNL A   1      42.093  18.970  27.480  1.00  0.00     0.001 A 
ATOM     85  C   UNL A   1      43.422  18.837  25.481  1.00  0.00     0.047 A 
ATOM     86  C   UNL A   1      42.640  18.214  26.449  1.00  0.00     0.004 A 
BRANCH  75  87
ATOM     87  C   UNL A   1      39.735  26.345  26.787  1.00  0.00     0.163 C 
BRANCH  87  88
ATOM     88  C   UNL A   1      39.879  26.676  28.265  1.00  0.00    -0.028 A 
ATOM     89  C   UNL A   1      38.800  26.542  29.154  1.00  0.00     0.005 A 
ATOM     90  C   UNL A   1      41.069  27.256  28.731  1.00  0.00     0.005 A 
ATOM     91  C   UNL A   1      38.902  27.018  30.465  1.00  0.00     0.000 A 
ATOM     92  C   UNL A   1      41.165  27.736  30.037  1.00  0.00     0.000 A 
ATOM     93  C   UNL A   1      40.079  27.625  30.901  1.00  0.00     0.000 A 
ENDBRANCH  87  88
ENDBRANCH  75  87
ENDBRANCH  65  68
ENDBRANCH  63  64
ENDBRANCH   1  63
TORSDOF 12
ENDMDL
MODEL 3
REMARK VINA RESULT:     -10.9      2.699      6.655
REMARK SMILES O=C(NCCCNC(=O)[C@@H]1Sc2c(sc(=O)n2Cc2ccccc2)[C@H]2c3ccccc3OC(=O)[C@@H]21)c1ccc(-c2c3nc(c(-c4c(F)cccc4F)c4ccc([nH]4)c(-c4c(F)cccc4F)c4nc(c(-c5c(F)cccc5F)c5ccc2[nH]5)C=C4)C=C3)cc1
REMARK SMILES IDX 5 1 4 2 3 3 1 4 2 5 36 7 37 8 89 9 38 10 88 11 39 12 40 13
REMARK SMILES IDX 41 14 82 15 42 16 87 17 81 18 83 19 43 20 86 21 80 22 79 23
REMARK SMILES IDX 44 25 70 26 53 27 69 28 54 29 57 30 68 31 84 32 55 33 56 34
REMARK SMILES IDX 67 36 85 37 58 38 45 39 46 40 51 41 47 42 48 43 50 44 52 45
REMARK SMILES IDX 49 46 71 47 72 48 77 49 73 50 74 51 76 52 78 53 75 54 59 55
REMARK SMILES IDX 60 56 65 57 61 58 62 59 64 60 66 61 63 62 6 63 7 64 8 65
REMARK SMILES IDX 9 67 10 68 11 69 35 70 12 71 25 72 33 73 13 74 17 75 26 76
REMARK SMILES IDX 32 77 34 78 14 79 15 80 27 81 31 82 16 83 28 84 30 85 29 86
REMARK SMILES IDX 18 87 19 88 20 89 24 90 21 91 23 92 22 93
REMARK H PARENT 3 6 83 24 57 35 7 66
REMARK Flexibility Score: inf
ROOT
ATOM      1  C   UNL A   1      39.970  34.483  32.887  1.00  0.00     0.042 C 
ENDROOT
BRANCH   1   2
ATOM      2  C   UNL A   1      40.875  33.636  33.748  1.00  0.00     0.118 C 
BRANCH   2   3
ATOM      3  N   UNL A   1      40.596  33.681  35.194  1.00  0.00    -0.352 N 
ATOM      4  O   UNL A   1      39.817  32.743  37.135  1.00  0.00    -0.269 OA
ATOM      5  C   UNL A   1      40.313  32.597  36.026  1.00  0.00     0.251 C 
ATOM      6  H   UNL A   1      40.610  34.569  35.617  1.00  0.00     0.163 HD
BRANCH   5   7
ATOM      7  C   UNL A   1      40.665  31.257  35.523  1.00  0.00     0.039 A 
ATOM      8  C   UNL A   1      39.846  30.463  34.721  1.00  0.00     0.014 A 
ATOM      9  C   UNL A   1      41.977  30.897  35.758  1.00  0.00     0.014 A 
ATOM     10  C   UNL A   1      40.426  29.346  34.117  1.00  0.00     0.010 A 
ATOM     11  C   UNL A   1      42.588  30.146  34.812  1.00  0.00     0.010 A 
ATOM     12  C   UNL A   1      41.824  29.207  34.164  1.00  0.00    -0.014 A 
BRANCH  12  13
ATOM     13  C   UNL A   1      42.573  28.137  33.524  1.00  0.00     0.031 A 
ATOM     14  C   UNL A   1      42.939  27.049  34.450  1.00  0.00     0.074 A 
ATOM     15  C   UNL A   1      42.773  28.063  32.184  1.00  0.00     0.049 A 
ATOM     16  N   UNL A   1      44.090  26.870  35.001  1.00  0.00    -0.248 NA
ATOM     17  C   UNL A   1      41.870  26.203  35.002  1.00  0.00     0.031 C 
ATOM     18  C   UNL A   1      42.233  28.905  31.102  1.00  0.00     0.029 A 
ATOM     19  N   UNL A   1      43.488  27.138  31.486  1.00  0.00    -0.354 N 
ATOM     20  C   UNL A   1      43.961  25.722  35.770  1.00  0.00     0.074 A 
ATOM     21  C   UNL A   1      42.546  25.499  35.914  1.00  0.00     0.031 C 
ATOM     22  C   UNL A   1      42.445  28.320  29.901  1.00  0.00     0.029 A 
ATOM     23  C   UNL A   1      43.306  27.175  30.103  1.00  0.00     0.049 A 
ATOM     24  H   UNL A   1      44.089  26.492  31.924  1.00  0.00     0.167 HD
ATOM     25  C   UNL A   1      45.035  24.908  35.953  1.00  0.00     0.037 A 
ATOM     26  C   UNL A   1      43.845  26.325  29.194  1.00  0.00     0.037 A 
ATOM     27  C   UNL A   1      46.259  25.589  35.586  1.00  0.00     0.049 A 
ATOM     28  C   UNL A   1      45.018  25.689  29.845  1.00  0.00     0.074 A 
ATOM     29  C   UNL A   1      46.896  26.742  36.007  1.00  0.00     0.029 A 
ATOM     30  N   UNL A   1      46.793  25.301  34.352  1.00  0.00    -0.354 N 
ATOM     31  N   UNL A   1      46.102  26.344  30.160  1.00  0.00    -0.248 NA
ATOM     32  C   UNL A   1      44.778  24.473  30.606  1.00  0.00     0.031 C 
ATOM     33  C   UNL A   1      47.403  27.341  34.813  1.00  0.00     0.029 A 
ATOM     34  C   UNL A   1      47.129  26.484  33.746  1.00  0.00     0.049 A 
ATOM     35  H   UNL A   1      46.912  24.401  33.969  1.00  0.00     0.167 HD
ATOM     36  C   UNL A   1      46.434  25.886  31.428  1.00  0.00     0.074 A 
ATOM     37  C   UNL A   1      45.621  24.685  31.622  1.00  0.00     0.031 C 
ATOM     38  C   UNL A   1      47.099  26.687  32.315  1.00  0.00     0.037 A 
BRANCH  25  39
ATOM     39  C   UNL A   1      44.956  23.401  36.014  1.00  0.00     0.057 A 
ATOM     40  C   UNL A   1      44.535  22.575  34.952  1.00  0.00     0.134 A 
ATOM     41  C   UNL A   1      45.640  22.739  37.049  1.00  0.00     0.134 A 
ATOM     42  F   UNL A   1      43.899  23.042  33.873  1.00  0.00    -0.206 F 
ATOM     43  C   UNL A   1      44.837  21.213  34.888  1.00  0.00     0.040 A 
ATOM     44  C   UNL A   1      45.988  21.386  36.973  1.00  0.00     0.040 A 
ATOM     45  F   UNL A   1      46.077  23.411  38.125  1.00  0.00    -0.206 F 
ATOM     46  C   UNL A   1      45.603  20.623  35.878  1.00  0.00     0.006 A 
ENDBRANCH  25  39
BRANCH  26  47
ATOM     47  C   UNL A   1      43.251  25.803  27.941  1.00  0.00     0.057 A 
ATOM     48  C   UNL A   1      42.409  24.677  27.951  1.00  0.00     0.134 A 
ATOM     49  C   UNL A   1      43.721  26.206  26.682  1.00  0.00     0.134 A 
ATOM     50  F   UNL A   1      41.961  24.161  29.105  1.00  0.00    -0.206 F 
ATOM     51  C   UNL A   1      42.073  23.979  26.785  1.00  0.00     0.040 A 
ATOM     52  C   UNL A   1      43.394  25.515  25.506  1.00  0.00     0.040 A 
ATOM     53  F   UNL A   1      44.563  27.243  26.572  1.00  0.00    -0.206 F 
ATOM     54  C   UNL A   1      42.578  24.389  25.557  1.00  0.00     0.006 A 
ENDBRANCH  26  47
BRANCH  38  55
ATOM     55  C   UNL A   1      47.669  27.981  31.794  1.00  0.00     0.057 A 
ATOM     56  C   UNL A   1      49.002  28.006  31.374  1.00  0.00     0.134 A 
ATOM     57  C   UNL A   1      46.992  29.212  31.812  1.00  0.00     0.134 A 
ATOM     58  F   UNL A   1      49.732  26.880  31.385  1.00  0.00    -0.206 F 
ATOM     59  C   UNL A   1      49.630  29.188  30.974  1.00  0.00     0.040 A 
ATOM     60  C   UNL A   1      47.599  30.399  31.384  1.00  0.00     0.040 A 
ATOM     61  F   UNL A   1      45.746  29.312  32.290  1.00  0.00    -0.206 F 
ATOM     62  C   UNL A   1      48.925  30.388  30.965  1.00  0.00     0.006 A 
ENDBRANCH  38  55
ENDBRANCH  12  13
ENDBRANCH   5   7
ENDBRANCH   2   3
ENDBRANCH   1   2
BRANCH   1  63
ATOM     63  C   UNL A   1      38.604  33.849  32.665  1.00  0.00     0.117 C 
BRANCH  63  64
ATOM     64  N   UNL A   1      37.812  33.684  33.878  1.00  0.00    -0.355 N 
ATOM     65  C   UNL A   1      36.912  32.719  34.223  1.00  0.00     0.234 C 
ATOM     66  H   UNL A   1      37.948  34.382  34.558  1.00  0.00     0.163 HD
ATOM     67  O   UNL A   1      36.793  32.495  35.432  1.00  0.00    -0.274 OA
BRANCH  65  68
ATOM     68  C   UNL A   1      36.056  31.945  33.205  1.00  0.00     0.157 C 
ATOM     69  S   UNL A   1      37.082  30.617  32.430  1.00  0.00    -0.093 SA
ATOM     70  C   UNL A   1      35.132  32.763  32.269  1.00  0.00     0.135 C 
ATOM     71  C   UNL A   1      36.701  30.766  30.764  1.00  0.00     0.094 A 
ATOM     72  C   UNL A   1      35.786  33.137  30.937  1.00  0.00     0.082 C 
ATOM     73  C   UNL A   1      34.477  33.955  32.933  1.00  0.00     0.317 C 
ATOM     74  C   UNL A   1      36.067  31.822  30.224  1.00  0.00     0.049 A 
ATOM     75  N   UNL A   1      36.914  29.724  29.883  1.00  0.00    -0.289 N 
ATOM     76  C   UNL A   1      34.965  34.148  30.158  1.00  0.00     0.004 A 
ATOM     77  O   UNL A   1      33.598  34.648  32.112  1.00  0.00    -0.426 OA
ATOM     78  O   UNL A   1      34.546  34.218  34.124  1.00  0.00    -0.251 OA
ATOM     79  S   UNL A   1      35.434  31.384  28.651  1.00  0.00    -0.077 S 
ATOM     80  C   UNL A   1      36.151  29.783  28.723  1.00  0.00     0.308 A 
ATOM     81  C   UNL A   1      35.290  34.534  28.847  1.00  0.00     0.008 A 
ATOM     82  C   UNL A   1      33.851  34.743  30.739  1.00  0.00     0.134 A 
ATOM     83  O   UNL A   1      35.965  28.937  27.877  1.00  0.00    -0.257 OA
ATOM     84  C   UNL A   1      34.416  35.320  28.091  1.00  0.00     0.001 A 
ATOM     85  C   UNL A   1      32.977  35.547  30.004  1.00  0.00     0.047 A 
ATOM     86  C   UNL A   1      33.242  35.801  28.661  1.00  0.00     0.004 A 
BRANCH  75  87
ATOM     87  C   UNL A   1      37.881  28.647  30.059  1.00  0.00     0.163 C 
BRANCH  87  88
ATOM     88  C   UNL A   1      38.732  28.458  28.812  1.00  0.00    -0.028 A 
ATOM     89  C   UNL A   1      39.057  27.177  28.334  1.00  0.00     0.005 A 
ATOM     90  C   UNL A   1      39.319  29.575  28.200  1.00  0.00     0.005 A 
ATOM     91  C   UNL A   1      39.981  27.025  27.296  1.00  0.00     0.000 A 
ATOM     92  C   UNL A   1      40.246  29.419  27.169  1.00  0.00     0.000 A 
ATOM     93  C   UNL A   1      40.583  28.144  26.724  1.00  0.00     0.000 A 
ENDBRANCH  87  88
ENDBRANCH  75  87
ENDBRANCH  65  68
ENDBRANCH  63  64
ENDBRANCH   1  63
TORSDOF 12
ENDMDL
