MODEL 1
REMARK VINA RESULT:     -12.6      0.000      0.000
REMARK SMILES O=C(NCCCNC(=O)[C@@H]1[C@H](C(=O)Nc2ccccc2OC(F)F)[C@@H]2C=C[C@H]1C2)c1ccc(-c2c3nc(c(-c4c(F)cccc4F)c4ccc([nH]4)c(-c4c(F)cccc4F)c4nc(c(-c5c(F)cccc5F)c5ccc2[nH]5)C=C4)C=C3)cc1
REMARK SMILES IDX 6 1 5 2 4 3 3 4 1 5 2 6 30 8 31 9 83 10 32 11 82 12 33 13
REMARK SMILES IDX 34 14 35 15 76 16 36 17 81 18 75 19 77 20 37 21 80 22 74 23
REMARK SMILES IDX 73 24 38 26 64 27 47 28 63 29 48 30 51 31 62 32 78 33 49 34
REMARK SMILES IDX 50 35 61 37 79 38 52 39 39 40 40 41 45 42 41 43 42 44 44 45
REMARK SMILES IDX 46 46 43 47 65 48 66 49 71 50 67 51 68 52 70 53 72 54 69 55
REMARK SMILES IDX 53 56 54 57 59 58 55 59 56 60 58 61 60 62 57 63 7 64 8 65
REMARK SMILES IDX 9 67 10 68 11 69 28 70 25 71 27 72 29 73 26 74 12 75 13 76
REMARK SMILES IDX 14 77 15 79 16 80 20 81 17 82 19 83 18 84 21 85 22 86 23 87
REMARK SMILES IDX 24 88
REMARK H PARENT 3 7 77 25 51 36 7 66 14 78
REMARK Flexibility Score: inf
ROOT
ATOM      1  C   UNL A   1      31.128  29.877  24.968  1.00  0.00     0.117 C 
ENDROOT
BRANCH   1   2
ATOM      2  C   UNL A   1      30.964  31.243  25.611  1.00  0.00     0.042 C 
BRANCH   2   3
ATOM      3  C   UNL A   1      32.055  31.559  26.627  1.00  0.00     0.118 C 
BRANCH   3   4
ATOM      4  N   UNL A   1      32.043  32.946  27.084  1.00  0.00    -0.352 N 
ATOM      5  O   UNL A   1      32.670  34.773  28.251  1.00  0.00    -0.269 OA
ATOM      6  C   UNL A   1      32.947  33.650  27.857  1.00  0.00     0.251 C 
ATOM      7  H   UNL A   1      31.259  33.467  26.793  1.00  0.00     0.163 HD
BRANCH   6   8
ATOM      8  C   UNL A   1      34.230  33.024  28.244  1.00  0.00     0.039 A 
ATOM      9  C   UNL A   1      34.266  31.701  28.672  1.00  0.00     0.014 A 
ATOM     10  C   UNL A   1      35.409  33.775  28.215  1.00  0.00     0.014 A 
ATOM     11  C   UNL A   1      35.395  31.220  29.317  1.00  0.00     0.010 A 
ATOM     12  C   UNL A   1      36.592  33.234  28.735  1.00  0.00     0.010 A 
ATOM     13  C   UNL A   1      36.578  31.976  29.356  1.00  0.00    -0.014 A 
BRANCH  13  14
ATOM     14  C   UNL A   1      37.766  31.403  30.044  1.00  0.00     0.031 A 
ATOM     15  C   UNL A   1      38.031  31.665  31.504  1.00  0.00     0.074 A 
ATOM     16  C   UNL A   1      38.566  30.561  29.358  1.00  0.00     0.049 A 
ATOM     17  N   UNL A   1      38.983  31.185  32.267  1.00  0.00    -0.248 NA
ATOM     18  C   UNL A   1      37.125  32.592  32.198  1.00  0.00     0.031 C 
ATOM     19  C   UNL A   1      38.417  30.229  27.938  1.00  0.00     0.029 A 
ATOM     20  N   UNL A   1      39.628  29.795  29.765  1.00  0.00    -0.354 N 
ATOM     21  C   UNL A   1      38.814  31.779  33.513  1.00  0.00     0.074 A 
ATOM     22  C   UNL A   1      37.677  32.667  33.402  1.00  0.00     0.031 C 
ATOM     23  C   UNL A   1      39.288  29.263  27.616  1.00  0.00     0.029 A 
ATOM     24  C   UNL A   1      40.114  28.968  28.780  1.00  0.00     0.049 A 
ATOM     25  H   UNL A   1      40.006  29.833  30.673  1.00  0.00     0.167 HD
ATOM     26  C   UNL A   1      39.538  31.598  34.643  1.00  0.00     0.037 A 
ATOM     27  C   UNL A   1      41.120  28.075  28.803  1.00  0.00     0.037 A 
ATOM     28  C   UNL A   1      40.644  30.682  34.761  1.00  0.00     0.049 A 
ATOM     29  C   UNL A   1      41.900  27.892  30.070  1.00  0.00     0.074 A 
ATOM     30  C   UNL A   1      41.413  30.396  35.877  1.00  0.00     0.029 A 
ATOM     31  N   UNL A   1      41.136  29.898  33.729  1.00  0.00    -0.354 N 
ATOM     32  N   UNL A   1      41.717  28.453  31.240  1.00  0.00    -0.248 NA
ATOM     33  C   UNL A   1      43.034  26.961  30.015  1.00  0.00     0.031 C 
ATOM     34  C   UNL A   1      42.396  29.472  35.507  1.00  0.00     0.029 A 
ATOM     35  C   UNL A   1      42.211  29.145  34.174  1.00  0.00     0.049 A 
ATOM     36  H   UNL A   1      40.775  29.879  32.813  1.00  0.00     0.167 HD
ATOM     37  C   UNL A   1      42.704  27.936  32.066  1.00  0.00     0.074 A 
ATOM     38  C   UNL A   1      43.468  26.998  31.267  1.00  0.00     0.031 C 
ATOM     39  C   UNL A   1      42.959  28.217  33.366  1.00  0.00     0.037 A 
BRANCH  26  40
ATOM     40  C   UNL A   1      39.179  32.428  35.844  1.00  0.00     0.057 A 
ATOM     41  C   UNL A   1      38.297  31.973  36.832  1.00  0.00     0.134 A 
ATOM     42  C   UNL A   1      39.761  33.689  36.033  1.00  0.00     0.134 A 
ATOM     43  F   UNL A   1      37.695  30.779  36.707  1.00  0.00    -0.206 F 
ATOM     44  C   UNL A   1      37.991  32.748  37.953  1.00  0.00     0.040 A 
ATOM     45  C   UNL A   1      39.481  34.463  37.160  1.00  0.00     0.040 A 
ATOM     46  F   UNL A   1      40.619  34.185  35.129  1.00  0.00    -0.206 F 
ATOM     47  C   UNL A   1      38.589  33.996  38.122  1.00  0.00     0.006 A 
ENDBRANCH  26  40
BRANCH  27  48
ATOM     48  C   UNL A   1      41.442  27.295  27.583  1.00  0.00     0.057 A 
ATOM     49  C   UNL A   1      42.312  27.799  26.610  1.00  0.00     0.134 A 
ATOM     50  C   UNL A   1      40.904  26.020  27.370  1.00  0.00     0.134 A 
ATOM     51  F   UNL A   1      42.846  29.021  26.750  1.00  0.00    -0.206 F 
ATOM     52  C   UNL A   1      42.629  27.067  25.465  1.00  0.00     0.040 A 
ATOM     53  C   UNL A   1      41.234  25.265  26.244  1.00  0.00     0.040 A 
ATOM     54  F   UNL A   1      40.070  25.477  28.270  1.00  0.00    -0.206 F 
ATOM     55  C   UNL A   1      42.096  25.792  25.284  1.00  0.00     0.006 A 
ENDBRANCH  27  48
BRANCH  39  56
ATOM     56  C   UNL A   1      44.093  27.475  34.007  1.00  0.00     0.057 A 
ATOM     57  C   UNL A   1      43.909  26.226  34.615  1.00  0.00     0.134 A 
ATOM     58  C   UNL A   1      45.386  28.014  34.010  1.00  0.00     0.134 A 
ATOM     59  F   UNL A   1      42.690  25.665  34.660  1.00  0.00    -0.206 F 
ATOM     60  C   UNL A   1      44.965  25.553  35.228  1.00  0.00     0.040 A 
ATOM     61  C   UNL A   1      46.455  27.337  34.598  1.00  0.00     0.040 A 
ATOM     62  F   UNL A   1      45.630  29.203  33.439  1.00  0.00    -0.206 F 
ATOM     63  C   UNL A   1      46.244  26.107  35.218  1.00  0.00     0.006 A 
ENDBRANCH  39  56
ENDBRANCH  13  14
ENDBRANCH   6   8
ENDBRANCH   3   4
ENDBRANCH   2   3
ENDBRANCH   1   2
BRANCH   1  64
ATOM     64  N   UNL A   1      30.753  29.852  23.566  1.00  0.00    -0.356 N 
ATOM     65  C   UNL A   1      30.695  28.790  22.716  1.00  0.00     0.224 C 
ATOM     66  H   UNL A   1      30.505  30.722  23.176  1.00  0.00     0.163 HD
ATOM     67  O   UNL A   1      29.852  28.871  21.815  1.00  0.00    -0.275 OA
BRANCH  65  68
ATOM     68  C   UNL A   1      31.729  27.690  22.686  1.00  0.00     0.098 C 
ATOM     69  C   UNL A   1      31.460  26.305  23.346  1.00  0.00     0.099 C 
ATOM     70  C   UNL A   1      33.251  27.868  22.857  1.00  0.00     0.025 C 
ATOM     71  C   UNL A   1      32.902  25.805  23.673  1.00  0.00     0.025 C 
ATOM     72  C   UNL A   1      33.670  27.870  24.308  1.00  0.00    -0.027 C 
ATOM     73  C   UNL A   1      33.706  26.430  22.523  1.00  0.00     0.017 C 
ATOM     74  C   UNL A   1      33.505  26.627  24.778  1.00  0.00    -0.027 C 
BRANCH  69  75
ATOM     75  C   UNL A   1      30.417  25.898  24.399  1.00  0.00     0.229 C 
ATOM     76  O   UNL A   1      29.391  26.599  24.480  1.00  0.00    -0.274 OA
ATOM     77  N   UNL A   1      30.345  24.719  25.074  1.00  0.00    -0.323 N 
ATOM     78  H   UNL A   1      29.430  24.506  25.370  1.00  0.00     0.170 HD
BRANCH  77  79
ATOM     79  C   UNL A   1      31.273  23.743  25.444  1.00  0.00     0.084 A 
ATOM     80  C   UNL A   1      31.838  23.860  26.723  1.00  0.00     0.030 A 
ATOM     81  C   UNL A   1      31.735  22.733  24.605  1.00  0.00     0.149 A 
ATOM     82  C   UNL A   1      32.686  22.869  27.225  1.00  0.00     0.002 A 
ATOM     83  C   UNL A   1      32.574  21.732  25.113  1.00  0.00     0.049 A 
ATOM     84  C   UNL A   1      33.024  21.780  26.430  1.00  0.00     0.004 A 
BRANCH  81  85
ATOM     85  O   UNL A   1      31.459  22.647  23.275  1.00  0.00    -0.433 OA
BRANCH  85  86
ATOM     86  C   UNL A   1      32.346  21.824  22.509  1.00  0.00     0.542 C 
ATOM     87  F   UNL A   1      31.657  20.891  21.821  1.00  0.00    -0.167 F 
ATOM     88  F   UNL A   1      33.045  22.571  21.621  1.00  0.00    -0.167 F 
ENDBRANCH  85  86
ENDBRANCH  81  85
ENDBRANCH  77  79
ENDBRANCH  69  75
ENDBRANCH  65  68
ENDBRANCH   1  64
TORSDOF 14
ENDMDL
MODEL 2
REMARK VINA RESULT:     -12.5      1.695      3.230
REMARK SMILES O=C(NCCCNC(=O)[C@@H]1[C@H](C(=O)Nc2ccccc2OC(F)F)[C@@H]2C=C[C@H]1C2)c1ccc(-c2c3nc(c(-c4c(F)cccc4F)c4ccc([nH]4)c(-c4c(F)cccc4F)c4nc(c(-c5c(F)cccc5F)c5ccc2[nH]5)C=C4)C=C3)cc1
REMARK SMILES IDX 6 1 5 2 4 3 3 4 1 5 2 6 30 8 31 9 83 10 32 11 82 12 33 13
REMARK SMILES IDX 34 14 35 15 76 16 36 17 81 18 75 19 77 20 37 21 80 22 74 23
REMARK SMILES IDX 73 24 38 26 64 27 47 28 63 29 48 30 51 31 62 32 78 33 49 34
REMARK SMILES IDX 50 35 61 37 79 38 52 39 39 40 40 41 45 42 41 43 42 44 44 45
REMARK SMILES IDX 46 46 43 47 65 48 66 49 71 50 67 51 68 52 70 53 72 54 69 55
REMARK SMILES IDX 53 56 54 57 59 58 55 59 56 60 58 61 60 62 57 63 7 64 8 65
REMARK SMILES IDX 9 67 10 68 11 69 28 70 25 71 27 72 29 73 26 74 12 75 13 76
REMARK SMILES IDX 14 77 15 79 16 80 20 81 17 82 19 83 18 84 21 85 22 86 23 87
REMARK SMILES IDX 24 88
REMARK H PARENT 3 7 77 25 51 36 7 66 14 78
REMARK Flexibility Score: inf
ROOT
ATOM      1  C   UNL A   1      32.567  27.275  26.691  1.00  0.00     0.117 C 
ENDROOT
BRANCH   1   2
ATOM      2  C   UNL A   1      31.832  28.552  26.324  1.00  0.00     0.042 C 
BRANCH   2   3
ATOM      3  C   UNL A   1      32.757  29.645  25.802  1.00  0.00     0.118 C 
BRANCH   3   4
ATOM      4  N   UNL A   1      32.448  30.972  26.327  1.00  0.00    -0.352 N 
ATOM      5  O   UNL A   1      32.627  32.802  27.635  1.00  0.00    -0.269 OA
ATOM      6  C   UNL A   1      33.140  31.779  27.210  1.00  0.00     0.251 C 
ATOM      7  H   UNL A   1      31.604  31.357  25.996  1.00  0.00     0.163 HD
BRANCH   6   8
ATOM      8  C   UNL A   1      34.487  31.376  27.675  1.00  0.00     0.039 A 
ATOM      9  C   UNL A   1      34.752  30.049  27.994  1.00  0.00     0.014 A 
ATOM     10  C   UNL A   1      35.488  32.339  27.828  1.00  0.00     0.014 A 
ATOM     11  C   UNL A   1      35.896  29.732  28.710  1.00  0.00     0.010 A 
ATOM     12  C   UNL A   1      36.708  31.987  28.420  1.00  0.00     0.010 A 
ATOM     13  C   UNL A   1      36.896  30.694  28.932  1.00  0.00    -0.014 A 
BRANCH  13  14
ATOM     14  C   UNL A   1      38.113  30.294  29.689  1.00  0.00     0.031 A 
ATOM     15  C   UNL A   1      38.300  30.678  31.134  1.00  0.00     0.074 A 
ATOM     16  C   UNL A   1      39.017  29.499  29.083  1.00  0.00     0.049 A 
ATOM     17  N   UNL A   1      39.270  30.351  31.953  1.00  0.00    -0.248 NA
ATOM     18  C   UNL A   1      37.280  31.548  31.739  1.00  0.00     0.031 C 
ATOM     19  C   UNL A   1      38.951  29.061  27.686  1.00  0.00     0.029 A 
ATOM     20  N   UNL A   1      40.138  28.876  29.570  1.00  0.00    -0.354 N 
ATOM     21  C   UNL A   1      38.998  31.004  33.150  1.00  0.00     0.074 A 
ATOM     22  C   UNL A   1      37.780  31.758  32.949  1.00  0.00     0.031 C 
ATOM     23  C   UNL A   1      39.927  28.173  27.454  1.00  0.00     0.029 A 
ATOM     24  C   UNL A   1      40.739  28.043  28.657  1.00  0.00     0.049 A 
ATOM     25  H   UNL A   1      40.479  29.013  30.483  1.00  0.00     0.167 HD
ATOM     26  C   UNL A   1      39.698  30.974  34.309  1.00  0.00     0.037 A 
ATOM     27  C   UNL A   1      41.830  27.264  28.767  1.00  0.00     0.037 A 
ATOM     28  C   UNL A   1      40.888  30.188  34.519  1.00  0.00     0.049 A 
ATOM     29  C   UNL A   1      42.582  27.246  30.064  1.00  0.00     0.074 A 
ATOM     30  C   UNL A   1      41.645  30.057  35.672  1.00  0.00     0.029 A 
ATOM     31  N   UNL A   1      41.493  29.394  33.556  1.00  0.00    -0.354 N 
ATOM     32  N   UNL A   1      42.303  27.860  31.188  1.00  0.00    -0.248 NA
ATOM     33  C   UNL A   1      43.807  26.438  30.103  1.00  0.00     0.031 C 
ATOM     34  C   UNL A   1      42.729  29.220  35.393  1.00  0.00     0.029 A 
ATOM     35  C   UNL A   1      42.624  28.789  34.080  1.00  0.00     0.049 A 
ATOM     36  H   UNL A   1      41.167  29.278  32.634  1.00  0.00     0.167 HD
ATOM     37  C   UNL A   1      43.309  27.504  32.073  1.00  0.00     0.074 A 
ATOM     38  C   UNL A   1      44.193  26.601  31.361  1.00  0.00     0.031 C 
ATOM     39  C   UNL A   1      43.490  27.894  33.358  1.00  0.00     0.037 A 
BRANCH  26  40
ATOM     40  C   UNL A   1      39.215  31.837  35.441  1.00  0.00     0.057 A 
ATOM     41  C   UNL A   1      39.635  33.164  35.601  1.00  0.00     0.134 A 
ATOM     42  C   UNL A   1      38.281  31.342  36.361  1.00  0.00     0.134 A 
ATOM     43  F   UNL A   1      40.537  33.697  34.763  1.00  0.00    -0.206 F 
ATOM     44  C   UNL A   1      39.159  33.959  36.646  1.00  0.00     0.040 A 
ATOM     45  C   UNL A   1      37.780  32.135  37.395  1.00  0.00     0.040 A 
ATOM     46  F   UNL A   1      37.832  30.082  36.262  1.00  0.00    -0.206 F 
ATOM     47  C   UNL A   1      38.224  33.447  37.544  1.00  0.00     0.006 A 
ENDBRANCH  26  40
BRANCH  27  48
ATOM     48  C   UNL A   1      42.272  26.444  27.612  1.00  0.00     0.057 A 
ATOM     49  C   UNL A   1      41.843  25.122  27.457  1.00  0.00     0.134 A 
ATOM     50  C   UNL A   1      43.118  26.968  26.627  1.00  0.00     0.134 A 
ATOM     51  F   UNL A   1      41.044  24.559  28.377  1.00  0.00    -0.206 F 
ATOM     52  C   UNL A   1      42.244  24.347  26.368  1.00  0.00     0.040 A 
ATOM     53  C   UNL A   1      43.505  26.214  25.519  1.00  0.00     0.040 A 
ATOM     54  F   UNL A   1      43.558  28.232  26.715  1.00  0.00    -0.206 F 
ATOM     55  C   UNL A   1      43.072  24.896  25.390  1.00  0.00     0.006 A 
ENDBRANCH  27  48
BRANCH  39  56
ATOM     56  C   UNL A   1      44.673  27.318  34.078  1.00  0.00     0.057 A 
ATOM     57  C   UNL A   1      44.595  26.103  34.771  1.00  0.00     0.134 A 
ATOM     58  C   UNL A   1      45.905  27.985  34.072  1.00  0.00     0.134 A 
ATOM     59  F   UNL A   1      43.438  25.425  34.828  1.00  0.00    -0.206 F 
ATOM     60  C   UNL A   1      45.694  25.586  35.457  1.00  0.00     0.040 A 
ATOM     61  C   UNL A   1      47.017  27.464  34.734  1.00  0.00     0.040 A 
ATOM     62  F   UNL A   1      46.046  29.150  33.422  1.00  0.00    -0.206 F 
ATOM     63  C   UNL A   1      46.911  26.265  35.436  1.00  0.00     0.006 A 
ENDBRANCH  39  56
ENDBRANCH  13  14
ENDBRANCH   6   8
ENDBRANCH   3   4
ENDBRANCH   2   3
ENDBRANCH   1   2
BRANCH   1  64
ATOM     64  N   UNL A   1      31.860  26.071  26.298  1.00  0.00    -0.356 N 
ATOM     65  C   UNL A   1      32.345  24.808  26.139  1.00  0.00     0.224 C 
ATOM     66  H   UNL A   1      30.897  26.181  26.122  1.00  0.00     0.163 HD
ATOM     67  O   UNL A   1      31.545  23.894  26.368  1.00  0.00    -0.275 OA
BRANCH  65  68
ATOM     68  C   UNL A   1      33.676  24.502  25.492  1.00  0.00     0.098 C 
ATOM     69  C   UNL A   1      33.780  24.137  23.982  1.00  0.00     0.099 C 
ATOM     70  C   UNL A   1      34.831  23.701  26.125  1.00  0.00     0.025 C 
ATOM     71  C   UNL A   1      35.087  23.286  23.933  1.00  0.00     0.025 C 
ATOM     72  C   UNL A   1      34.679  22.213  25.917  1.00  0.00    -0.027 C 
ATOM     73  C   UNL A   1      35.914  23.940  25.050  1.00  0.00     0.017 C 
ATOM     74  C   UNL A   1      34.879  21.964  24.616  1.00  0.00    -0.027 C 
BRANCH  69  75
ATOM     75  C   UNL A   1      32.696  23.653  23.005  1.00  0.00     0.229 C 
ATOM     76  O   UNL A   1      32.836  22.513  22.525  1.00  0.00    -0.274 OA
ATOM     77  N   UNL A   1      31.468  24.201  22.800  1.00  0.00    -0.323 N 
ATOM     78  H   UNL A   1      30.811  23.546  22.469  1.00  0.00     0.170 HD
BRANCH  77  79
ATOM     79  C   UNL A   1      30.928  25.479  22.951  1.00  0.00     0.084 A 
ATOM     80  C   UNL A   1      29.673  25.566  23.571  1.00  0.00     0.030 A 
ATOM     81  C   UNL A   1      31.503  26.644  22.449  1.00  0.00     0.149 A 
ATOM     82  C   UNL A   1      29.106  26.809  23.870  1.00  0.00     0.002 A 
ATOM     83  C   UNL A   1      30.941  27.891  22.762  1.00  0.00     0.049 A 
ATOM     84  C   UNL A   1      29.763  27.976  23.498  1.00  0.00     0.004 A 
BRANCH  81  85
ATOM     85  O   UNL A   1      32.585  26.680  21.625  1.00  0.00    -0.433 OA
BRANCH  85  86
ATOM     86  C   UNL A   1      33.779  27.230  22.190  1.00  0.00     0.542 C 
ATOM     87  F   UNL A   1      33.982  28.487  21.747  1.00  0.00    -0.167 F 
ATOM     88  F   UNL A   1      33.696  27.268  23.542  1.00  0.00    -0.167 F 
ENDBRANCH  85  86
ENDBRANCH  81  85
ENDBRANCH  77  79
ENDBRANCH  69  75
ENDBRANCH  65  68
ENDBRANCH   1  64
TORSDOF 14
ENDMDL
MODEL 3
REMARK VINA RESULT:     -12.5      4.060      8.703
REMARK SMILES O=C(NCCCNC(=O)[C@@H]1[C@H](C(=O)Nc2ccccc2OC(F)F)[C@@H]2C=C[C@H]1C2)c1ccc(-c2c3nc(c(-c4c(F)cccc4F)c4ccc([nH]4)c(-c4c(F)cccc4F)c4nc(c(-c5c(F)cccc5F)c5ccc2[nH]5)C=C4)C=C3)cc1
REMARK SMILES IDX 6 1 5 2 4 3 3 4 1 5 2 6 30 8 31 9 83 10 32 11 82 12 33 13
REMARK SMILES IDX 34 14 35 15 76 16 36 17 81 18 75 19 77 20 37 21 80 22 74 23
REMARK SMILES IDX 73 24 38 26 64 27 47 28 63 29 48 30 51 31 62 32 78 33 49 34
REMARK SMILES IDX 50 35 61 37 79 38 52 39 39 40 40 41 45 42 41 43 42 44 44 45
REMARK SMILES IDX 46 46 43 47 65 48 66 49 71 50 67 51 68 52 70 53 72 54 69 55
REMARK SMILES IDX 53 56 54 57 59 58 55 59 56 60 58 61 60 62 57 63 7 64 8 65
REMARK SMILES IDX 9 67 10 68 11 69 28 70 25 71 27 72 29 73 26 74 12 75 13 76
REMARK SMILES IDX 14 77 15 79 16 80 20 81 17 82 19 83 18 84 21 85 22 86 23 87
REMARK SMILES IDX 24 88
REMARK H PARENT 3 7 77 25 51 36 7 66 14 78
REMARK Flexibility Score: inf
ROOT
ATOM      1  C   UNL A   1      35.719  24.008  24.094  1.00  0.00     0.117 C 
ENDROOT
BRANCH   1   2
ATOM      2  C   UNL A   1      36.128  22.546  24.113  1.00  0.00     0.042 C 
BRANCH   2   3
ATOM      3  C   UNL A   1      36.489  22.045  25.506  1.00  0.00     0.118 C 
BRANCH   3   4
ATOM      4  N   UNL A   1      37.531  21.021  25.506  1.00  0.00    -0.352 N 
ATOM      5  O   UNL A   1      39.602  20.139  25.669  1.00  0.00    -0.269 OA
ATOM      6  C   UNL A   1      38.857  21.082  25.890  1.00  0.00     0.251 C 
ATOM      7  H   UNL A   1      37.240  20.139  25.177  1.00  0.00     0.163 HD
BRANCH   6   8
ATOM      8  C   UNL A   1      39.384  22.309  26.528  1.00  0.00     0.039 A 
ATOM      9  C   UNL A   1      38.903  23.558  26.152  1.00  0.00     0.014 A 
ATOM     10  C   UNL A   1      40.396  22.216  27.488  1.00  0.00     0.014 A 
ATOM     11  C   UNL A   1      39.601  24.699  26.516  1.00  0.00     0.010 A 
ATOM     12  C   UNL A   1      41.007  23.381  27.970  1.00  0.00     0.010 A 
ATOM     13  C   UNL A   1      40.662  24.631  27.435  1.00  0.00    -0.014 A 
BRANCH  13  14
ATOM     14  C   UNL A   1      41.364  25.889  27.806  1.00  0.00     0.031 A 
ATOM     15  C   UNL A   1      42.736  26.210  27.274  1.00  0.00     0.074 A 
ATOM     16  C   UNL A   1      40.710  26.793  28.565  1.00  0.00     0.049 A 
ATOM     17  N   UNL A   1      43.454  27.293  27.447  1.00  0.00    -0.248 NA
ATOM     18  C   UNL A   1      43.398  25.185  26.453  1.00  0.00     0.031 C 
ATOM     19  C   UNL A   1      39.378  26.599  29.144  1.00  0.00     0.029 A 
ATOM     20  N   UNL A   1      41.049  28.068  28.939  1.00  0.00    -0.354 N 
ATOM     21  C   UNL A   1      44.660  27.065  26.794  1.00  0.00     0.074 A 
ATOM     22  C   UNL A   1      44.586  25.733  26.232  1.00  0.00     0.031 C 
ATOM     23  C   UNL A   1      38.975  27.740  29.719  1.00  0.00     0.029 A 
ATOM     24  C   UNL A   1      40.051  28.719  29.625  1.00  0.00     0.049 A 
ATOM     25  H   UNL A   1      41.921  28.478  28.736  1.00  0.00     0.167 HD
ATOM     26  C   UNL A   1      45.728  27.889  26.673  1.00  0.00     0.037 A 
ATOM     27  C   UNL A   1      40.005  29.963  30.132  1.00  0.00     0.037 A 
ATOM     28  C   UNL A   1      45.782  29.230  27.198  1.00  0.00     0.049 A 
ATOM     29  C   UNL A   1      41.200  30.856  29.978  1.00  0.00     0.074 A 
ATOM     30  C   UNL A   1      46.803  30.159  27.090  1.00  0.00     0.029 A 
ATOM     31  N   UNL A   1      44.770  29.836  27.928  1.00  0.00    -0.354 N 
ATOM     32  N   UNL A   1      42.325  30.627  29.347  1.00  0.00    -0.248 NA
ATOM     33  C   UNL A   1      41.122  32.175  30.618  1.00  0.00     0.031 C 
ATOM     34  C   UNL A   1      46.426  31.310  27.790  1.00  0.00     0.029 A 
ATOM     35  C   UNL A   1      45.151  31.117  28.295  1.00  0.00     0.049 A 
ATOM     36  H   UNL A   1      43.908  29.417  28.153  1.00  0.00     0.167 HD
ATOM     37  C   UNL A   1      43.086  31.775  29.501  1.00  0.00     0.074 A 
ATOM     38  C   UNL A   1      42.284  32.709  30.267  1.00  0.00     0.031 C 
ATOM     39  C   UNL A   1      44.340  32.031  29.056  1.00  0.00     0.037 A 
BRANCH  26  40
ATOM     40  C   UNL A   1      46.944  27.359  25.966  1.00  0.00     0.057 A 
ATOM     41  C   UNL A   1      47.976  26.699  26.645  1.00  0.00     0.134 A 
ATOM     42  C   UNL A   1      47.060  27.476  24.574  1.00  0.00     0.134 A 
ATOM     43  F   UNL A   1      47.933  26.563  27.979  1.00  0.00    -0.206 F 
ATOM     44  C   UNL A   1      49.089  26.194  25.969  1.00  0.00     0.040 A 
ATOM     45  C   UNL A   1      48.157  26.954  23.885  1.00  0.00     0.040 A 
ATOM     46  F   UNL A   1      46.106  28.091  23.860  1.00  0.00    -0.206 F 
ATOM     47  C   UNL A   1      49.178  26.316  24.583  1.00  0.00     0.006 A 
ENDBRANCH  26  40
BRANCH  27  48
ATOM     48  C   UNL A   1      38.784  30.429  30.836  1.00  0.00     0.057 A 
ATOM     49  C   UNL A   1      37.780  31.128  30.157  1.00  0.00     0.134 A 
ATOM     50  C   UNL A   1      38.583  30.170  32.197  1.00  0.00     0.134 A 
ATOM     51  F   UNL A   1      37.923  31.420  28.855  1.00  0.00    -0.206 F 
ATOM     52  C   UNL A   1      36.624  31.560  30.808  1.00  0.00     0.040 A 
ATOM     53  C   UNL A   1      37.420  30.571  32.854  1.00  0.00     0.040 A 
ATOM     54  F   UNL A   1      39.506  29.497  32.902  1.00  0.00    -0.206 F 
ATOM     55  C   UNL A   1      36.438  31.274  32.160  1.00  0.00     0.006 A 
ENDBRANCH  27  48
BRANCH  39  56
ATOM     56  C   UNL A   1      44.900  33.388  29.362  1.00  0.00     0.057 A 
ATOM     57  C   UNL A   1      44.698  34.481  28.510  1.00  0.00     0.134 A 
ATOM     58  C   UNL A   1      45.646  33.604  30.528  1.00  0.00     0.134 A 
ATOM     59  F   UNL A   1      44.006  34.334  27.369  1.00  0.00    -0.206 F 
ATOM     60  C   UNL A   1      45.242  35.734  28.791  1.00  0.00     0.040 A 
ATOM     61  C   UNL A   1      46.173  34.859  30.832  1.00  0.00     0.040 A 
ATOM     62  F   UNL A   1      45.870  32.600  31.389  1.00  0.00    -0.206 F 
ATOM     63  C   UNL A   1      45.980  35.927  29.958  1.00  0.00     0.006 A 
ENDBRANCH  39  56
ENDBRANCH  13  14
ENDBRANCH   6   8
ENDBRANCH   3   4
ENDBRANCH   2   3
ENDBRANCH   1   2
BRANCH   1  64
ATOM     64  N   UNL A   1      34.422  24.236  23.485  1.00  0.00    -0.356 N 
ATOM     65  C   UNL A   1      33.614  25.328  23.578  1.00  0.00     0.224 C 
ATOM     66  H   UNL A   1      34.079  23.500  22.928  1.00  0.00     0.163 HD
ATOM     67  O   UNL A   1      32.900  25.551  22.594  1.00  0.00    -0.275 OA
BRANCH  65  68
ATOM     68  C   UNL A   1      33.392  26.093  24.862  1.00  0.00     0.098 C 
ATOM     69  C   UNL A   1      32.117  25.872  25.728  1.00  0.00     0.099 C 
ATOM     70  C   UNL A   1      33.724  27.579  25.104  1.00  0.00     0.025 C 
ATOM     71  C   UNL A   1      31.979  27.236  26.474  1.00  0.00     0.025 C 
ATOM     72  C   UNL A   1      32.608  28.496  24.666  1.00  0.00    -0.027 C 
ATOM     73  C   UNL A   1      33.451  27.648  26.623  1.00  0.00     0.017 C 
ATOM     74  C   UNL A   1      31.586  28.322  25.514  1.00  0.00    -0.027 C 
BRANCH  69  75
ATOM     75  C   UNL A   1      30.767  25.238  25.356  1.00  0.00     0.229 C 
ATOM     76  O   UNL A   1      29.748  25.930  25.535  1.00  0.00    -0.274 OA
ATOM     77  N   UNL A   1      30.561  24.118  24.611  1.00  0.00    -0.323 N 
ATOM     78  H   UNL A   1      29.683  24.116  24.164  1.00  0.00     0.170 HD
BRANCH  77  79
ATOM     79  C   UNL A   1      31.309  22.972  24.336  1.00  0.00     0.084 A 
ATOM     80  C   UNL A   1      31.249  22.477  23.025  1.00  0.00     0.030 A 
ATOM     81  C   UNL A   1      32.025  22.249  25.286  1.00  0.00     0.149 A 
ATOM     82  C   UNL A   1      32.054  21.406  22.626  1.00  0.00     0.002 A 
ATOM     83  C   UNL A   1      32.842  21.183  24.883  1.00  0.00     0.049 A 
ATOM     84  C   UNL A   1      32.883  20.782  23.550  1.00  0.00     0.004 A 
BRANCH  81  85
ATOM     85  O   UNL A   1      31.974  22.472  26.628  1.00  0.00    -0.433 OA
BRANCH  85  86
ATOM     86  C   UNL A   1      33.234  22.463  27.307  1.00  0.00     0.542 C 
ATOM     87  F   UNL A   1      33.937  23.579  27.025  1.00  0.00    -0.167 F 
ATOM     88  F   UNL A   1      33.055  22.405  28.648  1.00  0.00    -0.167 F 
ENDBRANCH  85  86
ENDBRANCH  81  85
ENDBRANCH  77  79
ENDBRANCH  69  75
ENDBRANCH  65  68
ENDBRANCH   1  64
TORSDOF 14
ENDMDL
