MODEL 1
REMARK VINA RESULT:      -8.8      0.000      0.000
REMARK SMILES CC[C@](O)(c1ccc(O)cc1)[C@H](F)C(=O)NCCCNC(=O)c1ccc(-c2c3nc(c(-c4c(F)cccc4F)c4ccc([nH]4)c(-c4c(F)cccc4F)c4nc(c(-c5c(F)cccc5F)c5ccc2[nH]5)C=C4)C=C3)cc1
REMARK SMILES IDX 17 1 16 2 14 3 15 4 12 6 13 7 3 8 2 9 1 10 5 11 6 12 11 13
REMARK SMILES IDX 7 14 10 15 8 16 9 17 4 19 18 21 19 22 20 23 21 24 22 26
REMARK SMILES IDX 23 27 24 28 76 29 25 30 75 31 26 32 27 33 28 34 69 35 29 36
REMARK SMILES IDX 74 37 68 38 70 39 30 40 73 41 67 42 66 43 31 45 57 46 40 47
REMARK SMILES IDX 56 48 41 49 44 50 55 51 71 52 42 53 43 54 54 56 72 57 45 58
REMARK SMILES IDX 32 59 33 60 38 61 34 62 35 63 37 64 39 65 36 66 58 67 59 68
REMARK SMILES IDX 64 69 60 70 61 71 63 72 65 73 62 74 46 75 47 76 52 77 48 78
REMARK SMILES IDX 49 79 51 80 53 81 50 82
REMARK H PARENT 16 5 9 18 4 20 20 25 70 44 44 55
REMARK Flexibility Score: inf
ROOT
ATOM      1  C   UNL A   1      45.600  21.431  25.366  1.00  0.00     0.117 C 
ENDROOT
BRANCH   1   2
ATOM      2  N   UNL A   1      46.401  22.121  24.374  1.00  0.00    -0.353 N 
ATOM      3  C   UNL A   1      46.567  23.459  24.157  1.00  0.00     0.257 C 
ATOM      4  O   UNL A   1      47.359  23.777  23.264  1.00  0.00    -0.272 OA
ATOM      5  H   UNL A   1      46.902  21.535  23.762  1.00  0.00     0.163 HD
BRANCH   3   6
ATOM      6  C   UNL A   1      45.805  24.507  24.962  1.00  0.00     0.291 C 
ATOM      7  F   UNL A   1      45.273  23.995  26.117  1.00  0.00    -0.233 F 
BRANCH   6   8
ATOM      8  C   UNL A   1      46.598  25.807  25.277  1.00  0.00     0.130 C 
BRANCH   8   9
ATOM      9  C   UNL A   1      47.782  25.618  26.271  1.00  0.00     0.040 C 
ATOM     10  C   UNL A   1      49.170  25.937  25.724  1.00  0.00     0.007 C 
ENDBRANCH   8   9
BRANCH   8  11
ATOM     11  C   UNL A   1      45.590  26.825  25.853  1.00  0.00    -0.013 A 
ATOM     12  C   UNL A   1      44.250  26.854  25.420  1.00  0.00     0.010 A 
ATOM     13  C   UNL A   1      45.995  27.775  26.809  1.00  0.00     0.010 A 
ATOM     14  C   UNL A   1      43.331  27.744  25.981  1.00  0.00     0.046 A 
ATOM     15  C   UNL A   1      45.079  28.666  27.367  1.00  0.00     0.046 A 
ATOM     16  C   UNL A   1      43.752  28.631  26.964  1.00  0.00     0.115 A 
BRANCH  16  17
ATOM     17  O   UNL A   1      42.883  29.494  27.561  1.00  0.00    -0.508 OA
ATOM     18  H   UNL A   1      42.881  30.399  27.317  1.00  0.00     0.293 HD
ENDBRANCH  16  17
ENDBRANCH   8  11
BRANCH   8  19
ATOM     19  O   UNL A   1      47.142  26.370  24.072  1.00  0.00    -0.382 OA
ATOM     20  H   UNL A   1      46.988  25.762  23.333  1.00  0.00     0.212 HD
ENDBRANCH   8  19
ENDBRANCH   6   8
ENDBRANCH   3   6
ENDBRANCH   1   2
BRANCH   1  21
ATOM     21  C   UNL A   1      45.011  20.129  24.856  1.00  0.00     0.042 C 
BRANCH  21  22
ATOM     22  C   UNL A   1      44.352  19.282  25.935  1.00  0.00     0.118 C 
BRANCH  22  23
ATOM     23  N   UNL A   1      42.968  18.931  25.635  1.00  0.00    -0.352 N 
ATOM     24  C   UNL A   1      41.786  19.581  25.910  1.00  0.00     0.251 C 
ATOM     25  H   UNL A   1      42.860  18.081  25.149  1.00  0.00     0.163 HD
ATOM     26  O   UNL A   1      40.720  19.020  25.700  1.00  0.00    -0.269 OA
BRANCH  24  27
ATOM     27  C   UNL A   1      41.799  20.939  26.499  1.00  0.00     0.039 A 
ATOM     28  C   UNL A   1      41.660  21.080  27.884  1.00  0.00     0.014 A 
ATOM     29  C   UNL A   1      41.952  22.070  25.700  1.00  0.00     0.014 A 
ATOM     30  C   UNL A   1      41.785  22.344  28.468  1.00  0.00     0.010 A 
ATOM     31  C   UNL A   1      42.193  23.305  26.288  1.00  0.00     0.010 A 
ATOM     32  C   UNL A   1      42.112  23.459  27.680  1.00  0.00    -0.014 A 
BRANCH  32  33
ATOM     33  C   UNL A   1      42.378  24.793  28.275  1.00  0.00     0.031 A 
ATOM     34  C   UNL A   1      43.726  25.093  28.877  1.00  0.00     0.074 A 
ATOM     35  C   UNL A   1      41.380  25.696  28.371  1.00  0.00     0.049 A 
ATOM     36  N   UNL A   1      44.109  26.134  29.570  1.00  0.00    -0.248 NA
ATOM     37  C   UNL A   1      44.769  24.066  28.714  1.00  0.00     0.031 C 
ATOM     38  C   UNL A   1      40.010  25.504  27.890  1.00  0.00     0.029 A 
ATOM     39  N   UNL A   1      41.361  26.952  28.925  1.00  0.00    -0.354 N 
ATOM     40  C   UNL A   1      45.416  25.870  29.958  1.00  0.00     0.074 A 
ATOM     41  C   UNL A   1      45.747  24.552  29.464  1.00  0.00     0.031 C 
ATOM     42  C   UNL A   1      39.291  26.608  28.152  1.00  0.00     0.029 A 
ATOM     43  C   UNL A   1      40.135  27.568  28.854  1.00  0.00     0.049 A 
ATOM     44  H   UNL A   1      42.152  27.371  29.336  1.00  0.00     0.167 HD
ATOM     45  C   UNL A   1      46.273  26.662  30.643  1.00  0.00     0.037 A 
ATOM     46  C   UNL A   1      39.733  28.767  29.315  1.00  0.00     0.037 A 
ATOM     47  C   UNL A   1      45.965  27.998  31.077  1.00  0.00     0.049 A 
ATOM     48  C   UNL A   1      40.720  29.648  30.029  1.00  0.00     0.074 A 
ATOM     49  C   UNL A   1      46.796  28.916  31.693  1.00  0.00     0.029 A 
ATOM     50  N   UNL A   1      44.729  28.609  30.930  1.00  0.00    -0.354 N 
ATOM     51  N   UNL A   1      41.975  29.413  30.321  1.00  0.00    -0.248 NA
ATOM     52  C   UNL A   1      40.236  30.963  30.474  1.00  0.00     0.031 C 
ATOM     53  C   UNL A   1      46.055  30.075  31.947  1.00  0.00     0.029 A 
ATOM     54  C   UNL A   1      44.773  29.889  31.456  1.00  0.00     0.049 A 
ATOM     55  H   UNL A   1      43.939  28.195  30.514  1.00  0.00     0.167 HD
ATOM     56  C   UNL A   1      42.437  30.557  30.958  1.00  0.00     0.074 A 
ATOM     57  C   UNL A   1      41.333  31.491  30.997  1.00  0.00     0.031 C 
ATOM     58  C   UNL A   1      43.667  30.809  31.470  1.00  0.00     0.037 A 
BRANCH  45  59
ATOM     59  C   UNL A   1      47.636  26.116  30.949  1.00  0.00     0.057 A 
ATOM     60  C   UNL A   1      48.712  26.282  30.069  1.00  0.00     0.134 A 
ATOM     61  C   UNL A   1      47.887  25.462  32.162  1.00  0.00     0.134 A 
ATOM     62  F   UNL A   1      48.534  26.889  28.885  1.00  0.00    -0.206 F 
ATOM     63  C   UNL A   1      49.986  25.800  30.373  1.00  0.00     0.040 A 
ATOM     64  C   UNL A   1      49.162  24.998  32.490  1.00  0.00     0.040 A 
ATOM     65  F   UNL A   1      46.901  25.274  33.052  1.00  0.00    -0.206 F 
ATOM     66  C   UNL A   1      50.214  25.164  31.592  1.00  0.00     0.006 A 
ENDBRANCH  45  59
BRANCH  46  67
ATOM     67  C   UNL A   1      38.334  29.220  29.102  1.00  0.00     0.057 A 
ATOM     68  C   UNL A   1      37.919  29.717  27.862  1.00  0.00     0.134 A 
ATOM     69  C   UNL A   1      37.391  29.192  30.135  1.00  0.00     0.134 A 
ATOM     70  F   UNL A   1      38.784  29.787  26.839  1.00  0.00    -0.206 F 
ATOM     71  C   UNL A   1      36.623  30.195  27.662  1.00  0.00     0.040 A 
ATOM     72  C   UNL A   1      36.084  29.644  29.942  1.00  0.00     0.040 A 
ATOM     73  F   UNL A   1      37.724  28.720  31.345  1.00  0.00    -0.206 F 
ATOM     74  C   UNL A   1      35.700  30.155  28.705  1.00  0.00     0.006 A 
ENDBRANCH  46  67
BRANCH  58  75
ATOM     75  C   UNL A   1      43.892  32.160  32.078  1.00  0.00     0.057 A 
ATOM     76  C   UNL A   1      43.679  32.397  33.442  1.00  0.00     0.134 A 
ATOM     77  C   UNL A   1      44.368  33.222  31.300  1.00  0.00     0.134 A 
ATOM     78  F   UNL A   1      43.211  31.424  34.237  1.00  0.00    -0.206 F 
ATOM     79  C   UNL A   1      43.917  33.651  34.007  1.00  0.00     0.040 A 
ATOM     80  C   UNL A   1      44.632  34.472  31.858  1.00  0.00     0.040 A 
ATOM     81  F   UNL A   1      44.599  33.055  29.989  1.00  0.00    -0.206 F 
ATOM     82  C   UNL A   1      44.402  34.691  33.215  1.00  0.00     0.006 A 
ENDBRANCH  58  75
ENDBRANCH  32  33
ENDBRANCH  24  27
ENDBRANCH  22  23
ENDBRANCH  21  22
ENDBRANCH   1  21
TORSDOF 15
ENDMDL
MODEL 2
REMARK VINA RESULT:      -8.7      5.722     11.272
REMARK SMILES CC[C@](O)(c1ccc(O)cc1)[C@H](F)C(=O)NCCCNC(=O)c1ccc(-c2c3nc(c(-c4c(F)cccc4F)c4ccc([nH]4)c(-c4c(F)cccc4F)c4nc(c(-c5c(F)cccc5F)c5ccc2[nH]5)C=C4)C=C3)cc1
REMARK SMILES IDX 17 1 16 2 14 3 15 4 12 6 13 7 3 8 2 9 1 10 5 11 6 12 11 13
REMARK SMILES IDX 7 14 10 15 8 16 9 17 4 19 18 21 19 22 20 23 21 24 22 26
REMARK SMILES IDX 23 27 24 28 76 29 25 30 75 31 26 32 27 33 28 34 69 35 29 36
REMARK SMILES IDX 74 37 68 38 70 39 30 40 73 41 67 42 66 43 31 45 57 46 40 47
REMARK SMILES IDX 56 48 41 49 44 50 55 51 71 52 42 53 43 54 54 56 72 57 45 58
REMARK SMILES IDX 32 59 33 60 38 61 34 62 35 63 37 64 39 65 36 66 58 67 59 68
REMARK SMILES IDX 64 69 60 70 61 71 63 72 65 73 62 74 46 75 47 76 52 77 48 78
REMARK SMILES IDX 49 79 51 80 53 81 50 82
REMARK H PARENT 16 5 9 18 4 20 20 25 70 44 44 55
REMARK Flexibility Score: inf
ROOT
ATOM      1  C   UNL A   1      31.060  30.749  25.582  1.00  0.00     0.117 C 
ENDROOT
BRANCH   1   2
ATOM      2  N   UNL A   1      32.245  29.969  25.882  1.00  0.00    -0.353 N 
ATOM      3  C   UNL A   1      33.016  29.195  25.064  1.00  0.00     0.257 C 
ATOM      4  O   UNL A   1      34.012  28.674  25.578  1.00  0.00    -0.272 OA
ATOM      5  H   UNL A   1      32.539  30.003  26.821  1.00  0.00     0.163 HD
BRANCH   3   6
ATOM      6  C   UNL A   1      32.660  28.968  23.598  1.00  0.00     0.291 C 
ATOM      7  F   UNL A   1      33.740  29.122  22.768  1.00  0.00    -0.233 F 
BRANCH   6   8
ATOM      8  C   UNL A   1      31.945  27.621  23.291  1.00  0.00     0.130 C 
BRANCH   8   9
ATOM      9  C   UNL A   1      32.410  26.927  21.976  1.00  0.00     0.040 C 
ATOM     10  C   UNL A   1      32.797  25.457  22.098  1.00  0.00     0.007 C 
ENDBRANCH   8   9
BRANCH   8  11
ATOM     11  C   UNL A   1      30.432  27.919  23.217  1.00  0.00    -0.013 A 
ATOM     12  C   UNL A   1      29.944  29.091  22.608  1.00  0.00     0.010 A 
ATOM     13  C   UNL A   1      29.498  27.035  23.789  1.00  0.00     0.010 A 
ATOM     14  C   UNL A   1      28.572  29.330  22.500  1.00  0.00     0.046 A 
ATOM     15  C   UNL A   1      28.127  27.275  23.685  1.00  0.00     0.046 A 
ATOM     16  C   UNL A   1      27.675  28.409  23.026  1.00  0.00     0.115 A 
BRANCH  16  17
ATOM     17  O   UNL A   1      26.329  28.585  22.916  1.00  0.00    -0.508 OA
ATOM     18  H   UNL A   1      25.744  28.046  23.412  1.00  0.00     0.293 HD
ENDBRANCH  16  17
ENDBRANCH   8  11
BRANCH   8  19
ATOM     19  O   UNL A   1      32.152  26.685  24.360  1.00  0.00    -0.382 OA
ATOM     20  H   UNL A   1      31.474  26.816  25.041  1.00  0.00     0.212 HD
ENDBRANCH   8  19
ENDBRANCH   6   8
ENDBRANCH   3   6
ENDBRANCH   1   2
BRANCH   1  21
ATOM     21  C   UNL A   1      31.021  32.079  26.312  1.00  0.00     0.042 C 
BRANCH  21  22
ATOM     22  C   UNL A   1      32.365  32.517  26.875  1.00  0.00     0.118 C 
BRANCH  22  23
ATOM     23  N   UNL A   1      32.331  33.832  27.507  1.00  0.00    -0.352 N 
ATOM     24  C   UNL A   1      33.144  34.402  28.461  1.00  0.00     0.251 C 
ATOM     25  H   UNL A   1      31.599  34.414  27.197  1.00  0.00     0.163 HD
ATOM     26  O   UNL A   1      32.832  35.471  28.965  1.00  0.00    -0.269 OA
BRANCH  24  27
ATOM     27  C   UNL A   1      34.370  33.706  28.911  1.00  0.00     0.039 A 
ATOM     28  C   UNL A   1      35.601  34.361  28.804  1.00  0.00     0.014 A 
ATOM     29  C   UNL A   1      34.315  32.418  29.442  1.00  0.00     0.014 A 
ATOM     30  C   UNL A   1      36.751  33.765  29.329  1.00  0.00     0.010 A 
ATOM     31  C   UNL A   1      35.433  31.880  30.066  1.00  0.00     0.010 A 
ATOM     32  C   UNL A   1      36.665  32.545  30.018  1.00  0.00    -0.014 A 
BRANCH  32  33
ATOM     33  C   UNL A   1      37.839  31.941  30.699  1.00  0.00     0.031 A 
ATOM     34  C   UNL A   1      38.639  30.868  30.007  1.00  0.00     0.074 A 
ATOM     35  C   UNL A   1      38.122  32.277  31.974  1.00  0.00     0.049 A 
ATOM     36  N   UNL A   1      39.600  30.118  30.483  1.00  0.00    -0.248 NA
ATOM     37  C   UNL A   1      38.284  30.571  28.610  1.00  0.00     0.031 C 
ATOM     38  C   UNL A   1      37.382  33.251  32.781  1.00  0.00     0.029 A 
ATOM     39  N   UNL A   1      39.098  31.819  32.824  1.00  0.00    -0.354 N 
ATOM     40  C   UNL A   1      39.932  29.238  29.460  1.00  0.00     0.074 A 
ATOM     41  C   UNL A   1      39.042  29.515  28.355  1.00  0.00     0.031 C 
ATOM     42  C   UNL A   1      37.943  33.332  33.999  1.00  0.00     0.029 A 
ATOM     43  C   UNL A   1      39.053  32.389  34.074  1.00  0.00     0.049 A 
ATOM     44  H   UNL A   1      39.767  31.147  32.563  1.00  0.00     0.167 HD
ATOM     45  C   UNL A   1      40.907  28.300  29.433  1.00  0.00     0.037 A 
ATOM     46  C   UNL A   1      39.814  32.167  35.162  1.00  0.00     0.037 A 
ATOM     47  C   UNL A   1      41.834  28.069  30.508  1.00  0.00     0.049 A 
ATOM     48  C   UNL A   1      40.921  31.154  35.089  1.00  0.00     0.074 A 
ATOM     49  C   UNL A   1      42.917  27.209  30.541  1.00  0.00     0.029 A 
ATOM     50  N   UNL A   1      41.793  28.712  31.736  1.00  0.00    -0.354 N 
ATOM     51  N   UNL A   1      41.271  30.383  34.088  1.00  0.00    -0.248 NA
ATOM     52  C   UNL A   1      41.745  30.982  36.295  1.00  0.00     0.031 C 
ATOM     53  C   UNL A   1      43.516  27.308  31.801  1.00  0.00     0.029 A 
ATOM     54  C   UNL A   1      42.826  28.257  32.538  1.00  0.00     0.049 A 
ATOM     55  H   UNL A   1      41.130  29.390  31.997  1.00  0.00     0.167 HD
ATOM     56  C   UNL A   1      42.367  29.656  34.533  1.00  0.00     0.074 A 
ATOM     57  C   UNL A   1      42.635  30.088  35.888  1.00  0.00     0.031 C 
ATOM     58  C   UNL A   1      43.085  28.711  33.879  1.00  0.00     0.037 A 
BRANCH  45  59
ATOM     59  C   UNL A   1      41.037  27.463  28.196  1.00  0.00     0.057 A 
ATOM     60  C   UNL A   1      40.351  26.251  28.048  1.00  0.00     0.134 A 
ATOM     61  C   UNL A   1      41.817  27.900  27.118  1.00  0.00     0.134 A 
ATOM     62  F   UNL A   1      39.597  25.772  29.049  1.00  0.00    -0.206 F 
ATOM     63  C   UNL A   1      40.450  25.493  26.881  1.00  0.00     0.040 A 
ATOM     64  C   UNL A   1      41.904  27.163  25.935  1.00  0.00     0.040 A 
ATOM     65  F   UNL A   1      42.497  29.055  27.191  1.00  0.00    -0.206 F 
ATOM     66  C   UNL A   1      41.223  25.954  25.817  1.00  0.00     0.006 A 
ENDBRANCH  45  59
BRANCH  46  67
ATOM     67  C   UNL A   1      39.570  32.928  36.414  1.00  0.00     0.057 A 
ATOM     68  C   UNL A   1      38.611  32.503  37.340  1.00  0.00     0.134 A 
ATOM     69  C   UNL A   1      40.268  34.106  36.703  1.00  0.00     0.134 A 
ATOM     70  F   UNL A   1      37.896  31.392  37.109  1.00  0.00    -0.206 F 
ATOM     71  C   UNL A   1      38.335  33.235  38.496  1.00  0.00     0.040 A 
ATOM     72  C   UNL A   1      40.020  34.835  37.867  1.00  0.00     0.040 A 
ATOM     73  F   UNL A   1      41.207  34.561  35.860  1.00  0.00    -0.206 F 
ATOM     74  C   UNL A   1      39.044  34.405  38.763  1.00  0.00     0.006 A 
ENDBRANCH  46  67
BRANCH  58  75
ATOM     75  C   UNL A   1      44.251  28.112  34.605  1.00  0.00     0.057 A 
ATOM     76  C   UNL A   1      45.521  28.700  34.570  1.00  0.00     0.134 A 
ATOM     77  C   UNL A   1      44.090  26.958  35.381  1.00  0.00     0.134 A 
ATOM     78  F   UNL A   1      45.741  29.800  33.834  1.00  0.00    -0.206 F 
ATOM     79  C   UNL A   1      46.595  28.152  35.272  1.00  0.00     0.040 A 
ATOM     80  C   UNL A   1      45.150  26.413  36.104  1.00  0.00     0.040 A 
ATOM     81  F   UNL A   1      42.896  26.351  35.460  1.00  0.00    -0.206 F 
ATOM     82  C   UNL A   1      46.409  27.008  36.047  1.00  0.00     0.006 A 
ENDBRANCH  58  75
ENDBRANCH  32  33
ENDBRANCH  24  27
ENDBRANCH  22  23
ENDBRANCH  21  22
ENDBRANCH   1  21
TORSDOF 15
ENDMDL
MODEL 3
REMARK VINA RESULT:      -8.7      4.343      7.276
REMARK SMILES CC[C@](O)(c1ccc(O)cc1)[C@H](F)C(=O)NCCCNC(=O)c1ccc(-c2c3nc(c(-c4c(F)cccc4F)c4ccc([nH]4)c(-c4c(F)cccc4F)c4nc(c(-c5c(F)cccc5F)c5ccc2[nH]5)C=C4)C=C3)cc1
REMARK SMILES IDX 17 1 16 2 14 3 15 4 12 6 13 7 3 8 2 9 1 10 5 11 6 12 11 13
REMARK SMILES IDX 7 14 10 15 8 16 9 17 4 19 18 21 19 22 20 23 21 24 22 26
REMARK SMILES IDX 23 27 24 28 76 29 25 30 75 31 26 32 27 33 28 34 69 35 29 36
REMARK SMILES IDX 74 37 68 38 70 39 30 40 73 41 67 42 66 43 31 45 57 46 40 47
REMARK SMILES IDX 56 48 41 49 44 50 55 51 71 52 42 53 43 54 54 56 72 57 45 58
REMARK SMILES IDX 32 59 33 60 38 61 34 62 35 63 37 64 39 65 36 66 58 67 59 68
REMARK SMILES IDX 64 69 60 70 61 71 63 72 65 73 62 74 46 75 47 76 52 77 48 78
REMARK SMILES IDX 49 79 51 80 53 81 50 82
REMARK H PARENT 16 5 9 18 4 20 20 25 70 44 44 55
REMARK Flexibility Score: inf
ROOT
ATOM      1  C   UNL A   1      36.554  20.294  25.001  1.00  0.00     0.117 C 
ENDROOT
BRANCH   1   2
ATOM      2  N   UNL A   1      36.519  21.668  25.463  1.00  0.00    -0.353 N 
ATOM      3  C   UNL A   1      35.532  22.349  26.116  1.00  0.00     0.257 C 
ATOM      4  O   UNL A   1      35.789  23.512  26.442  1.00  0.00    -0.272 OA
ATOM      5  H   UNL A   1      37.332  22.190  25.278  1.00  0.00     0.163 HD
BRANCH   3   6
ATOM      6  C   UNL A   1      34.175  21.716  26.412  1.00  0.00     0.291 C 
ATOM      7  F   UNL A   1      33.797  21.879  27.720  1.00  0.00    -0.233 F 
BRANCH   6   8
ATOM      8  C   UNL A   1      33.019  22.154  25.469  1.00  0.00     0.130 C 
BRANCH   8   9
ATOM      9  C   UNL A   1      31.713  22.582  26.202  1.00  0.00     0.040 C 
ATOM     10  C   UNL A   1      31.575  24.071  26.504  1.00  0.00     0.007 C 
ENDBRANCH   8   9
BRANCH   8  11
ATOM     11  C   UNL A   1      32.725  20.964  24.530  1.00  0.00    -0.013 A 
ATOM     12  C   UNL A   1      32.367  21.164  23.184  1.00  0.00     0.010 A 
ATOM     13  C   UNL A   1      32.779  19.641  25.010  1.00  0.00     0.010 A 
ATOM     14  C   UNL A   1      32.151  20.081  22.327  1.00  0.00     0.046 A 
ATOM     15  C   UNL A   1      32.560  18.560  24.156  1.00  0.00     0.046 A 
ATOM     16  C   UNL A   1      32.267  18.788  22.819  1.00  0.00     0.115 A 
BRANCH  16  17
ATOM     17  O   UNL A   1      32.097  17.703  22.013  1.00  0.00    -0.508 OA
ATOM     18  H   UNL A   1      31.290  17.586  21.550  1.00  0.00     0.293 HD
ENDBRANCH  16  17
ENDBRANCH   8  11
BRANCH   8  19
ATOM     19  O   UNL A   1      33.428  23.261  24.651  1.00  0.00    -0.382 OA
ATOM     20  H   UNL A   1      32.852  24.022  24.825  1.00  0.00     0.212 HD
ENDBRANCH   8  19
ENDBRANCH   6   8
ENDBRANCH   3   6
ENDBRANCH   1   2
BRANCH   1  21
ATOM     21  C   UNL A   1      37.956  19.807  24.685  1.00  0.00     0.042 C 
BRANCH  21  22
ATOM     22  C   UNL A   1      38.986  20.149  25.751  1.00  0.00     0.118 C 
BRANCH  22  23
ATOM     23  N   UNL A   1      40.035  19.145  25.890  1.00  0.00    -0.352 N 
ATOM     24  C   UNL A   1      41.387  19.271  26.123  1.00  0.00     0.251 C 
ATOM     25  H   UNL A   1      39.723  18.215  25.804  1.00  0.00     0.163 HD
ATOM     26  O   UNL A   1      42.110  18.288  26.046  1.00  0.00    -0.269 OA
BRANCH  24  27
ATOM     27  C   UNL A   1      41.974  20.595  26.424  1.00  0.00     0.039 A 
ATOM     28  C   UNL A   1      42.369  21.419  25.366  1.00  0.00     0.014 A 
ATOM     29  C   UNL A   1      42.132  21.032  27.738  1.00  0.00     0.014 A 
ATOM     30  C   UNL A   1      42.818  22.717  25.628  1.00  0.00     0.010 A 
ATOM     31  C   UNL A   1      42.465  22.357  27.991  1.00  0.00     0.010 A 
ATOM     32  C   UNL A   1      42.813  23.217  26.940  1.00  0.00    -0.014 A 
BRANCH  32  33
ATOM     33  C   UNL A   1      43.161  24.628  27.247  1.00  0.00     0.031 A 
ATOM     34  C   UNL A   1      44.600  25.073  27.205  1.00  0.00     0.074 A 
ATOM     35  C   UNL A   1      42.203  25.480  27.666  1.00  0.00     0.049 A 
ATOM     36  N   UNL A   1      45.124  26.212  27.580  1.00  0.00    -0.248 NA
ATOM     37  C   UNL A   1      45.585  24.092  26.719  1.00  0.00     0.031 C 
ATOM     38  C   UNL A   1      40.782  25.155  27.817  1.00  0.00     0.029 A 
ATOM     39  N   UNL A   1      42.284  26.792  28.061  1.00  0.00    -0.354 N 
ATOM     40  C   UNL A   1      46.495  26.069  27.412  1.00  0.00     0.074 A 
ATOM     41  C   UNL A   1      46.728  24.720  26.947  1.00  0.00     0.031 C 
ATOM     42  C   UNL A   1      40.125  26.242  28.252  1.00  0.00     0.029 A 
ATOM     43  C   UNL A   1      41.079  27.327  28.450  1.00  0.00     0.049 A 
ATOM     44  H   UNL A   1      43.126  27.302  28.066  1.00  0.00     0.167 HD
ATOM     45  C   UNL A   1      47.472  26.986  27.604  1.00  0.00     0.037 A 
ATOM     46  C   UNL A   1      40.780  28.551  28.924  1.00  0.00     0.037 A 
ATOM     47  C   UNL A   1      47.234  28.347  28.004  1.00  0.00     0.049 A 
ATOM     48  C   UNL A   1      41.877  29.565  29.081  1.00  0.00     0.074 A 
ATOM     49  C   UNL A   1      48.146  29.378  28.132  1.00  0.00     0.029 A 
ATOM     50  N   UNL A   1      45.990  28.867  28.327  1.00  0.00    -0.354 N 
ATOM     51  N   UNL A   1      43.160  29.438  28.845  1.00  0.00    -0.248 NA
ATOM     52  C   UNL A   1      41.486  30.898  29.564  1.00  0.00     0.031 C 
ATOM     53  C   UNL A   1      47.459  30.518  28.564  1.00  0.00     0.029 A 
ATOM     54  C   UNL A   1      46.114  30.203  28.668  1.00  0.00     0.049 A 
ATOM     55  H   UNL A   1      45.145  28.361  28.316  1.00  0.00     0.167 HD
ATOM     56  C   UNL A   1      43.723  30.675  29.126  1.00  0.00     0.074 A 
ATOM     57  C   UNL A   1      42.642  31.546  29.535  1.00  0.00     0.031 C 
ATOM     58  C   UNL A   1      45.022  31.056  29.056  1.00  0.00     0.037 A 
BRANCH  45  59
ATOM     59  C   UNL A   1      48.889  26.557  27.366  1.00  0.00     0.057 A 
ATOM     60  C   UNL A   1      49.676  26.010  28.386  1.00  0.00     0.134 A 
ATOM     61  C   UNL A   1      49.455  26.645  26.088  1.00  0.00     0.134 A 
ATOM     62  F   UNL A   1      49.196  25.911  29.635  1.00  0.00    -0.206 F 
ATOM     63  C   UNL A   1      50.983  25.583  28.151  1.00  0.00     0.040 A 
ATOM     64  C   UNL A   1      50.753  26.197  25.833  1.00  0.00     0.040 A 
ATOM     65  F   UNL A   1      48.754  27.154  25.064  1.00  0.00    -0.206 F 
ATOM     66  C   UNL A   1      51.522  25.668  26.868  1.00  0.00     0.006 A 
ENDBRANCH  45  59
BRANCH  46  67
ATOM     67  C   UNL A   1      39.378  28.897  29.270  1.00  0.00     0.057 A 
ATOM     68  C   UNL A   1      38.880  28.678  30.559  1.00  0.00     0.134 A 
ATOM     69  C   UNL A   1      38.499  29.429  28.321  1.00  0.00     0.134 A 
ATOM     70  F   UNL A   1      39.670  28.152  31.508  1.00  0.00    -0.206 F 
ATOM     71  C   UNL A   1      37.551  28.950  30.887  1.00  0.00     0.040 A 
ATOM     72  C   UNL A   1      37.174  29.730  28.640  1.00  0.00     0.040 A 
ATOM     73  F   UNL A   1      38.918  29.671  27.070  1.00  0.00    -0.206 F 
ATOM     74  C   UNL A   1      36.694  29.482  29.924  1.00  0.00     0.006 A 
ENDBRANCH  46  67
BRANCH  58  75
ATOM     75  C   UNL A   1      45.337  32.482  29.391  1.00  0.00     0.057 A 
ATOM     76  C   UNL A   1      45.291  33.492  28.422  1.00  0.00     0.134 A 
ATOM     77  C   UNL A   1      45.647  32.854  30.704  1.00  0.00     0.134 A 
ATOM     78  F   UNL A   1      45.013  33.197  27.144  1.00  0.00    -0.206 F 
ATOM     79  C   UNL A   1      45.558  34.823  28.747  1.00  0.00     0.040 A 
ATOM     80  C   UNL A   1      45.893  34.184  31.046  1.00  0.00     0.040 A 
ATOM     81  F   UNL A   1      45.699  31.934  31.679  1.00  0.00    -0.206 F 
ATOM     82  C   UNL A   1      45.854  35.173  30.064  1.00  0.00     0.006 A 
ENDBRANCH  58  75
ENDBRANCH  32  33
ENDBRANCH  24  27
ENDBRANCH  22  23
ENDBRANCH  21  22
ENDBRANCH   1  21
TORSDOF 15
ENDMDL
