MODEL 1
REMARK VINA RESULT:     -11.9      0.000      0.000
REMARK SMILES O=C(Cn1cc(C(=O)C(F)(F)F)c2ccccc21)NCCCNC(=O)c1ccc(-c2c3nc(c(-c4c(F)cccc4F)c4ccc([nH]4)c(-c4c(F)cccc4F)c4nc(c(-c5c(F)cccc5F)c5ccc2[nH]5)C=C4)C=C3)cc1
REMARK SMILES IDX 20 1 19 2 1 3 2 4 3 6 4 7 5 8 18 9 6 10 13 11 17 12 14 13
REMARK SMILES IDX 16 14 15 15 7 16 8 17 9 18 10 19 11 20 12 21 21 22 22 23
REMARK SMILES IDX 23 24 24 25 25 27 26 28 27 29 79 30 28 31 78 32 29 33 30 34
REMARK SMILES IDX 31 35 72 36 32 37 77 38 71 39 73 40 33 41 76 42 70 43 69 44
REMARK SMILES IDX 34 46 60 47 43 48 59 49 44 50 47 51 58 52 74 53 45 54 46 55
REMARK SMILES IDX 57 57 75 58 48 59 35 60 36 61 41 62 37 63 38 64 40 65 42 66
REMARK SMILES IDX 39 67 61 68 62 69 67 70 63 71 64 72 66 73 68 74 65 75 49 76
REMARK SMILES IDX 50 77 55 78 51 79 52 80 54 81 56 82 53 83
REMARK H PARENT 19 5 23 26 73 45 47 56
REMARK Flexibility Score: inf
ROOT
ATOM      1  C   UNL A   1      33.824  29.237  26.404  1.00  0.00     0.117 C 
ENDROOT
BRANCH   1   2
ATOM      2  N   UNL A   1      33.543  29.367  24.981  1.00  0.00    -0.354 N 
ATOM      3  O   UNL A   1      34.138  27.208  24.456  1.00  0.00    -0.273 OA
ATOM      4  C   UNL A   1      33.614  28.275  24.130  1.00  0.00     0.239 C 
ATOM      5  H   UNL A   1      33.297  30.248  24.616  1.00  0.00     0.163 HD
BRANCH   4   6
ATOM      6  C   UNL A   1      33.012  28.466  22.758  1.00  0.00     0.222 C 
BRANCH   6   7
ATOM      7  N   UNL A   1      31.550  28.577  22.670  1.00  0.00    -0.337 N 
ATOM      8  C   UNL A   1      30.956  29.713  22.149  1.00  0.00     0.099 A 
ATOM      9  C   UNL A   1      30.567  27.702  23.091  1.00  0.00     0.049 A 
ATOM     10  C   UNL A   1      29.584  29.623  22.306  1.00  0.00     0.053 A 
ATOM     11  C   UNL A   1      29.341  28.373  22.963  1.00  0.00     0.011 A 
ATOM     12  C   UNL A   1      30.612  26.384  23.578  1.00  0.00     0.027 A 
ATOM     13  C   UNL A   1      28.167  27.739  23.430  1.00  0.00     0.011 A 
ATOM     14  C   UNL A   1      29.439  25.790  24.052  1.00  0.00     0.002 A 
ATOM     15  C   UNL A   1      28.231  26.464  23.995  1.00  0.00     0.001 A 
BRANCH  10  16
ATOM     16  C   UNL A   1      28.581  30.609  21.873  1.00  0.00     0.268 C 
ATOM     17  O   UNL A   1      28.018  30.489  20.774  1.00  0.00    -0.284 OA
BRANCH  16  18
ATOM     18  C   UNL A   1      28.258  31.770  22.806  1.00  0.00     0.454 C 
ATOM     19  F   UNL A   1      27.111  31.562  23.518  1.00  0.00    -0.163 F 
ATOM     20  F   UNL A   1      29.237  31.993  23.730  1.00  0.00    -0.163 F 
ATOM     21  F   UNL A   1      28.083  32.956  22.155  1.00  0.00    -0.163 F 
ENDBRANCH  16  18
ENDBRANCH  10  16
ENDBRANCH   6   7
ENDBRANCH   4   6
ENDBRANCH   1   2
BRANCH   1  22
ATOM     22  C   UNL A   1      33.342  30.404  27.264  1.00  0.00     0.042 C 
BRANCH  22  23
ATOM     23  C   UNL A   1      34.403  31.451  27.601  1.00  0.00     0.118 C 
BRANCH  23  24
ATOM     24  N   UNL A   1      34.340  31.950  28.962  1.00  0.00    -0.352 N 
ATOM     25  C   UNL A   1      35.220  32.048  30.005  1.00  0.00     0.251 C 
ATOM     26  H   UNL A   1      33.450  32.304  29.189  1.00  0.00     0.163 HD
ATOM     27  O   UNL A   1      34.876  32.804  30.918  1.00  0.00    -0.269 OA
BRANCH  25  28
ATOM     28  C   UNL A   1      36.493  31.288  30.165  1.00  0.00     0.039 A 
ATOM     29  C   UNL A   1      37.776  31.821  30.076  1.00  0.00     0.014 A 
ATOM     30  C   UNL A   1      36.363  29.888  30.306  1.00  0.00     0.014 A 
ATOM     31  C   UNL A   1      38.884  30.968  30.050  1.00  0.00     0.010 A 
ATOM     32  C   UNL A   1      37.468  29.034  30.283  1.00  0.00     0.010 A 
ATOM     33  C   UNL A   1      38.735  29.570  30.110  1.00  0.00    -0.014 A 
BRANCH  33  34
ATOM     34  C   UNL A   1      39.950  28.743  30.072  1.00  0.00     0.031 A 
ATOM     35  C   UNL A   1      40.640  28.604  31.386  1.00  0.00     0.074 A 
ATOM     36  C   UNL A   1      40.462  28.099  28.999  1.00  0.00     0.049 A 
ATOM     37  N   UNL A   1      41.751  29.157  31.747  1.00  0.00    -0.248 NA
ATOM     38  C   UNL A   1      39.959  27.866  32.458  1.00  0.00     0.031 C 
ATOM     39  C   UNL A   1      39.861  27.863  27.686  1.00  0.00     0.029 A 
ATOM     40  N   UNL A   1      41.675  27.471  28.892  1.00  0.00    -0.354 N 
ATOM     41  C   UNL A   1      42.007  28.712  33.041  1.00  0.00     0.074 A 
ATOM     42  C   UNL A   1      40.819  28.018  33.469  1.00  0.00     0.031 C 
ATOM     43  C   UNL A   1      40.626  26.987  26.987  1.00  0.00     0.029 A 
ATOM     44  C   UNL A   1      41.847  26.724  27.732  1.00  0.00     0.049 A 
ATOM     45  H   UNL A   1      42.372  27.543  29.584  1.00  0.00     0.167 HD
ATOM     46  C   UNL A   1      43.254  28.799  33.582  1.00  0.00     0.037 A 
ATOM     47  C   UNL A   1      42.912  25.948  27.404  1.00  0.00     0.037 A 
ATOM     48  C   UNL A   1      44.079  29.728  32.849  1.00  0.00     0.049 A 
ATOM     49  C   UNL A   1      44.074  26.417  28.193  1.00  0.00     0.074 A 
ATOM     50  C   UNL A   1      44.031  31.079  32.568  1.00  0.00     0.029 A 
ATOM     51  N   UNL A   1      45.010  29.208  31.985  1.00  0.00    -0.354 N 
ATOM     52  N   UNL A   1      44.685  27.546  27.988  1.00  0.00    -0.248 NA
ATOM     53  C   UNL A   1      44.313  25.800  29.486  1.00  0.00     0.031 C 
ATOM     54  C   UNL A   1      44.551  31.200  31.244  1.00  0.00     0.029 A 
ATOM     55  C   UNL A   1      44.926  29.926  30.822  1.00  0.00     0.049 A 
ATOM     56  H   UNL A   1      45.623  28.459  32.167  1.00  0.00     0.167 HD
ATOM     57  C   UNL A   1      45.004  28.004  29.255  1.00  0.00     0.074 A 
ATOM     58  C   UNL A   1      44.847  26.842  30.128  1.00  0.00     0.031 C 
ATOM     59  C   UNL A   1      45.096  29.341  29.515  1.00  0.00     0.037 A 
BRANCH  46  60
ATOM     60  C   UNL A   1      43.860  27.781  34.520  1.00  0.00     0.057 A 
ATOM     61  C   UNL A   1      44.170  26.457  34.154  1.00  0.00     0.134 A 
ATOM     62  C   UNL A   1      44.470  28.229  35.710  1.00  0.00     0.134 A 
ATOM     63  F   UNL A   1      43.698  25.893  33.036  1.00  0.00    -0.206 F 
ATOM     64  C   UNL A   1      45.073  25.667  34.871  1.00  0.00     0.040 A 
ATOM     65  C   UNL A   1      45.411  27.463  36.407  1.00  0.00     0.040 A 
ATOM     66  F   UNL A   1      44.243  29.467  36.177  1.00  0.00    -0.206 F 
ATOM     67  C   UNL A   1      45.731  26.184  35.976  1.00  0.00     0.006 A 
ENDBRANCH  46  60
BRANCH  47  68
ATOM     68  C   UNL A   1      42.975  24.684  26.635  1.00  0.00     0.057 A 
ATOM     69  C   UNL A   1      42.528  23.479  27.201  1.00  0.00     0.134 A 
ATOM     70  C   UNL A   1      43.753  24.566  25.471  1.00  0.00     0.134 A 
ATOM     71  F   UNL A   1      41.840  23.474  28.351  1.00  0.00    -0.206 F 
ATOM     72  C   UNL A   1      42.859  22.231  26.662  1.00  0.00     0.040 A 
ATOM     73  C   UNL A   1      44.092  23.322  24.922  1.00  0.00     0.040 A 
ATOM     74  F   UNL A   1      44.263  25.655  24.879  1.00  0.00    -0.206 F 
ATOM     75  C   UNL A   1      43.657  22.147  25.526  1.00  0.00     0.006 A 
ENDBRANCH  47  68
BRANCH  59  76
ATOM     76  C   UNL A   1      45.134  30.277  28.339  1.00  0.00     0.057 A 
ATOM     77  C   UNL A   1      46.371  30.776  27.920  1.00  0.00     0.134 A 
ATOM     78  C   UNL A   1      43.995  30.776  27.690  1.00  0.00     0.134 A 
ATOM     79  F   UNL A   1      47.501  30.387  28.533  1.00  0.00    -0.206 F 
ATOM     80  C   UNL A   1      46.479  31.713  26.890  1.00  0.00     0.040 A 
ATOM     81  C   UNL A   1      44.091  31.687  26.633  1.00  0.00     0.040 A 
ATOM     82  F   UNL A   1      42.761  30.436  28.087  1.00  0.00    -0.206 F 
ATOM     83  C   UNL A   1      45.337  32.161  26.232  1.00  0.00     0.006 A 
ENDBRANCH  59  76
ENDBRANCH  33  34
ENDBRANCH  25  28
ENDBRANCH  23  24
ENDBRANCH  22  23
ENDBRANCH   1  22
TORSDOF 13
ENDMDL
MODEL 2
REMARK VINA RESULT:     -11.7      4.613      9.221
REMARK SMILES O=C(Cn1cc(C(=O)C(F)(F)F)c2ccccc21)NCCCNC(=O)c1ccc(-c2c3nc(c(-c4c(F)cccc4F)c4ccc([nH]4)c(-c4c(F)cccc4F)c4nc(c(-c5c(F)cccc5F)c5ccc2[nH]5)C=C4)C=C3)cc1
REMARK SMILES IDX 20 1 19 2 1 3 2 4 3 6 4 7 5 8 18 9 6 10 13 11 17 12 14 13
REMARK SMILES IDX 16 14 15 15 7 16 8 17 9 18 10 19 11 20 12 21 21 22 22 23
REMARK SMILES IDX 23 24 24 25 25 27 26 28 27 29 79 30 28 31 78 32 29 33 30 34
REMARK SMILES IDX 31 35 72 36 32 37 77 38 71 39 73 40 33 41 76 42 70 43 69 44
REMARK SMILES IDX 34 46 60 47 43 48 59 49 44 50 47 51 58 52 74 53 45 54 46 55
REMARK SMILES IDX 57 57 75 58 48 59 35 60 36 61 41 62 37 63 38 64 40 65 42 66
REMARK SMILES IDX 39 67 61 68 62 69 67 70 63 71 64 72 66 73 68 74 65 75 49 76
REMARK SMILES IDX 50 77 55 78 51 79 52 80 54 81 56 82 53 83
REMARK H PARENT 19 5 23 26 73 45 47 56
REMARK Flexibility Score: inf
ROOT
ATOM      1  C   UNL A   1      37.783  22.648  25.752  1.00  0.00     0.117 C 
ENDROOT
BRANCH   1   2
ATOM      2  N   UNL A   1      36.518  22.274  26.372  1.00  0.00    -0.354 N 
ATOM      3  O   UNL A   1      35.403  24.180  25.728  1.00  0.00    -0.273 OA
ATOM      4  C   UNL A   1      35.377  23.041  26.197  1.00  0.00     0.239 C 
ATOM      5  H   UNL A   1      36.474  21.460  26.925  1.00  0.00     0.163 HD
BRANCH   4   6
ATOM      6  C   UNL A   1      34.078  22.399  26.626  1.00  0.00     0.222 C 
BRANCH   6   7
ATOM      7  N   UNL A   1      33.507  21.372  25.744  1.00  0.00    -0.337 N 
ATOM      8  C   UNL A   1      33.579  20.031  26.080  1.00  0.00     0.099 A 
ATOM      9  C   UNL A   1      32.901  21.500  24.510  1.00  0.00     0.049 A 
ATOM     10  C   UNL A   1      33.097  19.272  25.028  1.00  0.00     0.053 A 
ATOM     11  C   UNL A   1      32.726  20.203  24.004  1.00  0.00     0.011 A 
ATOM     12  C   UNL A   1      32.482  22.618  23.767  1.00  0.00     0.027 A 
ATOM     13  C   UNL A   1      32.219  20.047  22.694  1.00  0.00     0.011 A 
ATOM     14  C   UNL A   1      32.004  22.436  22.467  1.00  0.00     0.002 A 
ATOM     15  C   UNL A   1      31.888  21.166  21.927  1.00  0.00     0.001 A 
BRANCH  10  16
ATOM     16  C   UNL A   1      32.981  17.806  24.981  1.00  0.00     0.268 C 
ATOM     17  O   UNL A   1      31.976  17.241  25.439  1.00  0.00    -0.284 OA
BRANCH  16  18
ATOM     18  C   UNL A   1      34.122  17.009  24.358  1.00  0.00     0.454 C 
ATOM     19  F   UNL A   1      33.858  16.644  23.068  1.00  0.00    -0.163 F 
ATOM     20  F   UNL A   1      35.293  17.708  24.317  1.00  0.00    -0.163 F 
ATOM     21  F   UNL A   1      34.401  15.852  25.023  1.00  0.00    -0.163 F 
ENDBRANCH  16  18
ENDBRANCH  10  16
ENDBRANCH   6   7
ENDBRANCH   4   6
ENDBRANCH   1   2
BRANCH   1  22
ATOM     22  C   UNL A   1      38.737  21.485  25.488  1.00  0.00     0.042 C 
BRANCH  22  23
ATOM     23  C   UNL A   1      39.927  21.384  26.443  1.00  0.00     0.118 C 
BRANCH  23  24
ATOM     24  N   UNL A   1      41.183  21.846  25.884  1.00  0.00    -0.352 N 
ATOM     25  C   UNL A   1      41.991  22.935  26.073  1.00  0.00     0.251 C 
ATOM     26  H   UNL A   1      41.542  21.228  25.208  1.00  0.00     0.163 HD
ATOM     27  O   UNL A   1      43.134  22.830  25.619  1.00  0.00    -0.269 OA
BRANCH  25  28
ATOM     28  C   UNL A   1      41.600  24.230  26.700  1.00  0.00     0.039 A 
ATOM     29  C   UNL A   1      40.775  25.195  26.130  1.00  0.00     0.014 A 
ATOM     30  C   UNL A   1      42.222  24.532  27.933  1.00  0.00     0.014 A 
ATOM     31  C   UNL A   1      40.644  26.448  26.738  1.00  0.00     0.010 A 
ATOM     32  C   UNL A   1      42.092  25.781  28.543  1.00  0.00     0.010 A 
ATOM     33  C   UNL A   1      41.335  26.764  27.923  1.00  0.00    -0.014 A 
BRANCH  33  34
ATOM     34  C   UNL A   1      41.148  28.104  28.496  1.00  0.00     0.031 A 
ATOM     35  C   UNL A   1      42.231  29.072  28.162  1.00  0.00     0.074 A 
ATOM     36  C   UNL A   1      40.107  28.529  29.248  1.00  0.00     0.049 A 
ATOM     37  N   UNL A   1      43.152  29.516  28.953  1.00  0.00    -0.248 NA
ATOM     38  C   UNL A   1      42.382  29.499  26.765  1.00  0.00     0.031 C 
ATOM     39  C   UNL A   1      38.820  27.880  29.501  1.00  0.00     0.029 A 
ATOM     40  N   UNL A   1      39.990  29.708  29.936  1.00  0.00    -0.354 N 
ATOM     41  C   UNL A   1      43.911  30.413  28.205  1.00  0.00     0.074 A 
ATOM     42  C   UNL A   1      43.467  30.273  26.842  1.00  0.00     0.031 C 
ATOM     43  C   UNL A   1      37.987  28.750  30.124  1.00  0.00     0.029 A 
ATOM     44  C   UNL A   1      38.725  29.958  30.457  1.00  0.00     0.049 A 
ATOM     45  H   UNL A   1      40.744  30.330  30.053  1.00  0.00     0.167 HD
ATOM     46  C   UNL A   1      44.719  31.327  28.810  1.00  0.00     0.037 A 
ATOM     47  C   UNL A   1      38.313  31.073  31.114  1.00  0.00     0.037 A 
ATOM     48  C   UNL A   1      44.977  30.971  30.183  1.00  0.00     0.049 A 
ATOM     49  C   UNL A   1      39.513  31.749  31.656  1.00  0.00     0.074 A 
ATOM     50  C   UNL A   1      45.580  29.909  30.828  1.00  0.00     0.029 A 
ATOM     51  N   UNL A   1      44.287  31.646  31.157  1.00  0.00    -0.354 N 
ATOM     52  N   UNL A   1      40.223  31.289  32.643  1.00  0.00    -0.248 NA
ATOM     53  C   UNL A   1      40.162  32.753  30.832  1.00  0.00     0.031 C 
ATOM     54  C   UNL A   1      44.822  29.726  32.025  1.00  0.00     0.029 A 
ATOM     55  C   UNL A   1      43.839  30.714  32.055  1.00  0.00     0.049 A 
ATOM     56  H   UNL A   1      44.139  32.619  31.202  1.00  0.00     0.167 HD
ATOM     57  C   UNL A   1      41.531  31.589  32.299  1.00  0.00     0.074 A 
ATOM     58  C   UNL A   1      41.424  32.581  31.232  1.00  0.00     0.031 C 
ATOM     59  C   UNL A   1      42.564  30.803  32.722  1.00  0.00     0.037 A 
BRANCH  46  60
ATOM     60  C   UNL A   1      44.965  32.729  28.302  1.00  0.00     0.057 A 
ATOM     61  C   UNL A   1      46.114  33.121  27.589  1.00  0.00     0.134 A 
ATOM     62  C   UNL A   1      43.878  33.623  28.218  1.00  0.00     0.134 A 
ATOM     63  F   UNL A   1      47.219  32.368  27.542  1.00  0.00    -0.206 F 
ATOM     64  C   UNL A   1      46.155  34.269  26.794  1.00  0.00     0.040 A 
ATOM     65  C   UNL A   1      43.893  34.750  27.388  1.00  0.00     0.040 A 
ATOM     66  F   UNL A   1      42.729  33.375  28.866  1.00  0.00    -0.206 F 
ATOM     67  C   UNL A   1      45.029  35.065  26.656  1.00  0.00     0.006 A 
ENDBRANCH  46  60
BRANCH  47  68
ATOM     68  C   UNL A   1      36.991  31.741  31.128  1.00  0.00     0.057 A 
ATOM     69  C   UNL A   1      36.582  32.543  30.051  1.00  0.00     0.134 A 
ATOM     70  C   UNL A   1      36.243  31.869  32.311  1.00  0.00     0.134 A 
ATOM     71  F   UNL A   1      37.270  32.551  28.901  1.00  0.00    -0.206 F 
ATOM     72  C   UNL A   1      35.514  33.442  30.151  1.00  0.00     0.040 A 
ATOM     73  C   UNL A   1      35.173  32.767  32.424  1.00  0.00     0.040 A 
ATOM     74  F   UNL A   1      36.579  31.178  33.410  1.00  0.00    -0.206 F 
ATOM     75  C   UNL A   1      34.814  33.569  31.345  1.00  0.00     0.006 A 
ENDBRANCH  47  68
BRANCH  59  76
ATOM     76  C   UNL A   1      42.276  29.793  33.797  1.00  0.00     0.057 A 
ATOM     77  C   UNL A   1      42.577  30.122  35.123  1.00  0.00     0.134 A 
ATOM     78  C   UNL A   1      41.819  28.489  33.554  1.00  0.00     0.134 A 
ATOM     79  F   UNL A   1      43.072  31.333  35.424  1.00  0.00    -0.206 F 
ATOM     80  C   UNL A   1      42.415  29.206  36.165  1.00  0.00     0.040 A 
ATOM     81  C   UNL A   1      41.619  27.574  34.593  1.00  0.00     0.040 A 
ATOM     82  F   UNL A   1      41.601  28.048  32.308  1.00  0.00    -0.206 F 
ATOM     83  C   UNL A   1      41.920  27.932  35.905  1.00  0.00     0.006 A 
ENDBRANCH  59  76
ENDBRANCH  33  34
ENDBRANCH  25  28
ENDBRANCH  23  24
ENDBRANCH  22  23
ENDBRANCH   1  22
TORSDOF 13
ENDMDL
MODEL 3
REMARK VINA RESULT:     -11.7      3.636      5.032
REMARK SMILES O=C(Cn1cc(C(=O)C(F)(F)F)c2ccccc21)NCCCNC(=O)c1ccc(-c2c3nc(c(-c4c(F)cccc4F)c4ccc([nH]4)c(-c4c(F)cccc4F)c4nc(c(-c5c(F)cccc5F)c5ccc2[nH]5)C=C4)C=C3)cc1
REMARK SMILES IDX 20 1 19 2 1 3 2 4 3 6 4 7 5 8 18 9 6 10 13 11 17 12 14 13
REMARK SMILES IDX 16 14 15 15 7 16 8 17 9 18 10 19 11 20 12 21 21 22 22 23
REMARK SMILES IDX 23 24 24 25 25 27 26 28 27 29 79 30 28 31 78 32 29 33 30 34
REMARK SMILES IDX 31 35 72 36 32 37 77 38 71 39 73 40 33 41 76 42 70 43 69 44
REMARK SMILES IDX 34 46 60 47 43 48 59 49 44 50 47 51 58 52 74 53 45 54 46 55
REMARK SMILES IDX 57 57 75 58 48 59 35 60 36 61 41 62 37 63 38 64 40 65 42 66
REMARK SMILES IDX 39 67 61 68 62 69 67 70 63 71 64 72 66 73 68 74 65 75 49 76
REMARK SMILES IDX 50 77 55 78 51 79 52 80 54 81 56 82 53 83
REMARK H PARENT 19 5 23 26 73 45 47 56
REMARK Flexibility Score: inf
ROOT
ATOM      1  C   UNL A   1      31.895  27.904  26.251  1.00  0.00     0.117 C 
ENDROOT
BRANCH   1   2
ATOM      2  N   UNL A   1      31.812  26.561  26.810  1.00  0.00    -0.354 N 
ATOM      3  O   UNL A   1      30.423  25.742  25.170  1.00  0.00    -0.273 OA
ATOM      4  C   UNL A   1      31.161  25.539  26.136  1.00  0.00     0.239 C 
ATOM      5  H   UNL A   1      32.227  26.376  27.684  1.00  0.00     0.163 HD
BRANCH   4   6
ATOM      6  C   UNL A   1      31.402  24.143  26.660  1.00  0.00     0.222 C 
BRANCH   6   7
ATOM      7  N   UNL A   1      32.221  23.243  25.838  1.00  0.00    -0.337 N 
ATOM      8  C   UNL A   1      31.685  22.083  25.309  1.00  0.00     0.099 A 
ATOM      9  C   UNL A   1      33.559  23.321  25.502  1.00  0.00     0.049 A 
ATOM     10  C   UNL A   1      32.690  21.353  24.698  1.00  0.00     0.053 A 
ATOM     11  C   UNL A   1      33.894  22.109  24.877  1.00  0.00     0.011 A 
ATOM     12  C   UNL A   1      34.528  24.324  25.679  1.00  0.00     0.027 A 
ATOM     13  C   UNL A   1      35.243  21.877  24.525  1.00  0.00     0.011 A 
ATOM     14  C   UNL A   1      35.857  24.059  25.341  1.00  0.00     0.002 A 
ATOM     15  C   UNL A   1      36.217  22.843  24.785  1.00  0.00     0.001 A 
BRANCH  10  16
ATOM     16  C   UNL A   1      32.544  20.067  23.998  1.00  0.00     0.268 C 
ATOM     17  O   UNL A   1      32.097  20.031  22.841  1.00  0.00    -0.284 OA
BRANCH  16  18
ATOM     18  C   UNL A   1      32.955  18.795  24.729  1.00  0.00     0.454 C 
ATOM     19  F   UNL A   1      32.872  18.924  26.086  1.00  0.00    -0.163 F 
ATOM     20  F   UNL A   1      32.172  17.724  24.407  1.00  0.00    -0.163 F 
ATOM     21  F   UNL A   1      34.238  18.410  24.468  1.00  0.00    -0.163 F 
ENDBRANCH  16  18
ENDBRANCH  10  16
ENDBRANCH   6   7
ENDBRANCH   4   6
ENDBRANCH   1   2
BRANCH   1  22
ATOM     22  C   UNL A   1      32.296  28.991  27.246  1.00  0.00     0.042 C 
BRANCH  22  23
ATOM     23  C   UNL A   1      33.043  30.183  26.648  1.00  0.00     0.118 C 
BRANCH  23  24
ATOM     24  N   UNL A   1      33.419  31.199  27.613  1.00  0.00    -0.352 N 
ATOM     25  C   UNL A   1      34.590  31.606  28.192  1.00  0.00     0.251 C 
ATOM     26  H   UNL A   1      32.646  31.720  27.928  1.00  0.00     0.163 HD
ATOM     27  O   UNL A   1      34.548  32.706  28.751  1.00  0.00    -0.269 OA
BRANCH  25  28
ATOM     28  C   UNL A   1      35.861  30.829  28.263  1.00  0.00     0.039 A 
ATOM     29  C   UNL A   1      35.996  29.466  28.016  1.00  0.00     0.014 A 
ATOM     30  C   UNL A   1      36.992  31.535  28.732  1.00  0.00     0.014 A 
ATOM     31  C   UNL A   1      37.203  28.822  28.306  1.00  0.00     0.010 A 
ATOM     32  C   UNL A   1      38.198  30.895  29.021  1.00  0.00     0.010 A 
ATOM     33  C   UNL A   1      38.296  29.522  28.850  1.00  0.00    -0.014 A 
BRANCH  33  34
ATOM     34  C   UNL A   1      39.527  28.771  29.132  1.00  0.00     0.031 A 
ATOM     35  C   UNL A   1      39.883  28.694  30.578  1.00  0.00     0.074 A 
ATOM     36  C   UNL A   1      40.322  28.145  28.235  1.00  0.00     0.049 A 
ATOM     37  N   UNL A   1      40.839  29.321  31.181  1.00  0.00    -0.248 NA
ATOM     38  C   UNL A   1      39.005  27.932  31.474  1.00  0.00     0.031 C 
ATOM     39  C   UNL A   1      40.073  27.853  26.822  1.00  0.00     0.029 A 
ATOM     40  N   UNL A   1      41.558  27.592  28.444  1.00  0.00    -0.354 N 
ATOM     41  C   UNL A   1      40.797  28.911  32.511  1.00  0.00     0.074 A 
ATOM     42  C   UNL A   1      39.582  28.151  32.658  1.00  0.00     0.031 C 
ATOM     43  C   UNL A   1      41.034  27.016  26.356  1.00  0.00     0.029 A 
ATOM     44  C   UNL A   1      42.049  26.841  27.382  1.00  0.00     0.049 A 
ATOM     45  H   UNL A   1      42.059  27.717  29.282  1.00  0.00     0.167 HD
ATOM     46  C   UNL A   1      41.868  29.083  33.336  1.00  0.00     0.037 A 
ATOM     47  C   UNL A   1      43.205  26.127  27.345  1.00  0.00     0.037 A 
ATOM     48  C   UNL A   1      42.793  30.050  32.798  1.00  0.00     0.049 A 
ATOM     49  C   UNL A   1      44.110  26.678  28.378  1.00  0.00     0.074 A 
ATOM     50  C   UNL A   1      42.738  31.391  32.475  1.00  0.00     0.029 A 
ATOM     51  N   UNL A   1      43.934  29.577  32.201  1.00  0.00    -0.354 N 
ATOM     52  N   UNL A   1      44.688  27.840  28.294  1.00  0.00    -0.248 NA
ATOM     53  C   UNL A   1      44.061  26.096  29.708  1.00  0.00     0.031 C 
ATOM     54  C   UNL A   1      43.558  31.526  31.313  1.00  0.00     0.029 A 
ATOM     55  C   UNL A   1      44.096  30.271  31.032  1.00  0.00     0.049 A 
ATOM     56  H   UNL A   1      44.525  28.870  32.548  1.00  0.00     0.167 HD
ATOM     57  C   UNL A   1      44.662  28.335  29.588  1.00  0.00     0.074 A 
ATOM     58  C   UNL A   1      44.363  27.178  30.430  1.00  0.00     0.031 C 
ATOM     59  C   UNL A   1      44.612  29.679  29.823  1.00  0.00     0.037 A 
BRANCH  46  60
ATOM     60  C   UNL A   1      42.283  28.118  34.422  1.00  0.00     0.057 A 
ATOM     61  C   UNL A   1      41.945  28.266  35.781  1.00  0.00     0.134 A 
ATOM     62  C   UNL A   1      42.734  26.833  34.055  1.00  0.00     0.134 A 
ATOM     63  F   UNL A   1      41.471  29.412  36.281  1.00  0.00    -0.206 F 
ATOM     64  C   UNL A   1      41.977  27.202  36.687  1.00  0.00     0.040 A 
ATOM     65  C   UNL A   1      42.724  25.751  34.944  1.00  0.00     0.040 A 
ATOM     66  F   UNL A   1      43.104  26.565  32.793  1.00  0.00    -0.206 F 
ATOM     67  C   UNL A   1      42.325  25.930  36.261  1.00  0.00     0.006 A 
ENDBRANCH  46  60
BRANCH  47  68
ATOM     68  C   UNL A   1      43.524  24.858  26.651  1.00  0.00     0.057 A 
ATOM     69  C   UNL A   1      44.184  24.864  25.413  1.00  0.00     0.134 A 
ATOM     70  C   UNL A   1      42.919  23.645  27.021  1.00  0.00     0.134 A 
ATOM     71  F   UNL A   1      44.732  25.990  24.933  1.00  0.00    -0.206 F 
ATOM     72  C   UNL A   1      44.216  23.743  24.575  1.00  0.00     0.040 A 
ATOM     73  C   UNL A   1      42.942  22.515  26.191  1.00  0.00     0.040 A 
ATOM     74  F   UNL A   1      42.227  23.547  28.165  1.00  0.00    -0.206 F 
ATOM     75  C   UNL A   1      43.581  22.567  24.956  1.00  0.00     0.006 A 
ENDBRANCH  47  68
BRANCH  59  76
ATOM     76  C   UNL A   1      44.882  30.598  28.665  1.00  0.00     0.057 A 
ATOM     77  C   UNL A   1      46.142  31.197  28.566  1.00  0.00     0.134 A 
ATOM     78  C   UNL A   1      43.918  30.987  27.723  1.00  0.00     0.134 A 
ATOM     79  F   UNL A   1      47.098  30.916  29.466  1.00  0.00    -0.206 F 
ATOM     80  C   UNL A   1      46.441  32.126  27.566  1.00  0.00     0.040 A 
ATOM     81  C   UNL A   1      44.215  31.889  26.696  1.00  0.00     0.040 A 
ATOM     82  F   UNL A   1      42.655  30.547  27.796  1.00  0.00    -0.206 F 
ATOM     83  C   UNL A   1      45.481  32.463  26.617  1.00  0.00     0.006 A 
ENDBRANCH  59  76
ENDBRANCH  33  34
ENDBRANCH  25  28
ENDBRANCH  23  24
ENDBRANCH  22  23
ENDBRANCH   1  22
TORSDOF 13
ENDMDL
