MODEL 1
REMARK VINA RESULT:     -11.8      0.000      0.000
REMARK SMILES C[C@@H]1CN(c2cc(C(=O)NCCCNC(=O)c3ccc(-c4c5nc(c(-c6c(F)cccc6F)c6ccc([nH]6)c(-c6c(F)cccc6F)c6nc(c(-c7c(F)cccc7F)c7ccc4[nH]7)C=C6)C=C5)cc3)c(F)cc2F)S(=O)(=O)C1
REMARK SMILES IDX 12 1 11 2 10 3 8 4 9 5 7 7 5 8 6 9 74 10 73 11 75 12 71 13
REMARK SMILES IDX 72 14 4 15 1 16 2 17 3 18 79 19 76 20 77 21 78 22 13 23
REMARK SMILES IDX 14 24 15 25 16 27 17 28 18 29 70 30 19 31 69 32 20 33 21 34
REMARK SMILES IDX 22 35 63 36 23 37 68 38 62 39 64 40 24 41 67 42 61 43 60 44
REMARK SMILES IDX 25 46 51 47 34 48 50 49 35 50 38 51 49 52 65 53 36 54 37 55
REMARK SMILES IDX 48 57 66 58 39 59 26 60 27 61 32 62 28 63 29 64 31 65 33 66
REMARK SMILES IDX 30 67 52 68 53 69 58 70 54 71 55 72 57 73 59 74 56 75 40 76
REMARK SMILES IDX 41 77 46 78 42 79 43 80 45 81 47 82 44 83
REMARK H PARENT 10 6 14 26 64 45 38 56
REMARK Flexibility Score: inf
ROOT
ATOM      1  C   UNL A   1      38.132  19.836  24.760  1.00  0.00     0.042 C 
ENDROOT
BRANCH   1   2
ATOM      2  C   UNL A   1      37.063  20.922  24.647  1.00  0.00     0.118 C 
BRANCH   2   3
ATOM      3  N   UNL A   1      37.524  22.150  25.260  1.00  0.00    -0.352 N 
ATOM      4  C   UNL A   1      36.875  23.220  25.803  1.00  0.00     0.254 C 
ATOM      5  O   UNL A   1      37.588  24.144  26.203  1.00  0.00    -0.269 OA
ATOM      6  H   UNL A   1      38.505  22.229  25.290  1.00  0.00     0.163 HD
BRANCH   4   7
ATOM      7  C   UNL A   1      35.406  23.340  25.994  1.00  0.00     0.077 A 
ATOM      8  C   UNL A   1      33.417  24.575  25.280  1.00  0.00     0.088 A 
ATOM      9  C   UNL A   1      34.800  24.380  25.267  1.00  0.00     0.047 A 
ATOM     10  C   UNL A   1      32.616  23.688  26.000  1.00  0.00     0.150 A 
ATOM     11  C   UNL A   1      33.191  22.671  26.751  1.00  0.00     0.081 A 
ATOM     12  F   UNL A   1      31.280  23.749  25.919  1.00  0.00    -0.205 F 
ATOM     13  C   UNL A   1      34.576  22.488  26.726  1.00  0.00     0.139 A 
ATOM     14  F   UNL A   1      35.042  21.410  27.364  1.00  0.00    -0.206 F 
BRANCH   8  15
ATOM     15  N   UNL A   1      32.914  25.582  24.396  1.00  0.00    -0.267 N 
ATOM     16  C   UNL A   1      34.304  28.628  22.637  1.00  0.00     0.011 C 
ATOM     17  C   UNL A   1      33.323  27.529  23.007  1.00  0.00     0.023 C 
ATOM     18  C   UNL A   1      33.647  26.877  24.357  1.00  0.00     0.140 C 
ATOM     19  C   UNL A   1      33.308  26.382  21.999  1.00  0.00     0.165 C 
ATOM     20  S   UNL A   1      32.375  25.112  22.837  1.00  0.00     0.235 S 
ATOM     21  O   UNL A   1      32.870  23.809  22.469  1.00  0.00    -0.206 OA
ATOM     22  O   UNL A   1      30.970  25.453  22.745  1.00  0.00    -0.206 OA
ENDBRANCH   8  15
ENDBRANCH   4   7
ENDBRANCH   2   3
ENDBRANCH   1   2
BRANCH   1  23
ATOM     23  C   UNL A   1      39.000  19.976  26.007  1.00  0.00     0.118 C 
BRANCH  23  24
ATOM     24  N   UNL A   1      40.229  19.199  25.903  1.00  0.00    -0.352 N 
ATOM     25  C   UNL A   1      41.538  19.596  25.984  1.00  0.00     0.251 C 
ATOM     26  H   UNL A   1      40.097  18.235  25.750  1.00  0.00     0.163 HD
ATOM     27  O   UNL A   1      42.427  18.841  25.601  1.00  0.00    -0.269 OA
BRANCH  25  28
ATOM     28  C   UNL A   1      41.886  20.925  26.527  1.00  0.00     0.039 A 
ATOM     29  C   UNL A   1      42.280  21.935  25.646  1.00  0.00     0.014 A 
ATOM     30  C   UNL A   1      41.871  21.162  27.904  1.00  0.00     0.014 A 
ATOM     31  C   UNL A   1      42.607  23.197  26.143  1.00  0.00     0.010 A 
ATOM     32  C   UNL A   1      42.113  22.442  28.390  1.00  0.00     0.010 A 
ATOM     33  C   UNL A   1      42.494  23.470  27.515  1.00  0.00    -0.014 A 
BRANCH  33  34
ATOM     34  C   UNL A   1      42.769  24.822  28.058  1.00  0.00     0.031 A 
ATOM     35  C   UNL A   1      44.170  25.215  28.435  1.00  0.00     0.074 A 
ATOM     36  C   UNL A   1      41.747  25.674  28.259  1.00  0.00     0.049 A 
ATOM     37  N   UNL A   1      44.599  26.328  28.973  1.00  0.00    -0.248 NA
ATOM     38  C   UNL A   1      45.224  24.216  28.200  1.00  0.00     0.031 C 
ATOM     39  C   UNL A   1      40.342  25.391  27.962  1.00  0.00     0.029 A 
ATOM     40  N   UNL A   1      41.731  26.951  28.758  1.00  0.00    -0.354 N 
ATOM     41  C   UNL A   1      45.968  26.162  29.141  1.00  0.00     0.074 A 
ATOM     42  C   UNL A   1      46.285  24.815  28.720  1.00  0.00     0.031 C 
ATOM     43  C   UNL A   1      39.608  26.478  28.240  1.00  0.00     0.029 A 
ATOM     44  C   UNL A   1      40.480  27.517  28.781  1.00  0.00     0.049 A 
ATOM     45  H   UNL A   1      42.539  27.417  29.072  1.00  0.00     0.167 HD
ATOM     46  C   UNL A   1      46.882  27.061  29.574  1.00  0.00     0.037 A 
ATOM     47  C   UNL A   1      40.080  28.735  29.189  1.00  0.00     0.037 A 
ATOM     48  C   UNL A   1      46.557  28.400  29.989  1.00  0.00     0.049 A 
ATOM     49  C   UNL A   1      41.103  29.700  29.717  1.00  0.00     0.074 A 
ATOM     50  C   UNL A   1      47.409  29.400  30.423  1.00  0.00     0.029 A 
ATOM     51  N   UNL A   1      45.272  28.926  30.024  1.00  0.00    -0.354 N 
ATOM     52  N   UNL A   1      42.400  29.546  29.832  1.00  0.00    -0.248 NA
ATOM     53  C   UNL A   1      40.609  31.005  30.175  1.00  0.00     0.031 C 
ATOM     54  C   UNL A   1      46.637  30.511  30.772  1.00  0.00     0.029 A 
ATOM     55  C   UNL A   1      45.307  30.228  30.496  1.00  0.00     0.049 A 
ATOM     56  H   UNL A   1      44.458  28.445  29.753  1.00  0.00     0.167 HD
ATOM     57  C   UNL A   1      42.882  30.742  30.349  1.00  0.00     0.074 A 
ATOM     58  C   UNL A   1      41.737  31.615  30.514  1.00  0.00     0.031 C 
ATOM     59  C   UNL A   1      44.157  31.084  30.657  1.00  0.00     0.037 A 
BRANCH  46  60
ATOM     60  C   UNL A   1      48.320  26.620  29.611  1.00  0.00     0.057 A 
ATOM     61  C   UNL A   1      49.173  26.852  28.524  1.00  0.00     0.134 A 
ATOM     62  C   UNL A   1      48.857  25.948  30.718  1.00  0.00     0.134 A 
ATOM     63  F   UNL A   1      48.728  27.483  27.428  1.00  0.00    -0.206 F 
ATOM     64  C   UNL A   1      50.506  26.433  28.540  1.00  0.00     0.040 A 
ATOM     65  C   UNL A   1      50.196  25.555  30.759  1.00  0.00     0.040 A 
ATOM     66  F   UNL A   1      48.099  25.702  31.797  1.00  0.00    -0.206 F 
ATOM     67  C   UNL A   1      51.023  25.791  29.663  1.00  0.00     0.006 A 
ENDBRANCH  46  60
BRANCH  47  68
ATOM     68  C   UNL A   1      38.653  29.119  29.052  1.00  0.00     0.057 A 
ATOM     69  C   UNL A   1      38.135  29.622  27.852  1.00  0.00     0.134 A 
ATOM     70  C   UNL A   1      37.786  29.041  30.146  1.00  0.00     0.134 A 
ATOM     71  F   UNL A   1      38.918  29.733  26.769  1.00  0.00    -0.206 F 
ATOM     72  C   UNL A   1      36.812  30.057  27.754  1.00  0.00     0.040 A 
ATOM     73  C   UNL A   1      36.454  29.448  30.055  1.00  0.00     0.040 A 
ATOM     74  F   UNL A   1      38.220  28.553  31.318  1.00  0.00    -0.206 F 
ATOM     75  C   UNL A   1      35.967  29.969  28.858  1.00  0.00     0.006 A 
ENDBRANCH  47  68
BRANCH  59  76
ATOM     76  C   UNL A   1      44.395  32.470  31.186  1.00  0.00     0.057 A 
ATOM     77  C   UNL A   1      44.336  32.728  32.562  1.00  0.00     0.134 A 
ATOM     78  C   UNL A   1      44.607  33.559  30.333  1.00  0.00     0.134 A 
ATOM     79  F   UNL A   1      44.126  31.730  33.434  1.00  0.00    -0.206 F 
ATOM     80  C   UNL A   1      44.461  34.021  33.068  1.00  0.00     0.040 A 
ATOM     81  C   UNL A   1      44.764  34.854  30.830  1.00  0.00     0.040 A 
ATOM     82  F   UNL A   1      44.687  33.379  29.005  1.00  0.00    -0.206 F 
ATOM     83  C   UNL A   1      44.678  35.089  32.201  1.00  0.00     0.006 A 
ENDBRANCH  59  76
ENDBRANCH  33  34
ENDBRANCH  25  28
ENDBRANCH  23  24
ENDBRANCH   1  23
TORSDOF 11
ENDMDL
MODEL 2
REMARK VINA RESULT:     -11.8      2.441      7.592
REMARK SMILES C[C@@H]1CN(c2cc(C(=O)NCCCNC(=O)c3ccc(-c4c5nc(c(-c6c(F)cccc6F)c6ccc([nH]6)c(-c6c(F)cccc6F)c6nc(c(-c7c(F)cccc7F)c7ccc4[nH]7)C=C6)C=C5)cc3)c(F)cc2F)S(=O)(=O)C1
REMARK SMILES IDX 12 1 11 2 10 3 8 4 9 5 7 7 5 8 6 9 74 10 73 11 75 12 71 13
REMARK SMILES IDX 72 14 4 15 1 16 2 17 3 18 79 19 76 20 77 21 78 22 13 23
REMARK SMILES IDX 14 24 15 25 16 27 17 28 18 29 70 30 19 31 69 32 20 33 21 34
REMARK SMILES IDX 22 35 63 36 23 37 68 38 62 39 64 40 24 41 67 42 61 43 60 44
REMARK SMILES IDX 25 46 51 47 34 48 50 49 35 50 38 51 49 52 65 53 36 54 37 55
REMARK SMILES IDX 48 57 66 58 39 59 26 60 27 61 32 62 28 63 29 64 31 65 33 66
REMARK SMILES IDX 30 67 52 68 53 69 58 70 54 71 55 72 57 73 59 74 56 75 40 76
REMARK SMILES IDX 41 77 46 78 42 79 43 80 45 81 47 82 44 83
REMARK H PARENT 10 6 14 26 64 45 38 56
REMARK Flexibility Score: inf
ROOT
ATOM      1  C   UNL A   1      34.022  28.251  25.894  1.00  0.00     0.042 C 
ENDROOT
BRANCH   1   2
ATOM      2  C   UNL A   1      33.361  29.251  24.946  1.00  0.00     0.118 C 
BRANCH   2   3
ATOM      3  N   UNL A   1      33.865  29.080  23.600  1.00  0.00    -0.352 N 
ATOM      4  C   UNL A   1      33.672  28.122  22.647  1.00  0.00     0.254 C 
ATOM      5  O   UNL A   1      34.308  28.260  21.600  1.00  0.00    -0.269 OA
ATOM      6  H   UNL A   1      34.471  29.801  23.313  1.00  0.00     0.163 HD
BRANCH   4   7
ATOM      7  C   UNL A   1      32.735  26.973  22.749  1.00  0.00     0.077 A 
ATOM      8  C   UNL A   1      32.585  24.592  23.298  1.00  0.00     0.088 A 
ATOM      9  C   UNL A   1      33.339  25.748  23.090  1.00  0.00     0.047 A 
ATOM     10  C   UNL A   1      31.194  24.666  23.207  1.00  0.00     0.150 A 
ATOM     11  C   UNL A   1      30.575  25.855  22.843  1.00  0.00     0.081 A 
ATOM     12  F   UNL A   1      30.427  23.620  23.545  1.00  0.00    -0.205 F 
ATOM     13  C   UNL A   1      31.343  27.003  22.639  1.00  0.00     0.139 A 
ATOM     14  F   UNL A   1      30.668  28.137  22.424  1.00  0.00    -0.206 F 
BRANCH   8  15
ATOM     15  N   UNL A   1      33.303  23.447  23.769  1.00  0.00    -0.267 N 
ATOM     16  C   UNL A   1      36.922  22.356  23.924  1.00  0.00     0.011 C 
ATOM     17  C   UNL A   1      35.424  22.342  24.180  1.00  0.00     0.023 C 
ATOM     18  C   UNL A   1      34.645  23.198  23.173  1.00  0.00     0.140 C 
ATOM     19  C   UNL A   1      35.050  22.895  25.553  1.00  0.00     0.165 C 
ATOM     20  S   UNL A   1      33.280  23.094  25.447  1.00  0.00     0.235 S 
ATOM     21  O   UNL A   1      32.862  24.232  26.227  1.00  0.00    -0.206 OA
ATOM     22  O   UNL A   1      32.671  21.789  25.606  1.00  0.00    -0.206 OA
ENDBRANCH   8  15
ENDBRANCH   4   7
ENDBRANCH   2   3
ENDBRANCH   1   2
BRANCH   1  23
ATOM     23  C   UNL A   1      33.691  28.506  27.362  1.00  0.00     0.118 C 
BRANCH  23  24
ATOM     24  N   UNL A   1      33.675  29.931  27.674  1.00  0.00    -0.352 N 
ATOM     25  C   UNL A   1      34.608  30.708  28.308  1.00  0.00     0.251 C 
ATOM     26  H   UNL A   1      32.866  30.409  27.382  1.00  0.00     0.163 HD
ATOM     27  O   UNL A   1      34.295  31.823  28.716  1.00  0.00    -0.269 OA
BRANCH  25  28
ATOM     28  C   UNL A   1      35.986  30.214  28.505  1.00  0.00     0.039 A 
ATOM     29  C   UNL A   1      36.874  30.237  27.427  1.00  0.00     0.014 A 
ATOM     30  C   UNL A   1      36.389  29.685  29.734  1.00  0.00     0.014 A 
ATOM     31  C   UNL A   1      38.181  29.779  27.597  1.00  0.00     0.010 A 
ATOM     32  C   UNL A   1      37.714  29.309  29.927  1.00  0.00     0.010 A 
ATOM     33  C   UNL A   1      38.621  29.343  28.857  1.00  0.00    -0.014 A 
BRANCH  33  34
ATOM     34  C   UNL A   1      40.023  28.917  29.079  1.00  0.00     0.031 A 
ATOM     35  C   UNL A   1      41.001  29.848  29.739  1.00  0.00     0.074 A 
ATOM     36  C   UNL A   1      40.426  27.712  28.636  1.00  0.00     0.049 A 
ATOM     37  N   UNL A   1      42.278  29.677  29.970  1.00  0.00    -0.248 NA
ATOM     38  C   UNL A   1      40.483  31.153  30.175  1.00  0.00     0.031 C 
ATOM     39  C   UNL A   1      39.574  26.737  27.952  1.00  0.00     0.029 A 
ATOM     40  N   UNL A   1      41.651  27.099  28.696  1.00  0.00    -0.354 N 
ATOM     41  C   UNL A   1      42.712  30.849  30.574  1.00  0.00     0.074 A 
ATOM     42  C   UNL A   1      41.583  31.752  30.604  1.00  0.00     0.031 C 
ATOM     43  C   UNL A   1      40.290  25.632  27.697  1.00  0.00     0.029 A 
ATOM     44  C   UNL A   1      41.661  25.837  28.155  1.00  0.00     0.049 A 
ATOM     45  H   UNL A   1      42.448  27.524  29.088  1.00  0.00     0.167 HD
ATOM     46  C   UNL A   1      43.932  31.135  31.087  1.00  0.00     0.037 A 
ATOM     47  C   UNL A   1      42.662  24.944  28.043  1.00  0.00     0.037 A 
ATOM     48  C   UNL A   1      45.049  30.229  31.054  1.00  0.00     0.049 A 
ATOM     49  C   UNL A   1      44.022  25.301  28.570  1.00  0.00     0.074 A 
ATOM     50  C   UNL A   1      46.322  30.409  31.566  1.00  0.00     0.029 A 
ATOM     51  N   UNL A   1      45.027  28.969  30.471  1.00  0.00    -0.354 N 
ATOM     52  N   UNL A   1      44.410  26.396  29.177  1.00  0.00    -0.248 NA
ATOM     53  C   UNL A   1      45.083  24.301  28.396  1.00  0.00     0.031 C 
ATOM     54  C   UNL A   1      47.085  29.282  31.246  1.00  0.00     0.029 A 
ATOM     55  C   UNL A   1      46.271  28.371  30.589  1.00  0.00     0.049 A 
ATOM     56  H   UNL A   1      44.243  28.560  30.039  1.00  0.00     0.167 HD
ATOM     57  C   UNL A   1      45.752  26.210  29.482  1.00  0.00     0.074 A 
ATOM     58  C   UNL A   1      46.107  24.889  29.002  1.00  0.00     0.031 C 
ATOM     59  C   UNL A   1      46.610  27.055  30.104  1.00  0.00     0.037 A 
BRANCH  46  60
ATOM     60  C   UNL A   1      44.110  32.481  31.734  1.00  0.00     0.057 A 
ATOM     61  C   UNL A   1      44.554  33.585  30.993  1.00  0.00     0.134 A 
ATOM     62  C   UNL A   1      43.861  32.683  33.099  1.00  0.00     0.134 A 
ATOM     63  F   UNL A   1      44.821  33.466  29.684  1.00  0.00    -0.206 F 
ATOM     64  C   UNL A   1      44.739  34.836  31.586  1.00  0.00     0.040 A 
ATOM     65  C   UNL A   1      44.009  33.936  33.695  1.00  0.00     0.040 A 
ATOM     66  F   UNL A   1      43.423  31.673  33.866  1.00  0.00    -0.206 F 
ATOM     67  C   UNL A   1      44.457  35.017  32.938  1.00  0.00     0.006 A 
ENDBRANCH  46  60
BRANCH  47  68
ATOM     68  C   UNL A   1      42.386  23.608  27.457  1.00  0.00     0.057 A 
ATOM     69  C   UNL A   1      42.087  22.498  28.256  1.00  0.00     0.134 A 
ATOM     70  C   UNL A   1      42.471  23.405  26.076  1.00  0.00     0.134 A 
ATOM     71  F   UNL A   1      42.002  22.625  29.588  1.00  0.00    -0.206 F 
ATOM     72  C   UNL A   1      41.909  21.228  27.704  1.00  0.00     0.040 A 
ATOM     73  C   UNL A   1      42.270  22.146  25.508  1.00  0.00     0.040 A 
ATOM     74  F   UNL A   1      42.739  24.433  25.257  1.00  0.00    -0.206 F 
ATOM     75  C   UNL A   1      41.998  21.050  26.325  1.00  0.00     0.006 A 
ENDBRANCH  47  68
BRANCH  59  76
ATOM     76  C   UNL A   1      48.017  26.578  30.326  1.00  0.00     0.057 A 
ATOM     77  C   UNL A   1      48.996  26.762  29.340  1.00  0.00     0.134 A 
ATOM     78  C   UNL A   1      48.384  25.871  31.477  1.00  0.00     0.134 A 
ATOM     79  F   UNL A   1      48.708  27.423  28.208  1.00  0.00    -0.206 F 
ATOM     80  C   UNL A   1      50.283  26.245  29.484  1.00  0.00     0.040 A 
ATOM     81  C   UNL A   1      49.678  25.375  31.646  1.00  0.00     0.040 A 
ATOM     82  F   UNL A   1      47.497  25.671  32.465  1.00  0.00    -0.206 F 
ATOM     83  C   UNL A   1      50.627  25.551  30.642  1.00  0.00     0.006 A 
ENDBRANCH  59  76
ENDBRANCH  33  34
ENDBRANCH  25  28
ENDBRANCH  23  24
ENDBRANCH   1  23
TORSDOF 11
ENDMDL
MODEL 3
REMARK VINA RESULT:     -11.7      0.766      6.212
REMARK SMILES C[C@@H]1CN(c2cc(C(=O)NCCCNC(=O)c3ccc(-c4c5nc(c(-c6c(F)cccc6F)c6ccc([nH]6)c(-c6c(F)cccc6F)c6nc(c(-c7c(F)cccc7F)c7ccc4[nH]7)C=C6)C=C5)cc3)c(F)cc2F)S(=O)(=O)C1
REMARK SMILES IDX 12 1 11 2 10 3 8 4 9 5 7 7 5 8 6 9 74 10 73 11 75 12 71 13
REMARK SMILES IDX 72 14 4 15 1 16 2 17 3 18 79 19 76 20 77 21 78 22 13 23
REMARK SMILES IDX 14 24 15 25 16 27 17 28 18 29 70 30 19 31 69 32 20 33 21 34
REMARK SMILES IDX 22 35 63 36 23 37 68 38 62 39 64 40 24 41 67 42 61 43 60 44
REMARK SMILES IDX 25 46 51 47 34 48 50 49 35 50 38 51 49 52 65 53 36 54 37 55
REMARK SMILES IDX 48 57 66 58 39 59 26 60 27 61 32 62 28 63 29 64 31 65 33 66
REMARK SMILES IDX 30 67 52 68 53 69 58 70 54 71 55 72 57 73 59 74 56 75 40 76
REMARK SMILES IDX 41 77 46 78 42 79 43 80 45 81 47 82 44 83
REMARK H PARENT 10 6 14 26 64 45 38 56
REMARK Flexibility Score: inf
ROOT
ATOM      1  C   UNL A   1      37.997  19.831  24.906  1.00  0.00     0.042 C 
ENDROOT
BRANCH   1   2
ATOM      2  C   UNL A   1      36.959  20.936  24.712  1.00  0.00     0.118 C 
BRANCH   2   3
ATOM      3  N   UNL A   1      37.442  22.185  25.261  1.00  0.00    -0.352 N 
ATOM      4  C   UNL A   1      36.813  23.280  25.779  1.00  0.00     0.254 C 
ATOM      5  O   UNL A   1      37.540  24.215  26.121  1.00  0.00    -0.269 OA
ATOM      6  H   UNL A   1      38.423  22.261  25.261  1.00  0.00     0.163 HD
BRANCH   4   7
ATOM      7  C   UNL A   1      35.351  23.415  26.007  1.00  0.00     0.077 A 
ATOM      8  C   UNL A   1      33.348  24.632  25.302  1.00  0.00     0.088 A 
ATOM      9  C   UNL A   1      34.728  24.430  25.257  1.00  0.00     0.047 A 
ATOM     10  C   UNL A   1      32.563  23.778  26.078  1.00  0.00     0.150 A 
ATOM     11  C   UNL A   1      33.155  22.787  26.851  1.00  0.00     0.081 A 
ATOM     12  F   UNL A   1      31.225  23.842  26.032  1.00  0.00    -0.205 F 
ATOM     13  C   UNL A   1      34.538  22.596  26.794  1.00  0.00     0.139 A 
ATOM     14  F   UNL A   1      35.017  21.540  27.459  1.00  0.00    -0.206 F 
BRANCH   8  15
ATOM     15  N   UNL A   1      32.823  25.607  24.394  1.00  0.00    -0.267 N 
ATOM     16  C   UNL A   1      34.169  28.598  22.510  1.00  0.00     0.011 C 
ATOM     17  C   UNL A   1      33.199  27.508  22.934  1.00  0.00     0.023 C 
ATOM     18  C   UNL A   1      33.551  26.903  24.299  1.00  0.00     0.140 C 
ATOM     19  C   UNL A   1      33.170  26.329  21.965  1.00  0.00     0.165 C 
ATOM     20  S   UNL A   1      32.258  25.084  22.862  1.00  0.00     0.235 S 
ATOM     21  O   UNL A   1      32.752  23.772  22.529  1.00  0.00    -0.206 OA
ATOM     22  O   UNL A   1      30.850  25.417  22.785  1.00  0.00    -0.206 OA
ENDBRANCH   8  15
ENDBRANCH   4   7
ENDBRANCH   2   3
ENDBRANCH   1   2
BRANCH   1  23
ATOM     23  C   UNL A   1      39.025  20.158  25.986  1.00  0.00     0.118 C 
BRANCH  23  24
ATOM     24  N   UNL A   1      40.180  19.270  25.920  1.00  0.00    -0.352 N 
ATOM     25  C   UNL A   1      41.519  19.556  25.977  1.00  0.00     0.251 C 
ATOM     26  H   UNL A   1      39.963  18.315  25.820  1.00  0.00     0.163 HD
ATOM     27  O   UNL A   1      42.336  18.706  25.634  1.00  0.00    -0.269 OA
BRANCH  25  28
ATOM     28  C   UNL A   1      41.985  20.875  26.449  1.00  0.00     0.039 A 
ATOM     29  C   UNL A   1      42.332  21.847  25.506  1.00  0.00     0.014 A 
ATOM     30  C   UNL A   1      42.128  21.140  27.813  1.00  0.00     0.014 A 
ATOM     31  C   UNL A   1      42.770  23.101  25.935  1.00  0.00     0.010 A 
ATOM     32  C   UNL A   1      42.481  22.415  28.240  1.00  0.00     0.010 A 
ATOM     33  C   UNL A   1      42.815  23.405  27.305  1.00  0.00    -0.014 A 
BRANCH  33  34
ATOM     34  C   UNL A   1      43.211  24.752  27.782  1.00  0.00     0.031 A 
ATOM     35  C   UNL A   1      42.162  25.780  28.101  1.00  0.00     0.074 A 
ATOM     36  C   UNL A   1      44.517  25.063  27.875  1.00  0.00     0.049 A 
ATOM     37  N   UNL A   1      42.312  27.025  28.477  1.00  0.00    -0.248 NA
ATOM     38  C   UNL A   1      40.759  25.363  27.952  1.00  0.00     0.031 C 
ATOM     39  C   UNL A   1      45.624  24.158  27.561  1.00  0.00     0.029 A 
ATOM     40  N   UNL A   1      45.136  26.224  28.262  1.00  0.00    -0.354 N 
ATOM     41  C   UNL A   1      41.028  27.536  28.608  1.00  0.00     0.074 A 
ATOM     42  C   UNL A   1      40.114  26.493  28.198  1.00  0.00     0.031 C 
ATOM     43  C   UNL A   1      46.785  24.782  27.812  1.00  0.00     0.029 A 
ATOM     44  C   UNL A   1      46.507  26.144  28.258  1.00  0.00     0.049 A 
ATOM     45  H   UNL A   1      44.644  27.038  28.518  1.00  0.00     0.167 HD
ATOM     46  C   UNL A   1      40.644  28.752  29.062  1.00  0.00     0.037 A 
ATOM     47  C   UNL A   1      47.436  27.063  28.579  1.00  0.00     0.037 A 
ATOM     48  C   UNL A   1      41.562  29.783  29.470  1.00  0.00     0.049 A 
ATOM     49  C   UNL A   1      46.990  28.425  29.028  1.00  0.00     0.074 A 
ATOM     50  C   UNL A   1      41.278  31.043  29.967  1.00  0.00     0.029 A 
ATOM     51  N   UNL A   1      42.945  29.673  29.424  1.00  0.00    -0.354 N 
ATOM     52  N   UNL A   1      45.772  28.883  29.189  1.00  0.00    -0.248 NA
ATOM     53  C   UNL A   1      48.045  29.398  29.339  1.00  0.00     0.031 C 
ATOM     54  C   UNL A   1      42.488  31.714  30.171  1.00  0.00     0.029 A 
ATOM     55  C   UNL A   1      43.528  30.851  29.860  1.00  0.00     0.049 A 
ATOM     56  H   UNL A   1      43.438  28.875  29.125  1.00  0.00     0.167 HD
ATOM     57  C   UNL A   1      45.911  30.188  29.645  1.00  0.00     0.074 A 
ATOM     58  C   UNL A   1      47.335  30.443  29.745  1.00  0.00     0.031 C 
ATOM     59  C   UNL A   1      44.948  31.090  29.953  1.00  0.00     0.037 A 
BRANCH  46  60
ATOM     60  C   UNL A   1      39.167  29.023  29.146  1.00  0.00     0.057 A 
ATOM     61  C   UNL A   1      38.454  29.488  28.032  1.00  0.00     0.134 A 
ATOM     62  C   UNL A   1      38.450  28.842  30.337  1.00  0.00     0.134 A 
ATOM     63  F   UNL A   1      39.075  29.693  26.861  1.00  0.00    -0.206 F 
ATOM     64  C   UNL A   1      37.086  29.759  28.101  1.00  0.00     0.040 A 
ATOM     65  C   UNL A   1      37.076  29.076  30.409  1.00  0.00     0.040 A 
ATOM     66  F   UNL A   1      39.067  28.389  31.439  1.00  0.00    -0.206 F 
ATOM     67  C   UNL A   1      36.391  29.543  29.290  1.00  0.00     0.006 A 
ENDBRANCH  46  60
BRANCH  47  68
ATOM     68  C   UNL A   1      48.873  26.694  28.539  1.00  0.00     0.057 A 
ATOM     69  C   UNL A   1      49.625  26.778  27.362  1.00  0.00     0.134 A 
ATOM     70  C   UNL A   1      49.511  26.193  29.678  1.00  0.00     0.134 A 
ATOM     71  F   UNL A   1      49.068  27.240  26.233  1.00  0.00    -0.206 F 
ATOM     72  C   UNL A   1      50.954  26.352  27.312  1.00  0.00     0.040 A 
ATOM     73  C   UNL A   1      50.846  25.787  29.650  1.00  0.00     0.040 A 
ATOM     74  F   UNL A   1      48.847  26.102  30.840  1.00  0.00    -0.206 F 
ATOM     75  C   UNL A   1      51.569  25.857  28.460  1.00  0.00     0.006 A 
ENDBRANCH  47  68
BRANCH  59  76
ATOM     76  C   UNL A   1      45.391  32.437  30.450  1.00  0.00     0.057 A 
ATOM     77  C   UNL A   1      45.562  32.670  31.821  1.00  0.00     0.134 A 
ATOM     78  C   UNL A   1      45.573  33.520  29.582  1.00  0.00     0.134 A 
ATOM     79  F   UNL A   1      45.393  31.677  32.707  1.00  0.00    -0.206 F 
ATOM     80  C   UNL A   1      45.881  33.936  32.312  1.00  0.00     0.040 A 
ATOM     81  C   UNL A   1      45.923  34.785  30.059  1.00  0.00     0.040 A 
ATOM     82  F   UNL A   1      45.437  33.362  28.256  1.00  0.00    -0.206 F 
ATOM     83  C   UNL A   1      46.065  34.998  31.428  1.00  0.00     0.006 A 
ENDBRANCH  59  76
ENDBRANCH  33  34
ENDBRANCH  25  28
ENDBRANCH  23  24
ENDBRANCH   1  23
TORSDOF 11
ENDMDL
