MODEL 1
REMARK VINA RESULT:     -12.0      0.000      0.000
REMARK SMILES O=C(NCCCNC(=O)[C@]1(Cc2cn3ccccc3n2)CCC[NH2+]C1)c1ccc(-c2c3nc(c(-c4c(F)cccc4F)c4ccc([nH]4)c(-c4c(F)cccc4F)c4nc(c(-c5c(F)cccc5F)c5ccc2[nH]5)C=C4)C=C3)cc1
REMARK SMILES IDX 5 1 4 2 3 3 1 4 2 5 26 7 27 8 79 9 28 10 78 11 29 12 30 13
REMARK SMILES IDX 31 14 72 15 32 16 77 17 71 18 73 19 33 20 76 21 70 22 69 23
REMARK SMILES IDX 34 25 60 26 43 27 59 28 44 29 47 30 58 31 74 32 45 33 46 34
REMARK SMILES IDX 57 36 75 37 48 38 35 39 36 40 41 41 37 42 38 43 40 44 42 45
REMARK SMILES IDX 39 46 61 47 62 48 67 49 63 50 64 51 66 52 68 53 65 54 49 55
REMARK SMILES IDX 50 56 55 57 51 58 52 59 54 60 56 61 53 62 6 63 7 64 8 65
REMARK SMILES IDX 9 67 10 68 21 69 25 70 22 71 24 72 23 73 11 76 12 77 13 78
REMARK SMILES IDX 20 79 14 80 19 81 15 82 18 83 16 84 17 85
REMARK H PARENT 3 6 73 24 47 35 7 66 24 74 24 75
REMARK Flexibility Score: inf
ROOT
ATOM      1  C   UNL A   1      37.092  19.718  24.991  1.00  0.00     0.042 C 
ENDROOT
BRANCH   1   2
ATOM      2  C   UNL A   1      38.382  20.386  25.455  1.00  0.00     0.118 C 
BRANCH   2   3
ATOM      3  N   UNL A   1      39.474  19.439  25.620  1.00  0.00    -0.352 N 
ATOM      4  O   UNL A   1      41.597  18.735  25.866  1.00  0.00    -0.269 OA
ATOM      5  C   UNL A   1      40.774  19.647  26.002  1.00  0.00     0.251 C 
ATOM      6  H   UNL A   1      39.243  18.501  25.429  1.00  0.00     0.163 HD
BRANCH   5   7
ATOM      7  C   UNL A   1      41.221  20.943  26.563  1.00  0.00     0.039 A 
ATOM      8  C   UNL A   1      41.661  21.981  25.740  1.00  0.00     0.014 A 
ATOM      9  C   UNL A   1      41.112  21.157  27.942  1.00  0.00     0.014 A 
ATOM     10  C   UNL A   1      42.105  23.179  26.301  1.00  0.00     0.010 A 
ATOM     11  C   UNL A   1      41.481  22.389  28.496  1.00  0.00     0.010 A 
ATOM     12  C   UNL A   1      42.004  23.405  27.683  1.00  0.00    -0.014 A 
BRANCH  12  13
ATOM     13  C   UNL A   1      42.383  24.731  28.241  1.00  0.00     0.031 A 
ATOM     14  C   UNL A   1      43.813  25.062  28.570  1.00  0.00     0.074 A 
ATOM     15  C   UNL A   1      41.422  25.657  28.434  1.00  0.00     0.049 A 
ATOM     16  N   UNL A   1      44.317  26.187  29.015  1.00  0.00    -0.248 NA
ATOM     17  C   UNL A   1      44.805  23.993  28.384  1.00  0.00     0.031 C 
ATOM     18  C   UNL A   1      39.995  25.453  28.181  1.00  0.00     0.029 A 
ATOM     19  N   UNL A   1      41.500  26.956  28.871  1.00  0.00    -0.354 N 
ATOM     20  C   UNL A   1      45.677  25.957  29.183  1.00  0.00     0.074 A 
ATOM     21  C   UNL A   1      45.915  24.577  28.814  1.00  0.00     0.031 C 
ATOM     22  C   UNL A   1      39.339  26.600  28.414  1.00  0.00     0.029 A 
ATOM     23  C   UNL A   1      40.288  27.603  28.884  1.00  0.00     0.049 A 
ATOM     24  H   UNL A   1      42.343  27.383  29.147  1.00  0.00     0.167 HD
ATOM     25  C   UNL A   1      46.639  26.818  29.595  1.00  0.00     0.037 A 
ATOM     26  C   UNL A   1      39.972  28.862  29.239  1.00  0.00     0.037 A 
ATOM     27  C   UNL A   1      46.404  28.196  29.949  1.00  0.00     0.049 A 
ATOM     28  C   UNL A   1      41.055  29.789  29.706  1.00  0.00     0.074 A 
ATOM     29  C   UNL A   1      47.326  29.158  30.327  1.00  0.00     0.029 A 
ATOM     30  N   UNL A   1      45.159  28.805  29.979  1.00  0.00    -0.354 N 
ATOM     31  N   UNL A   1      42.344  29.574  29.801  1.00  0.00    -0.248 NA
ATOM     32  C   UNL A   1      40.638  31.136  30.120  1.00  0.00     0.031 C 
ATOM     33  C   UNL A   1      46.633  30.336  30.628  1.00  0.00     0.029 A 
ATOM     34  C   UNL A   1      45.285  30.122  30.392  1.00  0.00     0.049 A 
ATOM     35  H   UNL A   1      44.310  28.366  29.742  1.00  0.00     0.167 HD
ATOM     36  C   UNL A   1      42.895  30.762  30.261  1.00  0.00     0.074 A 
ATOM     37  C   UNL A   1      41.802  31.700  30.412  1.00  0.00     0.031 C 
ATOM     38  C   UNL A   1      44.191  31.049  30.536  1.00  0.00     0.037 A 
BRANCH  25  39
ATOM     39  C   UNL A   1      48.041  26.289  29.706  1.00  0.00     0.057 A 
ATOM     40  C   UNL A   1      48.949  26.369  28.643  1.00  0.00     0.134 A 
ATOM     41  C   UNL A   1      48.501  25.730  30.905  1.00  0.00     0.134 A 
ATOM     42  F   UNL A   1      48.572  26.885  27.463  1.00  0.00    -0.206 F 
ATOM     43  C   UNL A   1      50.255  25.888  28.759  1.00  0.00     0.040 A 
ATOM     44  C   UNL A   1      49.811  25.268  31.042  1.00  0.00     0.040 A 
ATOM     45  F   UNL A   1      47.686  25.633  31.968  1.00  0.00    -0.206 F 
ATOM     46  C   UNL A   1      50.690  25.340  29.964  1.00  0.00     0.006 A 
ENDBRANCH  25  39
BRANCH  26  47
ATOM     47  C   UNL A   1      38.564  29.326  29.145  1.00  0.00     0.057 A 
ATOM     48  C   UNL A   1      37.735  29.343  30.271  1.00  0.00     0.134 A 
ATOM     49  C   UNL A   1      38.018  29.765  27.933  1.00  0.00     0.134 A 
ATOM     50  F   UNL A   1      38.197  28.917  31.457  1.00  0.00    -0.206 F 
ATOM     51  C   UNL A   1      36.408  29.767  30.196  1.00  0.00     0.040 A 
ATOM     52  C   UNL A   1      36.701  30.216  27.847  1.00  0.00     0.040 A 
ATOM     53  F   UNL A   1      38.765  29.778  26.819  1.00  0.00    -0.206 F 
ATOM     54  C   UNL A   1      35.890  30.212  28.980  1.00  0.00     0.006 A 
ENDBRANCH  26  47
BRANCH  38  55
ATOM     55  C   UNL A   1      44.498  32.445  30.992  1.00  0.00     0.057 A 
ATOM     56  C   UNL A   1      44.775  33.476  30.087  1.00  0.00     0.134 A 
ATOM     57  C   UNL A   1      44.504  32.763  32.356  1.00  0.00     0.134 A 
ATOM     58  F   UNL A   1      44.801  33.234  28.767  1.00  0.00    -0.206 F 
ATOM     59  C   UNL A   1      45.073  34.770  30.522  1.00  0.00     0.040 A 
ATOM     60  C   UNL A   1      44.775  34.057  32.803  1.00  0.00     0.040 A 
ATOM     61  F   UNL A   1      44.242  31.823  33.276  1.00  0.00    -0.206 F 
ATOM     62  C   UNL A   1      45.068  35.063  31.884  1.00  0.00     0.006 A 
ENDBRANCH  38  55
ENDBRANCH  12  13
ENDBRANCH   5   7
ENDBRANCH   2   3
ENDBRANCH   1   2
BRANCH   1  63
ATOM     63  C   UNL A   1      35.894  20.651  24.832  1.00  0.00     0.117 C 
BRANCH  63  64
ATOM     64  N   UNL A   1      35.417  21.216  26.082  1.00  0.00    -0.355 N 
ATOM     65  C   UNL A   1      34.430  22.069  26.448  1.00  0.00     0.232 C 
ATOM     66  H   UNL A   1      35.940  20.902  26.854  1.00  0.00     0.163 HD
ATOM     67  O   UNL A   1      34.455  22.360  27.653  1.00  0.00    -0.274 OA
BRANCH  65  68
ATOM     68  C   UNL A   1      33.378  22.688  25.504  1.00  0.00     0.104 C 
ATOM     69  C   UNL A   1      34.073  23.082  24.160  1.00  0.00     0.029 C 
ATOM     70  C   UNL A   1      32.722  23.969  26.108  1.00  0.00     0.277 C 
ATOM     71  C   UNL A   1      34.875  24.387  24.260  1.00  0.00     0.063 C 
ATOM     72  N   UNL A   1      33.534  25.185  26.132  1.00  0.00    -0.345 N 
ATOM     73  C   UNL A   1      34.011  25.520  24.795  1.00  0.00     0.260 C 
ATOM     74  H   UNL A   1      32.970  25.957  26.488  1.00  0.00     0.346 HD
ATOM     75  H   UNL A   1      34.341  25.026  26.735  1.00  0.00     0.346 HD
BRANCH  68  76
ATOM     76  C   UNL A   1      32.199  21.742  25.202  1.00  0.00     0.080 C 
BRANCH  76  77
ATOM     77  C   UNL A   1      32.348  20.339  24.726  1.00  0.00     0.061 A 
ATOM     78  C   UNL A   1      32.547  19.739  23.498  1.00  0.00     0.116 A 
ATOM     79  N   UNL A   1      32.442  19.397  25.731  1.00  0.00    -0.234 NA
ATOM     80  N   UNL A   1      32.884  18.427  23.775  1.00  0.00    -0.307 N 
ATOM     81  C   UNL A   1      32.784  18.271  25.152  1.00  0.00     0.136 A 
ATOM     82  C   UNL A   1      33.329  17.408  22.930  1.00  0.00     0.093 A 
ATOM     83  C   UNL A   1      33.125  17.009  25.706  1.00  0.00     0.048 A 
ATOM     84  C   UNL A   1      33.680  16.221  23.461  1.00  0.00     0.018 A 
ATOM     85  C   UNL A   1      33.570  16.026  24.900  1.00  0.00     0.005 A 
ENDBRANCH  76  77
ENDBRANCH  68  76
ENDBRANCH  65  68
ENDBRANCH  63  64
ENDBRANCH   1  63
TORSDOF 12
ENDMDL
MODEL 2
REMARK VINA RESULT:     -11.9      0.324      6.311
REMARK SMILES O=C(NCCCNC(=O)[C@]1(Cc2cn3ccccc3n2)CCC[NH2+]C1)c1ccc(-c2c3nc(c(-c4c(F)cccc4F)c4ccc([nH]4)c(-c4c(F)cccc4F)c4nc(c(-c5c(F)cccc5F)c5ccc2[nH]5)C=C4)C=C3)cc1
REMARK SMILES IDX 5 1 4 2 3 3 1 4 2 5 26 7 27 8 79 9 28 10 78 11 29 12 30 13
REMARK SMILES IDX 31 14 72 15 32 16 77 17 71 18 73 19 33 20 76 21 70 22 69 23
REMARK SMILES IDX 34 25 60 26 43 27 59 28 44 29 47 30 58 31 74 32 45 33 46 34
REMARK SMILES IDX 57 36 75 37 48 38 35 39 36 40 41 41 37 42 38 43 40 44 42 45
REMARK SMILES IDX 39 46 61 47 62 48 67 49 63 50 64 51 66 52 68 53 65 54 49 55
REMARK SMILES IDX 50 56 55 57 51 58 52 59 54 60 56 61 53 62 6 63 7 64 8 65
REMARK SMILES IDX 9 67 10 68 21 69 25 70 22 71 24 72 23 73 11 76 12 77 13 78
REMARK SMILES IDX 20 79 14 80 19 81 15 82 18 83 16 84 17 85
REMARK H PARENT 3 6 73 24 47 35 7 66 24 74 24 75
REMARK Flexibility Score: inf
ROOT
ATOM      1  C   UNL A   1      37.082  19.739  25.026  1.00  0.00     0.042 C 
ENDROOT
BRANCH   1   2
ATOM      2  C   UNL A   1      38.399  20.405  25.409  1.00  0.00     0.118 C 
BRANCH   2   3
ATOM      3  N   UNL A   1      39.474  19.445  25.608  1.00  0.00    -0.352 N 
ATOM      4  O   UNL A   1      41.583  18.715  25.892  1.00  0.00    -0.269 OA
ATOM      5  C   UNL A   1      40.773  19.642  25.998  1.00  0.00     0.251 C 
ATOM      6  H   UNL A   1      39.230  18.507  25.436  1.00  0.00     0.163 HD
BRANCH   5   7
ATOM      7  C   UNL A   1      41.235  20.944  26.532  1.00  0.00     0.039 A 
ATOM      8  C   UNL A   1      41.672  21.966  25.688  1.00  0.00     0.014 A 
ATOM      9  C   UNL A   1      41.144  21.181  27.909  1.00  0.00     0.014 A 
ATOM     10  C   UNL A   1      42.130  23.169  26.224  1.00  0.00     0.010 A 
ATOM     11  C   UNL A   1      41.527  22.419  28.439  1.00  0.00     0.010 A 
ATOM     12  C   UNL A   1      42.047  23.419  27.603  1.00  0.00    -0.014 A 
BRANCH  12  13
ATOM     13  C   UNL A   1      42.441  24.751  28.135  1.00  0.00     0.031 A 
ATOM     14  C   UNL A   1      41.423  25.835  28.362  1.00  0.00     0.074 A 
ATOM     15  C   UNL A   1      43.735  24.976  28.436  1.00  0.00     0.049 A 
ATOM     16  N   UNL A   1      41.595  27.033  28.865  1.00  0.00    -0.248 NA
ATOM     17  C   UNL A   1      40.038  25.544  27.966  1.00  0.00     0.031 C 
ATOM     18  C   UNL A   1      44.824  24.018  28.239  1.00  0.00     0.029 A 
ATOM     19  N   UNL A   1      44.352  26.071  28.987  1.00  0.00    -0.354 N 
ATOM     20  C   UNL A   1      40.347  27.645  28.828  1.00  0.00     0.074 A 
ATOM     21  C   UNL A   1      39.434  26.694  28.230  1.00  0.00     0.031 C 
ATOM     22  C   UNL A   1      45.965  24.545  28.709  1.00  0.00     0.029 A 
ATOM     23  C   UNL A   1      45.700  25.896  29.193  1.00  0.00     0.049 A 
ATOM     24  H   UNL A   1      43.876  26.903  29.213  1.00  0.00     0.167 HD
ATOM     25  C   UNL A   1      39.995  28.880  29.262  1.00  0.00     0.037 A 
ATOM     26  C   UNL A   1      46.623  26.728  29.708  1.00  0.00     0.037 A 
ATOM     27  C   UNL A   1      40.901  29.822  29.871  1.00  0.00     0.049 A 
ATOM     28  C   UNL A   1      46.207  28.096  30.166  1.00  0.00     0.074 A 
ATOM     29  C   UNL A   1      40.622  31.075  30.390  1.00  0.00     0.029 A 
ATOM     30  N   UNL A   1      42.263  29.618  30.033  1.00  0.00    -0.354 N 
ATOM     31  N   UNL A   1      45.013  28.635  30.180  1.00  0.00    -0.248 NA
ATOM     32  C   UNL A   1      47.270  28.971  30.679  1.00  0.00     0.031 C 
ATOM     33  C   UNL A   1      41.824  31.648  30.825  1.00  0.00     0.029 A 
ATOM     34  C   UNL A   1      42.842  30.732  30.622  1.00  0.00     0.049 A 
ATOM     35  H   UNL A   1      42.748  28.802  29.770  1.00  0.00     0.167 HD
ATOM     36  C   UNL A   1      45.176  29.903  30.722  1.00  0.00     0.074 A 
ATOM     37  C   UNL A   1      46.581  30.045  31.040  1.00  0.00     0.031 C 
ATOM     38  C   UNL A   1      44.242  30.862  30.936  1.00  0.00     0.037 A 
BRANCH  25  39
ATOM     39  C   UNL A   1      38.563  29.297  29.077  1.00  0.00     0.057 A 
ATOM     40  C   UNL A   1      38.063  29.701  27.833  1.00  0.00     0.134 A 
ATOM     41  C   UNL A   1      37.663  29.253  30.149  1.00  0.00     0.134 A 
ATOM     42  F   UNL A   1      38.873  29.774  26.766  1.00  0.00    -0.206 F 
ATOM     43  C   UNL A   1      36.727  30.073  27.668  1.00  0.00     0.040 A 
ATOM     44  C   UNL A   1      36.320  29.598  29.992  1.00  0.00     0.040 A 
ATOM     45  F   UNL A   1      38.072  28.864  31.367  1.00  0.00    -0.206 F 
ATOM     46  C   UNL A   1      35.851  30.016  28.749  1.00  0.00     0.006 A 
ENDBRANCH  25  39
BRANCH  26  47
ATOM     47  C   UNL A   1      48.033  26.282  29.837  1.00  0.00     0.057 A 
ATOM     48  C   UNL A   1      48.931  26.417  28.774  1.00  0.00     0.134 A 
ATOM     49  C   UNL A   1      48.515  25.715  31.023  1.00  0.00     0.134 A 
ATOM     50  F   UNL A   1      48.523  26.936  27.606  1.00  0.00    -0.206 F 
ATOM     51  C   UNL A   1      50.256  25.992  28.878  1.00  0.00     0.040 A 
ATOM     52  C   UNL A   1      49.843  25.309  31.151  1.00  0.00     0.040 A 
ATOM     53  F   UNL A   1      47.703  25.565  32.081  1.00  0.00    -0.206 F 
ATOM     54  C   UNL A   1      50.717  25.441  30.074  1.00  0.00     0.006 A 
ENDBRANCH  26  47
BRANCH  38  55
ATOM     55  C   UNL A   1      44.710  32.137  31.576  1.00  0.00     0.057 A 
ATOM     56  C   UNL A   1      44.740  32.300  32.967  1.00  0.00     0.134 A 
ATOM     57  C   UNL A   1      45.149  33.209  30.791  1.00  0.00     0.134 A 
ATOM     58  F   UNL A   1      44.317  31.316  33.776  1.00  0.00    -0.206 F 
ATOM     59  C   UNL A   1      45.164  33.495  33.553  1.00  0.00     0.040 A 
ATOM     60  C   UNL A   1      45.600  34.399  31.364  1.00  0.00     0.040 A 
ATOM     61  F   UNL A   1      45.152  33.117  29.452  1.00  0.00    -0.206 F 
ATOM     62  C   UNL A   1      45.600  34.546  32.749  1.00  0.00     0.006 A 
ENDBRANCH  38  55
ENDBRANCH  12  13
ENDBRANCH   5   7
ENDBRANCH   2   3
ENDBRANCH   1   2
BRANCH   1  63
ATOM     63  C   UNL A   1      35.897  20.686  24.851  1.00  0.00     0.117 C 
BRANCH  63  64
ATOM     64  N   UNL A   1      35.392  21.236  26.097  1.00  0.00    -0.355 N 
ATOM     65  C   UNL A   1      34.393  22.080  26.452  1.00  0.00     0.232 C 
ATOM     66  H   UNL A   1      35.903  20.918  26.876  1.00  0.00     0.163 HD
ATOM     67  O   UNL A   1      34.393  22.359  27.660  1.00  0.00    -0.274 OA
BRANCH  65  68
ATOM     68  C   UNL A   1      33.356  22.702  25.493  1.00  0.00     0.104 C 
ATOM     69  C   UNL A   1      34.075  23.114  24.168  1.00  0.00     0.029 C 
ATOM     70  C   UNL A   1      32.679  23.971  26.098  1.00  0.00     0.277 C 
ATOM     71  C   UNL A   1      34.865  24.424  24.298  1.00  0.00     0.063 C 
ATOM     72  N   UNL A   1      33.481  25.192  26.151  1.00  0.00    -0.345 N 
ATOM     73  C   UNL A   1      33.982  25.545  24.827  1.00  0.00     0.260 C 
ATOM     74  H   UNL A   1      32.904  25.956  26.504  1.00  0.00     0.346 HD
ATOM     75  H   UNL A   1      34.277  25.033  26.768  1.00  0.00     0.346 HD
BRANCH  68  76
ATOM     76  C   UNL A   1      32.190  21.751  25.158  1.00  0.00     0.080 C 
BRANCH  76  77
ATOM     77  C   UNL A   1      32.358  20.344  24.699  1.00  0.00     0.061 A 
ATOM     78  C   UNL A   1      32.584  19.732  23.483  1.00  0.00     0.116 A 
ATOM     79  N   UNL A   1      32.441  19.413  25.716  1.00  0.00    -0.234 NA
ATOM     80  N   UNL A   1      32.927  18.426  23.780  1.00  0.00    -0.307 N 
ATOM     81  C   UNL A   1      32.802  18.284  25.156  1.00  0.00     0.136 A 
ATOM     82  C   UNL A   1      33.394  17.401  22.954  1.00  0.00     0.093 A 
ATOM     83  C   UNL A   1      33.143  17.030  25.730  1.00  0.00     0.048 A 
ATOM     84  C   UNL A   1      33.744  16.223  23.504  1.00  0.00     0.018 A 
ATOM     85  C   UNL A   1      33.610  16.043  24.943  1.00  0.00     0.005 A 
ENDBRANCH  76  77
ENDBRANCH  68  76
ENDBRANCH  65  68
ENDBRANCH  63  64
ENDBRANCH   1  63
TORSDOF 12
ENDMDL
MODEL 3
REMARK VINA RESULT:     -11.9      4.182      8.201
REMARK SMILES O=C(NCCCNC(=O)[C@]1(Cc2cn3ccccc3n2)CCC[NH2+]C1)c1ccc(-c2c3nc(c(-c4c(F)cccc4F)c4ccc([nH]4)c(-c4c(F)cccc4F)c4nc(c(-c5c(F)cccc5F)c5ccc2[nH]5)C=C4)C=C3)cc1
REMARK SMILES IDX 5 1 4 2 3 3 1 4 2 5 26 7 27 8 79 9 28 10 78 11 29 12 30 13
REMARK SMILES IDX 31 14 72 15 32 16 77 17 71 18 73 19 33 20 76 21 70 22 69 23
REMARK SMILES IDX 34 25 60 26 43 27 59 28 44 29 47 30 58 31 74 32 45 33 46 34
REMARK SMILES IDX 57 36 75 37 48 38 35 39 36 40 41 41 37 42 38 43 40 44 42 45
REMARK SMILES IDX 39 46 61 47 62 48 67 49 63 50 64 51 66 52 68 53 65 54 49 55
REMARK SMILES IDX 50 56 55 57 51 58 52 59 54 60 56 61 53 62 6 63 7 64 8 65
REMARK SMILES IDX 9 67 10 68 21 69 25 70 22 71 24 72 23 73 11 76 12 77 13 78
REMARK SMILES IDX 20 79 14 80 19 81 15 82 18 83 16 84 17 85
REMARK H PARENT 3 6 73 24 47 35 7 66 24 74 24 75
REMARK Flexibility Score: inf
ROOT
ATOM      1  C   UNL A   1      37.238  23.647  25.207  1.00  0.00     0.042 C 
ENDROOT
BRANCH   1   2
ATOM      2  C   UNL A   1      38.133  24.033  26.379  1.00  0.00     0.118 C 
BRANCH   2   3
ATOM      3  N   UNL A   1      39.549  23.919  26.062  1.00  0.00    -0.352 N 
ATOM      4  O   UNL A   1      41.691  24.572  25.852  1.00  0.00    -0.269 OA
ATOM      5  C   UNL A   1      40.600  24.727  26.411  1.00  0.00     0.251 C 
ATOM      6  H   UNL A   1      39.790  23.139  25.511  1.00  0.00     0.163 HD
BRANCH   5   7
ATOM      7  C   UNL A   1      40.457  25.790  27.431  1.00  0.00     0.039 A 
ATOM      8  C   UNL A   1      39.661  25.612  28.564  1.00  0.00     0.014 A 
ATOM      9  C   UNL A   1      41.209  26.963  27.297  1.00  0.00     0.014 A 
ATOM     10  C   UNL A   1      39.522  26.645  29.492  1.00  0.00     0.010 A 
ATOM     11  C   UNL A   1      41.132  27.967  28.270  1.00  0.00     0.010 A 
ATOM     12  C   UNL A   1      40.269  27.827  29.367  1.00  0.00    -0.014 A 
BRANCH  12  13
ATOM     13  C   UNL A   1      40.184  28.866  30.428  1.00  0.00     0.031 A 
ATOM     14  C   UNL A   1      39.141  29.949  30.380  1.00  0.00     0.074 A 
ATOM     15  C   UNL A   1      41.050  28.819  31.459  1.00  0.00     0.049 A 
ATOM     16  N   UNL A   1      38.900  30.900  31.249  1.00  0.00    -0.248 NA
ATOM     17  C   UNL A   1      38.260  29.976  29.204  1.00  0.00     0.031 C 
ATOM     18  C   UNL A   1      42.125  27.837  31.611  1.00  0.00     0.029 A 
ATOM     19  N   UNL A   1      41.154  29.601  32.582  1.00  0.00    -0.354 N 
ATOM     20  C   UNL A   1      37.857  31.649  30.718  1.00  0.00     0.074 A 
ATOM     21  C   UNL A   1      37.527  31.056  29.438  1.00  0.00     0.031 C 
ATOM     22  C   UNL A   1      42.745  28.041  32.783  1.00  0.00     0.029 A 
ATOM     23  C   UNL A   1      42.149  29.198  33.441  1.00  0.00     0.049 A 
ATOM     24  H   UNL A   1      40.572  30.376  32.757  1.00  0.00     0.167 HD
ATOM     25  C   UNL A   1      37.227  32.724  31.251  1.00  0.00     0.037 A 
ATOM     26  C   UNL A   1      42.542  29.704  34.624  1.00  0.00     0.037 A 
ATOM     27  C   UNL A   1      37.545  33.306  32.531  1.00  0.00     0.049 A 
ATOM     28  C   UNL A   1      41.836  30.904  35.183  1.00  0.00     0.074 A 
ATOM     29  C   UNL A   1      36.924  34.362  33.177  1.00  0.00     0.029 A 
ATOM     30  N   UNL A   1      38.579  32.888  33.356  1.00  0.00    -0.354 N 
ATOM     31  N   UNL A   1      40.813  31.562  34.697  1.00  0.00    -0.248 NA
ATOM     32  C   UNL A   1      42.342  31.433  36.457  1.00  0.00     0.031 C 
ATOM     33  C   UNL A   1      37.611  34.612  34.371  1.00  0.00     0.029 A 
ATOM     34  C   UNL A   1      38.628  33.680  34.493  1.00  0.00     0.049 A 
ATOM     35  H   UNL A   1      39.187  32.138  33.163  1.00  0.00     0.167 HD
ATOM     36  C   UNL A   1      40.538  32.567  35.613  1.00  0.00     0.074 A 
ATOM     37  C   UNL A   1      41.491  32.422  36.694  1.00  0.00     0.031 C 
ATOM     38  C   UNL A   1      39.580  33.526  35.563  1.00  0.00     0.037 A 
BRANCH  25  39
ATOM     39  C   UNL A   1      36.133  33.358  30.439  1.00  0.00     0.057 A 
ATOM     40  C   UNL A   1      34.779  33.188  30.758  1.00  0.00     0.134 A 
ATOM     41  C   UNL A   1      36.439  34.184  29.350  1.00  0.00     0.134 A 
ATOM     42  F   UNL A   1      34.416  32.404  31.784  1.00  0.00    -0.206 F 
ATOM     43  C   UNL A   1      33.770  33.793  30.006  1.00  0.00     0.040 A 
ATOM     44  C   UNL A   1      35.441  34.814  28.606  1.00  0.00     0.040 A 
ATOM     45  F   UNL A   1      37.716  34.399  28.996  1.00  0.00    -0.206 F 
ATOM     46  C   UNL A   1      34.101  34.614  28.930  1.00  0.00     0.006 A 
ENDBRANCH  25  39
BRANCH  26  47
ATOM     47  C   UNL A   1      43.653  29.061  35.371  1.00  0.00     0.057 A 
ATOM     48  C   UNL A   1      44.984  29.416  35.130  1.00  0.00     0.134 A 
ATOM     49  C   UNL A   1      43.411  28.083  36.343  1.00  0.00     0.134 A 
ATOM     50  F   UNL A   1      45.280  30.334  34.197  1.00  0.00    -0.206 F 
ATOM     51  C   UNL A   1      46.038  28.813  35.817  1.00  0.00     0.040 A 
ATOM     52  C   UNL A   1      44.452  27.490  37.057  1.00  0.00     0.040 A 
ATOM     53  F   UNL A   1      42.155  27.704  36.624  1.00  0.00    -0.206 F 
ATOM     54  C   UNL A   1      45.771  27.850  36.789  1.00  0.00     0.006 A 
ENDBRANCH  26  47
BRANCH  38  55
ATOM     55  C   UNL A   1      39.498  34.468  36.728  1.00  0.00     0.057 A 
ATOM     56  C   UNL A   1      40.099  35.733  36.702  1.00  0.00     0.134 A 
ATOM     57  C   UNL A   1      38.796  34.110  37.886  1.00  0.00     0.134 A 
ATOM     58  F   UNL A   1      40.800  36.130  35.629  1.00  0.00    -0.206 F 
ATOM     59  C   UNL A   1      40.028  36.598  37.797  1.00  0.00     0.040 A 
ATOM     60  C   UNL A   1      38.695  34.975  38.976  1.00  0.00     0.040 A 
ATOM     61  F   UNL A   1      38.192  32.916  37.974  1.00  0.00    -0.206 F 
ATOM     62  C   UNL A   1      39.320  36.220  38.936  1.00  0.00     0.006 A 
ENDBRANCH  38  55
ENDBRANCH  12  13
ENDBRANCH   5   7
ENDBRANCH   2   3
ENDBRANCH   1   2
BRANCH   1  63
ATOM     63  C   UNL A   1      36.466  22.340  25.377  1.00  0.00     0.117 C 
BRANCH  63  64
ATOM     64  N   UNL A   1      35.553  22.337  26.506  1.00  0.00    -0.355 N 
ATOM     65  C   UNL A   1      34.244  22.627  26.698  1.00  0.00     0.232 C 
ATOM     66  H   UNL A   1      35.995  22.054  27.339  1.00  0.00     0.163 HD
ATOM     67  O   UNL A   1      33.900  22.581  27.888  1.00  0.00    -0.274 OA
BRANCH  65  68
ATOM     68  C   UNL A   1      33.239  23.027  25.597  1.00  0.00     0.104 C 
ATOM     69  C   UNL A   1      33.763  24.310  24.875  1.00  0.00     0.029 C 
ATOM     70  C   UNL A   1      31.822  23.335  26.173  1.00  0.00     0.277 C 
ATOM     71  C   UNL A   1      33.519  25.594  25.682  1.00  0.00     0.063 C 
ATOM     72  N   UNL A   1      31.656  24.595  26.895  1.00  0.00    -0.345 N 
ATOM     73  C   UNL A   1      32.052  25.728  26.064  1.00  0.00     0.260 C 
ATOM     74  H   UNL A   1      30.677  24.702  27.159  1.00  0.00     0.346 HD
ATOM     75  H   UNL A   1      32.249  24.577  27.724  1.00  0.00     0.346 HD
BRANCH  68  76
ATOM     76  C   UNL A   1      33.011  21.919  24.549  1.00  0.00     0.080 C 
BRANCH  76  77
ATOM     77  C   UNL A   1      33.069  20.460  24.843  1.00  0.00     0.061 A 
ATOM     78  C   UNL A   1      32.151  19.502  25.226  1.00  0.00     0.116 A 
ATOM     79  N   UNL A   1      34.279  19.862  24.553  1.00  0.00    -0.234 NA
ATOM     80  N   UNL A   1      32.786  18.287  25.052  1.00  0.00    -0.307 N 
ATOM     81  C   UNL A   1      34.089  18.569  24.660  1.00  0.00     0.136 A 
ATOM     82  C   UNL A   1      32.292  16.984  25.145  1.00  0.00     0.093 A 
ATOM     83  C   UNL A   1      34.950  17.477  24.370  1.00  0.00     0.048 A 
ATOM     84  C   UNL A   1      33.101  15.951  24.841  1.00  0.00     0.018 A 
ATOM     85  C   UNL A   1      34.475  16.219  24.441  1.00  0.00     0.005 A 
ENDBRANCH  76  77
ENDBRANCH  68  76
ENDBRANCH  65  68
ENDBRANCH  63  64
ENDBRANCH   1  63
TORSDOF 12
ENDMDL
