MODEL 1
REMARK VINA RESULT:     -12.4      0.000      0.000
REMARK SMILES C[C@H]1CCC[C@H](C)N1C(=O)[C@H]1[C@@H](C(=O)NCCCNC(=O)c2ccc(-c3c4nc(c(-c5c(F)cccc5F)c5ccc([nH]5)c(-c5c(F)cccc5F)c5nc(c(-c6c(F)cccc6F)c6ccc3[nH]6)C=C5)C=C4)cc2)[C@H]2CC[C@@H]1O2
REMARK SMILES IDX 17 1 16 2 15 3 13 4 14 5 12 7 11 8 79 9 76 10 78 11 80 12
REMARK SMILES IDX 77 13 9 14 1 15 2 16 3 17 8 18 4 19 6 20 5 21 7 22 10 23
REMARK SMILES IDX 18 24 19 25 20 26 21 28 22 29 23 30 75 31 24 32 74 33 25 34
REMARK SMILES IDX 26 35 27 36 68 37 28 38 73 39 67 40 69 41 29 42 72 43 66 44
REMARK SMILES IDX 65 45 30 47 56 48 39 49 55 50 40 51 43 52 54 53 70 54 41 55
REMARK SMILES IDX 42 56 53 58 71 59 44 60 31 61 32 62 37 63 33 64 34 65 36 66
REMARK SMILES IDX 38 67 35 68 57 69 58 70 63 71 59 72 60 73 62 74 64 75 61 76
REMARK SMILES IDX 45 77 46 78 51 79 47 80 48 81 50 82 52 83 49 84
REMARK H PARENT 15 6 19 27 69 46 43 57
REMARK Flexibility Score: inf
ROOT
ATOM      1  C   UNL A   1      32.418  28.891  27.260  1.00  0.00     0.042 C 
ENDROOT
BRANCH   1   2
ATOM      2  C   UNL A   1      32.557  27.461  26.759  1.00  0.00     0.117 C 
BRANCH   2   3
ATOM      3  N   UNL A   1      31.324  26.695  26.830  1.00  0.00    -0.356 N 
ATOM      4  C   UNL A   1      30.564  26.016  25.946  1.00  0.00     0.226 C 
ATOM      5  O   UNL A   1      29.569  25.473  26.452  1.00  0.00    -0.275 OA
ATOM      6  H   UNL A   1      30.954  26.666  27.742  1.00  0.00     0.163 HD
BRANCH   4   7
ATOM      7  C   UNL A   1      30.721  25.937  24.437  1.00  0.00     0.122 C 
ATOM      8  C   UNL A   1      32.011  25.750  23.644  1.00  0.00     0.122 C 
ATOM      9  C   UNL A   1      32.053  27.015  22.786  1.00  0.00     0.132 C 
ATOM     10  C   UNL A   1      30.071  27.119  23.696  1.00  0.00     0.132 C 
ATOM     11  C   UNL A   1      32.072  28.359  23.512  1.00  0.00     0.035 C 
ATOM     12  O   UNL A   1      30.653  27.004  22.361  1.00  0.00    -0.373 OA
ATOM     13  C   UNL A   1      30.655  28.464  24.087  1.00  0.00     0.035 C 
BRANCH   8  14
ATOM     14  C   UNL A   1      33.262  25.230  24.314  1.00  0.00     0.229 C 
ATOM     15  C   UNL A   1      33.278  22.963  22.443  1.00  0.00     0.031 C 
ATOM     16  C   UNL A   1      33.405  22.749  23.954  1.00  0.00     0.082 C 
ATOM     17  C   UNL A   1      34.802  22.173  24.251  1.00  0.00     0.025 C 
ATOM     18  N   UNL A   1      33.124  23.928  24.811  1.00  0.00    -0.337 N 
ATOM     19  C   UNL A   1      34.983  21.871  25.734  1.00  0.00     0.004 C 
ATOM     20  C   UNL A   1      33.333  23.723  26.253  1.00  0.00     0.082 C 
ATOM     21  C   UNL A   1      34.714  23.124  26.556  1.00  0.00     0.025 C 
ATOM     22  C   UNL A   1      32.202  22.903  26.877  1.00  0.00     0.031 C 
ATOM     23  O   UNL A   1      34.294  25.885  24.417  1.00  0.00    -0.274 OA
ENDBRANCH   8  14
ENDBRANCH   4   7
ENDBRANCH   2   3
ENDBRANCH   1   2
BRANCH   1  24
ATOM     24  C   UNL A   1      33.630  29.780  27.028  1.00  0.00     0.118 C 
BRANCH  24  25
ATOM     25  N   UNL A   1      33.825  30.843  28.005  1.00  0.00    -0.352 N 
ATOM     26  C   UNL A   1      34.958  31.157  28.727  1.00  0.00     0.251 C 
ATOM     27  H   UNL A   1      33.041  31.415  28.174  1.00  0.00     0.163 HD
ATOM     28  O   UNL A   1      34.983  32.132  29.470  1.00  0.00    -0.269 OA
BRANCH  26  29
ATOM     29  C   UNL A   1      36.114  30.235  28.677  1.00  0.00     0.039 A 
ATOM     30  C   UNL A   1      36.945  30.284  27.556  1.00  0.00     0.014 A 
ATOM     31  C   UNL A   1      36.475  29.480  29.793  1.00  0.00     0.014 A 
ATOM     32  C   UNL A   1      38.212  29.703  27.614  1.00  0.00     0.010 A 
ATOM     33  C   UNL A   1      37.778  29.001  29.890  1.00  0.00     0.010 A 
ATOM     34  C   UNL A   1      38.671  29.137  28.814  1.00  0.00    -0.014 A 
BRANCH  34  35
ATOM     35  C   UNL A   1      40.092  28.733  28.985  1.00  0.00     0.031 A 
ATOM     36  C   UNL A   1      41.093  29.705  29.541  1.00  0.00     0.074 A 
ATOM     37  C   UNL A   1      40.504  27.527  28.541  1.00  0.00     0.049 A 
ATOM     38  N   UNL A   1      42.391  29.582  29.657  1.00  0.00    -0.248 NA
ATOM     39  C   UNL A   1      40.570  31.007  29.982  1.00  0.00     0.031 C 
ATOM     40  C   UNL A   1      39.655  26.519  27.901  1.00  0.00     0.029 A 
ATOM     41  N   UNL A   1      41.749  26.946  28.551  1.00  0.00    -0.354 N 
ATOM     42  C   UNL A   1      42.840  30.801  30.145  1.00  0.00     0.074 A 
ATOM     43  C   UNL A   1      41.685  31.666  30.251  1.00  0.00     0.031 C 
ATOM     44  C   UNL A   1      40.394  25.435  27.613  1.00  0.00     0.029 A 
ATOM     45  C   UNL A   1      41.774  25.681  28.016  1.00  0.00     0.049 A 
ATOM     46  H   UNL A   1      42.548  27.395  28.909  1.00  0.00     0.167 HD
ATOM     47  C   UNL A   1      44.096  31.162  30.501  1.00  0.00     0.037 A 
ATOM     48  C   UNL A   1      42.793  24.813  27.868  1.00  0.00     0.037 A 
ATOM     49  C   UNL A   1      45.234  30.284  30.448  1.00  0.00     0.049 A 
ATOM     50  C   UNL A   1      44.165  25.206  28.340  1.00  0.00     0.074 A 
ATOM     51  C   UNL A   1      46.533  30.529  30.855  1.00  0.00     0.029 A 
ATOM     52  N   UNL A   1      45.202  28.984  29.967  1.00  0.00    -0.354 N 
ATOM     53  N   UNL A   1      44.563  26.340  28.861  1.00  0.00    -0.248 NA
ATOM     54  C   UNL A   1      45.226  24.197  28.210  1.00  0.00     0.031 C 
ATOM     55  C   UNL A   1      47.293  29.381  30.604  1.00  0.00     0.029 A 
ATOM     56  C   UNL A   1      46.460  28.413  30.066  1.00  0.00     0.049 A 
ATOM     57  H   UNL A   1      44.403  28.534  29.609  1.00  0.00     0.167 HD
ATOM     58  C   UNL A   1      45.913  26.177  29.139  1.00  0.00     0.074 A 
ATOM     59  C   UNL A   1      46.264  24.829  28.742  1.00  0.00     0.031 C 
ATOM     60  C   UNL A   1      46.785  27.066  29.674  1.00  0.00     0.037 A 
BRANCH  47  61
ATOM     61  C   UNL A   1      44.286  32.567  30.991  1.00  0.00     0.057 A 
ATOM     62  C   UNL A   1      44.159  32.897  32.346  1.00  0.00     0.134 A 
ATOM     63  C   UNL A   1      44.582  33.603  30.097  1.00  0.00     0.134 A 
ATOM     64  F   UNL A   1      43.858  31.953  33.250  1.00  0.00    -0.206 F 
ATOM     65  C   UNL A   1      44.276  34.214  32.790  1.00  0.00     0.040 A 
ATOM     66  C   UNL A   1      44.729  34.921  30.533  1.00  0.00     0.040 A 
ATOM     67  F   UNL A   1      44.721  33.355  28.786  1.00  0.00    -0.206 F 
ATOM     68  C   UNL A   1      44.565  35.231  31.882  1.00  0.00     0.006 A 
ENDBRANCH  47  61
BRANCH  48  69
ATOM     69  C   UNL A   1      42.545  23.470  27.290  1.00  0.00     0.057 A 
ATOM     70  C   UNL A   1      42.160  22.398  28.104  1.00  0.00     0.134 A 
ATOM     71  C   UNL A   1      42.677  23.224  25.918  1.00  0.00     0.134 A 
ATOM     72  F   UNL A   1      42.034  22.570  29.429  1.00  0.00    -0.206 F 
ATOM     73  C   UNL A   1      41.926  21.126  27.578  1.00  0.00     0.040 A 
ATOM     74  C   UNL A   1      42.428  21.962  25.376  1.00  0.00     0.040 A 
ATOM     75  F   UNL A   1      43.036  24.212  25.085  1.00  0.00    -0.206 F 
ATOM     76  C   UNL A   1      42.056  20.907  26.208  1.00  0.00     0.006 A 
ENDBRANCH  48  69
BRANCH  60  77
ATOM     77  C   UNL A   1      48.193  26.600  29.886  1.00  0.00     0.057 A 
ATOM     78  C   UNL A   1      48.581  25.946  31.061  1.00  0.00     0.134 A 
ATOM     79  C   UNL A   1      49.156  26.765  28.884  1.00  0.00     0.134 A 
ATOM     80  F   UNL A   1      47.706  25.772  32.063  1.00  0.00    -0.206 F 
ATOM     81  C   UNL A   1      49.886  25.484  31.238  1.00  0.00     0.040 A 
ATOM     82  C   UNL A   1      50.457  26.290  29.041  1.00  0.00     0.040 A 
ATOM     83  F   UNL A   1      48.843  27.379  27.733  1.00  0.00    -0.206 F 
ATOM     84  C   UNL A   1      50.826  25.649  30.223  1.00  0.00     0.006 A 
ENDBRANCH  60  77
ENDBRANCH  34  35
ENDBRANCH  26  29
ENDBRANCH  24  25
ENDBRANCH   1  24
TORSDOF 11
ENDMDL
MODEL 2
REMARK VINA RESULT:     -12.2      1.865      6.632
REMARK SMILES C[C@H]1CCC[C@H](C)N1C(=O)[C@H]1[C@@H](C(=O)NCCCNC(=O)c2ccc(-c3c4nc(c(-c5c(F)cccc5F)c5ccc([nH]5)c(-c5c(F)cccc5F)c5nc(c(-c6c(F)cccc6F)c6ccc3[nH]6)C=C5)C=C4)cc2)[C@H]2CC[C@@H]1O2
REMARK SMILES IDX 17 1 16 2 15 3 13 4 14 5 12 7 11 8 79 9 76 10 78 11 80 12
REMARK SMILES IDX 77 13 9 14 1 15 2 16 3 17 8 18 4 19 6 20 5 21 7 22 10 23
REMARK SMILES IDX 18 24 19 25 20 26 21 28 22 29 23 30 75 31 24 32 74 33 25 34
REMARK SMILES IDX 26 35 27 36 68 37 28 38 73 39 67 40 69 41 29 42 72 43 66 44
REMARK SMILES IDX 65 45 30 47 56 48 39 49 55 50 40 51 43 52 54 53 70 54 41 55
REMARK SMILES IDX 42 56 53 58 71 59 44 60 31 61 32 62 37 63 33 64 34 65 36 66
REMARK SMILES IDX 38 67 35 68 57 69 58 70 63 71 59 72 60 73 62 74 64 75 61 76
REMARK SMILES IDX 45 77 46 78 51 79 47 80 48 81 50 82 52 83 49 84
REMARK H PARENT 15 6 19 27 69 46 43 57
REMARK Flexibility Score: inf
ROOT
ATOM      1  C   UNL A   1      33.988  29.135  27.250  1.00  0.00     0.042 C 
ENDROOT
BRANCH   1   2
ATOM      2  C   UNL A   1      33.154  29.102  25.977  1.00  0.00     0.117 C 
BRANCH   2   3
ATOM      3  N   UNL A   1      33.603  28.116  25.010  1.00  0.00    -0.356 N 
ATOM      4  C   UNL A   1      33.496  26.777  24.884  1.00  0.00     0.226 C 
ATOM      5  O   UNL A   1      34.028  26.324  23.858  1.00  0.00    -0.275 OA
ATOM      6  H   UNL A   1      34.108  28.522  24.268  1.00  0.00     0.163 HD
BRANCH   4   7
ATOM      7  C   UNL A   1      32.916  25.783  25.877  1.00  0.00     0.122 C 
ATOM      8  C   UNL A   1      32.919  24.260  25.779  1.00  0.00     0.122 C 
ATOM      9  C   UNL A   1      31.427  23.929  25.784  1.00  0.00     0.132 C 
ATOM     10  C   UNL A   1      31.445  26.066  26.230  1.00  0.00     0.132 C 
ATOM     11  C   UNL A   1      30.568  24.524  24.670  1.00  0.00     0.035 C 
ATOM     12  O   UNL A   1      31.038  24.821  26.876  1.00  0.00    -0.373 OA
ATOM     13  C   UNL A   1      30.520  26.015  25.028  1.00  0.00     0.035 C 
BRANCH   8  14
ATOM     14  C   UNL A   1      33.865  23.548  24.838  1.00  0.00     0.229 C 
ATOM     15  C   UNL A   1      33.727  21.170  26.559  1.00  0.00     0.031 C 
ATOM     16  C   UNL A   1      35.071  21.749  26.107  1.00  0.00     0.082 C 
ATOM     17  C   UNL A   1      35.764  20.722  25.192  1.00  0.00     0.025 C 
ATOM     18  N   UNL A   1      35.028  23.087  25.466  1.00  0.00    -0.337 N 
ATOM     19  C   UNL A   1      37.142  21.200  24.750  1.00  0.00     0.004 C 
ATOM     20  C   UNL A   1      36.318  23.587  24.964  1.00  0.00     0.082 C 
ATOM     21  C   UNL A   1      37.028  22.559  24.072  1.00  0.00     0.025 C 
ATOM     22  C   UNL A   1      37.216  24.076  26.103  1.00  0.00     0.031 C 
ATOM     23  O   UNL A   1      33.638  23.394  23.643  1.00  0.00    -0.274 OA
ENDBRANCH   8  14
ENDBRANCH   4   7
ENDBRANCH   2   3
ENDBRANCH   1   2
BRANCH   1  24
ATOM     24  C   UNL A   1      34.775  30.416  27.477  1.00  0.00     0.118 C 
BRANCH  24  25
ATOM     25  N   UNL A   1      34.920  30.826  28.868  1.00  0.00    -0.352 N 
ATOM     26  C   UNL A   1      35.986  30.630  29.721  1.00  0.00     0.251 C 
ATOM     27  H   UNL A   1      34.151  31.307  29.252  1.00  0.00     0.163 HD
ATOM     28  O   UNL A   1      35.981  31.097  30.855  1.00  0.00    -0.269 OA
BRANCH  26  29
ATOM     29  C   UNL A   1      37.096  29.752  29.286  1.00  0.00     0.039 A 
ATOM     30  C   UNL A   1      37.578  29.900  27.984  1.00  0.00     0.014 A 
ATOM     31  C   UNL A   1      37.766  28.941  30.202  1.00  0.00     0.014 A 
ATOM     32  C   UNL A   1      38.819  29.360  27.646  1.00  0.00     0.010 A 
ATOM     33  C   UNL A   1      39.051  28.502  29.898  1.00  0.00     0.010 A 
ATOM     34  C   UNL A   1      39.605  28.736  28.627  1.00  0.00    -0.014 A 
BRANCH  34  35
ATOM     35  C   UNL A   1      41.022  28.370  28.367  1.00  0.00     0.031 A 
ATOM     36  C   UNL A   1      41.383  26.964  27.983  1.00  0.00     0.074 A 
ATOM     37  C   UNL A   1      41.998  29.279  28.579  1.00  0.00     0.049 A 
ATOM     38  N   UNL A   1      42.566  26.425  27.831  1.00  0.00    -0.248 NA
ATOM     39  C   UNL A   1      40.266  26.027  27.794  1.00  0.00     0.031 C 
ATOM     40  C   UNL A   1      41.795  30.656  29.037  1.00  0.00     0.029 A 
ATOM     41  N   UNL A   1      43.361  29.176  28.447  1.00  0.00    -0.354 N 
ATOM     42  C   UNL A   1      42.334  25.083  27.566  1.00  0.00     0.074 A 
ATOM     43  C   UNL A   1      40.903  24.878  27.634  1.00  0.00     0.031 C 
ATOM     44  C   UNL A   1      42.984  31.277  29.112  1.00  0.00     0.029 A 
ATOM     45  C   UNL A   1      44.036  30.336  28.743  1.00  0.00     0.049 A 
ATOM     46  H   UNL A   1      43.813  28.348  28.167  1.00  0.00     0.167 HD
ATOM     47  C   UNL A   1      43.227  24.110  27.265  1.00  0.00     0.037 A 
ATOM     48  C   UNL A   1      45.353  30.614  28.718  1.00  0.00     0.037 A 
ATOM     49  C   UNL A   1      44.643  24.324  27.143  1.00  0.00     0.049 A 
ATOM     50  C   UNL A   1      46.321  29.540  28.307  1.00  0.00     0.074 A 
ATOM     51  C   UNL A   1      45.624  23.422  26.770  1.00  0.00     0.029 A 
ATOM     52  N   UNL A   1      45.278  25.534  27.380  1.00  0.00    -0.354 N 
ATOM     53  N   UNL A   1      46.080  28.290  27.996  1.00  0.00    -0.248 NA
ATOM     54  C   UNL A   1      47.740  29.916  28.238  1.00  0.00     0.031 C 
ATOM     55  C   UNL A   1      46.858  24.084  26.799  1.00  0.00     0.029 A 
ATOM     56  C   UNL A   1      46.640  25.402  27.162  1.00  0.00     0.049 A 
ATOM     57  H   UNL A   1      44.828  26.363  27.661  1.00  0.00     0.167 HD
ATOM     58  C   UNL A   1      47.312  27.735  27.675  1.00  0.00     0.074 A 
ATOM     59  C   UNL A   1      48.297  28.789  27.816  1.00  0.00     0.031 C 
ATOM     60  C   UNL A   1      47.601  26.466  27.299  1.00  0.00     0.037 A 
BRANCH  47  61
ATOM     61  C   UNL A   1      42.680  22.732  27.037  1.00  0.00     0.057 A 
ATOM     62  C   UNL A   1      42.253  21.924  28.099  1.00  0.00     0.134 A 
ATOM     63  C   UNL A   1      42.596  22.199  25.745  1.00  0.00     0.134 A 
ATOM     64  F   UNL A   1      42.325  22.369  29.363  1.00  0.00    -0.206 F 
ATOM     65  C   UNL A   1      41.801  20.621  27.889  1.00  0.00     0.040 A 
ATOM     66  C   UNL A   1      42.120  20.907  25.519  1.00  0.00     0.040 A 
ATOM     67  F   UNL A   1      42.985  22.921  24.683  1.00  0.00    -0.206 F 
ATOM     68  C   UNL A   1      41.731  20.110  26.595  1.00  0.00     0.006 A 
ENDBRANCH  47  61
BRANCH  48  69
ATOM     69  C   UNL A   1      45.829  31.980  29.046  1.00  0.00     0.057 A 
ATOM     70  C   UNL A   1      45.895  32.972  28.061  1.00  0.00     0.134 A 
ATOM     71  C   UNL A   1      46.220  32.331  30.343  1.00  0.00     0.134 A 
ATOM     72  F   UNL A   1      45.550  32.690  26.795  1.00  0.00    -0.206 F 
ATOM     73  C   UNL A   1      46.344  34.262  28.350  1.00  0.00     0.040 A 
ATOM     74  C   UNL A   1      46.653  33.622  30.651  1.00  0.00     0.040 A 
ATOM     75  F   UNL A   1      46.172  31.427  31.332  1.00  0.00    -0.206 F 
ATOM     76  C   UNL A   1      46.721  34.591  29.651  1.00  0.00     0.006 A 
ENDBRANCH  48  69
BRANCH  60  77
ATOM     77  C   UNL A   1      49.033  26.155  26.988  1.00  0.00     0.057 A 
ATOM     78  C   UNL A   1      49.911  25.679  27.969  1.00  0.00     0.134 A 
ATOM     79  C   UNL A   1      49.525  26.288  25.684  1.00  0.00     0.134 A 
ATOM     80  F   UNL A   1      49.502  25.544  29.239  1.00  0.00    -0.206 F 
ATOM     81  C   UNL A   1      51.235  25.358  27.665  1.00  0.00     0.040 A 
ATOM     82  C   UNL A   1      50.839  25.953  25.364  1.00  0.00     0.040 A 
ATOM     83  F   UNL A   1      48.729  26.735  24.699  1.00  0.00    -0.206 F 
ATOM     84  C   UNL A   1      51.700  25.488  26.358  1.00  0.00     0.006 A 
ENDBRANCH  60  77
ENDBRANCH  34  35
ENDBRANCH  26  29
ENDBRANCH  24  25
ENDBRANCH   1  24
TORSDOF 11
ENDMDL
MODEL 3
REMARK VINA RESULT:     -12.2      1.849      2.701
REMARK SMILES C[C@H]1CCC[C@H](C)N1C(=O)[C@H]1[C@@H](C(=O)NCCCNC(=O)c2ccc(-c3c4nc(c(-c5c(F)cccc5F)c5ccc([nH]5)c(-c5c(F)cccc5F)c5nc(c(-c6c(F)cccc6F)c6ccc3[nH]6)C=C5)C=C4)cc2)[C@H]2CC[C@@H]1O2
REMARK SMILES IDX 17 1 16 2 15 3 13 4 14 5 12 7 11 8 79 9 76 10 78 11 80 12
REMARK SMILES IDX 77 13 9 14 1 15 2 16 3 17 8 18 4 19 6 20 5 21 7 22 10 23
REMARK SMILES IDX 18 24 19 25 20 26 21 28 22 29 23 30 75 31 24 32 74 33 25 34
REMARK SMILES IDX 26 35 27 36 68 37 28 38 73 39 67 40 69 41 29 42 72 43 66 44
REMARK SMILES IDX 65 45 30 47 56 48 39 49 55 50 40 51 43 52 54 53 70 54 41 55
REMARK SMILES IDX 42 56 53 58 71 59 44 60 31 61 32 62 37 63 33 64 34 65 36 66
REMARK SMILES IDX 38 67 35 68 57 69 58 70 63 71 59 72 60 73 62 74 64 75 61 76
REMARK SMILES IDX 45 77 46 78 51 79 47 80 48 81 50 82 52 83 49 84
REMARK H PARENT 15 6 19 27 69 46 43 57
REMARK Flexibility Score: inf
ROOT
ATOM      1  C   UNL A   1      33.923  29.250  27.200  1.00  0.00     0.042 C 
ENDROOT
BRANCH   1   2
ATOM      2  C   UNL A   1      33.136  29.212  25.898  1.00  0.00     0.117 C 
BRANCH   2   3
ATOM      3  N   UNL A   1      33.601  28.200  24.965  1.00  0.00    -0.356 N 
ATOM      4  C   UNL A   1      33.554  26.853  24.908  1.00  0.00     0.226 C 
ATOM      5  O   UNL A   1      34.074  26.375  23.887  1.00  0.00    -0.275 OA
ATOM      6  H   UNL A   1      34.062  28.592  24.188  1.00  0.00     0.163 HD
BRANCH   4   7
ATOM      7  C   UNL A   1      33.053  25.884  25.966  1.00  0.00     0.122 C 
ATOM      8  C   UNL A   1      33.060  24.359  25.908  1.00  0.00     0.122 C 
ATOM      9  C   UNL A   1      31.574  24.022  26.031  1.00  0.00     0.132 C 
ATOM     10  C   UNL A   1      31.610  26.170  26.417  1.00  0.00     0.132 C 
ATOM     11  C   UNL A   1      30.632  24.583  24.967  1.00  0.00     0.035 C 
ATOM     12  O   UNL A   1      31.259  24.942  27.124  1.00  0.00    -0.373 OA
ATOM     13  C   UNL A   1      30.601  26.082  25.287  1.00  0.00     0.035 C 
BRANCH   8  14
ATOM     14  C   UNL A   1      33.939  23.626  24.921  1.00  0.00     0.229 C 
ATOM     15  C   UNL A   1      33.829  21.248  26.644  1.00  0.00     0.031 C 
ATOM     16  C   UNL A   1      35.162  21.794  26.126  1.00  0.00     0.082 C 
ATOM     17  C   UNL A   1      35.782  20.753  25.176  1.00  0.00     0.025 C 
ATOM     18  N   UNL A   1      35.120  23.135  25.490  1.00  0.00    -0.337 N 
ATOM     19  C   UNL A   1      37.148  21.198  24.667  1.00  0.00     0.004 C 
ATOM     20  C   UNL A   1      36.396  23.603  24.925  1.00  0.00     0.082 C 
ATOM     21  C   UNL A   1      37.034  22.561  23.997  1.00  0.00     0.025 C 
ATOM     22  C   UNL A   1      37.361  24.068  26.018  1.00  0.00     0.031 C 
ATOM     23  O   UNL A   1      33.648  23.481  23.738  1.00  0.00    -0.274 OA
ENDBRANCH   8  14
ENDBRANCH   4   7
ENDBRANCH   2   3
ENDBRANCH   1   2
BRANCH   1  24
ATOM     24  C   UNL A   1      34.716  30.526  27.443  1.00  0.00     0.118 C 
BRANCH  24  25
ATOM     25  N   UNL A   1      34.835  30.936  28.835  1.00  0.00    -0.352 N 
ATOM     26  C   UNL A   1      35.867  30.704  29.721  1.00  0.00     0.251 C 
ATOM     27  H   UNL A   1      34.074  31.450  29.193  1.00  0.00     0.163 HD
ATOM     28  O   UNL A   1      35.846  31.177  30.852  1.00  0.00    -0.269 OA
BRANCH  26  29
ATOM     29  C   UNL A   1      36.954  29.781  29.323  1.00  0.00     0.039 A 
ATOM     30  C   UNL A   1      37.472  29.896  28.032  1.00  0.00     0.014 A 
ATOM     31  C   UNL A   1      37.572  28.958  30.264  1.00  0.00     0.014 A 
ATOM     32  C   UNL A   1      38.700  29.307  27.730  1.00  0.00     0.010 A 
ATOM     33  C   UNL A   1      38.847  28.470  29.997  1.00  0.00     0.010 A 
ATOM     34  C   UNL A   1      39.439  28.667  28.738  1.00  0.00    -0.014 A 
BRANCH  34  35
ATOM     35  C   UNL A   1      40.848  28.248  28.516  1.00  0.00     0.031 A 
ATOM     36  C   UNL A   1      41.958  29.258  28.587  1.00  0.00     0.074 A 
ATOM     37  C   UNL A   1      41.120  26.978  28.146  1.00  0.00     0.049 A 
ATOM     38  N   UNL A   1      43.229  29.112  28.310  1.00  0.00    -0.248 NA
ATOM     39  C   UNL A   1      41.579  30.624  28.974  1.00  0.00     0.031 C 
ATOM     40  C   UNL A   1      40.128  25.916  27.955  1.00  0.00     0.029 A 
ATOM     41  N   UNL A   1      42.314  26.366  27.854  1.00  0.00    -0.354 N 
ATOM     42  C   UNL A   1      43.789  30.373  28.453  1.00  0.00     0.074 A 
ATOM     43  C   UNL A   1      42.713  31.281  28.785  1.00  0.00     0.031 C 
ATOM     44  C   UNL A   1      40.758  24.780  27.613  1.00  0.00     0.029 A 
ATOM     45  C   UNL A   1      42.190  25.037  27.528  1.00  0.00     0.049 A 
ATOM     46  H   UNL A   1      43.178  26.837  27.877  1.00  0.00     0.167 HD
ATOM     47  C   UNL A   1      45.088  30.742  28.345  1.00  0.00     0.037 A 
ATOM     48  C   UNL A   1      43.126  24.126  27.198  1.00  0.00     0.037 A 
ATOM     49  C   UNL A   1      46.166  29.831  28.070  1.00  0.00     0.049 A 
ATOM     50  C   UNL A   1      44.570  24.540  27.159  1.00  0.00     0.074 A 
ATOM     51  C   UNL A   1      47.524  30.091  28.013  1.00  0.00     0.029 A 
ATOM     52  N   UNL A   1      46.005  28.477  27.817  1.00  0.00    -0.354 N 
ATOM     53  N   UNL A   1      45.093  25.724  27.360  1.00  0.00    -0.248 NA
ATOM     54  C   UNL A   1      45.553  23.490  26.854  1.00  0.00     0.031 C 
ATOM     55  C   UNL A   1      48.184  28.895  27.708  1.00  0.00     0.029 A 
ATOM     56  C   UNL A   1      47.240  27.887  27.602  1.00  0.00     0.049 A 
ATOM     57  H   UNL A   1      45.142  28.005  27.793  1.00  0.00     0.167 HD
ATOM     58  C   UNL A   1      46.466  25.560  27.226  1.00  0.00     0.074 A 
ATOM     59  C   UNL A   1      46.695  24.158  26.940  1.00  0.00     0.031 C 
ATOM     60  C   UNL A   1      47.447  26.489  27.329  1.00  0.00     0.037 A 
BRANCH  47  61
ATOM     61  C   UNL A   1      45.401  32.196  28.542  1.00  0.00     0.057 A 
ATOM     62  C   UNL A   1      45.661  32.727  29.811  1.00  0.00     0.134 A 
ATOM     63  C   UNL A   1      45.423  33.078  27.455  1.00  0.00     0.134 A 
ATOM     64  F   UNL A   1      45.637  31.938  30.897  1.00  0.00    -0.206 F 
ATOM     65  C   UNL A   1      45.891  34.090  29.999  1.00  0.00     0.040 A 
ATOM     66  C   UNL A   1      45.679  34.438  27.626  1.00  0.00     0.040 A 
ATOM     67  F   UNL A   1      45.185  32.633  26.211  1.00  0.00    -0.206 F 
ATOM     68  C   UNL A   1      45.904  34.950  28.903  1.00  0.00     0.006 A 
ENDBRANCH  47  61
BRANCH  48  69
ATOM     69  C   UNL A   1      42.730  22.723  26.927  1.00  0.00     0.057 A 
ATOM     70  C   UNL A   1      42.359  21.867  27.971  1.00  0.00     0.134 A 
ATOM     71  C   UNL A   1      42.704  22.204  25.627  1.00  0.00     0.134 A 
ATOM     72  F   UNL A   1      42.382  22.303  29.240  1.00  0.00    -0.206 F 
ATOM     73  C   UNL A   1      41.988  20.542  27.736  1.00  0.00     0.040 A 
ATOM     74  C   UNL A   1      42.316  20.887  25.375  1.00  0.00     0.040 A 
ATOM     75  F   UNL A   1      43.040  22.976  24.584  1.00  0.00    -0.206 F 
ATOM     76  C   UNL A   1      41.961  20.050  26.432  1.00  0.00     0.006 A 
ENDBRANCH  48  69
BRANCH  60  77
ATOM     77  C   UNL A   1      48.858  26.014  27.158  1.00  0.00     0.057 A 
ATOM     78  C   UNL A   1      49.486  26.012  25.907  1.00  0.00     0.134 A 
ATOM     79  C   UNL A   1      49.609  25.600  28.265  1.00  0.00     0.134 A 
ATOM     80  F   UNL A   1      48.812  26.384  24.808  1.00  0.00    -0.206 F 
ATOM     81  C   UNL A   1      50.811  25.600  25.761  1.00  0.00     0.040 A 
ATOM     82  C   UNL A   1      50.940  25.205  28.134  1.00  0.00     0.040 A 
ATOM     83  F   UNL A   1      49.064  25.585  29.491  1.00  0.00    -0.206 F 
ATOM     84  C   UNL A   1      51.544  25.203  26.877  1.00  0.00     0.006 A 
ENDBRANCH  60  77
ENDBRANCH  34  35
ENDBRANCH  26  29
ENDBRANCH  24  25
ENDBRANCH   1  24
TORSDOF 11
ENDMDL
