MODEL 1
REMARK VINA RESULT:     -11.7      0.000      0.000
REMARK SMILES Cc1ccc([C@@](C)(CC(=O)NCCCNC(=O)c2ccc(-c3c4nc(c(-c5c(F)cccc5F)c5ccc([nH]5)c(-c5c(F)cccc5F)c5nc(c(-c6c(F)cccc6F)c6ccc3[nH]6)C=C5)C=C4)cc2)[C@H](C)[NH3+])cc1F
REMARK SMILES IDX 12 1 11 2 9 3 10 4 8 6 6 7 7 8 5 9 1 10 2 11 3 12 76 13 4 14
REMARK SMILES IDX 75 15 77 16 72 17 73 18 74 19 13 23 14 24 15 25 16 26 17 28
REMARK SMILES IDX 18 29 19 30 71 31 20 32 70 33 21 34 22 35 23 36 64 37 24 38
REMARK SMILES IDX 69 39 63 40 65 41 25 42 68 43 62 44 61 45 26 47 52 48 35 49
REMARK SMILES IDX 51 50 36 51 39 52 50 53 66 54 37 55 38 56 49 58 67 59 40 60
REMARK SMILES IDX 27 61 28 62 33 63 29 64 30 65 32 66 34 67 31 68 53 69 54 70
REMARK SMILES IDX 59 71 55 72 56 73 58 74 60 75 57 76 41 77 42 78 47 79 43 80
REMARK SMILES IDX 44 81 46 82 48 83 45 84
REMARK H PARENT 11 5 74 20 74 21 74 22 15 27 65 46 39 57
REMARK Flexibility Score: inf
ROOT
ATOM      1  C   UNL A   1      31.835  30.061  25.468  1.00  0.00     0.117 C 
ENDROOT
BRANCH   1   2
ATOM      2  N   UNL A   1      32.990  29.575  24.745  1.00  0.00    -0.356 N 
ATOM      3  C   UNL A   1      33.140  28.383  24.101  1.00  0.00     0.221 C 
ATOM      4  O   UNL A   1      34.233  28.136  23.590  1.00  0.00    -0.275 OA
ATOM      5  H   UNL A   1      33.766  30.181  24.715  1.00  0.00     0.163 HD
BRANCH   3   6
ATOM      6  C   UNL A   1      31.967  27.420  23.953  1.00  0.00     0.117 C 
BRANCH   6   7
ATOM      7  C   UNL A   1      31.888  26.121  24.847  1.00  0.00     0.053 C 
ATOM      8  C   UNL A   1      32.232  26.598  26.295  1.00  0.00     0.023 C 
BRANCH   7   9
ATOM      9  C   UNL A   1      33.016  25.081  24.540  1.00  0.00    -0.033 A 
ATOM     10  C   UNL A   1      36.583  22.974  23.254  1.00  0.00     0.047 C 
ATOM     11  C   UNL A   1      35.297  23.539  23.778  1.00  0.00    -0.015 A 
ATOM     12  C   UNL A   1      34.117  23.476  23.038  1.00  0.00     0.007 A 
ATOM     13  C   UNL A   1      35.268  24.225  24.991  1.00  0.00     0.126 A 
ATOM     14  C   UNL A   1      32.986  24.214  23.430  1.00  0.00     0.005 A 
ATOM     15  C   UNL A   1      34.156  24.985  25.369  1.00  0.00     0.044 A 
ATOM     16  F   UNL A   1      36.378  24.296  25.740  1.00  0.00    -0.207 F 
ENDBRANCH   7   9
BRANCH   7  17
ATOM     17  C   UNL A   1      30.414  25.509  24.875  1.00  0.00     0.188 C 
ATOM     18  C   UNL A   1      29.309  26.317  24.158  1.00  0.00     0.076 C 
BRANCH  17  19
ATOM     19  N   UNL A   1      29.897  25.214  26.220  1.00  0.00    -0.355 N 
ATOM     20  H   UNL A   1      29.042  24.664  26.142  1.00  0.00     0.344 HD
ATOM     21  H   UNL A   1      29.698  26.087  26.707  1.00  0.00     0.344 HD
ATOM     22  H   UNL A   1      30.595  24.684  26.743  1.00  0.00     0.344 HD
ENDBRANCH  17  19
ENDBRANCH   7  17
ENDBRANCH   6   7
ENDBRANCH   3   6
ENDBRANCH   1   2
BRANCH   1  23
ATOM     23  C   UNL A   1      32.214  30.334  26.895  1.00  0.00     0.042 C 
BRANCH  23  24
ATOM     24  C   UNL A   1      33.659  30.131  27.194  1.00  0.00     0.118 C 
BRANCH  24  25
ATOM     25  N   UNL A   1      34.254  31.381  27.639  1.00  0.00    -0.352 N 
ATOM     26  C   UNL A   1      35.289  31.557  28.528  1.00  0.00     0.251 C 
ATOM     27  H   UNL A   1      33.869  32.204  27.257  1.00  0.00     0.163 HD
ATOM     28  O   UNL A   1      35.415  32.610  29.130  1.00  0.00    -0.269 OA
BRANCH  26  29
ATOM     29  C   UNL A   1      36.301  30.492  28.669  1.00  0.00     0.039 A 
ATOM     30  C   UNL A   1      36.350  29.711  29.834  1.00  0.00     0.014 A 
ATOM     31  C   UNL A   1      37.316  30.400  27.721  1.00  0.00     0.014 A 
ATOM     32  C   UNL A   1      37.508  28.992  30.100  1.00  0.00     0.010 A 
ATOM     33  C   UNL A   1      38.291  29.480  27.840  1.00  0.00     0.010 A 
ATOM     34  C   UNL A   1      38.486  28.972  29.113  1.00  0.00    -0.014 A 
BRANCH  34  35
ATOM     35  C   UNL A   1      39.858  28.566  29.259  1.00  0.00     0.031 A 
ATOM     36  C   UNL A   1      40.184  27.207  28.877  1.00  0.00     0.074 A 
ATOM     37  C   UNL A   1      40.720  29.608  29.342  1.00  0.00     0.049 A 
ATOM     38  N   UNL A   1      41.296  26.638  29.140  1.00  0.00    -0.248 NA
ATOM     39  C   UNL A   1      39.231  26.345  28.185  1.00  0.00     0.031 C 
ATOM     40  C   UNL A   1      42.121  29.730  28.985  1.00  0.00     0.029 A 
ATOM     41  N   UNL A   1      40.409  30.871  29.869  1.00  0.00    -0.354 N 
ATOM     42  C   UNL A   1      41.357  25.524  28.337  1.00  0.00     0.074 A 
ATOM     43  C   UNL A   1      39.991  25.273  27.953  1.00  0.00     0.031 C 
ATOM     44  C   UNL A   1      42.621  30.824  29.596  1.00  0.00     0.029 A 
ATOM     45  C   UNL A   1      41.583  31.344  30.478  1.00  0.00     0.049 A 
ATOM     46  H   UNL A   1      39.541  31.333  29.821  1.00  0.00     0.167 HD
ATOM     47  C   UNL A   1      42.593  25.094  27.954  1.00  0.00     0.037 A 
ATOM     48  C   UNL A   1      41.600  31.314  31.848  1.00  0.00     0.037 A 
ATOM     49  C   UNL A   1      43.622  25.951  28.578  1.00  0.00     0.049 A 
ATOM     50  C   UNL A   1      42.451  30.172  32.381  1.00  0.00     0.074 A 
ATOM     51  C   UNL A   1      44.402  27.012  28.144  1.00  0.00     0.029 A 
ATOM     52  N   UNL A   1      43.662  26.012  29.961  1.00  0.00    -0.354 N 
ATOM     53  N   UNL A   1      43.036  29.274  31.632  1.00  0.00    -0.248 NA
ATOM     54  C   UNL A   1      42.679  29.931  33.802  1.00  0.00     0.031 C 
ATOM     55  C   UNL A   1      44.855  27.734  29.301  1.00  0.00     0.029 A 
ATOM     56  C   UNL A   1      44.369  27.101  30.433  1.00  0.00     0.049 A 
ATOM     57  H   UNL A   1      43.231  25.349  30.546  1.00  0.00     0.167 HD
ATOM     58  C   UNL A   1      43.691  28.361  32.403  1.00  0.00     0.074 A 
ATOM     59  C   UNL A   1      43.413  28.804  33.764  1.00  0.00     0.031 C 
ATOM     60  C   UNL A   1      44.400  27.310  31.881  1.00  0.00     0.037 A 
BRANCH  47  61
ATOM     61  C   UNL A   1      42.893  24.071  26.878  1.00  0.00     0.057 A 
ATOM     62  C   UNL A   1      42.776  22.699  27.172  1.00  0.00     0.134 A 
ATOM     63  C   UNL A   1      43.311  24.330  25.556  1.00  0.00     0.134 A 
ATOM     64  F   UNL A   1      42.347  22.272  28.367  1.00  0.00    -0.206 F 
ATOM     65  C   UNL A   1      43.083  21.685  26.252  1.00  0.00     0.040 A 
ATOM     66  C   UNL A   1      43.629  23.328  24.628  1.00  0.00     0.040 A 
ATOM     67  F   UNL A   1      43.421  25.558  25.053  1.00  0.00    -0.206 F 
ATOM     68  C   UNL A   1      43.521  21.995  24.975  1.00  0.00     0.006 A 
ENDBRANCH  47  61
BRANCH  48  69
ATOM     69  C   UNL A   1      40.269  31.773  32.391  1.00  0.00     0.057 A 
ATOM     70  C   UNL A   1      39.451  30.788  32.989  1.00  0.00     0.134 A 
ATOM     71  C   UNL A   1      40.074  33.091  32.821  1.00  0.00     0.134 A 
ATOM     72  F   UNL A   1      39.557  29.504  32.608  1.00  0.00    -0.206 F 
ATOM     73  C   UNL A   1      38.650  31.065  34.102  1.00  0.00     0.040 A 
ATOM     74  C   UNL A   1      39.245  33.382  33.915  1.00  0.00     0.040 A 
ATOM     75  F   UNL A   1      40.792  34.095  32.296  1.00  0.00    -0.206 F 
ATOM     76  C   UNL A   1      38.585  32.361  34.598  1.00  0.00     0.006 A 
ENDBRANCH  48  69
BRANCH  60  77
ATOM     77  C   UNL A   1      45.146  26.329  32.750  1.00  0.00     0.057 A 
ATOM     78  C   UNL A   1      46.536  26.174  32.680  1.00  0.00     0.134 A 
ATOM     79  C   UNL A   1      44.494  25.450  33.642  1.00  0.00     0.134 A 
ATOM     80  F   UNL A   1      47.261  26.822  31.756  1.00  0.00    -0.206 F 
ATOM     81  C   UNL A   1      47.238  25.327  33.544  1.00  0.00     0.040 A 
ATOM     82  C   UNL A   1      45.177  24.556  34.464  1.00  0.00     0.040 A 
ATOM     83  F   UNL A   1      43.164  25.416  33.786  1.00  0.00    -0.206 F 
ATOM     84  C   UNL A   1      46.558  24.521  34.448  1.00  0.00     0.006 A 
ENDBRANCH  60  77
ENDBRANCH  34  35
ENDBRANCH  26  29
ENDBRANCH  24  25
ENDBRANCH  23  24
ENDBRANCH   1  23
TORSDOF 14
ENDMDL
MODEL 2
REMARK VINA RESULT:     -11.5      2.992      8.014
REMARK SMILES Cc1ccc([C@@](C)(CC(=O)NCCCNC(=O)c2ccc(-c3c4nc(c(-c5c(F)cccc5F)c5ccc([nH]5)c(-c5c(F)cccc5F)c5nc(c(-c6c(F)cccc6F)c6ccc3[nH]6)C=C5)C=C4)cc2)[C@H](C)[NH3+])cc1F
REMARK SMILES IDX 12 1 11 2 9 3 10 4 8 6 6 7 7 8 5 9 1 10 2 11 3 12 76 13 4 14
REMARK SMILES IDX 75 15 77 16 72 17 73 18 74 19 13 23 14 24 15 25 16 26 17 28
REMARK SMILES IDX 18 29 19 30 71 31 20 32 70 33 21 34 22 35 23 36 64 37 24 38
REMARK SMILES IDX 69 39 63 40 65 41 25 42 68 43 62 44 61 45 26 47 52 48 35 49
REMARK SMILES IDX 51 50 36 51 39 52 50 53 66 54 37 55 38 56 49 58 67 59 40 60
REMARK SMILES IDX 27 61 28 62 33 63 29 64 30 65 32 66 34 67 31 68 53 69 54 70
REMARK SMILES IDX 59 71 55 72 56 73 58 74 60 75 57 76 41 77 42 78 47 79 43 80
REMARK SMILES IDX 44 81 46 82 48 83 45 84
REMARK H PARENT 11 5 74 20 74 21 74 22 15 27 65 46 39 57
REMARK Flexibility Score: inf
ROOT
ATOM      1  C   UNL A   1      36.058  20.950  25.299  1.00  0.00     0.117 C 
ENDROOT
BRANCH   1   2
ATOM      2  N   UNL A   1      35.536  21.735  26.397  1.00  0.00    -0.356 N 
ATOM      3  C   UNL A   1      34.376  22.448  26.444  1.00  0.00     0.221 C 
ATOM      4  O   UNL A   1      34.139  23.099  27.463  1.00  0.00    -0.275 OA
ATOM      5  H   UNL A   1      36.089  21.756  27.212  1.00  0.00     0.163 HD
BRANCH   3   6
ATOM      6  C   UNL A   1      33.366  22.380  25.303  1.00  0.00     0.117 C 
BRANCH   6   7
ATOM      7  C   UNL A   1      33.229  23.584  24.291  1.00  0.00     0.053 C 
ATOM      8  C   UNL A   1      34.691  23.916  23.848  1.00  0.00     0.023 C 
BRANCH   7   9
ATOM      9  C   UNL A   1      32.753  24.914  24.961  1.00  0.00    -0.033 A 
ATOM     10  C   UNL A   1      31.677  28.134  27.663  1.00  0.00     0.047 C 
ATOM     11  C   UNL A   1      32.000  27.139  26.589  1.00  0.00    -0.015 A 
ATOM     12  C   UNL A   1      31.035  26.264  26.090  1.00  0.00     0.007 A 
ATOM     13  C   UNL A   1      33.306  27.002  26.121  1.00  0.00     0.126 A 
ATOM     14  C   UNL A   1      31.405  25.185  25.267  1.00  0.00     0.005 A 
ATOM     15  C   UNL A   1      33.683  25.913  25.327  1.00  0.00     0.044 A 
ATOM     16  F   UNL A   1      34.260  27.833  26.564  1.00  0.00    -0.207 F 
ENDBRANCH   7   9
BRANCH   7  17
ATOM     17  C   UNL A   1      32.410  23.170  22.985  1.00  0.00     0.188 C 
ATOM     18  C   UNL A   1      32.229  21.658  22.724  1.00  0.00     0.076 C 
BRANCH  17  19
ATOM     19  N   UNL A   1      32.921  23.744  21.732  1.00  0.00    -0.355 N 
ATOM     20  H   UNL A   1      33.026  23.004  21.037  1.00  0.00     0.344 HD
ATOM     21  H   UNL A   1      33.826  24.182  21.902  1.00  0.00     0.344 HD
ATOM     22  H   UNL A   1      32.264  24.443  21.386  1.00  0.00     0.344 HD
ENDBRANCH  17  19
ENDBRANCH   7  17
ENDBRANCH   6   7
ENDBRANCH   3   6
ENDBRANCH   1   2
BRANCH   1  23
ATOM     23  C   UNL A   1      37.416  21.465  24.915  1.00  0.00     0.042 C 
BRANCH  23  24
ATOM     24  C   UNL A   1      37.927  22.555  25.792  1.00  0.00     0.118 C 
BRANCH  24  25
ATOM     25  N   UNL A   1      39.166  22.140  26.428  1.00  0.00    -0.352 N 
ATOM     26  C   UNL A   1      40.241  22.925  26.780  1.00  0.00     0.251 C 
ATOM     27  H   UNL A   1      39.248  21.180  26.633  1.00  0.00     0.163 HD
ATOM     28  O   UNL A   1      41.350  22.434  26.907  1.00  0.00    -0.269 OA
BRANCH  26  29
ATOM     29  C   UNL A   1      40.015  24.348  27.099  1.00  0.00     0.039 A 
ATOM     30  C   UNL A   1      40.418  25.348  26.202  1.00  0.00     0.014 A 
ATOM     31  C   UNL A   1      39.574  24.688  28.375  1.00  0.00     0.014 A 
ATOM     32  C   UNL A   1      40.537  26.650  26.671  1.00  0.00     0.010 A 
ATOM     33  C   UNL A   1      39.408  25.977  28.728  1.00  0.00     0.010 A 
ATOM     34  C   UNL A   1      40.099  26.902  27.966  1.00  0.00    -0.014 A 
BRANCH  34  35
ATOM     35  C   UNL A   1      40.384  28.062  28.768  1.00  0.00     0.031 A 
ATOM     36  C   UNL A   1      39.435  29.154  28.703  1.00  0.00     0.074 A 
ATOM     37  C   UNL A   1      41.265  27.818  29.768  1.00  0.00     0.049 A 
ATOM     38  N   UNL A   1      39.649  30.316  29.185  1.00  0.00    -0.248 NA
ATOM     39  C   UNL A   1      38.147  29.024  28.029  1.00  0.00     0.031 C 
ATOM     40  C   UNL A   1      41.451  28.448  31.062  1.00  0.00     0.029 A 
ATOM     41  N   UNL A   1      42.281  26.851  29.730  1.00  0.00    -0.354 N 
ATOM     42  C   UNL A   1      38.426  30.941  29.238  1.00  0.00     0.074 A 
ATOM     43  C   UNL A   1      37.596  30.203  28.320  1.00  0.00     0.031 C 
ATOM     44  C   UNL A   1      42.673  28.112  31.526  1.00  0.00     0.029 A 
ATOM     45  C   UNL A   1      43.355  27.377  30.467  1.00  0.00     0.049 A 
ATOM     46  H   UNL A   1      42.248  25.978  29.277  1.00  0.00     0.167 HD
ATOM     47  C   UNL A   1      38.243  31.877  30.212  1.00  0.00     0.037 A 
ATOM     48  C   UNL A   1      44.422  27.825  29.734  1.00  0.00     0.037 A 
ATOM     49  C   UNL A   1      39.496  32.035  30.979  1.00  0.00     0.049 A 
ATOM     50  C   UNL A   1      44.461  29.343  29.656  1.00  0.00     0.074 A 
ATOM     51  C   UNL A   1      39.957  31.573  32.202  1.00  0.00     0.029 A 
ATOM     52  N   UNL A   1      40.630  32.432  30.290  1.00  0.00    -0.354 N 
ATOM     53  N   UNL A   1      43.548  30.133  30.159  1.00  0.00    -0.248 NA
ATOM     54  C   UNL A   1      45.514  30.088  28.974  1.00  0.00     0.031 C 
ATOM     55  C   UNL A   1      41.392  31.652  32.196  1.00  0.00     0.029 A 
ATOM     56  C   UNL A   1      41.798  32.181  30.982  1.00  0.00     0.049 A 
ATOM     57  H   UNL A   1      40.605  32.851  29.400  1.00  0.00     0.167 HD
ATOM     58  C   UNL A   1      43.844  31.436  29.892  1.00  0.00     0.074 A 
ATOM     59  C   UNL A   1      45.079  31.353  29.121  1.00  0.00     0.031 C 
ATOM     60  C   UNL A   1      43.061  32.482  30.309  1.00  0.00     0.037 A 
BRANCH  47  61
ATOM     61  C   UNL A   1      36.923  32.493  30.629  1.00  0.00     0.057 A 
ATOM     62  C   UNL A   1      36.225  31.960  31.730  1.00  0.00     0.134 A 
ATOM     63  C   UNL A   1      36.263  33.578  30.015  1.00  0.00     0.134 A 
ATOM     64  F   UNL A   1      36.728  30.955  32.459  1.00  0.00    -0.206 F 
ATOM     65  C   UNL A   1      34.974  32.435  32.152  1.00  0.00     0.040 A 
ATOM     66  C   UNL A   1      35.009  34.058  30.421  1.00  0.00     0.040 A 
ATOM     67  F   UNL A   1      36.781  34.268  29.001  1.00  0.00    -0.206 F 
ATOM     68  C   UNL A   1      34.355  33.484  31.493  1.00  0.00     0.006 A 
ENDBRANCH  47  61
BRANCH  48  69
ATOM     69  C   UNL A   1      44.720  26.859  28.613  1.00  0.00     0.057 A 
ATOM     70  C   UNL A   1      45.150  25.565  28.985  1.00  0.00     0.134 A 
ATOM     71  C   UNL A   1      44.093  26.974  27.367  1.00  0.00     0.134 A 
ATOM     72  F   UNL A   1      45.786  25.377  30.153  1.00  0.00    -0.206 F 
ATOM     73  C   UNL A   1      44.777  24.424  28.265  1.00  0.00     0.040 A 
ATOM     74  C   UNL A   1      43.747  25.838  26.621  1.00  0.00     0.040 A 
ATOM     75  F   UNL A   1      43.670  28.166  26.922  1.00  0.00    -0.206 F 
ATOM     76  C   UNL A   1      44.029  24.559  27.102  1.00  0.00     0.006 A 
ENDBRANCH  48  69
BRANCH  60  77
ATOM     77  C   UNL A   1      43.424  33.920  30.032  1.00  0.00     0.057 A 
ATOM     78  C   UNL A   1      43.651  34.844  31.059  1.00  0.00     0.134 A 
ATOM     79  C   UNL A   1      43.489  34.453  28.726  1.00  0.00     0.134 A 
ATOM     80  F   UNL A   1      43.454  34.517  32.345  1.00  0.00    -0.206 F 
ATOM     81  C   UNL A   1      44.070  36.155  30.806  1.00  0.00     0.040 A 
ATOM     82  C   UNL A   1      43.843  35.775  28.462  1.00  0.00     0.040 A 
ATOM     83  F   UNL A   1      43.234  33.728  27.632  1.00  0.00    -0.206 F 
ATOM     84  C   UNL A   1      44.177  36.621  29.502  1.00  0.00     0.006 A 
ENDBRANCH  60  77
ENDBRANCH  34  35
ENDBRANCH  26  29
ENDBRANCH  24  25
ENDBRANCH  23  24
ENDBRANCH   1  23
TORSDOF 14
ENDMDL
MODEL 3
REMARK VINA RESULT:     -11.4      1.820      3.003
REMARK SMILES Cc1ccc([C@@](C)(CC(=O)NCCCNC(=O)c2ccc(-c3c4nc(c(-c5c(F)cccc5F)c5ccc([nH]5)c(-c5c(F)cccc5F)c5nc(c(-c6c(F)cccc6F)c6ccc3[nH]6)C=C5)C=C4)cc2)[C@H](C)[NH3+])cc1F
REMARK SMILES IDX 12 1 11 2 9 3 10 4 8 6 6 7 7 8 5 9 1 10 2 11 3 12 76 13 4 14
REMARK SMILES IDX 75 15 77 16 72 17 73 18 74 19 13 23 14 24 15 25 16 26 17 28
REMARK SMILES IDX 18 29 19 30 71 31 20 32 70 33 21 34 22 35 23 36 64 37 24 38
REMARK SMILES IDX 69 39 63 40 65 41 25 42 68 43 62 44 61 45 26 47 52 48 35 49
REMARK SMILES IDX 51 50 36 51 39 52 50 53 66 54 37 55 38 56 49 58 67 59 40 60
REMARK SMILES IDX 27 61 28 62 33 63 29 64 30 65 32 66 34 67 31 68 53 69 54 70
REMARK SMILES IDX 59 71 55 72 56 73 58 74 60 75 57 76 41 77 42 78 47 79 43 80
REMARK SMILES IDX 44 81 46 82 48 83 45 84
REMARK H PARENT 11 5 74 20 74 21 74 22 15 27 65 46 39 57
REMARK Flexibility Score: inf
ROOT
ATOM      1  C   UNL A   1      32.922  27.774  27.166  1.00  0.00     0.117 C 
ENDROOT
BRANCH   1   2
ATOM      2  N   UNL A   1      31.617  27.150  27.183  1.00  0.00    -0.356 N 
ATOM      3  C   UNL A   1      31.048  26.363  26.227  1.00  0.00     0.221 C 
ATOM      4  O   UNL A   1      29.894  25.972  26.411  1.00  0.00    -0.275 OA
ATOM      5  H   UNL A   1      31.070  27.315  27.986  1.00  0.00     0.163 HD
BRANCH   3   6
ATOM      6  C   UNL A   1      31.843  25.916  25.004  1.00  0.00     0.117 C 
BRANCH   6   7
ATOM      7  C   UNL A   1      31.766  26.743  23.662  1.00  0.00     0.053 C 
ATOM      8  C   UNL A   1      33.111  27.535  23.590  1.00  0.00     0.023 C 
BRANCH   7   9
ATOM      9  C   UNL A   1      30.689  27.877  23.686  1.00  0.00    -0.033 A 
ATOM     10  C   UNL A   1      27.898  31.072  22.777  1.00  0.00     0.047 C 
ATOM     11  C   UNL A   1      28.798  29.979  23.269  1.00  0.00    -0.015 A 
ATOM     12  C   UNL A   1      30.063  30.253  23.789  1.00  0.00     0.007 A 
ATOM     13  C   UNL A   1      28.425  28.643  23.136  1.00  0.00     0.126 A 
ATOM     14  C   UNL A   1      30.983  29.214  24.018  1.00  0.00     0.005 A 
ATOM     15  C   UNL A   1      29.347  27.608  23.335  1.00  0.00     0.044 A 
ATOM     16  F   UNL A   1      27.212  28.336  22.656  1.00  0.00    -0.207 F 
ENDBRANCH   7   9
BRANCH   7  17
ATOM     17  C   UNL A   1      31.695  25.790  22.383  1.00  0.00     0.188 C 
ATOM     18  C   UNL A   1      32.718  24.634  22.315  1.00  0.00     0.076 C 
BRANCH  17  19
ATOM     19  N   UNL A   1      31.781  26.489  21.091  1.00  0.00    -0.355 N 
ATOM     20  H   UNL A   1      30.872  26.890  20.861  1.00  0.00     0.344 HD
ATOM     21  H   UNL A   1      32.055  25.827  20.365  1.00  0.00     0.344 HD
ATOM     22  H   UNL A   1      32.475  27.233  21.153  1.00  0.00     0.344 HD
ENDBRANCH  17  19
ENDBRANCH   7  17
ENDBRANCH   6   7
ENDBRANCH   3   6
ENDBRANCH   1   2
BRANCH   1  23
ATOM     23  C   UNL A   1      32.764  29.267  27.170  1.00  0.00     0.042 C 
BRANCH  23  24
ATOM     24  C   UNL A   1      33.877  30.001  26.504  1.00  0.00     0.118 C 
BRANCH  24  25
ATOM     25  N   UNL A   1      34.214  31.191  27.268  1.00  0.00    -0.352 N 
ATOM     26  C   UNL A   1      35.012  31.283  28.385  1.00  0.00     0.251 C 
ATOM     27  H   UNL A   1      33.823  32.036  26.947  1.00  0.00     0.163 HD
ATOM     28  O   UNL A   1      34.885  32.214  29.161  1.00  0.00    -0.269 OA
BRANCH  26  29
ATOM     29  C   UNL A   1      36.091  30.293  28.578  1.00  0.00     0.039 A 
ATOM     30  C   UNL A   1      36.192  29.582  29.783  1.00  0.00     0.014 A 
ATOM     31  C   UNL A   1      37.108  30.216  27.631  1.00  0.00     0.014 A 
ATOM     32  C   UNL A   1      37.394  28.953  30.081  1.00  0.00     0.010 A 
ATOM     33  C   UNL A   1      38.141  29.368  27.794  1.00  0.00     0.010 A 
ATOM     34  C   UNL A   1      38.370  28.943  29.090  1.00  0.00    -0.014 A 
BRANCH  34  35
ATOM     35  C   UNL A   1      39.765  28.634  29.251  1.00  0.00     0.031 A 
ATOM     36  C   UNL A   1      40.192  27.307  28.858  1.00  0.00     0.074 A 
ATOM     37  C   UNL A   1      40.549  29.734  29.358  1.00  0.00     0.049 A 
ATOM     38  N   UNL A   1      41.339  26.816  29.129  1.00  0.00    -0.248 NA
ATOM     39  C   UNL A   1      39.313  26.388  28.142  1.00  0.00     0.031 C 
ATOM     40  C   UNL A   1      41.943  29.960  29.022  1.00  0.00     0.029 A 
ATOM     41  N   UNL A   1      40.142  30.964  29.896  1.00  0.00    -0.354 N 
ATOM     42  C   UNL A   1      41.490  25.719  28.314  1.00  0.00     0.074 A 
ATOM     43  C   UNL A   1      40.150  25.376  27.907  1.00  0.00     0.031 C 
ATOM     44  C   UNL A   1      42.355  31.079  29.654  1.00  0.00     0.029 A 
ATOM     45  C   UNL A   1      41.271  31.512  30.527  1.00  0.00     0.049 A 
ATOM     46  H   UNL A   1      39.244  31.364  29.842  1.00  0.00     0.167 HD
ATOM     47  C   UNL A   1      42.758  25.383  27.943  1.00  0.00     0.037 A 
ATOM     48  C   UNL A   1      41.273  31.466  31.897  1.00  0.00     0.037 A 
ATOM     49  C   UNL A   1      43.715  26.304  28.591  1.00  0.00     0.049 A 
ATOM     50  C   UNL A   1      42.196  30.381  32.428  1.00  0.00     0.074 A 
ATOM     51  C   UNL A   1      44.423  27.422  28.181  1.00  0.00     0.029 A 
ATOM     52  N   UNL A   1      43.733  26.350  29.975  1.00  0.00    -0.354 N 
ATOM     53  N   UNL A   1      42.854  29.536  31.676  1.00  0.00    -0.248 NA
ATOM     54  C   UNL A   1      42.422  30.138  33.849  1.00  0.00     0.031 C 
ATOM     55  C   UNL A   1      44.808  28.161  29.353  1.00  0.00     0.029 A 
ATOM     56  C   UNL A   1      44.354  27.479  30.470  1.00  0.00     0.049 A 
ATOM     57  H   UNL A   1      43.343  25.650  30.546  1.00  0.00     0.167 HD
ATOM     58  C   UNL A   1      43.562  28.662  32.446  1.00  0.00     0.074 A 
ATOM     59  C   UNL A   1      43.236  29.067  33.808  1.00  0.00     0.031 C 
ATOM     60  C   UNL A   1      44.351  27.672  31.920  1.00  0.00     0.037 A 
BRANCH  47  61
ATOM     61  C   UNL A   1      43.145  24.399  26.859  1.00  0.00     0.057 A 
ATOM     62  C   UNL A   1      43.031  23.017  27.103  1.00  0.00     0.134 A 
ATOM     63  C   UNL A   1      43.644  24.704  25.575  1.00  0.00     0.134 A 
ATOM     64  F   UNL A   1      42.531  22.547  28.254  1.00  0.00    -0.206 F 
ATOM     65  C   UNL A   1      43.414  22.036  26.176  1.00  0.00     0.040 A 
ATOM     66  C   UNL A   1      44.039  23.735  24.642  1.00  0.00     0.040 A 
ATOM     67  F   UNL A   1      43.767  25.948  25.118  1.00  0.00    -0.206 F 
ATOM     68  C   UNL A   1      43.929  22.392  24.941  1.00  0.00     0.006 A 
ENDBRANCH  47  61
BRANCH  48  69
ATOM     69  C   UNL A   1      39.905  31.822  32.427  1.00  0.00     0.057 A 
ATOM     70  C   UNL A   1      39.152  30.774  33.003  1.00  0.00     0.134 A 
ATOM     71  C   UNL A   1      39.610  33.117  32.867  1.00  0.00     0.134 A 
ATOM     72  F   UNL A   1      39.357  29.505  32.610  1.00  0.00    -0.206 F 
ATOM     73  C   UNL A   1      38.320  30.979  34.109  1.00  0.00     0.040 A 
ATOM     74  C   UNL A   1      38.749  33.336  33.953  1.00  0.00     0.040 A 
ATOM     75  F   UNL A   1      40.260  34.176  32.363  1.00  0.00    -0.206 F 
ATOM     76  C   UNL A   1      38.156  32.262  34.617  1.00  0.00     0.006 A 
ENDBRANCH  48  69
BRANCH  60  77
ATOM     77  C   UNL A   1      45.154  26.735  32.788  1.00  0.00     0.057 A 
ATOM     78  C   UNL A   1      46.554  26.702  32.757  1.00  0.00     0.134 A 
ATOM     79  C   UNL A   1      44.555  25.780  33.639  1.00  0.00     0.134 A 
ATOM     80  F   UNL A   1      47.246  27.433  31.871  1.00  0.00    -0.206 F 
ATOM     81  C   UNL A   1      47.302  25.895  33.621  1.00  0.00     0.040 A 
ATOM     82  C   UNL A   1      45.289  24.926  34.459  1.00  0.00     0.040 A 
ATOM     83  F   UNL A   1      43.230  25.629  33.741  1.00  0.00    -0.206 F 
ATOM     84  C   UNL A   1      46.668  25.010  34.485  1.00  0.00     0.006 A 
ENDBRANCH  60  77
ENDBRANCH  34  35
ENDBRANCH  26  29
ENDBRANCH  24  25
ENDBRANCH  23  24
ENDBRANCH   1  23
TORSDOF 14
ENDMDL
