MODEL 1
REMARK VINA RESULT:     -12.4      0.000      0.000
REMARK SMILES COc1ccc(C(=O)N[C@H](C(=O)NCCCNC(=O)c2ccc(-c3c4nc(c(-c5c(F)cccc5F)c5ccc([nH]5)c(-c5c(F)cccc5F)c5nc(c(-c6c(F)cccc6F)c6ccc3[nH]6)C=C5)C=C4)cc2)C2=C(C)N=N[C@H]2C)c(F)c1F
REMARK SMILES IDX 14 1 13 2 11 3 12 4 10 6 9 7 7 8 8 9 6 11 3 12 4 13 83 14
REMARK SMILES IDX 5 15 81 16 84 17 82 18 2 19 1 20 74 21 75 22 79 23 76 24
REMARK SMILES IDX 77 25 78 26 80 27 15 28 16 29 17 30 18 31 19 33 20 34 21 35
REMARK SMILES IDX 73 36 22 37 72 38 23 39 24 40 25 41 66 42 26 43 71 44 65 45
REMARK SMILES IDX 67 46 27 47 70 48 64 49 63 50 28 52 54 53 37 54 53 55 38 56
REMARK SMILES IDX 41 57 52 58 68 59 39 60 40 61 51 63 69 64 42 65 29 66 30 67
REMARK SMILES IDX 35 68 31 69 32 70 34 71 36 72 33 73 55 74 56 75 61 76 57 77
REMARK SMILES IDX 58 78 60 79 62 80 59 81 43 82 44 83 49 84 45 85 46 86 48 87
REMARK SMILES IDX 50 88 47 89
REMARK H PARENT 13 5 9 10 17 32 67 51 41 62
REMARK Flexibility Score: inf
ROOT
ATOM      1  C   UNL A   1      36.217  20.552  24.903  1.00  0.00     0.117 C 
ENDROOT
BRANCH   1   2
ATOM      2  N   UNL A   1      35.748  21.108  26.161  1.00  0.00    -0.354 N 
ATOM      3  C   UNL A   1      34.488  21.558  26.492  1.00  0.00     0.247 C 
ATOM      4  O   UNL A   1      34.334  21.969  27.646  1.00  0.00    -0.272 OA
ATOM      5  H   UNL A   1      36.423  21.172  26.875  1.00  0.00     0.163 HD
BRANCH   3   6
ATOM      6  C   UNL A   1      33.364  21.723  25.398  1.00  0.00     0.202 C 
BRANCH   6   7
ATOM      7  N   UNL A   1      31.976  21.846  25.843  1.00  0.00    -0.336 N 
ATOM      8  C   UNL A   1      31.042  22.820  26.041  1.00  0.00     0.255 C 
ATOM      9  O   UNL A   1      30.017  22.451  26.622  1.00  0.00    -0.269 OA
ATOM     10  H   UNL A   1      31.605  20.962  26.066  1.00  0.00     0.165 HD
BRANCH   8  11
ATOM     11  C   UNL A   1      31.107  24.236  25.604  1.00  0.00     0.078 A 
ATOM     12  C   UNL A   1      31.076  27.014  25.162  1.00  0.00     0.157 A 
ATOM     13  C   UNL A   1      31.605  26.514  26.344  1.00  0.00     0.050 A 
ATOM     14  C   UNL A   1      30.628  26.134  24.182  1.00  0.00     0.201 A 
ATOM     15  C   UNL A   1      31.632  25.134  26.555  1.00  0.00     0.021 A 
ATOM     16  C   UNL A   1      30.671  24.757  24.393  1.00  0.00     0.175 A 
ATOM     17  F   UNL A   1      30.104  26.607  23.041  1.00  0.00    -0.200 F 
ATOM     18  F   UNL A   1      30.239  23.970  23.406  1.00  0.00    -0.203 F 
BRANCH  12  19
ATOM     19  O   UNL A   1      30.883  28.363  25.068  1.00  0.00    -0.494 OA
ATOM     20  C   UNL A   1      31.919  29.000  24.327  1.00  0.00     0.278 C 
ENDBRANCH  12  19
ENDBRANCH   8  11
ENDBRANCH   6   7
BRANCH   6  21
ATOM     21  C   UNL A   1      33.691  22.548  24.185  1.00  0.00     0.011 C 
ATOM     22  C   UNL A   1      33.164  22.458  22.952  1.00  0.00     0.064 C 
ATOM     23  C   UNL A   1      34.739  23.604  24.049  1.00  0.00     0.156 C 
ATOM     24  C   UNL A   1      32.073  21.583  22.438  1.00  0.00     0.069 C 
ATOM     25  N   UNL A   1      33.788  23.274  22.041  1.00  0.00    -0.160 NA
ATOM     26  N   UNL A   1      34.735  23.893  22.589  1.00  0.00    -0.181 NA
ATOM     27  C   UNL A   1      34.442  24.934  24.744  1.00  0.00     0.040 C 
ENDBRANCH   6  21
ENDBRANCH   3   6
ENDBRANCH   1   2
BRANCH   1  28
ATOM     28  C   UNL A   1      37.391  19.598  25.021  1.00  0.00     0.042 C 
BRANCH  28  29
ATOM     29  C   UNL A   1      38.648  20.245  25.589  1.00  0.00     0.118 C 
BRANCH  29  30
ATOM     30  N   UNL A   1      39.795  19.343  25.677  1.00  0.00    -0.352 N 
ATOM     31  C   UNL A   1      41.098  19.546  26.075  1.00  0.00     0.251 C 
ATOM     32  H   UNL A   1      39.600  18.418  25.400  1.00  0.00     0.163 HD
ATOM     33  O   UNL A   1      41.909  18.628  25.968  1.00  0.00    -0.269 OA
BRANCH  31  34
ATOM     34  C   UNL A   1      41.551  20.859  26.591  1.00  0.00     0.039 A 
ATOM     35  C   UNL A   1      42.018  21.827  25.694  1.00  0.00     0.014 A 
ATOM     36  C   UNL A   1      41.533  21.146  27.953  1.00  0.00     0.014 A 
ATOM     37  C   UNL A   1      42.366  23.101  26.158  1.00  0.00     0.010 A 
ATOM     38  C   UNL A   1      41.739  22.448  28.393  1.00  0.00     0.010 A 
ATOM     39  C   UNL A   1      42.179  23.441  27.507  1.00  0.00    -0.014 A 
BRANCH  39  40
ATOM     40  C   UNL A   1      42.472  24.801  28.034  1.00  0.00     0.031 A 
ATOM     41  C   UNL A   1      43.876  25.153  28.463  1.00  0.00     0.074 A 
ATOM     42  C   UNL A   1      41.475  25.689  28.217  1.00  0.00     0.049 A 
ATOM     43  N   UNL A   1      44.317  26.228  29.065  1.00  0.00    -0.248 NA
ATOM     44  C   UNL A   1      44.914  24.136  28.226  1.00  0.00     0.031 C 
ATOM     45  C   UNL A   1      40.062  25.459  27.911  1.00  0.00     0.029 A 
ATOM     46  N   UNL A   1      41.500  26.968  28.718  1.00  0.00    -0.354 N 
ATOM     47  C   UNL A   1      45.664  25.996  29.313  1.00  0.00     0.074 A 
ATOM     48  C   UNL A   1      45.953  24.653  28.863  1.00  0.00     0.031 C 
ATOM     49  C   UNL A   1      39.363  26.570  28.195  1.00  0.00     0.029 A 
ATOM     50  C   UNL A   1      40.268  27.576  28.738  1.00  0.00     0.049 A 
ATOM     51  H   UNL A   1      42.322  27.406  29.034  1.00  0.00     0.167 HD
ATOM     52  C   UNL A   1      46.592  26.835  29.835  1.00  0.00     0.037 A 
ATOM     53  C   UNL A   1      39.911  28.809  29.144  1.00  0.00     0.037 A 
ATOM     54  C   UNL A   1      46.320  28.192  30.225  1.00  0.00     0.049 A 
ATOM     55  C   UNL A   1      40.966  29.743  29.672  1.00  0.00     0.074 A 
ATOM     56  C   UNL A   1      47.200  29.148  30.700  1.00  0.00     0.029 A 
ATOM     57  N   UNL A   1      45.070  28.789  30.170  1.00  0.00    -0.354 N 
ATOM     58  N   UNL A   1      42.248  29.530  29.846  1.00  0.00    -0.248 NA
ATOM     59  C   UNL A   1      40.525  31.094  30.049  1.00  0.00     0.031 C 
ATOM     60  C   UNL A   1      46.477  30.318  30.958  1.00  0.00     0.029 A 
ATOM     61  C   UNL A   1      45.155  30.101  30.604  1.00  0.00     0.049 A 
ATOM     62  H   UNL A   1      44.244  28.347  29.867  1.00  0.00     0.167 HD
ATOM     63  C   UNL A   1      42.772  30.728  30.314  1.00  0.00     0.074 A 
ATOM     64  C   UNL A   1      41.671  31.666  30.388  1.00  0.00     0.031 C 
ATOM     65  C   UNL A   1      44.051  31.025  30.651  1.00  0.00     0.037 A 
BRANCH  52  66
ATOM     66  C   UNL A   1      47.989  26.306  29.989  1.00  0.00     0.057 A 
ATOM     67  C   UNL A   1      48.917  26.348  28.938  1.00  0.00     0.134 A 
ATOM     68  C   UNL A   1      48.418  25.754  31.204  1.00  0.00     0.134 A 
ATOM     69  F   UNL A   1      48.567  26.849  27.743  1.00  0.00    -0.206 F 
ATOM     70  C   UNL A   1      50.202  25.823  29.075  1.00  0.00     0.040 A 
ATOM     71  C   UNL A   1      49.712  25.256  31.362  1.00  0.00     0.040 A 
ATOM     72  F   UNL A   1      47.586  25.689  32.254  1.00  0.00    -0.206 F 
ATOM     73  C   UNL A   1      50.606  25.281  30.293  1.00  0.00     0.006 A 
ENDBRANCH  52  66
BRANCH  53  74
ATOM     74  C   UNL A   1      38.501  29.258  29.018  1.00  0.00     0.057 A 
ATOM     75  C   UNL A   1      37.637  29.228  30.120  1.00  0.00     0.134 A 
ATOM     76  C   UNL A   1      37.979  29.716  27.803  1.00  0.00     0.134 A 
ATOM     77  F   UNL A   1      38.076  28.783  31.308  1.00  0.00    -0.206 F 
ATOM     78  C   UNL A   1      36.301  29.615  30.015  1.00  0.00     0.040 A 
ATOM     79  C   UNL A   1      36.649  30.129  27.689  1.00  0.00     0.040 A 
ATOM     80  F   UNL A   1      38.756  29.778  26.712  1.00  0.00    -0.206 F 
ATOM     81  C   UNL A   1      35.804  30.071  28.796  1.00  0.00     0.006 A 
ENDBRANCH  53  74
BRANCH  65  82
ATOM     82  C   UNL A   1      44.337  32.436  31.076  1.00  0.00     0.057 A 
ATOM     83  C   UNL A   1      44.298  32.830  32.419  1.00  0.00     0.134 A 
ATOM     84  C   UNL A   1      44.687  33.405  30.126  1.00  0.00     0.134 A 
ATOM     85  F   UNL A   1      43.960  31.952  33.375  1.00  0.00    -0.206 F 
ATOM     86  C   UNL A   1      44.569  34.145  32.799  1.00  0.00     0.040 A 
ATOM     87  C   UNL A   1      44.986  34.716  30.496  1.00  0.00     0.040 A 
ATOM     88  F   UNL A   1      44.752  33.089  28.824  1.00  0.00    -0.206 F 
ATOM     89  C   UNL A   1      44.920  35.090  31.837  1.00  0.00     0.006 A 
ENDBRANCH  65  82
ENDBRANCH  39  40
ENDBRANCH  31  34
ENDBRANCH  29  30
ENDBRANCH  28  29
ENDBRANCH   1  28
TORSDOF 14
ENDMDL
MODEL 2
REMARK VINA RESULT:     -12.4      0.431      6.067
REMARK SMILES COc1ccc(C(=O)N[C@H](C(=O)NCCCNC(=O)c2ccc(-c3c4nc(c(-c5c(F)cccc5F)c5ccc([nH]5)c(-c5c(F)cccc5F)c5nc(c(-c6c(F)cccc6F)c6ccc3[nH]6)C=C5)C=C4)cc2)C2=C(C)N=N[C@H]2C)c(F)c1F
REMARK SMILES IDX 14 1 13 2 11 3 12 4 10 6 9 7 7 8 8 9 6 11 3 12 4 13 83 14
REMARK SMILES IDX 5 15 81 16 84 17 82 18 2 19 1 20 74 21 75 22 79 23 76 24
REMARK SMILES IDX 77 25 78 26 80 27 15 28 16 29 17 30 18 31 19 33 20 34 21 35
REMARK SMILES IDX 73 36 22 37 72 38 23 39 24 40 25 41 66 42 26 43 71 44 65 45
REMARK SMILES IDX 67 46 27 47 70 48 64 49 63 50 28 52 54 53 37 54 53 55 38 56
REMARK SMILES IDX 41 57 52 58 68 59 39 60 40 61 51 63 69 64 42 65 29 66 30 67
REMARK SMILES IDX 35 68 31 69 32 70 34 71 36 72 33 73 55 74 56 75 61 76 57 77
REMARK SMILES IDX 58 78 60 79 62 80 59 81 43 82 44 83 49 84 45 85 46 86 48 87
REMARK SMILES IDX 50 88 47 89
REMARK H PARENT 13 5 9 10 17 32 67 51 41 62
REMARK Flexibility Score: inf
ROOT
ATOM      1  C   UNL A   1      36.038  20.323  25.042  1.00  0.00     0.117 C 
ENDROOT
BRANCH   1   2
ATOM      2  N   UNL A   1      35.673  21.118  26.202  1.00  0.00    -0.354 N 
ATOM      3  C   UNL A   1      34.473  21.733  26.487  1.00  0.00     0.247 C 
ATOM      4  O   UNL A   1      34.403  22.338  27.561  1.00  0.00    -0.272 OA
ATOM      5  H   UNL A   1      36.380  21.232  26.878  1.00  0.00     0.163 HD
BRANCH   3   6
ATOM      6  C   UNL A   1      33.324  21.825  25.410  1.00  0.00     0.202 C 
BRANCH   6   7
ATOM      7  N   UNL A   1      31.945  21.964  25.877  1.00  0.00    -0.336 N 
ATOM      8  C   UNL A   1      31.019  22.946  26.070  1.00  0.00     0.255 C 
ATOM      9  O   UNL A   1      30.003  22.595  26.678  1.00  0.00    -0.269 OA
ATOM     10  H   UNL A   1      31.575  21.087  26.127  1.00  0.00     0.165 HD
BRANCH   8  11
ATOM     11  C   UNL A   1      31.080  24.351  25.599  1.00  0.00     0.078 A 
ATOM     12  C   UNL A   1      31.049  27.118  25.092  1.00  0.00     0.157 A 
ATOM     13  C   UNL A   1      31.592  26.644  26.279  1.00  0.00     0.050 A 
ATOM     14  C   UNL A   1      30.587  26.216  24.139  1.00  0.00     0.201 A 
ATOM     15  C   UNL A   1      31.619  25.270  26.522  1.00  0.00     0.021 A 
ATOM     16  C   UNL A   1      30.630  24.845  24.381  1.00  0.00     0.175 A 
ATOM     17  F   UNL A   1      30.050  26.664  22.994  1.00  0.00    -0.200 F 
ATOM     18  F   UNL A   1      30.185  24.036  23.419  1.00  0.00    -0.203 F 
BRANCH  12  19
ATOM     19  O   UNL A   1      30.857  28.465  24.970  1.00  0.00    -0.494 OA
ATOM     20  C   UNL A   1      32.058  29.145  24.617  1.00  0.00     0.278 C 
ENDBRANCH  12  19
ENDBRANCH   8  11
ENDBRANCH   6   7
BRANCH   6  21
ATOM     21  C   UNL A   1      33.619  22.580  24.143  1.00  0.00     0.011 C 
ATOM     22  C   UNL A   1      33.057  22.422  22.933  1.00  0.00     0.064 C 
ATOM     23  C   UNL A   1      34.664  23.624  23.920  1.00  0.00     0.156 C 
ATOM     24  C   UNL A   1      31.951  21.523  22.499  1.00  0.00     0.069 C 
ATOM     25  N   UNL A   1      33.656  23.184  21.960  1.00  0.00    -0.160 NA
ATOM     26  N   UNL A   1      34.619  23.830  22.446  1.00  0.00    -0.181 NA
ATOM     27  C   UNL A   1      34.387  24.991  24.546  1.00  0.00     0.040 C 
ENDBRANCH   6  21
ENDBRANCH   3   6
ENDBRANCH   1   2
BRANCH   1  28
ATOM     28  C   UNL A   1      37.481  20.465  24.595  1.00  0.00     0.042 C 
BRANCH  28  29
ATOM     29  C   UNL A   1      38.469  20.577  25.749  1.00  0.00     0.118 C 
BRANCH  29  30
ATOM     30  N   UNL A   1      39.570  19.617  25.687  1.00  0.00    -0.352 N 
ATOM     31  C   UNL A   1      40.906  19.726  26.003  1.00  0.00     0.251 C 
ATOM     32  H   UNL A   1      39.308  18.727  25.357  1.00  0.00     0.163 HD
ATOM     33  O   UNL A   1      41.658  18.781  25.771  1.00  0.00    -0.269 OA
BRANCH  31  34
ATOM     34  C   UNL A   1      41.463  20.971  26.581  1.00  0.00     0.039 A 
ATOM     35  C   UNL A   1      41.957  21.965  25.728  1.00  0.00     0.014 A 
ATOM     36  C   UNL A   1      41.515  21.171  27.958  1.00  0.00     0.014 A 
ATOM     37  C   UNL A   1      42.404  23.182  26.255  1.00  0.00     0.010 A 
ATOM     38  C   UNL A   1      41.822  22.426  28.469  1.00  0.00     0.010 A 
ATOM     39  C   UNL A   1      42.291  23.444  27.629  1.00  0.00    -0.014 A 
BRANCH  39  40
ATOM     40  C   UNL A   1      42.692  24.746  28.227  1.00  0.00     0.031 A 
ATOM     41  C   UNL A   1      41.654  25.816  28.463  1.00  0.00     0.074 A 
ATOM     42  C   UNL A   1      43.991  25.010  28.475  1.00  0.00     0.049 A 
ATOM     43  N   UNL A   1      41.811  27.057  28.850  1.00  0.00    -0.248 NA
ATOM     44  C   UNL A   1      40.256  25.455  28.177  1.00  0.00     0.031 C 
ATOM     45  C   UNL A   1      45.108  24.094  28.232  1.00  0.00     0.029 A 
ATOM     46  N   UNL A   1      44.593  26.136  28.979  1.00  0.00    -0.354 N 
ATOM     47  C   UNL A   1      40.544  27.627  28.811  1.00  0.00     0.074 A 
ATOM     48  C   UNL A   1      39.643  26.621  28.296  1.00  0.00     0.031 C 
ATOM     49  C   UNL A   1      46.251  24.680  28.622  1.00  0.00     0.029 A 
ATOM     50  C   UNL A   1      45.956  26.025  29.105  1.00  0.00     0.049 A 
ATOM     51  H   UNL A   1      44.094  26.948  29.227  1.00  0.00     0.167 HD
ATOM     52  C   UNL A   1      40.153  28.864  29.202  1.00  0.00     0.037 A 
ATOM     53  C   UNL A   1      46.865  26.906  29.564  1.00  0.00     0.037 A 
ATOM     54  C   UNL A   1      41.038  29.843  29.773  1.00  0.00     0.049 A 
ATOM     55  C   UNL A   1      46.403  28.255  30.042  1.00  0.00     0.074 A 
ATOM     56  C   UNL A   1      40.735  31.099  30.267  1.00  0.00     0.029 A 
ATOM     57  N   UNL A   1      42.403  29.665  29.941  1.00  0.00    -0.354 N 
ATOM     58  N   UNL A   1      45.193  28.760  30.054  1.00  0.00    -0.248 NA
ATOM     59  C   UNL A   1      47.434  29.154  30.582  1.00  0.00     0.031 C 
ATOM     60  C   UNL A   1      41.921  31.694  30.709  1.00  0.00     0.029 A 
ATOM     61  C   UNL A   1      42.957  30.791  30.528  1.00  0.00     0.049 A 
ATOM     62  H   UNL A   1      42.905  28.859  29.681  1.00  0.00     0.167 HD
ATOM     63  C   UNL A   1      45.311  30.015  30.636  1.00  0.00     0.074 A 
ATOM     64  C   UNL A   1      46.708  30.191  30.972  1.00  0.00     0.031 C 
ATOM     65  C   UNL A   1      44.347  30.939  30.873  1.00  0.00     0.037 A 
BRANCH  52  66
ATOM     66  C   UNL A   1      38.701  29.211  29.042  1.00  0.00     0.057 A 
ATOM     67  C   UNL A   1      38.169  29.615  27.809  1.00  0.00     0.134 A 
ATOM     68  C   UNL A   1      37.820  29.134  30.129  1.00  0.00     0.134 A 
ATOM     69  F   UNL A   1      38.960  29.725  26.730  1.00  0.00    -0.206 F 
ATOM     70  C   UNL A   1      36.826  29.971  27.672  1.00  0.00     0.040 A 
ATOM     71  C   UNL A   1      36.468  29.455  29.996  1.00  0.00     0.040 A 
ATOM     72  F   UNL A   1      38.259  28.747  31.335  1.00  0.00    -0.206 F 
ATOM     73  C   UNL A   1      35.969  29.884  28.768  1.00  0.00     0.006 A 
ENDBRANCH  52  66
BRANCH  53  74
ATOM     74  C   UNL A   1      48.298  26.525  29.647  1.00  0.00     0.057 A 
ATOM     75  C   UNL A   1      48.795  25.840  30.763  1.00  0.00     0.134 A 
ATOM     76  C   UNL A   1      49.205  26.839  28.628  1.00  0.00     0.134 A 
ATOM     77  F   UNL A   1      47.978  25.526  31.780  1.00  0.00    -0.206 F 
ATOM     78  C   UNL A   1      50.144  25.502  30.874  1.00  0.00     0.040 A 
ATOM     79  C   UNL A   1      50.553  26.485  28.716  1.00  0.00     0.040 A 
ATOM     80  F   UNL A   1      48.791  27.485  27.528  1.00  0.00    -0.206 F 
ATOM     81  C   UNL A   1      51.027  25.821  29.846  1.00  0.00     0.006 A 
ENDBRANCH  53  74
BRANCH  65  82
ATOM     82  C   UNL A   1      44.763  32.197  31.577  1.00  0.00     0.057 A 
ATOM     83  C   UNL A   1      45.177  33.338  30.878  1.00  0.00     0.134 A 
ATOM     84  C   UNL A   1      44.718  32.275  32.975  1.00  0.00     0.134 A 
ATOM     85  F   UNL A   1      45.252  33.324  29.538  1.00  0.00    -0.206 F 
ATOM     86  C   UNL A   1      45.558  34.502  31.545  1.00  0.00     0.040 A 
ATOM     87  C   UNL A   1      45.071  33.442  33.653  1.00  0.00     0.040 A 
ATOM     88  F   UNL A   1      44.321  31.221  33.703  1.00  0.00    -0.206 F 
ATOM     89  C   UNL A   1      45.500  34.558  32.937  1.00  0.00     0.006 A 
ENDBRANCH  65  82
ENDBRANCH  39  40
ENDBRANCH  31  34
ENDBRANCH  29  30
ENDBRANCH  28  29
ENDBRANCH   1  28
TORSDOF 14
ENDMDL
MODEL 3
REMARK VINA RESULT:     -12.2      1.007      1.939
REMARK SMILES COc1ccc(C(=O)N[C@H](C(=O)NCCCNC(=O)c2ccc(-c3c4nc(c(-c5c(F)cccc5F)c5ccc([nH]5)c(-c5c(F)cccc5F)c5nc(c(-c6c(F)cccc6F)c6ccc3[nH]6)C=C5)C=C4)cc2)C2=C(C)N=N[C@H]2C)c(F)c1F
REMARK SMILES IDX 14 1 13 2 11 3 12 4 10 6 9 7 7 8 8 9 6 11 3 12 4 13 83 14
REMARK SMILES IDX 5 15 81 16 84 17 82 18 2 19 1 20 74 21 75 22 79 23 76 24
REMARK SMILES IDX 77 25 78 26 80 27 15 28 16 29 17 30 18 31 19 33 20 34 21 35
REMARK SMILES IDX 73 36 22 37 72 38 23 39 24 40 25 41 66 42 26 43 71 44 65 45
REMARK SMILES IDX 67 46 27 47 70 48 64 49 63 50 28 52 54 53 37 54 53 55 38 56
REMARK SMILES IDX 41 57 52 58 68 59 39 60 40 61 51 63 69 64 42 65 29 66 30 67
REMARK SMILES IDX 35 68 31 69 32 70 34 71 36 72 33 73 55 74 56 75 61 76 57 77
REMARK SMILES IDX 58 78 60 79 62 80 59 81 43 82 44 83 49 84 45 85 46 86 48 87
REMARK SMILES IDX 50 88 47 89
REMARK H PARENT 13 5 9 10 17 32 67 51 41 62
REMARK Flexibility Score: inf
ROOT
ATOM      1  C   UNL A   1      36.450  20.155  25.180  1.00  0.00     0.117 C 
ENDROOT
BRANCH   1   2
ATOM      2  N   UNL A   1      35.346  19.280  24.828  1.00  0.00    -0.354 N 
ATOM      3  C   UNL A   1      34.026  19.603  24.597  1.00  0.00     0.247 C 
ATOM      4  O   UNL A   1      33.275  18.673  24.287  1.00  0.00    -0.272 OA
ATOM      5  H   UNL A   1      35.571  18.326  24.741  1.00  0.00     0.163 HD
BRANCH   3   6
ATOM      6  C   UNL A   1      33.469  21.046  24.909  1.00  0.00     0.202 C 
BRANCH   6   7
ATOM      7  N   UNL A   1      33.376  21.466  26.307  1.00  0.00    -0.336 N 
ATOM      8  C   UNL A   1      33.067  22.583  27.026  1.00  0.00     0.255 C 
ATOM      9  O   UNL A   1      33.311  22.510  28.235  1.00  0.00    -0.269 OA
ATOM     10  H   UNL A   1      33.605  20.721  26.908  1.00  0.00     0.165 HD
BRANCH   8  11
ATOM     11  C   UNL A   1      32.443  23.833  26.530  1.00  0.00     0.078 A 
ATOM     12  C   UNL A   1      31.527  26.405  25.853  1.00  0.00     0.157 A 
ATOM     13  C   UNL A   1      32.891  26.156  25.908  1.00  0.00     0.050 A 
ATOM     14  C   UNL A   1      30.629  25.365  26.068  1.00  0.00     0.201 A 
ATOM     15  C   UNL A   1      33.344  24.875  26.231  1.00  0.00     0.021 A 
ATOM     16  C   UNL A   1      31.086  24.086  26.376  1.00  0.00     0.175 A 
ATOM     17  F   UNL A   1      29.308  25.598  26.029  1.00  0.00    -0.200 F 
ATOM     18  F   UNL A   1      30.171  23.132  26.555  1.00  0.00    -0.203 F 
BRANCH  12  19
ATOM     19  O   UNL A   1      31.119  27.703  25.731  1.00  0.00    -0.494 OA
ATOM     20  C   UNL A   1      30.956  28.085  24.369  1.00  0.00     0.278 C 
ENDBRANCH  12  19
ENDBRANCH   8  11
ENDBRANCH   6   7
BRANCH   6  21
ATOM     21  C   UNL A   1      33.839  22.152  23.962  1.00  0.00     0.011 C 
ATOM     22  C   UNL A   1      33.029  22.867  23.162  1.00  0.00     0.064 C 
ATOM     23  C   UNL A   1      35.205  22.657  23.630  1.00  0.00     0.156 C 
ATOM     24  C   UNL A   1      31.545  22.831  23.022  1.00  0.00     0.069 C 
ATOM     25  N   UNL A   1      33.712  23.711  22.323  1.00  0.00    -0.160 NA
ATOM     26  N   UNL A   1      34.951  23.582  22.491  1.00  0.00    -0.181 NA
ATOM     27  C   UNL A   1      35.889  23.496  24.711  1.00  0.00     0.040 C 
ENDBRANCH   6  21
ENDBRANCH   3   6
ENDBRANCH   1   2
BRANCH   1  28
ATOM     28  C   UNL A   1      37.828  19.622  24.830  1.00  0.00     0.042 C 
BRANCH  28  29
ATOM     29  C   UNL A   1      38.917  20.064  25.799  1.00  0.00     0.118 C 
BRANCH  29  30
ATOM     30  N   UNL A   1      40.111  19.222  25.779  1.00  0.00    -0.352 N 
ATOM     31  C   UNL A   1      41.429  19.485  26.079  1.00  0.00     0.251 C 
ATOM     32  H   UNL A   1      39.942  18.293  25.497  1.00  0.00     0.163 HD
ATOM     33  O   UNL A   1      42.275  18.612  25.890  1.00  0.00    -0.269 OA
BRANCH  31  34
ATOM     34  C   UNL A   1      41.855  20.809  26.589  1.00  0.00     0.039 A 
ATOM     35  C   UNL A   1      42.279  21.791  25.685  1.00  0.00     0.014 A 
ATOM     36  C   UNL A   1      41.852  21.096  27.951  1.00  0.00     0.014 A 
ATOM     37  C   UNL A   1      42.599  23.074  26.143  1.00  0.00     0.010 A 
ATOM     38  C   UNL A   1      42.030  22.403  28.388  1.00  0.00     0.010 A 
ATOM     39  C   UNL A   1      42.426  23.408  27.495  1.00  0.00    -0.014 A 
BRANCH  39  40
ATOM     40  C   UNL A   1      42.691  24.775  28.019  1.00  0.00     0.031 A 
ATOM     41  C   UNL A   1      44.091  25.164  28.427  1.00  0.00     0.074 A 
ATOM     42  C   UNL A   1      41.674  25.637  28.215  1.00  0.00     0.049 A 
ATOM     43  N   UNL A   1      44.511  26.252  29.023  1.00  0.00    -0.248 NA
ATOM     44  C   UNL A   1      45.152  24.176  28.176  1.00  0.00     0.031 C 
ATOM     45  C   UNL A   1      40.262  25.369  27.929  1.00  0.00     0.029 A 
ATOM     46  N   UNL A   1      41.671  26.916  28.716  1.00  0.00    -0.354 N 
ATOM     47  C   UNL A   1      45.868  26.056  29.252  1.00  0.00     0.074 A 
ATOM     48  C   UNL A   1      46.186  24.720  28.798  1.00  0.00     0.031 C 
ATOM     49  C   UNL A   1      39.538  26.461  28.222  1.00  0.00     0.029 A 
ATOM     50  C   UNL A   1      40.424  27.492  28.753  1.00  0.00     0.049 A 
ATOM     51  H   UNL A   1      42.486  27.376  29.020  1.00  0.00     0.167 HD
ATOM     52  C   UNL A   1      46.780  26.918  29.761  1.00  0.00     0.037 A 
ATOM     53  C   UNL A   1      40.041  28.715  29.164  1.00  0.00     0.037 A 
ATOM     54  C   UNL A   1      46.478  28.268  30.155  1.00  0.00     0.049 A 
ATOM     55  C   UNL A   1      41.078  29.677  29.676  1.00  0.00     0.074 A 
ATOM     56  C   UNL A   1      47.339  29.247  30.617  1.00  0.00     0.029 A 
ATOM     57  N   UNL A   1      45.211  28.832  30.117  1.00  0.00    -0.354 N 
ATOM     58  N   UNL A   1      42.367  29.497  29.833  1.00  0.00    -0.248 NA
ATOM     59  C   UNL A   1      40.606  31.016  30.059  1.00  0.00     0.031 C 
ATOM     60  C   UNL A   1      46.589  30.397  30.885  1.00  0.00     0.029 A 
ATOM     61  C   UNL A   1      45.268  30.146  30.550  1.00  0.00     0.049 A 
ATOM     62  H   UNL A   1      44.394  28.368  29.826  1.00  0.00     0.167 HD
ATOM     63  C   UNL A   1      42.866  30.709  30.293  1.00  0.00     0.074 A 
ATOM     64  C   UNL A   1      41.742  31.618  30.382  1.00  0.00     0.031 C 
ATOM     65  C   UNL A   1      44.141  31.041  30.612  1.00  0.00     0.037 A 
BRANCH  52  66
ATOM     66  C   UNL A   1      48.193  26.427  29.896  1.00  0.00     0.057 A 
ATOM     67  C   UNL A   1      48.642  25.773  31.053  1.00  0.00     0.134 A 
ATOM     68  C   UNL A   1      49.116  26.601  28.857  1.00  0.00     0.134 A 
ATOM     69  F   UNL A   1      47.813  25.587  32.092  1.00  0.00    -0.206 F 
ATOM     70  C   UNL A   1      49.964  25.350  31.189  1.00  0.00     0.040 A 
ATOM     71  C   UNL A   1      50.434  26.152  28.968  1.00  0.00     0.040 A 
ATOM     72  F   UNL A   1      48.755  27.211  27.719  1.00  0.00    -0.206 F 
ATOM     73  C   UNL A   1      50.864  25.533  30.140  1.00  0.00     0.006 A 
ENDBRANCH  52  66
BRANCH  53  74
ATOM     74  C   UNL A   1      38.617  29.126  29.058  1.00  0.00     0.057 A 
ATOM     75  C   UNL A   1      38.100  29.616  27.853  1.00  0.00     0.134 A 
ATOM     76  C   UNL A   1      37.744  29.048  30.149  1.00  0.00     0.134 A 
ATOM     77  F   UNL A   1      38.893  29.730  26.776  1.00  0.00    -0.206 F 
ATOM     78  C   UNL A   1      36.774  30.037  27.741  1.00  0.00     0.040 A 
ATOM     79  C   UNL A   1      36.408  29.444  30.045  1.00  0.00     0.040 A 
ATOM     80  F   UNL A   1      38.174  28.578  31.329  1.00  0.00    -0.206 F 
ATOM     81  C   UNL A   1      35.923  29.947  28.840  1.00  0.00     0.006 A 
ENDBRANCH  53  74
BRANCH  65  82
ATOM     82  C   UNL A   1      44.396  32.458  31.033  1.00  0.00     0.057 A 
ATOM     83  C   UNL A   1      44.689  33.467  30.107  1.00  0.00     0.134 A 
ATOM     84  C   UNL A   1      44.316  32.822  32.384  1.00  0.00     0.134 A 
ATOM     85  F   UNL A   1      44.789  33.181  28.799  1.00  0.00    -0.206 F 
ATOM     86  C   UNL A   1      44.920  34.782  30.512  1.00  0.00     0.040 A 
ATOM     87  C   UNL A   1      44.520  34.138  32.798  1.00  0.00     0.040 A 
ATOM     88  F   UNL A   1      44.030  31.905  33.320  1.00  0.00    -0.206 F 
ATOM     89  C   UNL A   1      44.830  35.121  31.861  1.00  0.00     0.006 A 
ENDBRANCH  65  82
ENDBRANCH  39  40
ENDBRANCH  31  34
ENDBRANCH  29  30
ENDBRANCH  28  29
ENDBRANCH   1  28
TORSDOF 14
ENDMDL
