MODEL 1
REMARK VINA RESULT:     -11.9      0.000      0.000
REMARK SMILES COc1cc(Cn2cc(C(=O)NCCCNC(=O)c3ccc(-c4c5nc(c(-c6c(F)cccc6F)c6ccc([nH]6)c(-c6c(F)cccc6F)c6nc(c(-c7c(F)cccc7F)c7ccc4[nH]7)C=C6)C=C5)cc3)c(=O)[nH]c2=O)ccn1
REMARK SMILES IDX 13 1 12 2 10 3 11 4 9 6 7 7 8 8 76 9 75 10 77 11 73 12 74 14
REMARK SMILES IDX 6 15 5 16 3 17 4 18 80 19 79 20 78 21 2 22 1 23 14 24 15 25
REMARK SMILES IDX 16 26 17 27 18 29 19 30 20 31 72 32 21 33 71 34 22 35 23 36
REMARK SMILES IDX 24 37 65 38 25 39 70 40 64 41 66 42 26 43 69 44 63 45 62 46
REMARK SMILES IDX 27 48 53 49 36 50 52 51 37 52 40 53 51 54 67 55 38 56 39 57
REMARK SMILES IDX 50 59 68 60 41 61 28 62 29 63 34 64 30 65 31 66 33 67 35 68
REMARK SMILES IDX 32 69 54 70 55 71 60 72 56 73 57 74 59 75 61 76 58 77 42 78
REMARK SMILES IDX 43 79 48 80 44 81 45 82 47 83 49 84 46 85
REMARK H PARENT 12 5 75 13 16 28 66 47 40 58
REMARK Flexibility Score: inf
ROOT
ATOM      1  C   UNL A   1      35.967  21.216  25.349  1.00  0.00     0.118 C 
ENDROOT
BRANCH   1   2
ATOM      2  N   UNL A   1      35.610  21.979  24.166  1.00  0.00    -0.352 N 
ATOM      3  C   UNL A   1      34.492  22.677  23.809  1.00  0.00     0.258 C 
ATOM      4  O   UNL A   1      34.470  23.129  22.664  1.00  0.00    -0.269 OA
ATOM      5  H   UNL A   1      36.318  21.997  23.484  1.00  0.00     0.163 HD
BRANCH   3   6
ATOM      6  C   UNL A   1      33.354  22.910  24.744  1.00  0.00     0.121 A 
ATOM      7  N   UNL A   1      31.974  24.344  26.089  1.00  0.00    -0.295 N 
ATOM      8  C   UNL A   1      33.067  24.106  25.274  1.00  0.00     0.110 A 
ATOM      9  C   UNL A   1      31.185  23.306  26.562  1.00  0.00     0.328 A 
ATOM     10  N   UNL A   1      31.555  22.059  26.141  1.00  0.00    -0.273 N 
ATOM     11  O   UNL A   1      30.213  23.455  27.298  1.00  0.00    -0.248 OA
ATOM     12  C   UNL A   1      32.512  21.770  25.204  1.00  0.00     0.266 A 
ATOM     13  H   UNL A   1      31.090  21.294  26.551  1.00  0.00     0.175 HD
ATOM     14  O   UNL A   1      32.617  20.630  24.764  1.00  0.00    -0.268 OA
BRANCH   7  15
ATOM     15  C   UNL A   1      31.597  25.723  26.415  1.00  0.00     0.162 C 
BRANCH  15  16
ATOM     16  C   UNL A   1      30.960  26.435  25.240  1.00  0.00    -0.021 A 
ATOM     17  C   UNL A   1      31.014  28.051  23.478  1.00  0.00     0.213 A 
ATOM     18  C   UNL A   1      31.639  27.450  24.561  1.00  0.00     0.074 A 
ATOM     19  N   UNL A   1      29.759  27.777  23.072  1.00  0.00    -0.222 NA
ATOM     20  C   UNL A   1      29.108  26.818  23.754  1.00  0.00     0.115 A 
ATOM     21  C   UNL A   1      29.669  26.112  24.808  1.00  0.00     0.026 A 
BRANCH  17  22
ATOM     22  O   UNL A   1      31.700  28.976  22.734  1.00  0.00    -0.481 OA
ATOM     23  C   UNL A   1      33.075  28.925  23.113  1.00  0.00     0.280 C 
ENDBRANCH  17  22
ENDBRANCH  15  16
ENDBRANCH   7  15
ENDBRANCH   3   6
ENDBRANCH   1   2
BRANCH   1  24
ATOM     24  C   UNL A   1      37.089  20.227  25.023  1.00  0.00     0.042 C 
BRANCH  24  25
ATOM     25  C   UNL A   1      38.470  20.751  25.400  1.00  0.00     0.118 C 
BRANCH  25  26
ATOM     26  N   UNL A   1      39.442  19.673  25.528  1.00  0.00    -0.352 N 
ATOM     27  C   UNL A   1      40.752  19.710  25.954  1.00  0.00     0.251 C 
ATOM     28  H   UNL A   1      39.113  18.781  25.270  1.00  0.00     0.163 HD
ATOM     29  O   UNL A   1      41.468  18.733  25.799  1.00  0.00    -0.269 OA
BRANCH  27  30
ATOM     30  C   UNL A   1      41.299  20.944  26.565  1.00  0.00     0.039 A 
ATOM     31  C   UNL A   1      41.218  21.160  27.941  1.00  0.00     0.014 A 
ATOM     32  C   UNL A   1      41.903  21.899  25.742  1.00  0.00     0.014 A 
ATOM     33  C   UNL A   1      41.571  22.397  28.467  1.00  0.00     0.010 A 
ATOM     34  C   UNL A   1      42.344  23.108  26.289  1.00  0.00     0.010 A 
ATOM     35  C   UNL A   1      42.129  23.390  27.647  1.00  0.00    -0.014 A 
BRANCH  35  36
ATOM     36  C   UNL A   1      42.451  24.721  28.225  1.00  0.00     0.031 A 
ATOM     37  C   UNL A   1      43.872  25.083  28.568  1.00  0.00     0.074 A 
ATOM     38  C   UNL A   1      41.469  25.629  28.381  1.00  0.00     0.049 A 
ATOM     39  N   UNL A   1      44.346  26.201  29.055  1.00  0.00    -0.248 NA
ATOM     40  C   UNL A   1      44.894  24.050  28.339  1.00  0.00     0.031 C 
ATOM     41  C   UNL A   1      40.056  25.407  28.069  1.00  0.00     0.029 A 
ATOM     42  N   UNL A   1      41.513  26.929  28.818  1.00  0.00    -0.354 N 
ATOM     43  C   UNL A   1      45.713  26.002  29.207  1.00  0.00     0.074 A 
ATOM     44  C   UNL A   1      45.987  24.642  28.797  1.00  0.00     0.031 C 
ATOM     45  C   UNL A   1      39.378  26.547  28.271  1.00  0.00     0.029 A 
ATOM     46  C   UNL A   1      40.292  27.558  28.788  1.00  0.00     0.049 A 
ATOM     47  H   UNL A   1      42.339  27.368  29.122  1.00  0.00     0.167 HD
ATOM     48  C   UNL A   1      46.658  26.876  29.634  1.00  0.00     0.037 A 
ATOM     49  C   UNL A   1      39.946  28.805  29.153  1.00  0.00     0.037 A 
ATOM     50  C   UNL A   1      46.385  28.232  30.036  1.00  0.00     0.049 A 
ATOM     51  C   UNL A   1      41.000  29.729  29.692  1.00  0.00     0.074 A 
ATOM     52  C   UNL A   1      47.274  29.201  30.468  1.00  0.00     0.029 A 
ATOM     53  N   UNL A   1      45.124  28.807  30.063  1.00  0.00    -0.354 N 
ATOM     54  N   UNL A   1      42.290  29.531  29.814  1.00  0.00    -0.248 NA
ATOM     55  C   UNL A   1      40.544  31.046  30.154  1.00  0.00     0.031 C 
ATOM     56  C   UNL A   1      46.543  30.348  30.802  1.00  0.00     0.029 A 
ATOM     57  C   UNL A   1      45.206  30.109  30.530  1.00  0.00     0.049 A 
ATOM     58  H   UNL A   1      44.291  28.358  29.789  1.00  0.00     0.167 HD
ATOM     59  C   UNL A   1      42.804  30.704  30.352  1.00  0.00     0.074 A 
ATOM     60  C   UNL A   1      41.688  31.615  30.509  1.00  0.00     0.031 C 
ATOM     61  C   UNL A   1      44.083  31.000  30.689  1.00  0.00     0.037 A 
BRANCH  48  62
ATOM     62  C   UNL A   1      48.072  26.371  29.714  1.00  0.00     0.057 A 
ATOM     63  C   UNL A   1      48.932  26.479  28.613  1.00  0.00     0.134 A 
ATOM     64  C   UNL A   1      48.588  25.782  30.877  1.00  0.00     0.134 A 
ATOM     65  F   UNL A   1      48.505  27.026  27.466  1.00  0.00    -0.206 F 
ATOM     66  C   UNL A   1      50.253  26.029  28.669  1.00  0.00     0.040 A 
ATOM     67  C   UNL A   1      49.914  25.353  30.955  1.00  0.00     0.040 A 
ATOM     68  F   UNL A   1      47.824  25.661  31.974  1.00  0.00    -0.206 F 
ATOM     69  C   UNL A   1      50.750  25.473  29.846  1.00  0.00     0.006 A 
ENDBRANCH  48  62
BRANCH  49  70
ATOM     70  C   UNL A   1      38.535  29.251  29.030  1.00  0.00     0.057 A 
ATOM     71  C   UNL A   1      37.666  29.234  30.129  1.00  0.00     0.134 A 
ATOM     72  C   UNL A   1      38.028  29.713  27.812  1.00  0.00     0.134 A 
ATOM     73  F   UNL A   1      38.091  28.798  31.324  1.00  0.00    -0.206 F 
ATOM     74  C   UNL A   1      36.338  29.650  30.016  1.00  0.00     0.040 A 
ATOM     75  C   UNL A   1      36.710  30.157  27.691  1.00  0.00     0.040 A 
ATOM     76  F   UNL A   1      38.817  29.771  26.730  1.00  0.00    -0.206 F 
ATOM     77  C   UNL A   1      35.860  30.121  28.795  1.00  0.00     0.006 A 
ENDBRANCH  49  70
BRANCH  61  78
ATOM     78  C   UNL A   1      44.338  32.375  31.237  1.00  0.00     0.057 A 
ATOM     79  C   UNL A   1      44.304  32.609  32.618  1.00  0.00     0.134 A 
ATOM     80  C   UNL A   1      44.612  33.465  30.401  1.00  0.00     0.134 A 
ATOM     81  F   UNL A   1      44.041  31.610  33.474  1.00  0.00    -0.206 F 
ATOM     82  C   UNL A   1      44.538  33.879  33.148  1.00  0.00     0.040 A 
ATOM     83  C   UNL A   1      44.876  34.733  30.922  1.00  0.00     0.040 A 
ATOM     84  F   UNL A   1      44.676  33.302  29.072  1.00  0.00    -0.206 F 
ATOM     85  C   UNL A   1      44.834  34.944  32.299  1.00  0.00     0.006 A 
ENDBRANCH  61  78
ENDBRANCH  35  36
ENDBRANCH  27  30
ENDBRANCH  25  26
ENDBRANCH  24  25
ENDBRANCH   1  24
TORSDOF 13
ENDMDL
MODEL 2
REMARK VINA RESULT:     -11.8      3.976      9.252
REMARK SMILES COc1cc(Cn2cc(C(=O)NCCCNC(=O)c3ccc(-c4c5nc(c(-c6c(F)cccc6F)c6ccc([nH]6)c(-c6c(F)cccc6F)c6nc(c(-c7c(F)cccc7F)c7ccc4[nH]7)C=C6)C=C5)cc3)c(=O)[nH]c2=O)ccn1
REMARK SMILES IDX 13 1 12 2 10 3 11 4 9 6 7 7 8 8 76 9 75 10 77 11 73 12 74 14
REMARK SMILES IDX 6 15 5 16 3 17 4 18 80 19 79 20 78 21 2 22 1 23 14 24 15 25
REMARK SMILES IDX 16 26 17 27 18 29 19 30 20 31 72 32 21 33 71 34 22 35 23 36
REMARK SMILES IDX 24 37 65 38 25 39 70 40 64 41 66 42 26 43 69 44 63 45 62 46
REMARK SMILES IDX 27 48 53 49 36 50 52 51 37 52 40 53 51 54 67 55 38 56 39 57
REMARK SMILES IDX 50 59 68 60 41 61 28 62 29 63 34 64 30 65 31 66 33 67 35 68
REMARK SMILES IDX 32 69 54 70 55 71 60 72 56 73 57 74 59 75 61 76 58 77 42 78
REMARK SMILES IDX 43 79 48 80 44 81 45 82 47 83 49 84 46 85
REMARK H PARENT 12 5 75 13 16 28 66 47 40 58
REMARK Flexibility Score: inf
ROOT
ATOM      1  C   UNL A   1      31.754  30.584  25.858  1.00  0.00     0.118 C 
ENDROOT
BRANCH   1   2
ATOM      2  N   UNL A   1      33.083  30.162  26.266  1.00  0.00    -0.352 N 
ATOM      3  C   UNL A   1      33.647  28.938  26.482  1.00  0.00     0.258 C 
ATOM      4  O   UNL A   1      34.792  28.935  26.936  1.00  0.00    -0.269 OA
ATOM      5  H   UNL A   1      33.702  30.912  26.417  1.00  0.00     0.163 HD
BRANCH   3   6
ATOM      6  C   UNL A   1      32.944  27.660  26.172  1.00  0.00     0.121 A 
ATOM      7  N   UNL A   1      32.678  25.641  24.899  1.00  0.00    -0.295 N 
ATOM      8  C   UNL A   1      33.283  26.860  25.152  1.00  0.00     0.110 A 
ATOM      9  C   UNL A   1      31.547  25.236  25.591  1.00  0.00     0.328 A 
ATOM     10  N   UNL A   1      31.105  26.114  26.542  1.00  0.00    -0.273 N 
ATOM     11  O   UNL A   1      30.961  24.174  25.400  1.00  0.00    -0.248 OA
ATOM     12  C   UNL A   1      31.749  27.248  26.961  1.00  0.00     0.266 A 
ATOM     13  H   UNL A   1      30.240  25.912  26.967  1.00  0.00     0.175 HD
ATOM     14  O   UNL A   1      31.356  27.847  27.956  1.00  0.00    -0.268 OA
BRANCH   7  15
ATOM     15  C   UNL A   1      33.276  24.722  23.924  1.00  0.00     0.162 C 
BRANCH  15  16
ATOM     16  C   UNL A   1      34.186  23.704  24.579  1.00  0.00    -0.021 A 
ATOM     17  C   UNL A   1      34.784  21.451  25.110  1.00  0.00     0.213 A 
ATOM     18  C   UNL A   1      33.903  22.338  24.509  1.00  0.00     0.074 A 
ATOM     19  N   UNL A   1      35.866  21.815  25.827  1.00  0.00    -0.222 NA
ATOM     20  C   UNL A   1      36.108  23.136  25.910  1.00  0.00     0.115 A 
ATOM     21  C   UNL A   1      35.326  24.098  25.289  1.00  0.00     0.026 A 
BRANCH  17  22
ATOM     22  O   UNL A   1      34.584  20.102  24.966  1.00  0.00    -0.481 OA
ATOM     23  C   UNL A   1      33.200  19.831  25.182  1.00  0.00     0.280 C 
ENDBRANCH  17  22
ENDBRANCH  15  16
ENDBRANCH   7  15
ENDBRANCH   3   6
ENDBRANCH   1   2
BRANCH   1  24
ATOM     24  C   UNL A   1      31.397  31.919  26.513  1.00  0.00     0.042 C 
BRANCH  24  25
ATOM     25  C   UNL A   1      32.573  32.554  27.248  1.00  0.00     0.118 C 
BRANCH  25  26
ATOM     26  N   UNL A   1      32.322  33.954  27.564  1.00  0.00    -0.352 N 
ATOM     27  C   UNL A   1      32.944  34.779  28.475  1.00  0.00     0.251 C 
ATOM     28  H   UNL A   1      31.596  34.375  27.048  1.00  0.00     0.163 HD
ATOM     29  O   UNL A   1      32.457  35.868  28.739  1.00  0.00    -0.269 OA
BRANCH  27  30
ATOM     30  C   UNL A   1      34.180  34.332  29.159  1.00  0.00     0.039 A 
ATOM     31  C   UNL A   1      35.435  34.552  28.590  1.00  0.00     0.014 A 
ATOM     32  C   UNL A   1      34.076  33.681  30.392  1.00  0.00     0.014 A 
ATOM     33  C   UNL A   1      36.561  33.967  29.156  1.00  0.00     0.010 A 
ATOM     34  C   UNL A   1      35.224  33.173  31.008  1.00  0.00     0.010 A 
ATOM     35  C   UNL A   1      36.469  33.262  30.366  1.00  0.00    -0.014 A 
BRANCH  35  36
ATOM     36  C   UNL A   1      37.679  32.603  30.923  1.00  0.00     0.031 A 
ATOM     37  C   UNL A   1      38.271  33.067  32.227  1.00  0.00     0.074 A 
ATOM     38  C   UNL A   1      38.208  31.542  30.284  1.00  0.00     0.049 A 
ATOM     39  N   UNL A   1      39.306  32.600  32.880  1.00  0.00    -0.248 NA
ATOM     40  C   UNL A   1      37.618  34.211  32.883  1.00  0.00     0.031 C 
ATOM     41  C   UNL A   1      37.716  30.984  29.023  1.00  0.00     0.029 A 
ATOM     42  N   UNL A   1      39.260  30.728  30.620  1.00  0.00    -0.354 N 
ATOM     43  C   UNL A   1      39.438  33.400  34.009  1.00  0.00     0.074 A 
ATOM     44  C   UNL A   1      38.402  34.406  33.933  1.00  0.00     0.031 C 
ATOM     45  C   UNL A   1      38.429  29.889  28.720  1.00  0.00     0.029 A 
ATOM     46  C   UNL A   1      39.467  29.705  29.727  1.00  0.00     0.049 A 
ATOM     47  H   UNL A   1      39.813  30.864  31.423  1.00  0.00     0.167 HD
ATOM     48  C   UNL A   1      40.330  33.297  35.024  1.00  0.00     0.037 A 
ATOM     49  C   UNL A   1      40.400  28.737  29.713  1.00  0.00     0.037 A 
ATOM     50  C   UNL A   1      41.358  32.290  35.101  1.00  0.00     0.049 A 
ATOM     51  C   UNL A   1      41.423  28.690  30.812  1.00  0.00     0.074 A 
ATOM     52  C   UNL A   1      42.300  32.090  36.095  1.00  0.00     0.029 A 
ATOM     53  N   UNL A   1      41.581  31.317  34.139  1.00  0.00    -0.354 N 
ATOM     54  N   UNL A   1      41.525  29.443  31.880  1.00  0.00    -0.248 NA
ATOM     55  C   UNL A   1      42.466  27.663  30.694  1.00  0.00     0.031 C 
ATOM     56  C   UNL A   1      43.125  31.026  35.710  1.00  0.00     0.029 A 
ATOM     57  C   UNL A   1      42.664  30.531  34.501  1.00  0.00     0.049 A 
ATOM     58  H   UNL A   1      41.049  31.200  33.318  1.00  0.00     0.167 HD
ATOM     59  C   UNL A   1      42.634  28.972  32.571  1.00  0.00     0.074 A 
ATOM     60  C   UNL A   1      43.154  27.853  31.812  1.00  0.00     0.031 C 
ATOM     61  C   UNL A   1      43.174  29.426  33.728  1.00  0.00     0.037 A 
BRANCH  48  62
ATOM     62  C   UNL A   1      40.247  34.326  36.117  1.00  0.00     0.057 A 
ATOM     63  C   UNL A   1      40.932  35.544  36.004  1.00  0.00     0.134 A 
ATOM     64  C   UNL A   1      39.490  34.120  37.279  1.00  0.00     0.134 A 
ATOM     65  F   UNL A   1      41.681  35.807  34.924  1.00  0.00    -0.206 F 
ATOM     66  C   UNL A   1      40.858  36.520  37.001  1.00  0.00     0.040 A 
ATOM     67  C   UNL A   1      39.386  35.099  38.269  1.00  0.00     0.040 A 
ATOM     68  F   UNL A   1      38.796  32.983  37.445  1.00  0.00    -0.206 F 
ATOM     69  C   UNL A   1      40.075  36.302  38.132  1.00  0.00     0.006 A 
ENDBRANCH  48  62
BRANCH  49  70
ATOM     70  C   UNL A   1      40.418  27.736  28.616  1.00  0.00     0.057 A 
ATOM     71  C   UNL A   1      39.701  26.537  28.710  1.00  0.00     0.134 A 
ATOM     72  C   UNL A   1      41.146  27.963  27.444  1.00  0.00     0.134 A 
ATOM     73  F   UNL A   1      38.986  26.258  29.810  1.00  0.00    -0.206 F 
ATOM     74  C   UNL A   1      39.718  25.593  27.682  1.00  0.00     0.040 A 
ATOM     75  C   UNL A   1      41.151  27.041  26.397  1.00  0.00     0.040 A 
ATOM     76  F   UNL A   1      41.837  29.102  27.288  1.00  0.00    -0.206 F 
ATOM     77  C   UNL A   1      40.439  25.849  26.518  1.00  0.00     0.006 A 
ENDBRANCH  49  70
BRANCH  61  78
ATOM     78  C   UNL A   1      44.377  28.691  34.247  1.00  0.00     0.057 A 
ATOM     79  C   UNL A   1      44.228  27.573  35.076  1.00  0.00     0.134 A 
ATOM     80  C   UNL A   1      45.682  29.093  33.929  1.00  0.00     0.134 A 
ATOM     81  F   UNL A   1      43.006  27.140  35.424  1.00  0.00    -0.206 F 
ATOM     82  C   UNL A   1      45.333  26.877  35.569  1.00  0.00     0.040 A 
ATOM     83  C   UNL A   1      46.794  28.387  34.393  1.00  0.00     0.040 A 
ATOM     84  F   UNL A   1      45.893  30.145  33.125  1.00  0.00    -0.206 F 
ATOM     85  C   UNL A   1      46.620  27.279  35.220  1.00  0.00     0.006 A 
ENDBRANCH  61  78
ENDBRANCH  35  36
ENDBRANCH  27  30
ENDBRANCH  25  26
ENDBRANCH  24  25
ENDBRANCH   1  24
TORSDOF 13
ENDMDL
MODEL 3
REMARK VINA RESULT:     -11.8      2.083      7.696
REMARK SMILES COc1cc(Cn2cc(C(=O)NCCCNC(=O)c3ccc(-c4c5nc(c(-c6c(F)cccc6F)c6ccc([nH]6)c(-c6c(F)cccc6F)c6nc(c(-c7c(F)cccc7F)c7ccc4[nH]7)C=C6)C=C5)cc3)c(=O)[nH]c2=O)ccn1
REMARK SMILES IDX 13 1 12 2 10 3 11 4 9 6 7 7 8 8 76 9 75 10 77 11 73 12 74 14
REMARK SMILES IDX 6 15 5 16 3 17 4 18 80 19 79 20 78 21 2 22 1 23 14 24 15 25
REMARK SMILES IDX 16 26 17 27 18 29 19 30 20 31 72 32 21 33 71 34 22 35 23 36
REMARK SMILES IDX 24 37 65 38 25 39 70 40 64 41 66 42 26 43 69 44 63 45 62 46
REMARK SMILES IDX 27 48 53 49 36 50 52 51 37 52 40 53 51 54 67 55 38 56 39 57
REMARK SMILES IDX 50 59 68 60 41 61 28 62 29 63 34 64 30 65 31 66 33 67 35 68
REMARK SMILES IDX 32 69 54 70 55 71 60 72 56 73 57 74 59 75 61 76 58 77 42 78
REMARK SMILES IDX 43 79 48 80 44 81 45 82 47 83 49 84 46 85
REMARK H PARENT 12 5 75 13 16 28 66 47 40 58
REMARK Flexibility Score: inf
ROOT
ATOM      1  C   UNL A   1      32.188  28.816  25.164  1.00  0.00     0.118 C 
ENDROOT
BRANCH   1   2
ATOM      2  N   UNL A   1      31.244  27.756  25.475  1.00  0.00    -0.352 N 
ATOM      3  C   UNL A   1      30.827  26.650  24.793  1.00  0.00     0.258 C 
ATOM      4  O   UNL A   1      29.915  26.002  25.306  1.00  0.00    -0.269 OA
ATOM      5  H   UNL A   1      30.820  27.858  26.357  1.00  0.00     0.163 HD
BRANCH   3   6
ATOM      6  C   UNL A   1      31.442  26.217  23.506  1.00  0.00     0.121 A 
ATOM      7  N   UNL A   1      32.738  24.688  22.183  1.00  0.00    -0.295 N 
ATOM      8  C   UNL A   1      32.219  25.133  23.386  1.00  0.00     0.110 A 
ATOM      9  C   UNL A   1      32.630  25.442  21.025  1.00  0.00     0.328 A 
ATOM     10  N   UNL A   1      31.957  26.625  21.165  1.00  0.00    -0.273 N 
ATOM     11  O   UNL A   1      33.082  25.105  19.934  1.00  0.00    -0.248 OA
ATOM     12  C   UNL A   1      31.274  27.043  22.277  1.00  0.00     0.266 A 
ATOM     13  H   UNL A   1      31.965  27.236  20.393  1.00  0.00     0.175 HD
ATOM     14  O   UNL A   1      30.546  28.028  22.217  1.00  0.00    -0.268 OA
BRANCH   7  15
ATOM     15  C   UNL A   1      33.363  23.362  22.107  1.00  0.00     0.162 C 
BRANCH  15  16
ATOM     16  C   UNL A   1      34.120  23.013  23.372  1.00  0.00    -0.021 A 
ATOM     17  C   UNL A   1      35.989  23.262  24.842  1.00  0.00     0.213 A 
ATOM     18  C   UNL A   1      35.353  23.604  23.657  1.00  0.00     0.074 A 
ATOM     19  N   UNL A   1      35.537  22.338  25.713  1.00  0.00    -0.222 NA
ATOM     20  C   UNL A   1      34.363  21.757  25.409  1.00  0.00     0.115 A 
ATOM     21  C   UNL A   1      33.618  22.078  24.284  1.00  0.00     0.026 A 
BRANCH  17  22
ATOM     22  O   UNL A   1      37.149  23.904  25.193  1.00  0.00    -0.481 OA
ATOM     23  C   UNL A   1      37.974  22.979  25.900  1.00  0.00     0.280 C 
ENDBRANCH  17  22
ENDBRANCH  15  16
ENDBRANCH   7  15
ENDBRANCH   3   6
ENDBRANCH   1   2
BRANCH   1  24
ATOM     24  C   UNL A   1      33.560  28.497  25.764  1.00  0.00     0.042 C 
BRANCH  24  25
ATOM     25  C   UNL A   1      33.591  28.638  27.282  1.00  0.00     0.118 C 
BRANCH  25  26
ATOM     26  N   UNL A   1      33.634  30.035  27.696  1.00  0.00    -0.352 N 
ATOM     27  C   UNL A   1      34.647  30.746  28.300  1.00  0.00     0.251 C 
ATOM     28  H   UNL A   1      32.814  30.549  27.515  1.00  0.00     0.163 HD
ATOM     29  O   UNL A   1      34.420  31.857  28.754  1.00  0.00    -0.269 OA
BRANCH  27  30
ATOM     30  C   UNL A   1      35.997  30.150  28.432  1.00  0.00     0.039 A 
ATOM     31  C   UNL A   1      36.392  29.521  29.613  1.00  0.00     0.014 A 
ATOM     32  C   UNL A   1      36.880  30.225  27.350  1.00  0.00     0.014 A 
ATOM     33  C   UNL A   1      37.716  29.133  29.777  1.00  0.00     0.010 A 
ATOM     34  C   UNL A   1      38.187  29.748  27.487  1.00  0.00     0.010 A 
ATOM     35  C   UNL A   1      38.633  29.251  28.721  1.00  0.00    -0.014 A 
BRANCH  35  36
ATOM     36  C   UNL A   1      40.054  28.876  28.940  1.00  0.00     0.031 A 
ATOM     37  C   UNL A   1      40.979  29.793  29.695  1.00  0.00     0.074 A 
ATOM     38  C   UNL A   1      40.496  27.677  28.513  1.00  0.00     0.049 A 
ATOM     39  N   UNL A   1      42.240  29.624  30.006  1.00  0.00    -0.248 NA
ATOM     40  C   UNL A   1      40.416  31.070  30.159  1.00  0.00     0.031 C 
ATOM     41  C   UNL A   1      39.694  26.692  27.786  1.00  0.00     0.029 A 
ATOM     42  N   UNL A   1      41.720  27.074  28.651  1.00  0.00    -0.354 N 
ATOM     43  C   UNL A   1      42.624  30.776  30.682  1.00  0.00     0.074 A 
ATOM     44  C   UNL A   1      41.473  31.653  30.704  1.00  0.00     0.031 C 
ATOM     45  C   UNL A   1      40.429  25.587  27.590  1.00  0.00     0.029 A 
ATOM     46  C   UNL A   1      41.770  25.809  28.117  1.00  0.00     0.049 A 
ATOM     47  H   UNL A   1      42.488  27.505  29.090  1.00  0.00     0.167 HD
ATOM     48  C   UNL A   1      43.819  31.072  31.249  1.00  0.00     0.037 A 
ATOM     49  C   UNL A   1      42.788  24.933  28.047  1.00  0.00     0.037 A 
ATOM     50  C   UNL A   1      44.962  30.195  31.232  1.00  0.00     0.049 A 
ATOM     51  C   UNL A   1      44.123  25.315  28.617  1.00  0.00     0.074 A 
ATOM     52  C   UNL A   1      46.213  30.394  31.791  1.00  0.00     0.029 A 
ATOM     53  N   UNL A   1      44.994  28.953  30.616  1.00  0.00    -0.354 N 
ATOM     54  N   UNL A   1      44.465  26.401  29.267  1.00  0.00    -0.248 NA
ATOM     55  C   UNL A   1      45.216  24.352  28.432  1.00  0.00     0.031 C 
ATOM     56  C   UNL A   1      47.017  29.293  31.470  1.00  0.00     0.029 A 
ATOM     57  C   UNL A   1      46.251  28.386  30.756  1.00  0.00     0.049 A 
ATOM     58  H   UNL A   1      44.236  28.535  30.148  1.00  0.00     0.167 HD
ATOM     59  C   UNL A   1      45.809  26.245  29.583  1.00  0.00     0.074 A 
ATOM     60  C   UNL A   1      46.210  24.949  29.074  1.00  0.00     0.031 C 
ATOM     61  C   UNL A   1      46.636  27.098  30.234  1.00  0.00     0.037 A 
BRANCH  48  62
ATOM     62  C   UNL A   1      43.953  32.418  31.906  1.00  0.00     0.057 A 
ATOM     63  C   UNL A   1      43.646  32.582  33.264  1.00  0.00     0.134 A 
ATOM     64  C   UNL A   1      44.386  33.551  31.203  1.00  0.00     0.134 A 
ATOM     65  F   UNL A   1      43.219  31.544  33.996  1.00  0.00    -0.206 F 
ATOM     66  C   UNL A   1      43.775  33.820  33.898  1.00  0.00     0.040 A 
ATOM     67  C   UNL A   1      44.545  34.786  31.833  1.00  0.00     0.040 A 
ATOM     68  F   UNL A   1      44.712  33.461  29.904  1.00  0.00    -0.206 F 
ATOM     69  C   UNL A   1      44.236  34.924  33.184  1.00  0.00     0.006 A 
ENDBRANCH  48  62
BRANCH  49  70
ATOM     70  C   UNL A   1      42.587  23.610  27.402  1.00  0.00     0.057 A 
ATOM     71  C   UNL A   1      42.739  23.441  26.020  1.00  0.00     0.134 A 
ATOM     72  C   UNL A   1      42.248  22.483  28.158  1.00  0.00     0.134 A 
ATOM     73  F   UNL A   1      43.059  24.484  25.240  1.00  0.00    -0.206 F 
ATOM     74  C   UNL A   1      42.547  22.200  25.412  1.00  0.00     0.040 A 
ATOM     75  C   UNL A   1      42.080  21.230  27.566  1.00  0.00     0.040 A 
ATOM     76  F   UNL A   1      42.108  22.579  29.488  1.00  0.00    -0.206 F 
ATOM     77  C   UNL A   1      42.225  21.088  26.187  1.00  0.00     0.006 A 
ENDBRANCH  49  70
BRANCH  61  78
ATOM     78  C   UNL A   1      48.051  26.639  30.447  1.00  0.00     0.057 A 
ATOM     79  C   UNL A   1      48.390  25.872  31.569  1.00  0.00     0.134 A 
ATOM     80  C   UNL A   1      49.075  26.959  29.546  1.00  0.00     0.134 A 
ATOM     81  F   UNL A   1      47.458  25.536  32.474  1.00  0.00    -0.206 F 
ATOM     82  C   UNL A   1      49.699  25.435  31.785  1.00  0.00     0.040 A 
ATOM     83  C   UNL A   1      50.381  26.503  29.737  1.00  0.00     0.040 A 
ATOM     84  F   UNL A   1      48.811  27.675  28.444  1.00  0.00    -0.206 F 
ATOM     85  C   UNL A   1      50.696  25.744  30.862  1.00  0.00     0.006 A 
ENDBRANCH  61  78
ENDBRANCH  35  36
ENDBRANCH  27  30
ENDBRANCH  25  26
ENDBRANCH  24  25
ENDBRANCH   1  24
TORSDOF 13
ENDMDL
