MODEL 1
REMARK VINA RESULT:     -10.7      0.000      0.000
REMARK SMILES C[C@](NC(=O)CSCc1cccs1)(C(=O)NCCCNC(=O)c1ccc(-c2c3nc(c(-c4c(F)cccc4F)c4ccc([nH]4)c(-c4c(F)cccc4F)c4nc(c(-c5c(F)cccc5F)c5ccc2[nH]5)C=C4)C=C3)cc1)C(F)(F)F
REMARK SMILES IDX 14 1 15 2 16 3 2 5 1 6 77 7 78 8 79 9 80 10 3 11 4 12 5 14
REMARK SMILES IDX 6 15 7 16 8 17 9 18 10 19 13 20 11 21 12 22 17 23 18 24
REMARK SMILES IDX 19 25 20 26 21 27 22 29 23 30 24 31 76 32 25 33 75 34 26 35
REMARK SMILES IDX 27 36 28 37 69 38 29 39 74 40 68 41 70 42 30 43 73 44 67 45
REMARK SMILES IDX 66 46 31 48 57 49 40 50 56 51 41 52 44 53 55 54 71 55 42 56
REMARK SMILES IDX 43 57 54 59 72 60 45 61 32 62 33 63 38 64 34 65 35 66 37 67
REMARK SMILES IDX 39 68 36 69 58 70 59 71 64 72 60 73 61 74 63 75 65 76 62 77
REMARK SMILES IDX 46 78 47 79 52 80 48 81 49 82 51 83 53 84 50 85
REMARK H PARENT 16 4 3 13 20 28 70 47 44 58
REMARK Flexibility Score: inf
ROOT
ATOM      1  C   UNL A   1      33.677  20.283  25.498  1.00  0.00     0.254 C 
ATOM      2  O   UNL A   1      32.849  19.376  25.588  1.00  0.00    -0.272 OA
ATOM      3  N   UNL A   1      34.983  19.891  25.321  1.00  0.00    -0.354 N 
ATOM      4  H   UNL A   1      35.134  18.923  25.418  1.00  0.00     0.163 HD
ENDROOT
BRANCH   1   5
ATOM      5  C   UNL A   1      33.287  21.777  25.435  1.00  0.00     0.212 C 
ATOM      6  C   UNL A   1      31.759  21.829  25.318  1.00  0.00     0.056 C 
BRANCH   5   7
ATOM      7  C   UNL A   1      33.701  22.427  26.768  1.00  0.00     0.420 C 
ATOM      8  F   UNL A   1      32.821  23.372  27.169  1.00  0.00    -0.168 F 
ATOM      9  F   UNL A   1      33.726  21.485  27.749  1.00  0.00    -0.168 F 
ATOM     10  F   UNL A   1      34.934  22.975  26.732  1.00  0.00    -0.168 F 
ENDBRANCH   5   7
BRANCH   5  11
ATOM     11  N   UNL A   1      34.048  22.338  24.270  1.00  0.00    -0.334 N 
ATOM     12  C   UNL A   1      34.115  23.530  23.631  1.00  0.00     0.231 C 
ATOM     13  H   UNL A   1      34.652  21.672  23.868  1.00  0.00     0.164 HD
ATOM     14  O   UNL A   1      34.982  23.624  22.757  1.00  0.00    -0.274 OA
BRANCH  12  15
ATOM     15  C   UNL A   1      33.169  24.677  23.901  1.00  0.00     0.169 C 
BRANCH  15  16
ATOM     16  S   UNL A   1      33.870  25.974  24.973  1.00  0.00    -0.146 SA
BRANCH  16  17
ATOM     17  C   UNL A   1      33.146  27.495  24.278  1.00  0.00     0.116 C 
BRANCH  17  18
ATOM     18  C   UNL A   1      32.917  28.534  25.321  1.00  0.00     0.014 A 
ATOM     19  C   UNL A   1      33.705  28.840  26.413  1.00  0.00     0.016 A 
ATOM     20  S   UNL A   1      31.549  29.564  25.224  1.00  0.00    -0.148 S 
ATOM     21  C   UNL A   1      33.164  29.905  27.187  1.00  0.00     0.012 A 
ATOM     22  C   UNL A   1      31.991  30.389  26.653  1.00  0.00     0.065 A 
ENDBRANCH  17  18
ENDBRANCH  16  17
ENDBRANCH  15  16
ENDBRANCH  12  15
ENDBRANCH   5  11
ENDBRANCH   1   5
BRANCH   3  23
ATOM     23  C   UNL A   1      36.180  20.661  25.015  1.00  0.00     0.117 C 
BRANCH  23  24
ATOM     24  C   UNL A   1      37.420  19.783  24.897  1.00  0.00     0.042 C 
BRANCH  24  25
ATOM     25  C   UNL A   1      38.631  20.340  25.634  1.00  0.00     0.118 C 
BRANCH  25  26
ATOM     26  N   UNL A   1      39.721  19.378  25.724  1.00  0.00    -0.352 N 
ATOM     27  C   UNL A   1      41.038  19.555  26.065  1.00  0.00     0.251 C 
ATOM     28  H   UNL A   1      39.472  18.451  25.505  1.00  0.00     0.163 HD
ATOM     29  O   UNL A   1      41.828  18.630  25.901  1.00  0.00    -0.269 OA
BRANCH  27  30
ATOM     30  C   UNL A   1      41.515  20.846  26.603  1.00  0.00     0.039 A 
ATOM     31  C   UNL A   1      41.946  21.825  25.701  1.00  0.00     0.014 A 
ATOM     32  C   UNL A   1      41.568  21.093  27.976  1.00  0.00     0.014 A 
ATOM     33  C   UNL A   1      42.373  23.064  26.178  1.00  0.00     0.010 A 
ATOM     34  C   UNL A   1      41.907  22.359  28.445  1.00  0.00     0.010 A 
ATOM     35  C   UNL A   1      42.321  23.356  27.552  1.00  0.00    -0.014 A 
BRANCH  35  36
ATOM     36  C   UNL A   1      42.686  24.705  28.053  1.00  0.00     0.031 A 
ATOM     37  C   UNL A   1      44.125  25.081  28.276  1.00  0.00     0.074 A 
ATOM     38  C   UNL A   1      41.706  25.585  28.342  1.00  0.00     0.049 A 
ATOM     39  N   UNL A   1      44.626  26.217  28.689  1.00  0.00    -0.248 NA
ATOM     40  C   UNL A   1      45.132  24.038  28.029  1.00  0.00     0.031 C 
ATOM     41  C   UNL A   1      40.270  25.316  28.236  1.00  0.00     0.029 A 
ATOM     42  N   UNL A   1      41.769  26.883  28.779  1.00  0.00    -0.354 N 
ATOM     43  C   UNL A   1      46.000  26.024  28.759  1.00  0.00     0.074 A 
ATOM     44  C   UNL A   1      46.249  24.643  28.407  1.00  0.00     0.031 C 
ATOM     45  C   UNL A   1      39.590  26.428  28.556  1.00  0.00     0.029 A 
ATOM     46  C   UNL A   1      40.537  27.475  28.921  1.00  0.00     0.049 A 
ATOM     47  H   UNL A   1      42.616  27.347  28.973  1.00  0.00     0.167 HD
ATOM     48  C   UNL A   1      46.970  26.921  29.061  1.00  0.00     0.037 A 
ATOM     49  C   UNL A   1      40.209  28.726  29.293  1.00  0.00     0.037 A 
ATOM     50  C   UNL A   1      46.719  28.300  29.395  1.00  0.00     0.049 A 
ATOM     51  C   UNL A   1      41.304  29.707  29.603  1.00  0.00     0.074 A 
ATOM     52  C   UNL A   1      47.634  29.303  29.663  1.00  0.00     0.029 A 
ATOM     53  N   UNL A   1      45.460  28.868  29.509  1.00  0.00    -0.354 N 
ATOM     54  N   UNL A   1      42.603  29.532  29.587  1.00  0.00    -0.248 NA
ATOM     55  C   UNL A   1      40.885  31.067  29.969  1.00  0.00     0.031 C 
ATOM     56  C   UNL A   1      46.927  30.467  29.983  1.00  0.00     0.029 A 
ATOM     57  C   UNL A   1      45.572  30.203  29.861  1.00  0.00     0.049 A 
ATOM     58  H   UNL A   1      44.610  28.393  29.362  1.00  0.00     0.167 HD
ATOM     59  C   UNL A   1      43.157  30.763  29.911  1.00  0.00     0.074 A 
ATOM     60  C   UNL A   1      42.052  31.681  30.097  1.00  0.00     0.031 C 
ATOM     61  C   UNL A   1      44.463  31.105  30.044  1.00  0.00     0.037 A 
BRANCH  48  62
ATOM     62  C   UNL A   1      48.392  26.437  29.038  1.00  0.00     0.057 A 
ATOM     63  C   UNL A   1      48.976  25.804  30.144  1.00  0.00     0.134 A 
ATOM     64  C   UNL A   1      49.178  26.574  27.887  1.00  0.00     0.134 A 
ATOM     65  F   UNL A   1      48.284  25.651  31.284  1.00  0.00    -0.206 F 
ATOM     66  C   UNL A   1      50.296  25.351  30.116  1.00  0.00     0.040 A 
ATOM     67  C   UNL A   1      50.490  26.099  27.837  1.00  0.00     0.040 A 
ATOM     68  F   UNL A   1      48.682  27.165  26.790  1.00  0.00    -0.206 F 
ATOM     69  C   UNL A   1      51.055  25.492  28.956  1.00  0.00     0.006 A 
ENDBRANCH  48  62
BRANCH  49  70
ATOM     70  C   UNL A   1      38.782  29.133  29.352  1.00  0.00     0.057 A 
ATOM     71  C   UNL A   1      38.120  29.612  28.214  1.00  0.00     0.134 A 
ATOM     72  C   UNL A   1      38.050  29.062  30.542  1.00  0.00     0.134 A 
ATOM     73  F   UNL A   1      38.774  29.719  27.048  1.00  0.00    -0.206 F 
ATOM     74  C   UNL A   1      36.789  30.028  28.264  1.00  0.00     0.040 A 
ATOM     75  C   UNL A   1      36.710  29.448  30.599  1.00  0.00     0.040 A 
ATOM     76  F   UNL A   1      38.622  28.601  31.664  1.00  0.00    -0.206 F 
ATOM     77  C   UNL A   1      36.079  29.941  29.459  1.00  0.00     0.006 A 
ENDBRANCH  49  70
BRANCH  61  78
ATOM     78  C   UNL A   1      44.759  32.540  30.371  1.00  0.00     0.057 A 
ATOM     79  C   UNL A   1      44.924  33.510  29.374  1.00  0.00     0.134 A 
ATOM     80  C   UNL A   1      44.881  32.956  31.704  1.00  0.00     0.134 A 
ATOM     81  F   UNL A   1      44.833  33.176  28.078  1.00  0.00    -0.206 F 
ATOM     82  C   UNL A   1      45.241  34.833  29.689  1.00  0.00     0.040 A 
ATOM     83  C   UNL A   1      45.165  34.282  32.031  1.00  0.00     0.040 A 
ATOM     84  F   UNL A   1      44.723  32.081  32.708  1.00  0.00    -0.206 F 
ATOM     85  C   UNL A   1      45.358  35.222  31.021  1.00  0.00     0.006 A 
ENDBRANCH  61  78
ENDBRANCH  35  36
ENDBRANCH  27  30
ENDBRANCH  25  26
ENDBRANCH  24  25
ENDBRANCH  23  24
ENDBRANCH   3  23
TORSDOF 16
ENDMDL
MODEL 2
REMARK VINA RESULT:     -10.5      0.984      6.261
REMARK SMILES C[C@](NC(=O)CSCc1cccs1)(C(=O)NCCCNC(=O)c1ccc(-c2c3nc(c(-c4c(F)cccc4F)c4ccc([nH]4)c(-c4c(F)cccc4F)c4nc(c(-c5c(F)cccc5F)c5ccc2[nH]5)C=C4)C=C3)cc1)C(F)(F)F
REMARK SMILES IDX 14 1 15 2 16 3 2 5 1 6 77 7 78 8 79 9 80 10 3 11 4 12 5 14
REMARK SMILES IDX 6 15 7 16 8 17 9 18 10 19 13 20 11 21 12 22 17 23 18 24
REMARK SMILES IDX 19 25 20 26 21 27 22 29 23 30 24 31 76 32 25 33 75 34 26 35
REMARK SMILES IDX 27 36 28 37 69 38 29 39 74 40 68 41 70 42 30 43 73 44 67 45
REMARK SMILES IDX 66 46 31 48 57 49 40 50 56 51 41 52 44 53 55 54 71 55 42 56
REMARK SMILES IDX 43 57 54 59 72 60 45 61 32 62 33 63 38 64 34 65 35 66 37 67
REMARK SMILES IDX 39 68 36 69 58 70 59 71 64 72 60 73 61 74 63 75 65 76 62 77
REMARK SMILES IDX 46 78 47 79 52 80 48 81 49 82 51 83 53 84 50 85
REMARK H PARENT 16 4 3 13 20 28 70 47 44 58
REMARK Flexibility Score: inf
ROOT
ATOM      1  C   UNL A   1      33.718  20.327  25.396  1.00  0.00     0.254 C 
ATOM      2  O   UNL A   1      32.896  19.411  25.404  1.00  0.00    -0.272 OA
ATOM      3  N   UNL A   1      35.027  19.960  25.194  1.00  0.00    -0.354 N 
ATOM      4  H   UNL A   1      35.184  18.989  25.209  1.00  0.00     0.163 HD
ENDROOT
BRANCH   1   5
ATOM      5  C   UNL A   1      33.318  21.818  25.457  1.00  0.00     0.212 C 
ATOM      6  C   UNL A   1      31.788  21.868  25.379  1.00  0.00     0.056 C 
BRANCH   5   7
ATOM      7  C   UNL A   1      33.759  22.367  26.827  1.00  0.00     0.420 C 
ATOM      8  F   UNL A   1      34.860  23.147  26.733  1.00  0.00    -0.168 F 
ATOM      9  F   UNL A   1      32.776  23.154  27.343  1.00  0.00    -0.168 F 
ATOM     10  F   UNL A   1      33.993  21.400  27.738  1.00  0.00    -0.168 F 
ENDBRANCH   5   7
BRANCH   5  11
ATOM     11  N   UNL A   1      34.049  22.473  24.322  1.00  0.00    -0.334 N 
ATOM     12  C   UNL A   1      33.974  23.656  23.667  1.00  0.00     0.231 C 
ATOM     13  H   UNL A   1      34.764  21.899  23.963  1.00  0.00     0.164 HD
ATOM     14  O   UNL A   1      34.863  23.867  22.836  1.00  0.00    -0.274 OA
BRANCH  12  15
ATOM     15  C   UNL A   1      32.858  24.654  23.868  1.00  0.00     0.169 C 
BRANCH  15  16
ATOM     16  S   UNL A   1      33.164  25.839  25.221  1.00  0.00    -0.146 SA
BRANCH  16  17
ATOM     17  C   UNL A   1      31.477  26.279  25.749  1.00  0.00     0.116 C 
BRANCH  17  18
ATOM     18  C   UNL A   1      30.810  27.196  24.783  1.00  0.00     0.014 A 
ATOM     19  C   UNL A   1      29.725  26.941  23.967  1.00  0.00     0.016 A 
ATOM     20  S   UNL A   1      31.355  28.814  24.617  1.00  0.00    -0.148 S 
ATOM     21  C   UNL A   1      29.363  28.071  23.181  1.00  0.00     0.012 A 
ATOM     22  C   UNL A   1      30.171  29.157  23.434  1.00  0.00     0.065 A 
ENDBRANCH  17  18
ENDBRANCH  16  17
ENDBRANCH  15  16
ENDBRANCH  12  15
ENDBRANCH   5  11
ENDBRANCH   1   5
BRANCH   3  23
ATOM     23  C   UNL A   1      36.221  20.761  24.961  1.00  0.00     0.117 C 
BRANCH  23  24
ATOM     24  C   UNL A   1      37.475  19.907  24.826  1.00  0.00     0.042 C 
BRANCH  24  25
ATOM     25  C   UNL A   1      38.647  20.411  25.660  1.00  0.00     0.118 C 
BRANCH  25  26
ATOM     26  N   UNL A   1      39.731  19.442  25.741  1.00  0.00    -0.352 N 
ATOM     27  C   UNL A   1      41.048  19.609  26.087  1.00  0.00     0.251 C 
ATOM     28  H   UNL A   1      39.479  18.520  25.510  1.00  0.00     0.163 HD
ATOM     29  O   UNL A   1      41.835  18.683  25.915  1.00  0.00    -0.269 OA
BRANCH  27  30
ATOM     30  C   UNL A   1      41.530  20.892  26.642  1.00  0.00     0.039 A 
ATOM     31  C   UNL A   1      42.052  21.844  25.762  1.00  0.00     0.014 A 
ATOM     32  C   UNL A   1      41.498  21.154  28.014  1.00  0.00     0.014 A 
ATOM     33  C   UNL A   1      42.486  23.076  26.253  1.00  0.00     0.010 A 
ATOM     34  C   UNL A   1      41.846  22.415  28.491  1.00  0.00     0.010 A 
ATOM     35  C   UNL A   1      42.351  23.387  27.617  1.00  0.00    -0.014 A 
BRANCH  35  36
ATOM     36  C   UNL A   1      42.725  24.730  28.127  1.00  0.00     0.031 A 
ATOM     37  C   UNL A   1      41.680  25.791  28.343  1.00  0.00     0.074 A 
ATOM     38  C   UNL A   1      44.023  25.004  28.364  1.00  0.00     0.049 A 
ATOM     39  N   UNL A   1      41.823  27.009  28.799  1.00  0.00    -0.248 NA
ATOM     40  C   UNL A   1      40.298  25.450  27.972  1.00  0.00     0.031 C 
ATOM     41  C   UNL A   1      45.138  24.085  28.127  1.00  0.00     0.029 A 
ATOM     42  N   UNL A   1      44.624  26.133  28.860  1.00  0.00    -0.354 N 
ATOM     43  C   UNL A   1      40.557  27.580  28.763  1.00  0.00     0.074 A 
ATOM     44  C   UNL A   1      39.669  26.597  28.181  1.00  0.00     0.031 C 
ATOM     45  C   UNL A   1      46.281  24.669  28.518  1.00  0.00     0.029 A 
ATOM     46  C   UNL A   1      45.985  26.013  29.001  1.00  0.00     0.049 A 
ATOM     47  H   UNL A   1      44.127  26.951  29.093  1.00  0.00     0.167 HD
ATOM     48  C   UNL A   1      40.163  28.801  29.201  1.00  0.00     0.037 A 
ATOM     49  C   UNL A   1      46.893  26.887  29.476  1.00  0.00     0.037 A 
ATOM     50  C   UNL A   1      41.047  29.770  29.795  1.00  0.00     0.049 A 
ATOM     51  C   UNL A   1      46.427  28.226  29.974  1.00  0.00     0.074 A 
ATOM     52  C   UNL A   1      40.739  31.013  30.320  1.00  0.00     0.029 A 
ATOM     53  N   UNL A   1      42.417  29.605  29.939  1.00  0.00    -0.354 N 
ATOM     54  N   UNL A   1      45.214  28.721  30.009  1.00  0.00    -0.248 NA
ATOM     55  C   UNL A   1      47.457  29.122  30.514  1.00  0.00     0.031 C 
ATOM     56  C   UNL A   1      41.927  31.618  30.741  1.00  0.00     0.029 A 
ATOM     57  C   UNL A   1      42.970  30.730  30.529  1.00  0.00     0.049 A 
ATOM     58  H   UNL A   1      42.922  28.807  29.663  1.00  0.00     0.167 HD
ATOM     59  C   UNL A   1      45.330  29.972  30.598  1.00  0.00     0.074 A 
ATOM     60  C   UNL A   1      46.729  30.149  30.926  1.00  0.00     0.031 C 
ATOM     61  C   UNL A   1      44.366  30.893  30.847  1.00  0.00     0.037 A 
BRANCH  48  62
ATOM     62  C   UNL A   1      38.709  29.151  29.057  1.00  0.00     0.057 A 
ATOM     63  C   UNL A   1      37.818  29.062  30.136  1.00  0.00     0.134 A 
ATOM     64  C   UNL A   1      38.200  29.616  27.839  1.00  0.00     0.134 A 
ATOM     65  F   UNL A   1      38.236  28.611  31.329  1.00  0.00    -0.206 F 
ATOM     66  C   UNL A   1      36.468  29.393  29.999  1.00  0.00     0.040 A 
ATOM     67  C   UNL A   1      36.858  29.979  27.698  1.00  0.00     0.040 A 
ATOM     68  F   UNL A   1      38.997  29.732  26.766  1.00  0.00    -0.206 F 
ATOM     69  C   UNL A   1      35.987  29.861  28.778  1.00  0.00     0.006 A 
ENDBRANCH  48  62
BRANCH  49  70
ATOM     70  C   UNL A   1      48.326  26.506  29.544  1.00  0.00     0.057 A 
ATOM     71  C   UNL A   1      49.206  26.817  28.500  1.00  0.00     0.134 A 
ATOM     72  C   UNL A   1      48.848  25.817  30.644  1.00  0.00     0.134 A 
ATOM     73  F   UNL A   1      48.761  27.461  27.411  1.00  0.00    -0.206 F 
ATOM     74  C   UNL A   1      50.548  26.437  28.538  1.00  0.00     0.040 A 
ATOM     75  C   UNL A   1      50.195  25.456  30.707  1.00  0.00     0.040 A 
ATOM     76  F   UNL A   1      48.060  25.500  31.682  1.00  0.00    -0.206 F 
ATOM     77  C   UNL A   1      51.047  25.758  29.647  1.00  0.00     0.006 A 
ENDBRANCH  49  70
BRANCH  61  78
ATOM     78  C   UNL A   1      44.795  32.156  31.538  1.00  0.00     0.057 A 
ATOM     79  C   UNL A   1      45.200  33.292  30.825  1.00  0.00     0.134 A 
ATOM     80  C   UNL A   1      44.802  32.234  32.937  1.00  0.00     0.134 A 
ATOM     81  F   UNL A   1      45.228  33.279  29.485  1.00  0.00    -0.206 F 
ATOM     82  C   UNL A   1      45.636  34.446  31.479  1.00  0.00     0.040 A 
ATOM     83  C   UNL A   1      45.205  33.393  33.601  1.00  0.00     0.040 A 
ATOM     84  F   UNL A   1      44.415  31.187  33.681  1.00  0.00    -0.206 F 
ATOM     85  C   UNL A   1      45.635  34.499  32.871  1.00  0.00     0.006 A 
ENDBRANCH  61  78
ENDBRANCH  35  36
ENDBRANCH  27  30
ENDBRANCH  25  26
ENDBRANCH  24  25
ENDBRANCH  23  24
ENDBRANCH   3  23
TORSDOF 16
ENDMDL
MODEL 3
REMARK VINA RESULT:     -10.4      0.743      6.269
REMARK SMILES C[C@](NC(=O)CSCc1cccs1)(C(=O)NCCCNC(=O)c1ccc(-c2c3nc(c(-c4c(F)cccc4F)c4ccc([nH]4)c(-c4c(F)cccc4F)c4nc(c(-c5c(F)cccc5F)c5ccc2[nH]5)C=C4)C=C3)cc1)C(F)(F)F
REMARK SMILES IDX 14 1 15 2 16 3 2 5 1 6 77 7 78 8 79 9 80 10 3 11 4 12 5 14
REMARK SMILES IDX 6 15 7 16 8 17 9 18 10 19 13 20 11 21 12 22 17 23 18 24
REMARK SMILES IDX 19 25 20 26 21 27 22 29 23 30 24 31 76 32 25 33 75 34 26 35
REMARK SMILES IDX 27 36 28 37 69 38 29 39 74 40 68 41 70 42 30 43 73 44 67 45
REMARK SMILES IDX 66 46 31 48 57 49 40 50 56 51 41 52 44 53 55 54 71 55 42 56
REMARK SMILES IDX 43 57 54 59 72 60 45 61 32 62 33 63 38 64 34 65 35 66 37 67
REMARK SMILES IDX 39 68 36 69 58 70 59 71 64 72 60 73 61 74 63 75 65 76 62 77
REMARK SMILES IDX 46 78 47 79 52 80 48 81 49 82 51 83 53 84 50 85
REMARK H PARENT 16 4 3 13 20 28 70 47 44 58
REMARK Flexibility Score: inf
ROOT
ATOM      1  C   UNL A   1      33.860  20.379  25.477  1.00  0.00     0.254 C 
ATOM      2  O   UNL A   1      33.005  19.495  25.537  1.00  0.00    -0.272 OA
ATOM      3  N   UNL A   1      35.150  19.956  25.262  1.00  0.00    -0.354 N 
ATOM      4  H   UNL A   1      35.272  18.980  25.311  1.00  0.00     0.163 HD
ENDROOT
BRANCH   1   5
ATOM      5  C   UNL A   1      33.516  21.885  25.489  1.00  0.00     0.212 C 
ATOM      6  C   UNL A   1      31.992  21.991  25.366  1.00  0.00     0.056 C 
BRANCH   5   7
ATOM      7  C   UNL A   1      33.940  22.452  26.857  1.00  0.00     0.420 C 
ATOM      8  F   UNL A   1      34.276  21.477  27.732  1.00  0.00    -0.168 F 
ATOM      9  F   UNL A   1      35.046  23.231  26.708  1.00  0.00    -0.168 F 
ATOM     10  F   UNL A   1      32.997  23.233  27.425  1.00  0.00    -0.168 F 
ENDBRANCH   5   7
BRANCH   5  11
ATOM     11  N   UNL A   1      34.304  22.482  24.360  1.00  0.00    -0.334 N 
ATOM     12  C   UNL A   1      34.096  23.439  23.425  1.00  0.00     0.231 C 
ATOM     13  H   UNL A   1      35.198  22.077  24.279  1.00  0.00     0.164 HD
ATOM     14  O   UNL A   1      35.071  23.725  22.723  1.00  0.00    -0.274 OA
BRANCH  12  15
ATOM     15  C   UNL A   1      32.757  24.095  23.184  1.00  0.00     0.169 C 
BRANCH  15  16
ATOM     16  S   UNL A   1      32.713  25.864  23.625  1.00  0.00    -0.146 SA
BRANCH  16  17
ATOM     17  C   UNL A   1      33.329  25.859  25.340  1.00  0.00     0.116 C 
BRANCH  17  18
ATOM     18  C   UNL A   1      32.827  27.027  26.118  1.00  0.00     0.014 A 
ATOM     19  C   UNL A   1      31.634  27.154  26.801  1.00  0.00     0.016 A 
ATOM     20  S   UNL A   1      33.800  28.430  26.282  1.00  0.00    -0.148 S 
ATOM     21  C   UNL A   1      31.509  28.422  27.435  1.00  0.00     0.012 A 
ATOM     22  C   UNL A   1      32.616  29.215  27.231  1.00  0.00     0.065 A 
ENDBRANCH  17  18
ENDBRANCH  16  17
ENDBRANCH  15  16
ENDBRANCH  12  15
ENDBRANCH   5  11
ENDBRANCH   1   5
BRANCH   3  23
ATOM     23  C   UNL A   1      36.367  20.702  24.974  1.00  0.00     0.117 C 
BRANCH  23  24
ATOM     24  C   UNL A   1      37.594  19.803  24.894  1.00  0.00     0.042 C 
BRANCH  24  25
ATOM     25  C   UNL A   1      38.799  20.350  25.649  1.00  0.00     0.118 C 
BRANCH  25  26
ATOM     26  N   UNL A   1      39.873  19.373  25.768  1.00  0.00    -0.352 N 
ATOM     27  C   UNL A   1      41.192  19.539  26.106  1.00  0.00     0.251 C 
ATOM     28  H   UNL A   1      39.611  18.445  25.575  1.00  0.00     0.163 HD
ATOM     29  O   UNL A   1      41.968  18.598  25.970  1.00  0.00    -0.269 OA
BRANCH  27  30
ATOM     30  C   UNL A   1      41.689  20.838  26.608  1.00  0.00     0.039 A 
ATOM     31  C   UNL A   1      42.172  21.769  25.684  1.00  0.00     0.014 A 
ATOM     32  C   UNL A   1      41.709  21.136  27.973  1.00  0.00     0.014 A 
ATOM     33  C   UNL A   1      42.618  23.015  26.125  1.00  0.00     0.010 A 
ATOM     34  C   UNL A   1      42.069  22.411  28.403  1.00  0.00     0.010 A 
ATOM     35  C   UNL A   1      42.535  23.361  27.485  1.00  0.00    -0.014 A 
BRANCH  35  36
ATOM     36  C   UNL A   1      42.922  24.719  27.945  1.00  0.00     0.031 A 
ATOM     37  C   UNL A   1      41.879  25.771  28.202  1.00  0.00     0.074 A 
ATOM     38  C   UNL A   1      44.228  25.012  28.097  1.00  0.00     0.049 A 
ATOM     39  N   UNL A   1      42.034  27.000  28.624  1.00  0.00    -0.248 NA
ATOM     40  C   UNL A   1      40.481  25.407  27.922  1.00  0.00     0.031 C 
ATOM     41  C   UNL A   1      45.339  24.100  27.812  1.00  0.00     0.029 A 
ATOM     42  N   UNL A   1      44.844  26.157  28.534  1.00  0.00    -0.354 N 
ATOM     43  C   UNL A   1      40.761  27.555  28.654  1.00  0.00     0.074 A 
ATOM     44  C   UNL A   1      39.852  26.551  28.146  1.00  0.00     0.031 C 
ATOM     45  C   UNL A   1      46.495  24.706  28.122  1.00  0.00     0.029 A 
ATOM     46  C   UNL A   1      46.212  26.056  28.595  1.00  0.00     0.049 A 
ATOM     47  H   UNL A   1      44.351  26.974  28.780  1.00  0.00     0.167 HD
ATOM     48  C   UNL A   1      40.378  28.780  29.090  1.00  0.00     0.037 A 
ATOM     49  C   UNL A   1      47.136  26.949  28.997  1.00  0.00     0.037 A 
ATOM     50  C   UNL A   1      41.284  29.772  29.610  1.00  0.00     0.049 A 
ATOM     51  C   UNL A   1      46.683  28.293  29.496  1.00  0.00     0.074 A 
ATOM     52  C   UNL A   1      40.992  31.021  30.128  1.00  0.00     0.029 A 
ATOM     53  N   UNL A   1      42.662  29.626  29.675  1.00  0.00    -0.354 N 
ATOM     54  N   UNL A   1      45.469  28.775  29.594  1.00  0.00    -0.248 NA
ATOM     55  C   UNL A   1      47.734  29.212  29.955  1.00  0.00     0.031 C 
ATOM     56  C   UNL A   1      42.196  31.649  30.465  1.00  0.00     0.029 A 
ATOM     57  C   UNL A   1      43.235  30.769  30.208  1.00  0.00     0.049 A 
ATOM     58  H   UNL A   1      43.160  28.828  29.385  1.00  0.00     0.167 HD
ATOM     59  C   UNL A   1      45.604  30.039  30.150  1.00  0.00     0.074 A 
ATOM     60  C   UNL A   1      47.018  30.239  30.389  1.00  0.00     0.031 C 
ATOM     61  C   UNL A   1      44.646  30.954  30.438  1.00  0.00     0.037 A 
BRANCH  48  62
ATOM     62  C   UNL A   1      38.914  29.112  29.027  1.00  0.00     0.057 A 
ATOM     63  C   UNL A   1      38.307  29.558  27.845  1.00  0.00     0.134 A 
ATOM     64  C   UNL A   1      38.093  28.951  30.150  1.00  0.00     0.134 A 
ATOM     65  F   UNL A   1      39.037  29.747  26.735  1.00  0.00    -0.206 F 
ATOM     66  C   UNL A   1      36.945  29.860  27.790  1.00  0.00     0.040 A 
ATOM     67  C   UNL A   1      36.724  29.221  30.100  1.00  0.00     0.040 A 
ATOM     68  F   UNL A   1      38.606  28.522  31.313  1.00  0.00    -0.206 F 
ATOM     69  C   UNL A   1      36.147  29.684  28.919  1.00  0.00     0.006 A 
ENDBRANCH  48  62
BRANCH  49  70
ATOM     70  C   UNL A   1      48.575  26.586  28.986  1.00  0.00     0.057 A 
ATOM     71  C   UNL A   1      49.372  26.829  27.860  1.00  0.00     0.134 A 
ATOM     72  C   UNL A   1      49.186  25.983  30.091  1.00  0.00     0.134 A 
ATOM     73  F   UNL A   1      48.840  27.389  26.764  1.00  0.00    -0.206 F 
ATOM     74  C   UNL A   1      50.719  26.464  27.826  1.00  0.00     0.040 A 
ATOM     75  C   UNL A   1      50.538  25.638  30.080  1.00  0.00     0.040 A 
ATOM     76  F   UNL A   1      48.480  25.735  31.204  1.00  0.00    -0.206 F 
ATOM     77  C   UNL A   1      51.306  25.871  28.941  1.00  0.00     0.006 A 
ENDBRANCH  49  70
BRANCH  61  78
ATOM     78  C   UNL A   1      45.099  32.235  31.077  1.00  0.00     0.057 A 
ATOM     79  C   UNL A   1      45.443  33.362  30.319  1.00  0.00     0.134 A 
ATOM     80  C   UNL A   1      45.192  32.341  32.471  1.00  0.00     0.134 A 
ATOM     81  F   UNL A   1      45.389  33.323  28.980  1.00  0.00    -0.206 F 
ATOM     82  C   UNL A   1      45.903  34.534  30.922  1.00  0.00     0.040 A 
ATOM     83  C   UNL A   1      45.619  33.518  33.086  1.00  0.00     0.040 A 
ATOM     84  F   UNL A   1      44.866  31.305  33.258  1.00  0.00    -0.206 F 
ATOM     85  C   UNL A   1      45.988  34.615  32.310  1.00  0.00     0.006 A 
ENDBRANCH  61  78
ENDBRANCH  35  36
ENDBRANCH  27  30
ENDBRANCH  25  26
ENDBRANCH  24  25
ENDBRANCH  23  24
ENDBRANCH   3  23
TORSDOF 16
ENDMDL
