MODEL 1
REMARK VINA RESULT:     -11.8      0.000      0.000
REMARK SMILES [NH3+][C@@H](CC1=C[C@H](S)c2ccccc2C1)C(=O)NCCCNC(=O)c1ccc(-c2c3nc(c(-c4c(F)cccc4F)c4ccc([nH]4)c(-c4c(F)cccc4F)c4nc(c(-c5c(F)cccc5F)c5ccc2[nH]5)C=C4)C=C3)cc1
REMARK SMILES IDX 18 1 17 2 15 3 16 4 2 6 1 7 3 11 4 12 5 13 14 14 6 15 13 16
REMARK SMILES IDX 8 17 12 18 9 19 11 20 10 21 7 22 19 24 20 25 21 26 22 27
REMARK SMILES IDX 23 29 24 30 25 31 77 32 26 33 76 34 27 35 28 36 29 37 70 38
REMARK SMILES IDX 30 39 75 40 69 41 71 42 31 43 74 44 68 45 67 46 32 48 58 49
REMARK SMILES IDX 41 50 57 51 42 52 45 53 56 54 72 55 43 56 44 57 55 59 73 60
REMARK SMILES IDX 46 61 33 62 34 63 39 64 35 65 36 66 38 67 40 68 37 69 59 70
REMARK SMILES IDX 60 71 65 72 61 73 62 74 64 75 66 76 63 77 47 78 48 79 53 80
REMARK SMILES IDX 49 81 50 82 52 83 54 84 51 85
REMARK H PARENT 17 5 1 8 1 9 1 10 7 23 21 28 71 47 45 58
REMARK Flexibility Score: inf
ROOT
ATOM      1  C   UNL A   1      31.654  30.650  26.218  1.00  0.00     0.118 C 
ENDROOT
BRANCH   1   2
ATOM      2  N   UNL A   1      32.852  30.126  26.823  1.00  0.00    -0.351 N 
ATOM      3  C   UNL A   1      33.266  28.844  27.021  1.00  0.00     0.278 C 
ATOM      4  O   UNL A   1      34.472  28.695  27.245  1.00  0.00    -0.268 OA
ATOM      5  H   UNL A   1      33.478  30.813  27.151  1.00  0.00     0.163 HD
BRANCH   3   6
ATOM      6  C   UNL A   1      32.305  27.622  27.033  1.00  0.00     0.275 C 
BRANCH   6   7
ATOM      7  N   UNL A   1      31.217  27.841  27.999  1.00  0.00    -0.347 N 
ATOM      8  H   UNL A   1      30.690  28.674  27.733  1.00  0.00     0.345 HD
ATOM      9  H   UNL A   1      31.610  27.971  28.931  1.00  0.00     0.345 HD
ATOM     10  H   UNL A   1      30.596  27.032  28.000  1.00  0.00     0.345 HD
ENDBRANCH   6   7
BRANCH   6  11
ATOM     11  C   UNL A   1      31.952  26.975  25.663  1.00  0.00     0.106 C 
BRANCH  11  12
ATOM     12  C   UNL A   1      32.693  25.786  25.043  1.00  0.00    -0.062 C 
ATOM     13  C   UNL A   1      32.299  25.085  23.963  1.00  0.00    -0.009 C 
ATOM     14  C   UNL A   1      34.017  25.478  25.720  1.00  0.00     0.066 C 
ATOM     15  C   UNL A   1      33.157  24.094  23.214  1.00  0.00     0.096 C 
ATOM     16  C   UNL A   1      34.878  24.429  25.053  1.00  0.00    -0.039 A 
ATOM     17  C   UNL A   1      34.496  23.806  23.852  1.00  0.00    -0.028 A 
ATOM     18  C   UNL A   1      36.123  24.118  25.628  1.00  0.00     0.004 A 
ATOM     19  C   UNL A   1      35.412  22.950  23.210  1.00  0.00     0.005 A 
ATOM     20  C   UNL A   1      36.999  23.236  24.999  1.00  0.00     0.000 A 
ATOM     21  C   UNL A   1      36.652  22.667  23.781  1.00  0.00     0.000 A 
BRANCH  15  22
ATOM     22  S   UNL A   1      32.161  22.596  22.922  1.00  0.00    -0.167 SA
ATOM     23  H   UNL A   1      31.008  22.671  23.640  1.00  0.00     0.103 HD
ENDBRANCH  15  22
ENDBRANCH  11  12
ENDBRANCH   6  11
ENDBRANCH   3   6
ENDBRANCH   1   2
BRANCH   1  24
ATOM     24  C   UNL A   1      31.403  32.120  26.513  1.00  0.00     0.042 C 
BRANCH  24  25
ATOM     25  C   UNL A   1      32.583  32.801  27.198  1.00  0.00     0.118 C 
BRANCH  25  26
ATOM     26  N   UNL A   1      32.308  34.160  27.662  1.00  0.00    -0.352 N 
ATOM     27  C   UNL A   1      32.958  34.987  28.547  1.00  0.00     0.251 C 
ATOM     28  H   UNL A   1      31.502  34.560  27.264  1.00  0.00     0.163 HD
ATOM     29  O   UNL A   1      32.480  36.100  28.769  1.00  0.00    -0.269 OA
BRANCH  27  30
ATOM     30  C   UNL A   1      34.172  34.559  29.278  1.00  0.00     0.039 A 
ATOM     31  C   UNL A   1      35.443  34.687  28.732  1.00  0.00     0.014 A 
ATOM     32  C   UNL A   1      34.030  33.999  30.555  1.00  0.00     0.014 A 
ATOM     33  C   UNL A   1      36.518  34.039  29.326  1.00  0.00     0.010 A 
ATOM     34  C   UNL A   1      35.142  33.475  31.222  1.00  0.00     0.010 A 
ATOM     35  C   UNL A   1      36.386  33.425  30.581  1.00  0.00    -0.014 A 
BRANCH  35  36
ATOM     36  C   UNL A   1      37.566  32.735  31.173  1.00  0.00     0.031 A 
ATOM     37  C   UNL A   1      38.057  33.087  32.555  1.00  0.00     0.074 A 
ATOM     38  C   UNL A   1      38.141  31.722  30.496  1.00  0.00     0.049 A 
ATOM     39  N   UNL A   1      39.038  32.554  33.241  1.00  0.00    -0.248 NA
ATOM     40  C   UNL A   1      37.369  34.183  33.256  1.00  0.00     0.031 C 
ATOM     41  C   UNL A   1      37.759  31.280  29.152  1.00  0.00     0.029 A 
ATOM     42  N   UNL A   1      39.133  30.847  30.859  1.00  0.00    -0.354 N 
ATOM     43  C   UNL A   1      39.103  33.266  34.434  1.00  0.00     0.074 A 
ATOM     44  C   UNL A   1      38.082  34.289  34.368  1.00  0.00     0.031 C 
ATOM     45  C   UNL A   1      38.442  30.169  28.841  1.00  0.00     0.029 A 
ATOM     46  C   UNL A   1      39.369  29.867  29.924  1.00  0.00     0.049 A 
ATOM     47  H   UNL A   1      39.630  30.915  31.707  1.00  0.00     0.167 HD
ATOM     48  C   UNL A   1      39.926  33.078  35.493  1.00  0.00     0.037 A 
ATOM     49  C   UNL A   1      40.243  28.845  29.929  1.00  0.00     0.037 A 
ATOM     50  C   UNL A   1      40.920  32.039  35.575  1.00  0.00     0.049 A 
ATOM     51  C   UNL A   1      41.159  28.677  31.104  1.00  0.00     0.074 A 
ATOM     52  C   UNL A   1      41.793  31.757  36.612  1.00  0.00     0.029 A 
ATOM     53  N   UNL A   1      41.168  31.105  34.580  1.00  0.00    -0.354 N 
ATOM     54  N   UNL A   1      41.208  29.363  32.218  1.00  0.00    -0.248 NA
ATOM     55  C   UNL A   1      42.155  27.601  31.012  1.00  0.00     0.031 C 
ATOM     56  C   UNL A   1      42.593  30.674  36.229  1.00  0.00     0.029 A 
ATOM     57  C   UNL A   1      42.190  30.256  34.972  1.00  0.00     0.049 A 
ATOM     58  H   UNL A   1      40.688  31.053  33.722  1.00  0.00     0.167 HD
ATOM     59  C   UNL A   1      42.232  28.798  32.966  1.00  0.00     0.074 A 
ATOM     60  C   UNL A   1      42.758  27.695  32.188  1.00  0.00     0.031 C 
ATOM     61  C   UNL A   1      42.701  29.165  34.183  1.00  0.00     0.037 A 
BRANCH  48  62
ATOM     62  C   UNL A   1      39.799  34.033  36.646  1.00  0.00     0.057 A 
ATOM     63  C   UNL A   1      38.995  33.715  37.748  1.00  0.00     0.134 A 
ATOM     64  C   UNL A   1      40.452  35.272  36.661  1.00  0.00     0.134 A 
ATOM     65  F   UNL A   1      38.335  32.547  37.798  1.00  0.00    -0.206 F 
ATOM     66  C   UNL A   1      38.846  34.594  38.823  1.00  0.00     0.040 A 
ATOM     67  C   UNL A   1      40.332  36.149  37.741  1.00  0.00     0.040 A 
ATOM     68  F   UNL A   1      41.248  35.632  35.643  1.00  0.00    -0.206 F 
ATOM     69  C   UNL A   1      39.522  35.812  38.824  1.00  0.00     0.006 A 
ENDBRANCH  48  62
BRANCH  49  70
ATOM     70  C   UNL A   1      40.305  27.913  28.776  1.00  0.00     0.057 A 
ATOM     71  C   UNL A   1      39.623  26.690  28.788  1.00  0.00     0.134 A 
ATOM     72  C   UNL A   1      41.043  28.229  27.629  1.00  0.00     0.134 A 
ATOM     73  F   UNL A   1      38.903  26.327  29.860  1.00  0.00    -0.206 F 
ATOM     74  C   UNL A   1      39.681  25.809  27.708  1.00  0.00     0.040 A 
ATOM     75  C   UNL A   1      41.087  27.369  26.530  1.00  0.00     0.040 A 
ATOM     76  F   UNL A   1      41.703  29.393  27.549  1.00  0.00    -0.206 F 
ATOM     77  C   UNL A   1      40.409  26.152  26.571  1.00  0.00     0.006 A 
ENDBRANCH  49  70
BRANCH  61  78
ATOM     78  C   UNL A   1      43.823  28.346  34.747  1.00  0.00     0.057 A 
ATOM     79  C   UNL A   1      45.156  28.713  34.523  1.00  0.00     0.134 A 
ATOM     80  C   UNL A   1      43.584  27.196  35.511  1.00  0.00     0.134 A 
ATOM     81  F   UNL A   1      45.451  29.801  33.797  1.00  0.00    -0.206 F 
ATOM     82  C   UNL A   1      46.214  27.964  35.043  1.00  0.00     0.040 A 
ATOM     83  C   UNL A   1      44.633  26.454  36.055  1.00  0.00     0.040 A 
ATOM     84  F   UNL A   1      42.329  26.804  35.775  1.00  0.00    -0.206 F 
ATOM     85  C   UNL A   1      45.952  26.836  35.819  1.00  0.00     0.006 A 
ENDBRANCH  61  78
ENDBRANCH  35  36
ENDBRANCH  27  30
ENDBRANCH  25  26
ENDBRANCH  24  25
ENDBRANCH   1  24
TORSDOF 14
ENDMDL
MODEL 2
REMARK VINA RESULT:     -11.7      0.074      1.633
REMARK SMILES [NH3+][C@@H](CC1=C[C@H](S)c2ccccc2C1)C(=O)NCCCNC(=O)c1ccc(-c2c3nc(c(-c4c(F)cccc4F)c4ccc([nH]4)c(-c4c(F)cccc4F)c4nc(c(-c5c(F)cccc5F)c5ccc2[nH]5)C=C4)C=C3)cc1
REMARK SMILES IDX 18 1 17 2 15 3 16 4 2 6 1 7 3 11 4 12 5 13 14 14 6 15 13 16
REMARK SMILES IDX 8 17 12 18 9 19 11 20 10 21 7 22 19 24 20 25 21 26 22 27
REMARK SMILES IDX 23 29 24 30 25 31 77 32 26 33 76 34 27 35 28 36 29 37 70 38
REMARK SMILES IDX 30 39 75 40 69 41 71 42 31 43 74 44 68 45 67 46 32 48 58 49
REMARK SMILES IDX 41 50 57 51 42 52 45 53 56 54 72 55 43 56 44 57 55 59 73 60
REMARK SMILES IDX 46 61 33 62 34 63 39 64 35 65 36 66 38 67 40 68 37 69 59 70
REMARK SMILES IDX 60 71 65 72 61 73 62 74 64 75 66 76 63 77 47 78 48 79 53 80
REMARK SMILES IDX 49 81 50 82 52 83 54 84 51 85
REMARK H PARENT 17 5 1 8 1 9 1 10 7 23 21 28 71 47 45 58
REMARK Flexibility Score: inf
ROOT
ATOM      1  C   UNL A   1      31.594  30.676  26.291  1.00  0.00     0.118 C 
ENDROOT
BRANCH   1   2
ATOM      2  N   UNL A   1      32.854  30.174  26.776  1.00  0.00    -0.351 N 
ATOM      3  C   UNL A   1      33.312  28.899  26.919  1.00  0.00     0.278 C 
ATOM      4  O   UNL A   1      34.537  28.775  27.029  1.00  0.00    -0.268 OA
ATOM      5  H   UNL A   1      33.492  30.871  27.053  1.00  0.00     0.163 HD
BRANCH   3   6
ATOM      6  C   UNL A   1      32.384  27.656  27.005  1.00  0.00     0.275 C 
BRANCH   6   7
ATOM      7  N   UNL A   1      31.333  27.875  28.012  1.00  0.00    -0.347 N 
ATOM      8  H   UNL A   1      30.740  28.653  27.720  1.00  0.00     0.345 HD
ATOM      9  H   UNL A   1      31.763  28.094  28.910  1.00  0.00     0.345 HD
ATOM     10  H   UNL A   1      30.766  27.032  28.100  1.00  0.00     0.345 HD
ENDBRANCH   6   7
BRANCH   6  11
ATOM     11  C   UNL A   1      31.988  26.964  25.669  1.00  0.00     0.106 C 
BRANCH  11  12
ATOM     12  C   UNL A   1      32.733  25.781  25.045  1.00  0.00    -0.062 C 
ATOM     13  C   UNL A   1      32.359  25.101  23.944  1.00  0.00    -0.009 C 
ATOM     14  C   UNL A   1      34.039  25.450  25.747  1.00  0.00     0.066 C 
ATOM     15  C   UNL A   1      33.227  24.117  23.197  1.00  0.00     0.096 C 
ATOM     16  C   UNL A   1      34.908  24.406  25.082  1.00  0.00    -0.039 A 
ATOM     17  C   UNL A   1      34.549  23.807  23.861  1.00  0.00    -0.028 A 
ATOM     18  C   UNL A   1      36.136  24.075  25.680  1.00  0.00     0.004 A 
ATOM     19  C   UNL A   1      35.473  22.956  23.225  1.00  0.00     0.005 A 
ATOM     20  C   UNL A   1      37.020  23.198  25.056  1.00  0.00     0.000 A 
ATOM     21  C   UNL A   1      36.698  22.652  23.819  1.00  0.00     0.000 A 
BRANCH  15  22
ATOM     22  S   UNL A   1      32.227  22.632  22.856  1.00  0.00    -0.167 SA
ATOM     23  H   UNL A   1      31.059  22.705  23.548  1.00  0.00     0.103 HD
ENDBRANCH  15  22
ENDBRANCH  11  12
ENDBRANCH   6  11
ENDBRANCH   3   6
ENDBRANCH   1   2
BRANCH   1  24
ATOM     24  C   UNL A   1      31.400  32.169  26.503  1.00  0.00     0.042 C 
BRANCH  24  25
ATOM     25  C   UNL A   1      32.583  32.831  27.201  1.00  0.00     0.118 C 
BRANCH  25  26
ATOM     26  N   UNL A   1      32.326  34.197  27.656  1.00  0.00    -0.352 N 
ATOM     27  C   UNL A   1      32.984  35.019  28.539  1.00  0.00     0.251 C 
ATOM     28  H   UNL A   1      31.529  34.607  27.250  1.00  0.00     0.163 HD
ATOM     29  O   UNL A   1      32.522  36.141  28.752  1.00  0.00    -0.269 OA
BRANCH  27  30
ATOM     30  C   UNL A   1      34.186  34.577  29.279  1.00  0.00     0.039 A 
ATOM     31  C   UNL A   1      35.468  34.741  28.768  1.00  0.00     0.014 A 
ATOM     32  C   UNL A   1      34.024  33.966  30.530  1.00  0.00     0.014 A 
ATOM     33  C   UNL A   1      36.537  34.082  29.360  1.00  0.00     0.010 A 
ATOM     34  C   UNL A   1      35.127  33.428  31.201  1.00  0.00     0.010 A 
ATOM     35  C   UNL A   1      36.386  33.418  30.587  1.00  0.00    -0.014 A 
BRANCH  35  36
ATOM     36  C   UNL A   1      37.561  32.718  31.178  1.00  0.00     0.031 A 
ATOM     37  C   UNL A   1      38.051  33.060  32.563  1.00  0.00     0.074 A 
ATOM     38  C   UNL A   1      38.131  31.705  30.497  1.00  0.00     0.049 A 
ATOM     39  N   UNL A   1      39.028  32.519  33.248  1.00  0.00    -0.248 NA
ATOM     40  C   UNL A   1      37.368  34.157  33.267  1.00  0.00     0.031 C 
ATOM     41  C   UNL A   1      37.749  31.272  29.150  1.00  0.00     0.029 A 
ATOM     42  N   UNL A   1      39.118  30.823  30.857  1.00  0.00    -0.354 N 
ATOM     43  C   UNL A   1      39.094  33.225  34.444  1.00  0.00     0.074 A 
ATOM     44  C   UNL A   1      38.079  34.253  34.381  1.00  0.00     0.031 C 
ATOM     45  C   UNL A   1      38.426  30.159  28.835  1.00  0.00     0.029 A 
ATOM     46  C   UNL A   1      39.350  29.846  29.918  1.00  0.00     0.049 A 
ATOM     47  H   UNL A   1      39.613  30.884  31.707  1.00  0.00     0.167 HD
ATOM     48  C   UNL A   1      39.914  33.027  35.504  1.00  0.00     0.037 A 
ATOM     49  C   UNL A   1      40.218  28.819  29.920  1.00  0.00     0.037 A 
ATOM     50  C   UNL A   1      40.902  31.982  35.582  1.00  0.00     0.049 A 
ATOM     51  C   UNL A   1      41.131  28.641  31.096  1.00  0.00     0.074 A 
ATOM     52  C   UNL A   1      41.771  31.691  36.620  1.00  0.00     0.029 A 
ATOM     53  N   UNL A   1      41.147  31.052  34.584  1.00  0.00    -0.354 N 
ATOM     54  N   UNL A   1      41.182  29.322  32.213  1.00  0.00    -0.248 NA
ATOM     55  C   UNL A   1      42.121  27.559  31.000  1.00  0.00     0.031 C 
ATOM     56  C   UNL A   1      42.567  30.605  36.233  1.00  0.00     0.029 A 
ATOM     57  C   UNL A   1      42.164  30.196  34.973  1.00  0.00     0.049 A 
ATOM     58  H   UNL A   1      40.668  31.007  33.724  1.00  0.00     0.167 HD
ATOM     59  C   UNL A   1      42.201  28.747  32.960  1.00  0.00     0.074 A 
ATOM     60  C   UNL A   1      42.723  27.644  32.178  1.00  0.00     0.031 C 
ATOM     61  C   UNL A   1      42.670  29.105  34.180  1.00  0.00     0.037 A 
BRANCH  48  62
ATOM     62  C   UNL A   1      39.790  33.977  36.662  1.00  0.00     0.057 A 
ATOM     63  C   UNL A   1      40.490  35.190  36.666  1.00  0.00     0.134 A 
ATOM     64  C   UNL A   1      38.996  33.687  37.778  1.00  0.00     0.134 A 
ATOM     65  F   UNL A   1      41.273  35.529  35.630  1.00  0.00    -0.206 F 
ATOM     66  C   UNL A   1      40.404  36.081  37.738  1.00  0.00     0.040 A 
ATOM     67  C   UNL A   1      38.882  34.580  38.846  1.00  0.00     0.040 A 
ATOM     68  F   UNL A   1      38.289  32.548  37.832  1.00  0.00    -0.206 F 
ATOM     69  C   UNL A   1      39.592  35.779  38.829  1.00  0.00     0.006 A 
ENDBRANCH  48  62
BRANCH  49  70
ATOM     70  C   UNL A   1      40.277  27.893  28.762  1.00  0.00     0.057 A 
ATOM     71  C   UNL A   1      41.012  28.208  27.612  1.00  0.00     0.134 A 
ATOM     72  C   UNL A   1      39.606  26.665  28.782  1.00  0.00     0.134 A 
ATOM     73  F   UNL A   1      41.673  29.372  27.529  1.00  0.00    -0.206 F 
ATOM     74  C   UNL A   1      41.067  27.343  26.520  1.00  0.00     0.040 A 
ATOM     75  C   UNL A   1      39.676  25.777  27.708  1.00  0.00     0.040 A 
ATOM     76  F   UNL A   1      38.901  26.298  29.863  1.00  0.00    -0.206 F 
ATOM     77  C   UNL A   1      40.404  26.118  26.570  1.00  0.00     0.006 A 
ENDBRANCH  49  70
BRANCH  61  78
ATOM     78  C   UNL A   1      43.786  28.277  34.742  1.00  0.00     0.057 A 
ATOM     79  C   UNL A   1      43.512  27.129  35.496  1.00  0.00     0.134 A 
ATOM     80  C   UNL A   1      45.130  28.615  34.538  1.00  0.00     0.134 A 
ATOM     81  F   UNL A   1      42.246  26.753  35.730  1.00  0.00    -0.206 F 
ATOM     82  C   UNL A   1      44.538  26.344  36.025  1.00  0.00     0.040 A 
ATOM     83  C   UNL A   1      46.163  27.825  35.042  1.00  0.00     0.040 A 
ATOM     84  F   UNL A   1      45.456  29.693  33.810  1.00  0.00    -0.206 F 
ATOM     85  C   UNL A   1      45.868  26.687  35.791  1.00  0.00     0.006 A 
ENDBRANCH  61  78
ENDBRANCH  35  36
ENDBRANCH  27  30
ENDBRANCH  25  26
ENDBRANCH  24  25
ENDBRANCH   1  24
TORSDOF 14
ENDMDL
MODEL 3
REMARK VINA RESULT:     -11.7      5.140      9.868
REMARK SMILES [NH3+][C@@H](CC1=C[C@H](S)c2ccccc2C1)C(=O)NCCCNC(=O)c1ccc(-c2c3nc(c(-c4c(F)cccc4F)c4ccc([nH]4)c(-c4c(F)cccc4F)c4nc(c(-c5c(F)cccc5F)c5ccc2[nH]5)C=C4)C=C3)cc1
REMARK SMILES IDX 18 1 17 2 15 3 16 4 2 6 1 7 3 11 4 12 5 13 14 14 6 15 13 16
REMARK SMILES IDX 8 17 12 18 9 19 11 20 10 21 7 22 19 24 20 25 21 26 22 27
REMARK SMILES IDX 23 29 24 30 25 31 77 32 26 33 76 34 27 35 28 36 29 37 70 38
REMARK SMILES IDX 30 39 75 40 69 41 71 42 31 43 74 44 68 45 67 46 32 48 58 49
REMARK SMILES IDX 41 50 57 51 42 52 45 53 56 54 72 55 43 56 44 57 55 59 73 60
REMARK SMILES IDX 46 61 33 62 34 63 39 64 35 65 36 66 38 67 40 68 37 69 59 70
REMARK SMILES IDX 60 71 65 72 61 73 62 74 64 75 66 76 63 77 47 78 48 79 53 80
REMARK SMILES IDX 49 81 50 82 52 83 54 84 51 85
REMARK H PARENT 17 5 1 8 1 9 1 10 7 23 21 28 71 47 45 58
REMARK Flexibility Score: inf
ROOT
ATOM      1  C   UNL A   1      36.968  20.707  24.969  1.00  0.00     0.118 C 
ENDROOT
BRANCH   1   2
ATOM      2  N   UNL A   1      35.685  20.052  24.970  1.00  0.00    -0.351 N 
ATOM      3  C   UNL A   1      34.443  20.521  25.276  1.00  0.00     0.278 C 
ATOM      4  O   UNL A   1      33.494  19.846  24.861  1.00  0.00    -0.268 OA
ATOM      5  H   UNL A   1      35.709  19.104  24.706  1.00  0.00     0.163 HD
BRANCH   3   6
ATOM      6  C   UNL A   1      34.190  21.787  26.142  1.00  0.00     0.275 C 
BRANCH   6   7
ATOM      7  N   UNL A   1      34.747  21.598  27.491  1.00  0.00    -0.347 N 
ATOM      8  H   UNL A   1      35.659  22.052  27.549  1.00  0.00     0.345 HD
ATOM      9  H   UNL A   1      34.851  20.601  27.680  1.00  0.00     0.345 HD
ATOM     10  H   UNL A   1      34.117  22.012  28.179  1.00  0.00     0.345 HD
ENDBRANCH   6   7
BRANCH   6  11
ATOM     11  C   UNL A   1      34.377  23.171  25.458  1.00  0.00     0.106 C 
BRANCH  11  12
ATOM     12  C   UNL A   1      33.492  24.395  25.710  1.00  0.00    -0.062 C 
ATOM     13  C   UNL A   1      32.167  24.377  25.954  1.00  0.00    -0.009 C 
ATOM     14  C   UNL A   1      34.263  25.703  25.745  1.00  0.00     0.066 C 
ATOM     15  C   UNL A   1      31.362  25.553  26.454  1.00  0.00     0.096 C 
ATOM     16  C   UNL A   1      33.479  26.929  26.158  1.00  0.00    -0.039 A 
ATOM     17  C   UNL A   1      32.125  26.855  26.533  1.00  0.00    -0.028 A 
ATOM     18  C   UNL A   1      34.149  28.163  26.224  1.00  0.00     0.004 A 
ATOM     19  C   UNL A   1      31.501  28.007  27.048  1.00  0.00     0.005 A 
ATOM     20  C   UNL A   1      33.501  29.302  26.698  1.00  0.00     0.000 A 
ATOM     21  C   UNL A   1      32.183  29.220  27.129  1.00  0.00     0.000 A 
BRANCH  15  22
ATOM     22  S   UNL A   1      29.848  25.666  25.446  1.00  0.00    -0.167 SA
ATOM     23  H   UNL A   1      29.447  26.964  25.375  1.00  0.00     0.103 HD
ENDBRANCH  15  22
ENDBRANCH  11  12
ENDBRANCH   6  11
ENDBRANCH   3   6
ENDBRANCH   1   2
BRANCH   1  24
ATOM     24  C   UNL A   1      38.134  19.781  24.660  1.00  0.00     0.042 C 
BRANCH  24  25
ATOM     25  C   UNL A   1      38.855  19.291  25.911  1.00  0.00     0.118 C 
BRANCH  25  26
ATOM     26  N   UNL A   1      40.232  18.856  25.682  1.00  0.00    -0.352 N 
ATOM     27  C   UNL A   1      41.446  19.450  25.932  1.00  0.00     0.251 C 
ATOM     28  H   UNL A   1      40.303  17.966  25.268  1.00  0.00     0.163 HD
ATOM     29  O   UNL A   1      42.471  18.849  25.609  1.00  0.00    -0.269 OA
BRANCH  27  30
ATOM     30  C   UNL A   1      41.552  20.805  26.519  1.00  0.00     0.039 A 
ATOM     31  C   UNL A   1      41.487  21.953  25.738  1.00  0.00     0.014 A 
ATOM     32  C   UNL A   1      41.734  20.929  27.903  1.00  0.00     0.014 A 
ATOM     33  C   UNL A   1      41.854  23.177  26.280  1.00  0.00     0.010 A 
ATOM     34  C   UNL A   1      41.958  22.186  28.474  1.00  0.00     0.010 A 
ATOM     35  C   UNL A   1      42.093  23.315  27.656  1.00  0.00    -0.014 A 
BRANCH  35  36
ATOM     36  C   UNL A   1      42.491  24.648  28.189  1.00  0.00     0.031 A 
ATOM     37  C   UNL A   1      43.945  25.022  28.334  1.00  0.00     0.074 A 
ATOM     38  C   UNL A   1      41.535  25.560  28.456  1.00  0.00     0.049 A 
ATOM     39  N   UNL A   1      44.469  26.154  28.735  1.00  0.00    -0.248 NA
ATOM     40  C   UNL A   1      44.942  23.993  27.998  1.00  0.00     0.031 C 
ATOM     41  C   UNL A   1      40.093  25.326  28.354  1.00  0.00     0.029 A 
ATOM     42  N   UNL A   1      41.629  26.879  28.821  1.00  0.00    -0.354 N 
ATOM     43  C   UNL A   1      45.846  25.963  28.728  1.00  0.00     0.074 A 
ATOM     44  C   UNL A   1      46.078  24.598  28.311  1.00  0.00     0.031 C 
ATOM     45  C   UNL A   1      39.442  26.479  28.561  1.00  0.00     0.029 A 
ATOM     46  C   UNL A   1      40.412  27.515  28.892  1.00  0.00     0.049 A 
ATOM     47  H   UNL A   1      42.484  27.327  29.014  1.00  0.00     0.167 HD
ATOM     48  C   UNL A   1      46.828  26.847  29.027  1.00  0.00     0.037 A 
ATOM     49  C   UNL A   1      40.106  28.787  29.203  1.00  0.00     0.037 A 
ATOM     50  C   UNL A   1      46.600  28.217  29.409  1.00  0.00     0.049 A 
ATOM     51  C   UNL A   1      41.213  29.736  29.554  1.00  0.00     0.074 A 
ATOM     52  C   UNL A   1      47.530  29.195  29.717  1.00  0.00     0.029 A 
ATOM     53  N   UNL A   1      45.350  28.804  29.529  1.00  0.00    -0.354 N 
ATOM     54  N   UNL A   1      42.507  29.535  29.546  1.00  0.00    -0.248 NA
ATOM     55  C   UNL A   1      40.813  31.085  29.975  1.00  0.00     0.031 C 
ATOM     56  C   UNL A   1      46.840  30.364  30.057  1.00  0.00     0.029 A 
ATOM     57  C   UNL A   1      45.483  30.126  29.921  1.00  0.00     0.049 A 
ATOM     58  H   UNL A   1      44.493  28.349  29.360  1.00  0.00     0.167 HD
ATOM     59  C   UNL A   1      43.079  30.734  29.951  1.00  0.00     0.074 A 
ATOM     60  C   UNL A   1      41.989  31.664  30.170  1.00  0.00     0.031 C 
ATOM     61  C   UNL A   1      44.387  31.035  30.134  1.00  0.00     0.037 A 
BRANCH  48  62
ATOM     62  C   UNL A   1      48.246  26.351  28.970  1.00  0.00     0.057 A 
ATOM     63  C   UNL A   1      48.843  25.772  30.097  1.00  0.00     0.134 A 
ATOM     64  C   UNL A   1      49.026  26.463  27.813  1.00  0.00     0.134 A 
ATOM     65  F   UNL A   1      48.154  25.639  31.241  1.00  0.00    -0.206 F 
ATOM     66  C   UNL A   1      50.164  25.319  30.074  1.00  0.00     0.040 A 
ATOM     67  C   UNL A   1      50.340  25.992  27.769  1.00  0.00     0.040 A 
ATOM     68  F   UNL A   1      48.511  26.995  26.694  1.00  0.00    -0.206 F 
ATOM     69  C   UNL A   1      50.914  25.423  28.904  1.00  0.00     0.006 A 
ENDBRANCH  48  62
BRANCH  49  70
ATOM     70  C   UNL A   1      38.690  29.232  29.213  1.00  0.00     0.057 A 
ATOM     71  C   UNL A   1      37.922  29.194  30.384  1.00  0.00     0.134 A 
ATOM     72  C   UNL A   1      38.074  29.713  28.053  1.00  0.00     0.134 A 
ATOM     73  F   UNL A   1      38.454  28.738  31.528  1.00  0.00    -0.206 F 
ATOM     74  C   UNL A   1      36.590  29.606  30.398  1.00  0.00     0.040 A 
ATOM     75  C   UNL A   1      36.751  30.156  28.059  1.00  0.00     0.040 A 
ATOM     76  F   UNL A   1      38.763  29.791  26.904  1.00  0.00    -0.206 F 
ATOM     77  C   UNL A   1      36.003  30.097  29.233  1.00  0.00     0.006 A 
ENDBRANCH  49  70
BRANCH  61  78
ATOM     78  C   UNL A   1      44.700  32.435  30.572  1.00  0.00     0.057 A 
ATOM     79  C   UNL A   1      44.810  32.749  31.932  1.00  0.00     0.134 A 
ATOM     80  C   UNL A   1      44.894  33.469  29.648  1.00  0.00     0.134 A 
ATOM     81  F   UNL A   1      44.632  31.803  32.867  1.00  0.00    -0.206 F 
ATOM     82  C   UNL A   1      45.103  34.045  32.358  1.00  0.00     0.040 A 
ATOM     83  C   UNL A   1      45.212  34.763  30.061  1.00  0.00     0.040 A 
ATOM     84  F   UNL A   1      44.821  33.227  28.331  1.00  0.00    -0.206 F 
ATOM     85  C   UNL A   1      45.314  35.055  31.420  1.00  0.00     0.006 A 
ENDBRANCH  61  78
ENDBRANCH  35  36
ENDBRANCH  27  30
ENDBRANCH  25  26
ENDBRANCH  24  25
ENDBRANCH   1  24
TORSDOF 14
ENDMDL
