MODEL 1
REMARK VINA RESULT:     -11.4      0.000      0.000
REMARK SMILES Cc1cc(C(=O)N2CCC[C@@H]2C)sc1/C=C/C(=O)NCCCNC(=O)c1ccc(-c2c3nc(c(-c4c(F)cccc4F)c4ccc([nH]4)c(-c4c(F)cccc4F)c4nc(c(-c5c(F)cccc5F)c5ccc2[nH]5)C=C4)C=C3)cc1
REMARK SMILES IDX 20 1 19 2 17 3 18 4 16 6 15 7 14 8 1 9 2 10 3 11 4 12 13 13
REMARK SMILES IDX 5 14 6 15 7 16 8 17 11 18 9 19 10 20 12 21 21 22 22 23 23 24
REMARK SMILES IDX 24 25 25 27 26 28 27 29 79 30 28 31 78 32 29 33 30 34 31 35
REMARK SMILES IDX 72 36 32 37 77 38 71 39 73 40 33 41 76 42 70 43 69 44 34 46
REMARK SMILES IDX 60 47 43 48 59 49 44 50 47 51 58 52 74 53 45 54 46 55 57 57
REMARK SMILES IDX 75 58 48 59 35 60 36 61 41 62 37 63 38 64 40 65 42 66 39 67
REMARK SMILES IDX 61 68 62 69 67 70 63 71 64 72 66 73 68 74 65 75 49 76 50 77
REMARK SMILES IDX 55 78 51 79 52 80 54 81 56 82 53 83
REMARK H PARENT 19 5 23 26 73 45 47 56
REMARK Flexibility Score: inf
ROOT
ATOM      1  C   UNL A   1      34.216  35.145  27.907  1.00  0.00     0.118 C 
ENDROOT
BRANCH   1   2
ATOM      2  N   UNL A   1      35.489  34.941  28.577  1.00  0.00    -0.352 N 
ATOM      3  C   UNL A   1      36.274  33.835  28.649  1.00  0.00     0.244 C 
ATOM      4  O   UNL A   1      37.380  33.903  29.180  1.00  0.00    -0.270 OA
ATOM      5  H   UNL A   1      35.835  35.729  29.055  1.00  0.00     0.163 HD
BRANCH   3   6
ATOM      6  C   UNL A   1      35.847  32.575  28.011  1.00  0.00     0.072 C 
ATOM      7  C   UNL A   1      34.765  31.881  28.396  1.00  0.00     0.025 C 
BRANCH   7   8
ATOM      8  C   UNL A   1      34.375  30.658  27.772  1.00  0.00     0.031 A 
ATOM      9  C   UNL A   1      36.577  29.329  27.892  1.00  0.00     0.046 C 
ATOM     10  C   UNL A   1      35.150  29.537  27.492  1.00  0.00    -0.032 A 
ATOM     11  C   UNL A   1      34.391  28.538  26.790  1.00  0.00     0.029 A 
ATOM     12  C   UNL A   1      33.067  28.883  26.587  1.00  0.00     0.093 A 
ATOM     13  S   UNL A   1      32.758  30.418  27.250  1.00  0.00    -0.130 S 
BRANCH  12  14
ATOM     14  C   UNL A   1      32.014  27.996  26.098  1.00  0.00     0.264 C 
ATOM     15  O   UNL A   1      31.491  27.177  26.860  1.00  0.00    -0.268 OA
BRANCH  14  16
ATOM     16  N   UNL A   1      31.524  28.110  24.802  1.00  0.00    -0.335 N 
ATOM     17  C   UNL A   1      30.541  27.157  24.332  1.00  0.00     0.120 C 
ATOM     18  C   UNL A   1      31.866  29.058  23.735  1.00  0.00     0.082 C 
ATOM     19  C   UNL A   1      29.737  27.974  23.339  1.00  0.00     0.024 C 
ATOM     20  C   UNL A   1      30.807  28.809  22.644  1.00  0.00     0.026 C 
ATOM     21  C   UNL A   1      33.274  28.812  23.199  1.00  0.00     0.031 C 
ENDBRANCH  14  16
ENDBRANCH  12  14
ENDBRANCH   7   8
ENDBRANCH   3   6
ENDBRANCH   1   2
BRANCH   1  22
ATOM     22  C   UNL A   1      33.082  35.349  28.909  1.00  0.00     0.042 C 
BRANCH  22  23
ATOM     23  C   UNL A   1      33.282  36.562  29.814  1.00  0.00     0.118 C 
BRANCH  23  24
ATOM     24  N   UNL A   1      32.383  36.544  30.959  1.00  0.00    -0.352 N 
ATOM     25  C   UNL A   1      32.455  35.831  32.129  1.00  0.00     0.251 C 
ATOM     26  H   UNL A   1      31.602  37.137  30.881  1.00  0.00     0.163 HD
ATOM     27  O   UNL A   1      31.480  35.801  32.874  1.00  0.00    -0.269 OA
BRANCH  25  28
ATOM     28  C   UNL A   1      33.682  35.093  32.499  1.00  0.00     0.039 A 
ATOM     29  C   UNL A   1      33.556  33.789  32.988  1.00  0.00     0.014 A 
ATOM     30  C   UNL A   1      34.945  35.691  32.429  1.00  0.00     0.014 A 
ATOM     31  C   UNL A   1      34.695  33.069  33.361  1.00  0.00     0.010 A 
ATOM     32  C   UNL A   1      36.084  34.952  32.740  1.00  0.00     0.010 A 
ATOM     33  C   UNL A   1      35.970  33.638  33.217  1.00  0.00    -0.014 A 
BRANCH  33  34
ATOM     34  C   UNL A   1      37.194  32.875  33.570  1.00  0.00     0.031 A 
ATOM     35  C   UNL A   1      37.937  33.177  34.841  1.00  0.00     0.074 A 
ATOM     36  C   UNL A   1      37.668  31.947  32.716  1.00  0.00     0.049 A 
ATOM     37  N   UNL A   1      39.061  32.671  35.283  1.00  0.00    -0.248 NA
ATOM     38  C   UNL A   1      37.353  34.203  35.721  1.00  0.00     0.031 C 
ATOM     39  C   UNL A   1      37.062  31.590  31.433  1.00  0.00     0.029 A 
ATOM     40  N   UNL A   1      38.776  31.143  32.796  1.00  0.00    -0.354 N 
ATOM     41  C   UNL A   1      39.327  33.326  36.478  1.00  0.00     0.074 A 
ATOM     42  C   UNL A   1      38.270  34.297  36.672  1.00  0.00     0.031 C 
ATOM     43  C   UNL A   1      37.797  30.627  30.853  1.00  0.00     0.029 A 
ATOM     44  C   UNL A   1      38.941  30.323  31.706  1.00  0.00     0.049 A 
ATOM     45  H   UNL A   1      39.396  31.153  33.561  1.00  0.00     0.167 HD
ATOM     46  C   UNL A   1      40.348  33.125  37.346  1.00  0.00     0.037 A 
ATOM     47  C   UNL A   1      39.909  29.431  31.425  1.00  0.00     0.037 A 
ATOM     48  C   UNL A   1      41.382  32.140  37.167  1.00  0.00     0.049 A 
ATOM     49  C   UNL A   1      41.024  29.217  32.408  1.00  0.00     0.074 A 
ATOM     50  C   UNL A   1      42.428  31.824  38.016  1.00  0.00     0.029 A 
ATOM     51  N   UNL A   1      41.498  31.311  36.063  1.00  0.00    -0.354 N 
ATOM     52  N   UNL A   1      41.234  29.807  33.559  1.00  0.00    -0.248 NA
ATOM     53  C   UNL A   1      42.034  28.209  32.055  1.00  0.00     0.031 C 
ATOM     54  C   UNL A   1      43.195  30.823  37.410  1.00  0.00     0.029 A 
ATOM     55  C   UNL A   1      42.606  30.491  36.202  1.00  0.00     0.049 A 
ATOM     56  H   UNL A   1      40.884  31.304  35.293  1.00  0.00     0.167 HD
ATOM     57  C   UNL A   1      42.383  29.229  34.079  1.00  0.00     0.074 A 
ATOM     58  C   UNL A   1      42.819  28.230  33.124  1.00  0.00     0.031 C 
ATOM     59  C   UNL A   1      43.021  29.499  35.244  1.00  0.00     0.037 A 
BRANCH  46  60
ATOM     60  C   UNL A   1      40.391  33.989  38.572  1.00  0.00     0.057 A 
ATOM     61  C   UNL A   1      39.729  33.626  39.753  1.00  0.00     0.134 A 
ATOM     62  C   UNL A   1      41.125  35.181  38.583  1.00  0.00     0.134 A 
ATOM     63  F   UNL A   1      38.999  32.501  39.804  1.00  0.00    -0.206 F 
ATOM     64  C   UNL A   1      39.776  34.430  40.892  1.00  0.00     0.040 A 
ATOM     65  C   UNL A   1      41.199  35.981  39.724  1.00  0.00     0.040 A 
ATOM     66  F   UNL A   1      41.787  35.585  37.489  1.00  0.00    -0.206 F 
ATOM     67  C   UNL A   1      40.519  35.609  40.882  1.00  0.00     0.006 A 
ENDBRANCH  46  60
BRANCH  47  68
ATOM     68  C   UNL A   1      39.850  28.653  30.164  1.00  0.00     0.057 A 
ATOM     69  C   UNL A   1      39.149  27.444  30.096  1.00  0.00     0.134 A 
ATOM     70  C   UNL A   1      40.486  29.099  28.999  1.00  0.00     0.134 A 
ATOM     71  F   UNL A   1      38.534  26.959  31.185  1.00  0.00    -0.206 F 
ATOM     72  C   UNL A   1      39.093  26.697  28.919  1.00  0.00     0.040 A 
ATOM     73  C   UNL A   1      40.421  28.372  27.809  1.00  0.00     0.040 A 
ATOM     74  F   UNL A   1      41.167  30.253  28.998  1.00  0.00    -0.206 F 
ATOM     75  C   UNL A   1      39.727  27.164  27.769  1.00  0.00     0.006 A 
ENDBRANCH  47  68
BRANCH  59  76
ATOM     76  C   UNL A   1      44.239  28.684  35.561  1.00  0.00     0.057 A 
ATOM     77  C   UNL A   1      45.520  29.091  35.168  1.00  0.00     0.134 A 
ATOM     78  C   UNL A   1      44.132  27.498  36.297  1.00  0.00     0.134 A 
ATOM     79  F   UNL A   1      45.688  30.211  34.449  1.00  0.00    -0.206 F 
ATOM     80  C   UNL A   1      46.651  28.334  35.480  1.00  0.00     0.040 A 
ATOM     81  C   UNL A   1      45.257  26.744  36.633  1.00  0.00     0.040 A 
ATOM     82  F   UNL A   1      42.933  27.058  36.709  1.00  0.00    -0.206 F 
ATOM     83  C   UNL A   1      46.521  27.160  36.220  1.00  0.00     0.006 A 
ENDBRANCH  59  76
ENDBRANCH  33  34
ENDBRANCH  25  28
ENDBRANCH  23  24
ENDBRANCH  22  23
ENDBRANCH   1  22
TORSDOF 13
ENDMDL
MODEL 2
REMARK VINA RESULT:     -11.3      6.104     10.938
REMARK SMILES Cc1cc(C(=O)N2CCC[C@@H]2C)sc1/C=C/C(=O)NCCCNC(=O)c1ccc(-c2c3nc(c(-c4c(F)cccc4F)c4ccc([nH]4)c(-c4c(F)cccc4F)c4nc(c(-c5c(F)cccc5F)c5ccc2[nH]5)C=C4)C=C3)cc1
REMARK SMILES IDX 20 1 19 2 17 3 18 4 16 6 15 7 14 8 1 9 2 10 3 11 4 12 13 13
REMARK SMILES IDX 5 14 6 15 7 16 8 17 11 18 9 19 10 20 12 21 21 22 22 23 23 24
REMARK SMILES IDX 24 25 25 27 26 28 27 29 79 30 28 31 78 32 29 33 30 34 31 35
REMARK SMILES IDX 72 36 32 37 77 38 71 39 73 40 33 41 76 42 70 43 69 44 34 46
REMARK SMILES IDX 60 47 43 48 59 49 44 50 47 51 58 52 74 53 45 54 46 55 57 57
REMARK SMILES IDX 75 58 48 59 35 60 36 61 41 62 37 63 38 64 40 65 42 66 39 67
REMARK SMILES IDX 61 68 62 69 67 70 63 71 64 72 66 73 68 74 65 75 49 76 50 77
REMARK SMILES IDX 55 78 51 79 52 80 54 81 56 82 53 83
REMARK H PARENT 19 5 23 26 73 45 47 56
REMARK Flexibility Score: inf
ROOT
ATOM      1  C   UNL A   1      36.560  20.194  24.893  1.00  0.00     0.118 C 
ENDROOT
BRANCH   1   2
ATOM      2  N   UNL A   1      35.308  19.464  24.975  1.00  0.00    -0.352 N 
ATOM      3  C   UNL A   1      34.027  19.918  24.993  1.00  0.00     0.244 C 
ATOM      4  O   UNL A   1      33.094  19.120  24.955  1.00  0.00    -0.270 OA
ATOM      5  H   UNL A   1      35.403  18.485  25.028  1.00  0.00     0.163 HD
BRANCH   3   6
ATOM      6  C   UNL A   1      33.751  21.367  24.963  1.00  0.00     0.072 C 
ATOM      7  C   UNL A   1      33.684  22.130  26.065  1.00  0.00     0.025 C 
BRANCH   7   8
ATOM      8  C   UNL A   1      33.403  23.529  26.016  1.00  0.00     0.031 A 
ATOM      9  C   UNL A   1      35.664  24.449  25.196  1.00  0.00     0.046 C 
ATOM     10  C   UNL A   1      34.255  24.577  25.686  1.00  0.00    -0.032 A 
ATOM     11  C   UNL A   1      33.600  25.849  25.826  1.00  0.00     0.029 A 
ATOM     12  C   UNL A   1      32.274  25.754  26.210  1.00  0.00     0.093 A 
ATOM     13  S   UNL A   1      31.839  24.122  26.397  1.00  0.00    -0.130 S 
BRANCH  12  14
ATOM     14  C   UNL A   1      31.305  26.848  26.228  1.00  0.00     0.264 C 
ATOM     15  O   UNL A   1      30.832  27.238  27.300  1.00  0.00    -0.268 OA
BRANCH  14  16
ATOM     16  N   UNL A   1      30.962  27.522  25.062  1.00  0.00    -0.335 N 
ATOM     17  C   UNL A   1      30.284  26.802  24.004  1.00  0.00     0.120 C 
ATOM     18  C   UNL A   1      31.206  28.911  24.658  1.00  0.00     0.082 C 
ATOM     19  C   UNL A   1      29.441  27.883  23.357  1.00  0.00     0.024 C 
ATOM     20  C   UNL A   1      30.370  29.093  23.377  1.00  0.00     0.026 C 
ATOM     21  C   UNL A   1      32.687  29.163  24.386  1.00  0.00     0.031 C 
ENDBRANCH  14  16
ENDBRANCH  12  14
ENDBRANCH   7   8
ENDBRANCH   3   6
ENDBRANCH   1   2
BRANCH   1  22
ATOM     22  C   UNL A   1      37.763  19.260  25.013  1.00  0.00     0.042 C 
BRANCH  22  23
ATOM     23  C   UNL A   1      38.982  19.920  25.653  1.00  0.00     0.118 C 
BRANCH  23  24
ATOM     24  N   UNL A   1      40.082  18.983  25.825  1.00  0.00    -0.352 N 
ATOM     25  C   UNL A   1      41.406  19.213  26.100  1.00  0.00     0.251 C 
ATOM     26  H   UNL A   1      39.837  18.034  25.729  1.00  0.00     0.163 HD
ATOM     27  O   UNL A   1      42.212  18.293  25.993  1.00  0.00    -0.269 OA
BRANCH  25  28
ATOM     28  C   UNL A   1      41.878  20.553  26.514  1.00  0.00     0.039 A 
ATOM     29  C   UNL A   1      42.292  21.451  25.524  1.00  0.00     0.014 A 
ATOM     30  C   UNL A   1      41.974  20.910  27.863  1.00  0.00     0.014 A 
ATOM     31  C   UNL A   1      42.757  22.719  25.883  1.00  0.00     0.010 A 
ATOM     32  C   UNL A   1      42.378  22.197  28.215  1.00  0.00     0.010 A 
ATOM     33  C   UNL A   1      42.781  23.110  27.230  1.00  0.00    -0.014 A 
BRANCH  33  34
ATOM     34  C   UNL A   1      43.234  24.467  27.627  1.00  0.00     0.031 A 
ATOM     35  C   UNL A   1      42.233  25.514  28.029  1.00  0.00     0.074 A 
ATOM     36  C   UNL A   1      44.545  24.773  27.570  1.00  0.00     0.049 A 
ATOM     37  N   UNL A   1      42.429  26.772  28.335  1.00  0.00    -0.248 NA
ATOM     38  C   UNL A   1      40.821  25.100  28.067  1.00  0.00     0.031 C 
ATOM     39  C   UNL A   1      45.610  23.859  27.157  1.00  0.00     0.029 A 
ATOM     40  N   UNL A   1      45.200  25.945  27.850  1.00  0.00    -0.354 N 
ATOM     41  C   UNL A   1      41.170  27.302  28.584  1.00  0.00     0.074 A 
ATOM     42  C   UNL A   1      40.212  26.241  28.352  1.00  0.00     0.031 C 
ATOM     43  C   UNL A   1      46.789  24.498  27.226  1.00  0.00     0.029 A 
ATOM     44  C   UNL A   1      46.559  25.874  27.655  1.00  0.00     0.049 A 
ATOM     45  H   UNL A   1      44.742  26.759  28.159  1.00  0.00     0.167 HD
ATOM     46  C   UNL A   1      40.842  28.553  28.987  1.00  0.00     0.037 A 
ATOM     47  C   UNL A   1      47.510  26.815  27.801  1.00  0.00     0.037 A 
ATOM     48  C   UNL A   1      41.796  29.598  29.245  1.00  0.00     0.049 A 
ATOM     49  C   UNL A   1      47.123  28.191  28.261  1.00  0.00     0.074 A 
ATOM     50  C   UNL A   1      41.566  30.882  29.710  1.00  0.00     0.029 A 
ATOM     51  N   UNL A   1      43.165  29.480  29.063  1.00  0.00    -0.354 N 
ATOM     52  N   UNL A   1      45.933  28.663  28.544  1.00  0.00    -0.248 NA
ATOM     53  C   UNL A   1      48.212  29.165  28.429  1.00  0.00     0.031 C 
ATOM     54  C   UNL A   1      42.794  31.549  29.778  1.00  0.00     0.029 A 
ATOM     55  C   UNL A   1      43.792  30.670  29.393  1.00  0.00     0.049 A 
ATOM     56  H   UNL A   1      43.625  28.668  28.746  1.00  0.00     0.167 HD
ATOM     57  C   UNL A   1      46.130  29.977  28.944  1.00  0.00     0.074 A 
ATOM     58  C   UNL A   1      47.556  30.225  28.880  1.00  0.00     0.031 C 
ATOM     59  C   UNL A   1      45.212  30.897  29.329  1.00  0.00     0.037 A 
BRANCH  46  60
ATOM     60  C   UNL A   1      39.384  28.855  29.179  1.00  0.00     0.057 A 
ATOM     61  C   UNL A   1      38.751  28.676  30.416  1.00  0.00     0.134 A 
ATOM     62  C   UNL A   1      38.613  29.359  28.124  1.00  0.00     0.134 A 
ATOM     63  F   UNL A   1      39.432  28.186  31.463  1.00  0.00    -0.206 F 
ATOM     64  C   UNL A   1      37.397  28.964  30.590  1.00  0.00     0.040 A 
ATOM     65  C   UNL A   1      37.263  29.673  28.294  1.00  0.00     0.040 A 
ATOM     66  F   UNL A   1      39.158  29.560  26.916  1.00  0.00    -0.206 F 
ATOM     67  C   UNL A   1      36.650  29.470  29.529  1.00  0.00     0.006 A 
ENDBRANCH  46  60
BRANCH  47  68
ATOM     68  C   UNL A   1      48.929  26.477  27.532  1.00  0.00     0.057 A 
ATOM     69  C   UNL A   1      49.743  25.937  28.534  1.00  0.00     0.134 A 
ATOM     70  C   UNL A   1      49.503  26.679  26.271  1.00  0.00     0.134 A 
ATOM     71  F   UNL A   1      49.252  25.737  29.767  1.00  0.00    -0.206 F 
ATOM     72  C   UNL A   1      51.081  25.623  28.298  1.00  0.00     0.040 A 
ATOM     73  C   UNL A   1      50.835  26.350  26.015  1.00  0.00     0.040 A 
ATOM     74  F   UNL A   1      48.772  27.185  25.268  1.00  0.00    -0.206 F 
ATOM     75  C   UNL A   1      51.629  25.825  27.033  1.00  0.00     0.006 A 
ENDBRANCH  47  68
BRANCH  59  76
ATOM     76  C   UNL A   1      45.726  32.244  29.740  1.00  0.00     0.057 A 
ATOM     77  C   UNL A   1      45.830  33.302  28.827  1.00  0.00     0.134 A 
ATOM     78  C   UNL A   1      46.089  32.495  31.068  1.00  0.00     0.134 A 
ATOM     79  F   UNL A   1      45.511  33.122  27.537  1.00  0.00    -0.206 F 
ATOM     80  C   UNL A   1      46.295  34.558  29.221  1.00  0.00     0.040 A 
ATOM     81  C   UNL A   1      46.535  33.752  31.477  1.00  0.00     0.040 A 
ATOM     82  F   UNL A   1      46.006  31.525  31.992  1.00  0.00    -0.206 F 
ATOM     83  C   UNL A   1      46.643  34.787  30.551  1.00  0.00     0.006 A 
ENDBRANCH  59  76
ENDBRANCH  33  34
ENDBRANCH  25  28
ENDBRANCH  23  24
ENDBRANCH  22  23
ENDBRANCH   1  22
TORSDOF 13
ENDMDL
MODEL 3
REMARK VINA RESULT:     -11.2      7.697     12.876
REMARK SMILES Cc1cc(C(=O)N2CCC[C@@H]2C)sc1/C=C/C(=O)NCCCNC(=O)c1ccc(-c2c3nc(c(-c4c(F)cccc4F)c4ccc([nH]4)c(-c4c(F)cccc4F)c4nc(c(-c5c(F)cccc5F)c5ccc2[nH]5)C=C4)C=C3)cc1
REMARK SMILES IDX 20 1 19 2 17 3 18 4 16 6 15 7 14 8 1 9 2 10 3 11 4 12 13 13
REMARK SMILES IDX 5 14 6 15 7 16 8 17 11 18 9 19 10 20 12 21 21 22 22 23 23 24
REMARK SMILES IDX 24 25 25 27 26 28 27 29 79 30 28 31 78 32 29 33 30 34 31 35
REMARK SMILES IDX 72 36 32 37 77 38 71 39 73 40 33 41 76 42 70 43 69 44 34 46
REMARK SMILES IDX 60 47 43 48 59 49 44 50 47 51 58 52 74 53 45 54 46 55 57 57
REMARK SMILES IDX 75 58 48 59 35 60 36 61 41 62 37 63 38 64 40 65 42 66 39 67
REMARK SMILES IDX 61 68 62 69 67 70 63 71 64 72 66 73 68 74 65 75 49 76 50 77
REMARK SMILES IDX 55 78 51 79 52 80 54 81 56 82 53 83
REMARK H PARENT 19 5 23 26 73 45 47 56
REMARK Flexibility Score: inf
ROOT
ATOM      1  C   UNL A   1      42.030  19.174  26.788  1.00  0.00     0.118 C 
ENDROOT
BRANCH   1   2
ATOM      2  N   UNL A   1      42.663  20.244  27.540  1.00  0.00    -0.352 N 
ATOM      3  C   UNL A   1      42.353  21.565  27.614  1.00  0.00     0.244 C 
ATOM      4  O   UNL A   1      42.952  22.290  28.404  1.00  0.00    -0.270 OA
ATOM      5  H   UNL A   1      43.438  19.967  28.080  1.00  0.00     0.163 HD
BRANCH   3   6
ATOM      6  C   UNL A   1      41.239  22.114  26.820  1.00  0.00     0.072 C 
ATOM      7  C   UNL A   1      39.963  22.112  27.235  1.00  0.00     0.025 C 
BRANCH   7   8
ATOM      8  C   UNL A   1      38.896  22.639  26.445  1.00  0.00     0.031 A 
ATOM      9  C   UNL A   1      38.847  25.080  27.263  1.00  0.00     0.046 C 
ATOM     10  C   UNL A   1      38.349  23.918  26.462  1.00  0.00    -0.032 A 
ATOM     11  C   UNL A   1      37.238  24.023  25.556  1.00  0.00     0.029 A 
ATOM     12  C   UNL A   1      36.985  22.864  24.845  1.00  0.00     0.093 A 
ATOM     13  S   UNL A   1      38.099  21.658  25.285  1.00  0.00    -0.130 S 
BRANCH  12  14
ATOM     14  C   UNL A   1      36.068  22.734  23.715  1.00  0.00     0.264 C 
ATOM     15  O   UNL A   1      36.469  22.941  22.566  1.00  0.00    -0.268 OA
BRANCH  14  16
ATOM     16  N   UNL A   1      34.761  22.296  23.898  1.00  0.00    -0.335 N 
ATOM     17  C   UNL A   1      33.676  23.039  23.291  1.00  0.00     0.120 C 
ATOM     18  C   UNL A   1      34.235  21.166  24.671  1.00  0.00     0.082 C 
ATOM     19  C   UNL A   1      32.644  21.960  23.028  1.00  0.00     0.024 C 
ATOM     20  C   UNL A   1      32.751  21.080  24.269  1.00  0.00     0.026 C 
ATOM     21  C   UNL A   1      34.384  21.399  26.173  1.00  0.00     0.031 C 
ENDBRANCH  14  16
ENDBRANCH  12  14
ENDBRANCH   7   8
ENDBRANCH   3   6
ENDBRANCH   1   2
BRANCH   1  22
ATOM     22  C   UNL A   1      43.002  18.025  26.524  1.00  0.00     0.042 C 
BRANCH  22  23
ATOM     23  C   UNL A   1      44.407  18.492  26.151  1.00  0.00     0.118 C 
BRANCH  23  24
ATOM     24  N   UNL A   1      44.608  18.519  24.710  1.00  0.00    -0.352 N 
ATOM     25  C   UNL A   1      44.738  19.584  23.854  1.00  0.00     0.251 C 
ATOM     26  H   UNL A   1      44.659  17.634  24.282  1.00  0.00     0.163 HD
ATOM     27  O   UNL A   1      44.687  19.392  22.643  1.00  0.00    -0.269 OA
BRANCH  25  28
ATOM     28  C   UNL A   1      44.930  20.957  24.370  1.00  0.00     0.039 A 
ATOM     29  C   UNL A   1      44.548  22.034  23.562  1.00  0.00     0.014 A 
ATOM     30  C   UNL A   1      45.537  21.196  25.607  1.00  0.00     0.014 A 
ATOM     31  C   UNL A   1      44.730  23.344  24.013  1.00  0.00     0.010 A 
ATOM     32  C   UNL A   1      45.660  22.501  26.082  1.00  0.00     0.010 A 
ATOM     33  C   UNL A   1      45.266  23.587  25.287  1.00  0.00    -0.014 A 
BRANCH  33  34
ATOM     34  C   UNL A   1      45.429  24.970  25.799  1.00  0.00     0.031 A 
ATOM     35  C   UNL A   1      46.779  25.631  25.784  1.00  0.00     0.074 A 
ATOM     36  C   UNL A   1      44.370  25.612  26.330  1.00  0.00     0.049 A 
ATOM     37  N   UNL A   1      47.133  26.801  26.253  1.00  0.00    -0.248 NA
ATOM     38  C   UNL A   1      47.884  24.864  25.185  1.00  0.00     0.031 C 
ATOM     39  C   UNL A   1      43.018  25.065  26.440  1.00  0.00     0.029 A 
ATOM     40  N   UNL A   1      44.271  26.861  26.887  1.00  0.00    -0.354 N 
ATOM     41  C   UNL A   1      48.499  26.903  26.024  1.00  0.00     0.074 A 
ATOM     42  C   UNL A   1      48.919  25.660  25.412  1.00  0.00     0.031 C 
ATOM     43  C   UNL A   1      42.219  25.979  27.014  1.00  0.00     0.029 A 
ATOM     44  C   UNL A   1      43.010  27.162  27.341  1.00  0.00     0.049 A 
ATOM     45  H   UNL A   1      45.031  27.483  26.957  1.00  0.00     0.167 HD
ATOM     46  C   UNL A   1      49.326  27.945  26.281  1.00  0.00     0.037 A 
ATOM     47  C   UNL A   1      42.545  28.265  27.957  1.00  0.00     0.037 A 
ATOM     48  C   UNL A   1      48.903  29.192  26.862  1.00  0.00     0.049 A 
ATOM     49  C   UNL A   1      43.478  29.412  28.221  1.00  0.00     0.074 A 
ATOM     50  C   UNL A   1      49.655  30.327  27.112  1.00  0.00     0.029 A 
ATOM     51  N   UNL A   1      47.611  29.468  27.284  1.00  0.00    -0.354 N 
ATOM     52  N   UNL A   1      44.756  29.515  27.950  1.00  0.00    -0.248 NA
ATOM     53  C   UNL A   1      42.903  30.599  28.870  1.00  0.00     0.031 C 
ATOM     54  C   UNL A   1      48.823  31.279  27.713  1.00  0.00     0.029 A 
ATOM     55  C   UNL A   1      47.547  30.750  27.803  1.00  0.00     0.049 A 
ATOM     56  H   UNL A   1      46.851  28.844  27.222  1.00  0.00     0.167 HD
ATOM     57  C   UNL A   1      45.134  30.781  28.373  1.00  0.00     0.074 A 
ATOM     58  C   UNL A   1      43.946  31.416  28.907  1.00  0.00     0.031 C 
ATOM     59  C   UNL A   1      46.355  31.367  28.324  1.00  0.00     0.037 A 
BRANCH  46  60
ATOM     60  C   UNL A   1      50.775  27.779  25.929  1.00  0.00     0.057 A 
ATOM     61  C   UNL A   1      51.246  27.995  24.627  1.00  0.00     0.134 A 
ATOM     62  C   UNL A   1      51.715  27.428  26.906  1.00  0.00     0.134 A 
ATOM     63  F   UNL A   1      50.396  28.322  23.642  1.00  0.00    -0.206 F 
ATOM     64  C   UNL A   1      52.596  27.844  24.305  1.00  0.00     0.040 A 
ATOM     65  C   UNL A   1      53.070  27.298  26.601  1.00  0.00     0.040 A 
ATOM     66  F   UNL A   1      51.332  27.213  28.173  1.00  0.00    -0.206 F 
ATOM     67  C   UNL A   1      53.514  27.501  25.296  1.00  0.00     0.006 A 
ENDBRANCH  46  60
BRANCH  47  68
ATOM     68  C   UNL A   1      41.115  28.346  28.343  1.00  0.00     0.057 A 
ATOM     69  C   UNL A   1      40.684  27.911  29.602  1.00  0.00     0.134 A 
ATOM     70  C   UNL A   1      40.150  28.863  27.471  1.00  0.00     0.134 A 
ATOM     71  F   UNL A   1      41.562  27.391  30.473  1.00  0.00    -0.206 F 
ATOM     72  C   UNL A   1      39.341  27.973  29.975  1.00  0.00     0.040 A 
ATOM     73  C   UNL A   1      38.806  28.950  27.840  1.00  0.00     0.040 A 
ATOM     74  F   UNL A   1      40.502  29.303  26.255  1.00  0.00    -0.206 F 
ATOM     75  C   UNL A   1      38.399  28.498  29.094  1.00  0.00     0.006 A 
ENDBRANCH  47  68
BRANCH  59  76
ATOM     76  C   UNL A   1      46.459  32.773  28.835  1.00  0.00     0.057 A 
ATOM     77  C   UNL A   1      46.782  33.051  30.169  1.00  0.00     0.134 A 
ATOM     78  C   UNL A   1      46.267  33.861  27.974  1.00  0.00     0.134 A 
ATOM     79  F   UNL A   1      46.965  32.053  31.047  1.00  0.00    -0.206 F 
ATOM     80  C   UNL A   1      46.892  34.363  30.633  1.00  0.00     0.040 A 
ATOM     81  C   UNL A   1      46.395  35.176  28.421  1.00  0.00     0.040 A 
ATOM     82  F   UNL A   1      45.962  33.662  26.683  1.00  0.00    -0.206 F 
ATOM     83  C   UNL A   1      46.704  35.430  29.755  1.00  0.00     0.006 A 
ENDBRANCH  59  76
ENDBRANCH  33  34
ENDBRANCH  25  28
ENDBRANCH  23  24
ENDBRANCH  22  23
ENDBRANCH   1  22
TORSDOF 13
ENDMDL
