MODEL 1
REMARK VINA RESULT:     -11.5      0.000      0.000
REMARK SMILES [NH3+]C[C@H]1CC[C@@H](C(=O)N[C@H](C(=O)NCCCNC(=O)c2ccc(-c3c4nc(c(-c5c(F)cccc5F)c5ccc([nH]5)c(-c5c(F)cccc5F)c5nc(c(-c6c(F)cccc6F)c6ccc3[nH]6)C=C5)C=C4)cc2)C2CCCCC2)O1
REMARK SMILES IDX 14 1 13 2 11 3 12 4 10 6 9 7 7 8 8 9 6 11 3 12 4 13 80 14
REMARK SMILES IDX 5 15 2 16 1 17 74 21 75 22 79 23 76 24 78 25 77 26 15 27
REMARK SMILES IDX 16 28 17 29 18 30 19 32 20 33 21 34 73 35 22 36 72 37 23 38
REMARK SMILES IDX 24 39 25 40 66 41 26 42 71 43 65 44 67 45 27 46 70 47 64 48
REMARK SMILES IDX 63 49 28 51 54 52 37 53 53 54 38 55 41 56 52 57 68 58 39 59
REMARK SMILES IDX 40 60 51 62 69 63 42 64 29 65 30 66 35 67 31 68 32 69 34 70
REMARK SMILES IDX 36 71 33 72 55 73 56 74 61 75 57 76 58 77 60 78 62 79 59 80
REMARK SMILES IDX 43 81 44 82 49 83 45 84 46 85 48 86 50 87 47 88
REMARK H PARENT 13 5 9 10 1 18 1 19 1 20 17 31 67 50 41 61
REMARK Flexibility Score: inf
ROOT
ATOM      1  C   UNL A   1      37.411  21.169  24.220  1.00  0.00     0.117 C 
ENDROOT
BRANCH   1   2
ATOM      2  N   UNL A   1      37.630  22.452  24.863  1.00  0.00    -0.354 N 
ATOM      3  C   UNL A   1      36.740  23.402  25.288  1.00  0.00     0.242 C 
ATOM      4  O   UNL A   1      37.162  24.252  26.077  1.00  0.00    -0.273 OA
ATOM      5  H   UNL A   1      38.575  22.675  25.021  1.00  0.00     0.163 HD
BRANCH   3   6
ATOM      6  C   UNL A   1      35.233  23.293  24.966  1.00  0.00     0.174 C 
BRANCH   6   7
ATOM      7  N   UNL A   1      34.551  22.499  26.000  1.00  0.00    -0.342 N 
ATOM      8  C   UNL A   1      33.924  21.292  25.946  1.00  0.00     0.249 C 
ATOM      9  O   UNL A   1      33.340  20.942  26.982  1.00  0.00    -0.272 OA
ATOM     10  H   UNL A   1      34.547  22.917  26.892  1.00  0.00     0.164 HD
BRANCH   8  11
ATOM     11  C   UNL A   1      33.918  20.358  24.703  1.00  0.00     0.207 C 
ATOM     12  C   UNL A   1      33.516  18.121  24.067  1.00  0.00     0.174 C 
ATOM     13  C   UNL A   1      32.537  19.008  23.318  1.00  0.00     0.041 C 
ATOM     14  O   UNL A   1      34.402  19.025  24.776  1.00  0.00    -0.359 OA
ATOM     15  C   UNL A   1      32.488  20.245  24.175  1.00  0.00     0.045 C 
BRANCH  12  16
ATOM     16  C   UNL A   1      32.868  17.163  25.090  1.00  0.00     0.291 C 
BRANCH  16  17
ATOM     17  N   UNL A   1      32.634  17.666  26.442  1.00  0.00    -0.355 N 
ATOM     18  H   UNL A   1      32.669  18.685  26.437  1.00  0.00     0.344 HD
ATOM     19  H   UNL A   1      33.353  17.305  27.068  1.00  0.00     0.344 HD
ATOM     20  H   UNL A   1      31.717  17.359  26.766  1.00  0.00     0.344 HD
ENDBRANCH  16  17
ENDBRANCH  12  16
ENDBRANCH   8  11
ENDBRANCH   6   7
BRANCH   6  21
ATOM     21  C   UNL A   1      34.707  24.766  24.887  1.00  0.00     0.021 C 
ATOM     22  C   UNL A   1      33.993  25.080  23.556  1.00  0.00     0.006 C 
ATOM     23  C   UNL A   1      33.812  25.252  26.039  1.00  0.00     0.006 C 
ATOM     24  C   UNL A   1      33.830  26.590  23.399  1.00  0.00     0.000 C 
ATOM     25  C   UNL A   1      33.606  26.772  25.925  1.00  0.00     0.000 C 
ATOM     26  C   UNL A   1      33.056  27.197  24.563  1.00  0.00     0.000 C 
ENDBRANCH   6  21
ENDBRANCH   3   6
ENDBRANCH   1   2
BRANCH   1  27
ATOM     27  C   UNL A   1      37.892  19.963  25.006  1.00  0.00     0.042 C 
BRANCH  27  28
ATOM     28  C   UNL A   1      39.093  20.166  25.911  1.00  0.00     0.118 C 
BRANCH  28  29
ATOM     29  N   UNL A   1      40.113  19.137  25.843  1.00  0.00    -0.352 N 
ATOM     30  C   UNL A   1      41.449  19.264  26.134  1.00  0.00     0.251 C 
ATOM     31  H   UNL A   1      39.813  18.244  25.556  1.00  0.00     0.163 HD
ATOM     32  O   UNL A   1      42.215  18.316  26.001  1.00  0.00    -0.269 OA
BRANCH  30  33
ATOM     33  C   UNL A   1      41.958  20.585  26.549  1.00  0.00     0.039 A 
ATOM     34  C   UNL A   1      42.310  21.503  25.559  1.00  0.00     0.014 A 
ATOM     35  C   UNL A   1      42.015  20.933  27.901  1.00  0.00     0.014 A 
ATOM     36  C   UNL A   1      42.669  22.799  25.925  1.00  0.00     0.010 A 
ATOM     37  C   UNL A   1      42.304  22.246  28.260  1.00  0.00     0.010 A 
ATOM     38  C   UNL A   1      42.639  23.187  27.275  1.00  0.00    -0.014 A 
BRANCH  38  39
ATOM     39  C   UNL A   1      42.984  24.574  27.672  1.00  0.00     0.031 A 
ATOM     40  C   UNL A   1      44.423  25.000  27.722  1.00  0.00     0.074 A 
ATOM     41  C   UNL A   1      42.010  25.431  28.031  1.00  0.00     0.049 A 
ATOM     42  N   UNL A   1      44.933  26.150  28.084  1.00  0.00    -0.248 NA
ATOM     43  C   UNL A   1      45.426  23.992  27.340  1.00  0.00     0.031 C 
ATOM     44  C   UNL A   1      40.579  25.121  28.070  1.00  0.00     0.029 A 
ATOM     45  N   UNL A   1      42.077  26.739  28.440  1.00  0.00    -0.354 N 
ATOM     46  C   UNL A   1      46.310  25.999  27.984  1.00  0.00     0.074 A 
ATOM     47  C   UNL A   1      46.559  24.632  27.583  1.00  0.00     0.031 C 
ATOM     48  C   UNL A   1      39.904  26.215  28.459  1.00  0.00     0.029 A 
ATOM     49  C   UNL A   1      40.853  27.293  28.723  1.00  0.00     0.049 A 
ATOM     50  H   UNL A   1      42.925  27.234  28.522  1.00  0.00     0.167 HD
ATOM     51  C   UNL A   1      47.278  26.923  28.185  1.00  0.00     0.037 A 
ATOM     52  C   UNL A   1      40.534  28.529  29.148  1.00  0.00     0.037 A 
ATOM     53  C   UNL A   1      47.027  28.290  28.556  1.00  0.00     0.049 A 
ATOM     54  C   UNL A   1      41.628  29.541  29.356  1.00  0.00     0.074 A 
ATOM     55  C   UNL A   1      47.938  29.317  28.728  1.00  0.00     0.029 A 
ATOM     56  N   UNL A   1      45.771  28.820  28.807  1.00  0.00    -0.354 N 
ATOM     57  N   UNL A   1      42.922  29.403  29.194  1.00  0.00    -0.248 NA
ATOM     58  C   UNL A   1      41.216  30.881  29.796  1.00  0.00     0.031 C 
ATOM     59  C   UNL A   1      47.235  30.462  29.119  1.00  0.00     0.029 A 
ATOM     60  C   UNL A   1      45.883  30.157  29.149  1.00  0.00     0.049 A 
ATOM     61  H   UNL A   1      44.925  28.320  28.752  1.00  0.00     0.167 HD
ATOM     62  C   UNL A   1      43.474  30.644  29.480  1.00  0.00     0.074 A 
ATOM     63  C   UNL A   1      42.375  31.524  29.817  1.00  0.00     0.031 C 
ATOM     64  C   UNL A   1      44.776  31.022  29.466  1.00  0.00     0.037 A 
BRANCH  51  65
ATOM     65  C   UNL A   1      48.699  26.482  27.996  1.00  0.00     0.057 A 
ATOM     66  C   UNL A   1      49.336  26.559  26.751  1.00  0.00     0.134 A 
ATOM     67  C   UNL A   1      49.449  26.000  29.077  1.00  0.00     0.134 A 
ATOM     68  F   UNL A   1      48.669  26.999  25.673  1.00  0.00    -0.206 F 
ATOM     69  C   UNL A   1      50.659  26.148  26.580  1.00  0.00     0.040 A 
ATOM     70  C   UNL A   1      50.780  25.612  28.925  1.00  0.00     0.040 A 
ATOM     71  F   UNL A   1      48.901  25.905  30.298  1.00  0.00    -0.206 F 
ATOM     72  C   UNL A   1      51.387  25.679  27.672  1.00  0.00     0.006 A 
ENDBRANCH  51  65
BRANCH  52  73
ATOM     73  C   UNL A   1      39.114  28.896  29.375  1.00  0.00     0.057 A 
ATOM     74  C   UNL A   1      38.341  29.459  28.354  1.00  0.00     0.134 A 
ATOM     75  C   UNL A   1      38.500  28.707  30.619  1.00  0.00     0.134 A 
ATOM     76  F   UNL A   1      38.881  29.682  27.146  1.00  0.00    -0.206 F 
ATOM     77  C   UNL A   1      37.017  29.842  28.564  1.00  0.00     0.040 A 
ATOM     78  C   UNL A   1      37.168  29.063  30.837  1.00  0.00     0.040 A 
ATOM     79  F   UNL A   1      39.185  28.165  31.637  1.00  0.00    -0.206 F 
ATOM     80  C   UNL A   1      36.425  29.640  29.809  1.00  0.00     0.006 A 
ENDBRANCH  52  73
BRANCH  64  81
ATOM     81  C   UNL A   1      45.079  32.456  29.781  1.00  0.00     0.057 A 
ATOM     82  C   UNL A   1      45.080  33.447  28.792  1.00  0.00     0.134 A 
ATOM     83  C   UNL A   1      45.331  32.856  31.100  1.00  0.00     0.134 A 
ATOM     84  F   UNL A   1      44.856  33.126  27.508  1.00  0.00    -0.206 F 
ATOM     85  C   UNL A   1      45.341  34.782  29.100  1.00  0.00     0.040 A 
ATOM     86  C   UNL A   1      45.569  34.191  31.424  1.00  0.00     0.040 A 
ATOM     87  F   UNL A   1      45.337  31.956  32.096  1.00  0.00    -0.206 F 
ATOM     88  C   UNL A   1      45.580  35.159  30.421  1.00  0.00     0.006 A 
ENDBRANCH  64  81
ENDBRANCH  38  39
ENDBRANCH  30  33
ENDBRANCH  28  29
ENDBRANCH  27  28
ENDBRANCH   1  27
TORSDOF 15
ENDMDL
MODEL 2
REMARK VINA RESULT:     -11.4      0.914      6.334
REMARK SMILES [NH3+]C[C@H]1CC[C@@H](C(=O)N[C@H](C(=O)NCCCNC(=O)c2ccc(-c3c4nc(c(-c5c(F)cccc5F)c5ccc([nH]5)c(-c5c(F)cccc5F)c5nc(c(-c6c(F)cccc6F)c6ccc3[nH]6)C=C5)C=C4)cc2)C2CCCCC2)O1
REMARK SMILES IDX 14 1 13 2 11 3 12 4 10 6 9 7 7 8 8 9 6 11 3 12 4 13 80 14
REMARK SMILES IDX 5 15 2 16 1 17 74 21 75 22 79 23 76 24 78 25 77 26 15 27
REMARK SMILES IDX 16 28 17 29 18 30 19 32 20 33 21 34 73 35 22 36 72 37 23 38
REMARK SMILES IDX 24 39 25 40 66 41 26 42 71 43 65 44 67 45 27 46 70 47 64 48
REMARK SMILES IDX 63 49 28 51 54 52 37 53 53 54 38 55 41 56 52 57 68 58 39 59
REMARK SMILES IDX 40 60 51 62 69 63 42 64 29 65 30 66 35 67 31 68 32 69 34 70
REMARK SMILES IDX 36 71 33 72 55 73 56 74 61 75 57 76 58 77 60 78 62 79 59 80
REMARK SMILES IDX 43 81 44 82 49 83 45 84 46 85 48 86 50 87 47 88
REMARK H PARENT 13 5 9 10 1 18 1 19 1 20 17 31 67 50 41 61
REMARK Flexibility Score: inf
ROOT
ATOM      1  C   UNL A   1      37.406  21.194  24.294  1.00  0.00     0.117 C 
ENDROOT
BRANCH   1   2
ATOM      2  N   UNL A   1      37.622  22.491  24.910  1.00  0.00    -0.354 N 
ATOM      3  C   UNL A   1      36.729  23.438  25.336  1.00  0.00     0.242 C 
ATOM      4  O   UNL A   1      37.157  24.307  26.101  1.00  0.00    -0.273 OA
ATOM      5  H   UNL A   1      38.567  22.729  25.044  1.00  0.00     0.163 HD
BRANCH   3   6
ATOM      6  C   UNL A   1      35.217  23.307  25.047  1.00  0.00     0.174 C 
BRANCH   6   7
ATOM      7  N   UNL A   1      34.572  22.498  26.093  1.00  0.00    -0.342 N 
ATOM      8  C   UNL A   1      33.956  21.284  26.047  1.00  0.00     0.249 C 
ATOM      9  O   UNL A   1      33.404  20.920  27.094  1.00  0.00    -0.272 OA
ATOM     10  H   UNL A   1      34.587  22.909  26.988  1.00  0.00     0.164 HD
BRANCH   8  11
ATOM     11  C   UNL A   1      33.927  20.360  24.797  1.00  0.00     0.207 C 
ATOM     12  C   UNL A   1      33.490  18.133  24.149  1.00  0.00     0.174 C 
ATOM     13  C   UNL A   1      32.517  19.038  23.414  1.00  0.00     0.041 C 
ATOM     14  O   UNL A   1      34.393  19.019  24.857  1.00  0.00    -0.359 OA
ATOM     15  C   UNL A   1      32.491  20.270  24.280  1.00  0.00     0.045 C 
BRANCH  12  16
ATOM     16  C   UNL A   1      32.836  17.176  25.170  1.00  0.00     0.291 C 
BRANCH  16  17
ATOM     17  N   UNL A   1      32.534  17.702  26.500  1.00  0.00    -0.355 N 
ATOM     18  H   UNL A   1      32.683  18.711  26.509  1.00  0.00     0.344 HD
ATOM     19  H   UNL A   1      33.146  17.262  27.187  1.00  0.00     0.344 HD
ATOM     20  H   UNL A   1      31.561  17.500  26.733  1.00  0.00     0.344 HD
ENDBRANCH  16  17
ENDBRANCH  12  16
ENDBRANCH   8  11
ENDBRANCH   6   7
BRANCH   6  21
ATOM     21  C   UNL A   1      34.666  24.771  24.985  1.00  0.00     0.021 C 
ATOM     22  C   UNL A   1      34.009  25.110  23.631  1.00  0.00     0.006 C 
ATOM     23  C   UNL A   1      33.709  25.206  26.108  1.00  0.00     0.006 C 
ATOM     24  C   UNL A   1      33.822  26.621  23.510  1.00  0.00     0.000 C 
ATOM     25  C   UNL A   1      33.477  26.724  26.026  1.00  0.00     0.000 C 
ATOM     26  C   UNL A   1      32.983  27.179  24.653  1.00  0.00     0.000 C 
ENDBRANCH   6  21
ENDBRANCH   3   6
ENDBRANCH   1   2
BRANCH   1  27
ATOM     27  C   UNL A   1      38.011  20.018  25.038  1.00  0.00     0.042 C 
BRANCH  27  28
ATOM     28  C   UNL A   1      39.322  20.263  25.762  1.00  0.00     0.118 C 
BRANCH  28  29
ATOM     29  N   UNL A   1      40.231  19.133  25.817  1.00  0.00    -0.352 N 
ATOM     30  C   UNL A   1      41.567  19.150  26.130  1.00  0.00     0.251 C 
ATOM     31  H   UNL A   1      39.844  18.252  25.605  1.00  0.00     0.163 HD
ATOM     32  O   UNL A   1      42.232  18.120  26.107  1.00  0.00    -0.269 OA
BRANCH  30  33
ATOM     33  C   UNL A   1      42.203  20.444  26.437  1.00  0.00     0.039 A 
ATOM     34  C   UNL A   1      42.661  21.227  25.375  1.00  0.00     0.014 A 
ATOM     35  C   UNL A   1      42.279  20.908  27.753  1.00  0.00     0.014 A 
ATOM     36  C   UNL A   1      43.147  22.509  25.631  1.00  0.00     0.010 A 
ATOM     37  C   UNL A   1      42.697  22.212  27.997  1.00  0.00     0.010 A 
ATOM     38  C   UNL A   1      43.140  23.020  26.939  1.00  0.00    -0.014 A 
BRANCH  38  39
ATOM     39  C   UNL A   1      43.620  24.395  27.217  1.00  0.00     0.031 A 
ATOM     40  C   UNL A   1      42.646  25.452  27.653  1.00  0.00     0.074 A 
ATOM     41  C   UNL A   1      44.918  24.703  27.033  1.00  0.00     0.049 A 
ATOM     42  N   UNL A   1      42.859  26.719  27.903  1.00  0.00    -0.248 NA
ATOM     43  C   UNL A   1      41.242  25.038  27.802  1.00  0.00     0.031 C 
ATOM     44  C   UNL A   1      45.952  23.775  26.566  1.00  0.00     0.029 A 
ATOM     45  N   UNL A   1      45.589  25.887  27.209  1.00  0.00    -0.354 N 
ATOM     46  C   UNL A   1      41.618  27.252  28.226  1.00  0.00     0.074 A 
ATOM     47  C   UNL A   1      40.649  26.187  28.087  1.00  0.00     0.031 C 
ATOM     48  C   UNL A   1      47.129  24.421  26.515  1.00  0.00     0.029 A 
ATOM     49  C   UNL A   1      46.929  25.811  26.918  1.00  0.00     0.049 A 
ATOM     50  H   UNL A   1      45.151  26.713  27.518  1.00  0.00     0.167 HD
ATOM     51  C   UNL A   1      41.316  28.509  28.627  1.00  0.00     0.037 A 
ATOM     52  C   UNL A   1      47.886  26.755  26.969  1.00  0.00     0.037 A 
ATOM     53  C   UNL A   1      42.284  29.559  28.793  1.00  0.00     0.049 A 
ATOM     54  C   UNL A   1      47.526  28.143  27.426  1.00  0.00     0.074 A 
ATOM     55  C   UNL A   1      42.085  30.850  29.249  1.00  0.00     0.029 A 
ATOM     56  N   UNL A   1      43.637  29.436  28.513  1.00  0.00    -0.354 N 
ATOM     57  N   UNL A   1      46.359  28.615  27.792  1.00  0.00    -0.248 NA
ATOM     58  C   UNL A   1      48.618  29.125  27.485  1.00  0.00     0.031 C 
ATOM     59  C   UNL A   1      43.313  31.520  29.210  1.00  0.00     0.029 A 
ATOM     60  C   UNL A   1      44.283  30.632  28.771  1.00  0.00     0.049 A 
ATOM     61  H   UNL A   1      44.072  28.619  28.179  1.00  0.00     0.167 HD
ATOM     62  C   UNL A   1      46.582  29.937  28.155  1.00  0.00     0.074 A 
ATOM     63  C   UNL A   1      47.996  30.189  27.973  1.00  0.00     0.031 C 
ATOM     64  C   UNL A   1      45.694  30.861  28.599  1.00  0.00     0.037 A 
BRANCH  51  65
ATOM     65  C   UNL A   1      39.876  28.809  28.923  1.00  0.00     0.057 A 
ATOM     66  C   UNL A   1      39.341  28.662  30.209  1.00  0.00     0.134 A 
ATOM     67  C   UNL A   1      39.021  29.276  27.917  1.00  0.00     0.134 A 
ATOM     68  F   UNL A   1      40.104  28.205  31.213  1.00  0.00    -0.206 F 
ATOM     69  C   UNL A   1      38.001  28.943  30.479  1.00  0.00     0.040 A 
ATOM     70  C   UNL A   1      37.687  29.587  28.180  1.00  0.00     0.040 A 
ATOM     71  F   UNL A   1      39.471  29.445  26.663  1.00  0.00    -0.206 F 
ATOM     72  C   UNL A   1      37.172  29.414  29.463  1.00  0.00     0.006 A 
ENDBRANCH  51  65
BRANCH  52  73
ATOM     73  C   UNL A   1      49.286  26.419  26.609  1.00  0.00     0.057 A 
ATOM     74  C   UNL A   1      50.166  25.883  27.556  1.00  0.00     0.134 A 
ATOM     75  C   UNL A   1      49.781  26.636  25.318  1.00  0.00     0.134 A 
ATOM     76  F   UNL A   1      49.753  25.671  28.815  1.00  0.00    -0.206 F 
ATOM     77  C   UNL A   1      51.494  25.596  27.242  1.00  0.00     0.040 A 
ATOM     78  C   UNL A   1      51.102  26.330  24.982  1.00  0.00     0.040 A 
ATOM     79  F   UNL A   1      48.986  27.140  24.363  1.00  0.00    -0.206 F 
ATOM     80  C   UNL A   1      51.964  25.816  25.949  1.00  0.00     0.006 A 
ENDBRANCH  52  73
BRANCH  64  81
ATOM     81  C   UNL A   1      46.233  32.213  28.960  1.00  0.00     0.057 A 
ATOM     82  C   UNL A   1      46.273  33.263  28.036  1.00  0.00     0.134 A 
ATOM     83  C   UNL A   1      46.677  32.476  30.262  1.00  0.00     0.134 A 
ATOM     84  F   UNL A   1      45.873  33.071  26.769  1.00  0.00    -0.206 F 
ATOM     85  C   UNL A   1      46.756  34.524  28.389  1.00  0.00     0.040 A 
ATOM     86  C   UNL A   1      47.138  33.739  30.634  1.00  0.00     0.040 A 
ATOM     87  F   UNL A   1      46.656  31.513  31.198  1.00  0.00    -0.206 F 
ATOM     88  C   UNL A   1      47.184  34.766  29.694  1.00  0.00     0.006 A 
ENDBRANCH  64  81
ENDBRANCH  38  39
ENDBRANCH  30  33
ENDBRANCH  28  29
ENDBRANCH  27  28
ENDBRANCH   1  27
TORSDOF 15
ENDMDL
MODEL 3
REMARK VINA RESULT:     -11.3      0.785      6.243
REMARK SMILES [NH3+]C[C@H]1CC[C@@H](C(=O)N[C@H](C(=O)NCCCNC(=O)c2ccc(-c3c4nc(c(-c5c(F)cccc5F)c5ccc([nH]5)c(-c5c(F)cccc5F)c5nc(c(-c6c(F)cccc6F)c6ccc3[nH]6)C=C5)C=C4)cc2)C2CCCCC2)O1
REMARK SMILES IDX 14 1 13 2 11 3 12 4 10 6 9 7 7 8 8 9 6 11 3 12 4 13 80 14
REMARK SMILES IDX 5 15 2 16 1 17 74 21 75 22 79 23 76 24 78 25 77 26 15 27
REMARK SMILES IDX 16 28 17 29 18 30 19 32 20 33 21 34 73 35 22 36 72 37 23 38
REMARK SMILES IDX 24 39 25 40 66 41 26 42 71 43 65 44 67 45 27 46 70 47 64 48
REMARK SMILES IDX 63 49 28 51 54 52 37 53 53 54 38 55 41 56 52 57 68 58 39 59
REMARK SMILES IDX 40 60 51 62 69 63 42 64 29 65 30 66 35 67 31 68 32 69 34 70
REMARK SMILES IDX 36 71 33 72 55 73 56 74 61 75 57 76 58 77 60 78 62 79 59 80
REMARK SMILES IDX 43 81 44 82 49 83 45 84 46 85 48 86 50 87 47 88
REMARK H PARENT 13 5 9 10 1 18 1 19 1 20 17 31 67 50 41 61
REMARK Flexibility Score: inf
ROOT
ATOM      1  C   UNL A   1      37.348  21.333  24.241  1.00  0.00     0.117 C 
ENDROOT
BRANCH   1   2
ATOM      2  N   UNL A   1      37.547  22.623  24.875  1.00  0.00    -0.354 N 
ATOM      3  C   UNL A   1      36.642  23.546  25.328  1.00  0.00     0.242 C 
ATOM      4  O   UNL A   1      37.062  24.410  26.103  1.00  0.00    -0.273 OA
ATOM      5  H   UNL A   1      38.489  22.877  25.002  1.00  0.00     0.163 HD
BRANCH   3   6
ATOM      6  C   UNL A   1      35.129  23.389  25.056  1.00  0.00     0.174 C 
BRANCH   6   7
ATOM      7  N   UNL A   1      34.509  22.567  26.108  1.00  0.00    -0.342 N 
ATOM      8  C   UNL A   1      33.926  21.337  26.068  1.00  0.00     0.249 C 
ATOM      9  O   UNL A   1      33.388  20.963  27.119  1.00  0.00    -0.272 OA
ATOM     10  H   UNL A   1      34.517  22.982  27.001  1.00  0.00     0.164 HD
BRANCH   8  11
ATOM     11  C   UNL A   1      33.917  20.407  24.823  1.00  0.00     0.207 C 
ATOM     12  C   UNL A   1      33.343  18.220  24.145  1.00  0.00     0.174 C 
ATOM     13  C   UNL A   1      32.513  19.199  23.333  1.00  0.00     0.041 C 
ATOM     14  O   UNL A   1      34.260  19.033  24.922  1.00  0.00    -0.359 OA
ATOM     15  C   UNL A   1      32.525  20.436  24.192  1.00  0.00     0.045 C 
BRANCH  12  16
ATOM     16  C   UNL A   1      32.530  17.333  25.113  1.00  0.00     0.291 C 
BRANCH  16  17
ATOM     17  N   UNL A   1      33.265  16.580  26.128  1.00  0.00    -0.355 N 
ATOM     18  H   UNL A   1      32.896  15.631  26.181  1.00  0.00     0.344 HD
ATOM     19  H   UNL A   1      33.158  17.036  27.033  1.00  0.00     0.344 HD
ATOM     20  H   UNL A   1      34.253  16.547  25.878  1.00  0.00     0.344 HD
ENDBRANCH  16  17
ENDBRANCH  12  16
ENDBRANCH   8  11
ENDBRANCH   6   7
BRANCH   6  21
ATOM     21  C   UNL A   1      34.552  24.844  25.004  1.00  0.00     0.021 C 
ATOM     22  C   UNL A   1      33.890  25.181  23.652  1.00  0.00     0.006 C 
ATOM     23  C   UNL A   1      33.587  25.254  26.129  1.00  0.00     0.006 C 
ATOM     24  C   UNL A   1      33.678  26.689  23.541  1.00  0.00     0.000 C 
ATOM     25  C   UNL A   1      33.329  26.769  26.058  1.00  0.00     0.000 C 
ATOM     26  C   UNL A   1      32.828  27.224  24.687  1.00  0.00     0.000 C 
ENDBRANCH   6  21
ENDBRANCH   3   6
ENDBRANCH   1   2
BRANCH   1  27
ATOM     27  C   UNL A   1      37.851  20.140  25.034  1.00  0.00     0.042 C 
BRANCH  27  28
ATOM     28  C   UNL A   1      39.132  20.331  25.825  1.00  0.00     0.118 C 
BRANCH  28  29
ATOM     29  N   UNL A   1      40.045  19.203  25.825  1.00  0.00    -0.352 N 
ATOM     30  C   UNL A   1      41.389  19.216  26.104  1.00  0.00     0.251 C 
ATOM     31  H   UNL A   1      39.655  18.327  25.599  1.00  0.00     0.163 HD
ATOM     32  O   UNL A   1      42.057  18.190  26.034  1.00  0.00    -0.269 OA
BRANCH  30  33
ATOM     33  C   UNL A   1      42.029  20.504  26.429  1.00  0.00     0.039 A 
ATOM     34  C   UNL A   1      42.380  21.356  25.379  1.00  0.00     0.014 A 
ATOM     35  C   UNL A   1      42.213  20.893  27.758  1.00  0.00     0.014 A 
ATOM     36  C   UNL A   1      42.867  22.630  25.667  1.00  0.00     0.010 A 
ATOM     37  C   UNL A   1      42.630  22.190  28.042  1.00  0.00     0.010 A 
ATOM     38  C   UNL A   1      42.966  23.066  26.998  1.00  0.00    -0.014 A 
BRANCH  38  39
ATOM     39  C   UNL A   1      43.447  24.433  27.313  1.00  0.00     0.031 A 
ATOM     40  C   UNL A   1      42.472  25.481  27.769  1.00  0.00     0.074 A 
ATOM     41  C   UNL A   1      44.747  24.742  27.145  1.00  0.00     0.049 A 
ATOM     42  N   UNL A   1      42.685  26.741  28.052  1.00  0.00    -0.248 NA
ATOM     43  C   UNL A   1      41.066  25.065  27.898  1.00  0.00     0.031 C 
ATOM     44  C   UNL A   1      45.782  23.824  26.663  1.00  0.00     0.029 A 
ATOM     45  N   UNL A   1      45.419  25.920  27.356  1.00  0.00    -0.354 N 
ATOM     46  C   UNL A   1      41.444  27.268  28.380  1.00  0.00     0.074 A 
ATOM     47  C   UNL A   1      40.474  26.208  28.208  1.00  0.00     0.031 C 
ATOM     48  C   UNL A   1      46.960  24.468  26.636  1.00  0.00     0.029 A 
ATOM     49  C   UNL A   1      46.760  25.848  27.072  1.00  0.00     0.049 A 
ATOM     50  H   UNL A   1      44.980  26.739  27.682  1.00  0.00     0.167 HD
ATOM     51  C   UNL A   1      41.141  28.515  28.810  1.00  0.00     0.037 A 
ATOM     52  C   UNL A   1      47.719  26.789  27.152  1.00  0.00     0.037 A 
ATOM     53  C   UNL A   1      42.110  29.559  29.009  1.00  0.00     0.049 A 
ATOM     54  C   UNL A   1      47.358  28.166  27.641  1.00  0.00     0.074 A 
ATOM     55  C   UNL A   1      41.911  30.839  29.495  1.00  0.00     0.029 A 
ATOM     56  N   UNL A   1      43.465  29.439  28.734  1.00  0.00    -0.354 N 
ATOM     57  N   UNL A   1      46.190  28.631  28.011  1.00  0.00    -0.248 NA
ATOM     58  C   UNL A   1      48.452  29.143  27.732  1.00  0.00     0.031 C 
ATOM     59  C   UNL A   1      43.141  31.507  29.481  1.00  0.00     0.029 A 
ATOM     60  C   UNL A   1      44.112  30.628  29.026  1.00  0.00     0.049 A 
ATOM     61  H   UNL A   1      43.901  28.630  28.383  1.00  0.00     0.167 HD
ATOM     62  C   UNL A   1      46.413  29.943  28.409  1.00  0.00     0.074 A 
ATOM     63  C   UNL A   1      47.829  30.196  28.243  1.00  0.00     0.031 C 
ATOM     64  C   UNL A   1      45.524  30.857  28.870  1.00  0.00     0.037 A 
BRANCH  51  65
ATOM     65  C   UNL A   1      39.700  28.811  29.103  1.00  0.00     0.057 A 
ATOM     66  C   UNL A   1      38.822  29.257  28.107  1.00  0.00     0.134 A 
ATOM     67  C   UNL A   1      39.178  28.623  30.389  1.00  0.00     0.134 A 
ATOM     68  F   UNL A   1      39.264  29.470  26.859  1.00  0.00    -0.206 F 
ATOM     69  C   UNL A   1      37.482  29.531  28.384  1.00  0.00     0.040 A 
ATOM     70  C   UNL A   1      37.833  28.867  30.673  1.00  0.00     0.040 A 
ATOM     71  F   UNL A   1      39.964  28.194  31.389  1.00  0.00    -0.206 F 
ATOM     72  C   UNL A   1      36.983  29.329  29.670  1.00  0.00     0.006 A 
ENDBRANCH  51  65
BRANCH  52  73
ATOM     73  C   UNL A   1      49.120  26.459  26.794  1.00  0.00     0.057 A 
ATOM     74  C   UNL A   1      49.602  26.669  25.497  1.00  0.00     0.134 A 
ATOM     75  C   UNL A   1      50.006  25.914  27.730  1.00  0.00     0.134 A 
ATOM     76  F   UNL A   1      48.794  27.171  24.551  1.00  0.00    -0.206 F 
ATOM     77  C   UNL A   1      50.906  26.330  25.136  1.00  0.00     0.040 A 
ATOM     78  C   UNL A   1      51.322  25.592  27.391  1.00  0.00     0.040 A 
ATOM     79  F   UNL A   1      49.607  25.695  28.992  1.00  0.00    -0.206 F 
ATOM     80  C   UNL A   1      51.772  25.793  26.087  1.00  0.00     0.006 A 
ENDBRANCH  52  73
BRANCH  64  81
ATOM     81  C   UNL A   1      46.063  32.199  29.268  1.00  0.00     0.057 A 
ATOM     82  C   UNL A   1      46.528  32.454  30.564  1.00  0.00     0.134 A 
ATOM     83  C   UNL A   1      46.155  33.234  28.330  1.00  0.00     0.134 A 
ATOM     84  F   UNL A   1      46.455  31.506  31.511  1.00  0.00    -0.206 F 
ATOM     85  C   UNL A   1      47.047  33.700  30.917  1.00  0.00     0.040 A 
ATOM     86  C   UNL A   1      46.696  34.476  28.665  1.00  0.00     0.040 A 
ATOM     87  F   UNL A   1      45.734  33.051  27.068  1.00  0.00    -0.206 F 
ATOM     88  C   UNL A   1      47.139  34.713  29.964  1.00  0.00     0.006 A 
ENDBRANCH  64  81
ENDBRANCH  38  39
ENDBRANCH  30  33
ENDBRANCH  28  29
ENDBRANCH  27  28
ENDBRANCH   1  27
TORSDOF 15
ENDMDL
