MODEL 1
REMARK VINA RESULT:     -13.1      0.000      0.000
REMARK SMILES N#Cc1ccccc1C[C@@H](NC(=O)OCC1c2ccccc2-c2ccccc21)C(=O)NCCCNC(=O)c1ccc(-c2c3nc(c(-c4c(F)cccc4F)c4ccc([nH]4)c(-c4c(F)cccc4F)c4nc(c(-c5c(F)cccc5F)c5ccc2[nH]5)C=C4)C=C3)cc1
REMARK SMILES IDX 32 1 31 2 29 3 30 4 10 6 9 7 8 8 3 9 4 10 5 11 7 12 6 13
REMARK SMILES IDX 2 14 1 15 11 16 12 17 13 19 14 20 15 21 16 22 17 23 28 24
REMARK SMILES IDX 18 25 22 26 23 27 27 28 19 29 21 30 24 31 26 32 20 33 25 34
REMARK SMILES IDX 33 35 34 36 35 37 36 38 37 40 38 41 39 42 91 43 40 44 90 45
REMARK SMILES IDX 41 46 42 47 43 48 84 49 44 50 89 51 83 52 85 53 45 54 88 55
REMARK SMILES IDX 82 56 81 57 46 59 72 60 55 61 71 62 56 63 59 64 70 65 86 66
REMARK SMILES IDX 57 67 58 68 69 70 87 71 60 72 47 73 48 74 53 75 49 76 50 77
REMARK SMILES IDX 52 78 54 79 51 80 73 81 74 82 79 83 75 84 76 85 78 86 80 87
REMARK SMILES IDX 77 88 61 89 62 90 67 91 63 92 64 93 66 94 68 95 65 96
REMARK H PARENT 31 5 11 18 35 39 85 58 59 69
REMARK Flexibility Score: inf
ROOT
ATOM      1  C   UNL A   1      36.229  21.700  25.061  1.00  0.00     0.117 C 
ENDROOT
BRANCH   1   2
ATOM      2  N   UNL A   1      35.709  21.848  26.415  1.00  0.00    -0.354 N 
ATOM      3  C   UNL A   1      34.428  21.701  26.876  1.00  0.00     0.243 C 
ATOM      4  O   UNL A   1      34.230  21.776  28.090  1.00  0.00    -0.273 OA
ATOM      5  H   UNL A   1      36.376  22.088  27.098  1.00  0.00     0.163 HD
BRANCH   3   6
ATOM      6  C   UNL A   1      33.267  21.515  25.878  1.00  0.00     0.179 C 
BRANCH   6   7
ATOM      7  C   UNL A   1      33.061  19.982  25.676  1.00  0.00     0.072 C 
BRANCH   7   8
ATOM      8  C   UNL A   1      32.770  19.495  24.268  1.00  0.00    -0.028 A 
ATOM      9  C   UNL A   1      32.860  18.135  23.910  1.00  0.00     0.055 A 
ATOM     10  C   UNL A   1      32.594  17.738  22.592  1.00  0.00     0.020 A 
ATOM     11  C   UNL A   1      32.222  18.675  21.628  1.00  0.00     0.001 A 
ATOM     12  C   UNL A   1      32.300  20.406  23.302  1.00  0.00     0.005 A 
ATOM     13  C   UNL A   1      32.060  20.007  21.989  1.00  0.00     0.000 A 
BRANCH   9  14
ATOM     14  C   UNL A   1      33.148  17.110  24.877  1.00  0.00     0.099 C 
ATOM     15  N   UNL A   1      33.353  16.297  25.676  1.00  0.00    -0.192 NA
ENDBRANCH   9  14
ENDBRANCH   7   8
ENDBRANCH   6   7
BRANCH   6  16
ATOM     16  N   UNL A   1      32.046  22.259  26.206  1.00  0.00    -0.309 N 
ATOM     17  C   UNL A   1      31.917  23.596  26.424  1.00  0.00     0.407 C 
ATOM     18  H   UNL A   1      31.221  21.727  26.278  1.00  0.00     0.167 HD
ATOM     19  O   UNL A   1      31.230  24.015  27.343  1.00  0.00    -0.225 OA
BRANCH  17  20
ATOM     20  O   UNL A   1      32.587  24.347  25.515  1.00  0.00    -0.449 OA
BRANCH  20  21
ATOM     21  C   UNL A   1      33.735  25.076  25.993  1.00  0.00     0.248 C 
BRANCH  21  22
ATOM     22  C   UNL A   1      34.018  26.314  25.126  1.00  0.00     0.088 C 
ATOM     23  C   UNL A   1      33.373  26.185  23.750  1.00  0.00    -0.029 A 
ATOM     24  C   UNL A   1      33.286  27.529  25.688  1.00  0.00    -0.029 A 
ATOM     25  C   UNL A   1      33.708  25.315  22.723  1.00  0.00     0.005 A 
ATOM     26  C   UNL A   1      32.264  27.046  23.652  1.00  0.00    -0.014 A 
ATOM     27  C   UNL A   1      32.253  27.920  24.805  1.00  0.00    -0.014 A 
ATOM     28  C   UNL A   1      33.523  28.213  26.871  1.00  0.00     0.005 A 
ATOM     29  C   UNL A   1      32.820  25.185  21.658  1.00  0.00     0.000 A 
ATOM     30  C   UNL A   1      31.395  26.938  22.579  1.00  0.00     0.009 A 
ATOM     31  C   UNL A   1      31.464  29.021  25.092  1.00  0.00     0.009 A 
ATOM     32  C   UNL A   1      32.723  29.321  27.160  1.00  0.00     0.000 A 
ATOM     33  C   UNL A   1      31.662  25.976  21.598  1.00  0.00     0.001 A 
ATOM     34  C   UNL A   1      31.707  29.725  26.275  1.00  0.00     0.001 A 
ENDBRANCH  21  22
ENDBRANCH  20  21
ENDBRANCH  17  20
ENDBRANCH   6  16
ENDBRANCH   3   6
ENDBRANCH   1   2
BRANCH   1  35
ATOM     35  C   UNL A   1      37.212  20.560  24.954  1.00  0.00     0.042 C 
BRANCH  35  36
ATOM     36  C   UNL A   1      38.534  20.915  25.599  1.00  0.00     0.118 C 
BRANCH  36  37
ATOM     37  N   UNL A   1      39.449  19.777  25.655  1.00  0.00    -0.352 N 
ATOM     38  C   UNL A   1      40.779  19.749  25.989  1.00  0.00     0.251 C 
ATOM     39  H   UNL A   1      39.054  18.907  25.420  1.00  0.00     0.163 HD
ATOM     40  O   UNL A   1      41.451  18.742  25.794  1.00  0.00    -0.269 OA
BRANCH  38  41
ATOM     41  C   UNL A   1      41.391  20.959  26.561  1.00  0.00     0.039 A 
ATOM     42  C   UNL A   1      41.948  21.909  25.706  1.00  0.00     0.014 A 
ATOM     43  C   UNL A   1      41.351  21.177  27.940  1.00  0.00     0.014 A 
ATOM     44  C   UNL A   1      42.403  23.114  26.236  1.00  0.00     0.010 A 
ATOM     45  C   UNL A   1      41.679  22.424  28.444  1.00  0.00     0.010 A 
ATOM     46  C   UNL A   1      42.228  23.399  27.601  1.00  0.00    -0.014 A 
BRANCH  46  47
ATOM     47  C   UNL A   1      42.630  24.705  28.172  1.00  0.00     0.031 A 
ATOM     48  C   UNL A   1      41.594  25.771  28.398  1.00  0.00     0.074 A 
ATOM     49  C   UNL A   1      43.930  24.947  28.430  1.00  0.00     0.049 A 
ATOM     50  N   UNL A   1      41.751  26.992  28.841  1.00  0.00    -0.248 NA
ATOM     51  C   UNL A   1      40.202  25.437  28.051  1.00  0.00     0.031 C 
ATOM     52  C   UNL A   1      45.031  24.010  28.194  1.00  0.00     0.029 A 
ATOM     53  N   UNL A   1      44.546  26.060  28.941  1.00  0.00    -0.354 N 
ATOM     54  C   UNL A   1      40.488  27.569  28.810  1.00  0.00     0.074 A 
ATOM     55  C   UNL A   1      39.587  26.592  28.244  1.00  0.00     0.031 C 
ATOM     56  C   UNL A   1      46.182  24.574  28.592  1.00  0.00     0.029 A 
ATOM     57  C   UNL A   1      45.908  25.928  29.061  1.00  0.00     0.049 A 
ATOM     58  H   UNL A   1      44.059  26.875  29.199  1.00  0.00     0.167 HD
ATOM     59  C   UNL A   1      40.110  28.795  29.240  1.00  0.00     0.037 A 
ATOM     60  C   UNL A   1      46.835  26.807  29.487  1.00  0.00     0.037 A 
ATOM     61  C   UNL A   1      41.011  29.753  29.822  1.00  0.00     0.049 A 
ATOM     62  C   UNL A   1      46.387  28.168  29.948  1.00  0.00     0.074 A 
ATOM     63  C   UNL A   1      40.717  30.995  30.354  1.00  0.00     0.029 A 
ATOM     64  N   UNL A   1      42.382  29.580  29.937  1.00  0.00    -0.354 N 
ATOM     65  N   UNL A   1      45.176  28.670  29.996  1.00  0.00    -0.248 NA
ATOM     66  C   UNL A   1      47.434  29.083  30.421  1.00  0.00     0.031 C 
ATOM     67  C   UNL A   1      41.919  31.604  30.723  1.00  0.00     0.029 A 
ATOM     68  C   UNL A   1      42.953  30.710  30.497  1.00  0.00     0.049 A 
ATOM     69  H   UNL A   1      42.876  28.773  29.662  1.00  0.00     0.167 HD
ATOM     70  C   UNL A   1      45.312  29.943  30.532  1.00  0.00     0.074 A 
ATOM     71  C   UNL A   1      46.721  30.129  30.811  1.00  0.00     0.031 C 
ATOM     72  C   UNL A   1      44.358  30.876  30.773  1.00  0.00     0.037 A 
BRANCH  59  73
ATOM     73  C   UNL A   1      38.664  29.172  29.092  1.00  0.00     0.057 A 
ATOM     74  C   UNL A   1      37.770  29.144  30.172  1.00  0.00     0.134 A 
ATOM     75  C   UNL A   1      38.168  29.610  27.858  1.00  0.00     0.134 A 
ATOM     76  F   UNL A   1      38.174  28.721  31.380  1.00  0.00    -0.206 F 
ATOM     77  C   UNL A   1      36.433  29.515  30.024  1.00  0.00     0.040 A 
ATOM     78  C   UNL A   1      36.841  30.016  27.706  1.00  0.00     0.040 A 
ATOM     79  F   UNL A   1      38.967  29.664  26.781  1.00  0.00    -0.206 F 
ATOM     80  C   UNL A   1      35.968  29.963  28.790  1.00  0.00     0.006 A 
ENDBRANCH  59  73
BRANCH  60  81
ATOM     81  C   UNL A   1      48.272  26.433  29.503  1.00  0.00     0.057 A 
ATOM     82  C   UNL A   1      48.848  25.793  30.607  1.00  0.00     0.134 A 
ATOM     83  C   UNL A   1      49.113  26.726  28.421  1.00  0.00     0.134 A 
ATOM     84  F   UNL A   1      48.101  25.497  31.681  1.00  0.00    -0.206 F 
ATOM     85  C   UNL A   1      50.210  25.489  30.650  1.00  0.00     0.040 A 
ATOM     86  C   UNL A   1      50.469  26.398  28.437  1.00  0.00     0.040 A 
ATOM     87  F   UNL A   1      48.625  27.326  27.326  1.00  0.00    -0.206 F 
ATOM     88  C   UNL A   1      51.024  25.789  29.560  1.00  0.00     0.006 A 
ENDBRANCH  60  81
BRANCH  72  89
ATOM     89  C   UNL A   1      44.798  32.164  31.409  1.00  0.00     0.057 A 
ATOM     90  C   UNL A   1      44.868  32.324  32.798  1.00  0.00     0.134 A 
ATOM     91  C   UNL A   1      45.197  33.247  30.613  1.00  0.00     0.134 A 
ATOM     92  F   UNL A   1      44.491  31.331  33.619  1.00  0.00    -0.206 F 
ATOM     93  C   UNL A   1      45.286  33.526  33.374  1.00  0.00     0.040 A 
ATOM     94  C   UNL A   1      45.652  34.439  31.176  1.00  0.00     0.040 A 
ATOM     95  F   UNL A   1      45.168  33.157  29.275  1.00  0.00    -0.206 F 
ATOM     96  C   UNL A   1      45.688  34.585  32.561  1.00  0.00     0.006 A 
ENDBRANCH  72  89
ENDBRANCH  46  47
ENDBRANCH  38  41
ENDBRANCH  36  37
ENDBRANCH  35  36
ENDBRANCH   1  35
TORSDOF 17
ENDMDL
MODEL 2
REMARK VINA RESULT:     -13.0      3.603      8.794
REMARK SMILES N#Cc1ccccc1C[C@@H](NC(=O)OCC1c2ccccc2-c2ccccc21)C(=O)NCCCNC(=O)c1ccc(-c2c3nc(c(-c4c(F)cccc4F)c4ccc([nH]4)c(-c4c(F)cccc4F)c4nc(c(-c5c(F)cccc5F)c5ccc2[nH]5)C=C4)C=C3)cc1
REMARK SMILES IDX 32 1 31 2 29 3 30 4 10 6 9 7 8 8 3 9 4 10 5 11 7 12 6 13
REMARK SMILES IDX 2 14 1 15 11 16 12 17 13 19 14 20 15 21 16 22 17 23 28 24
REMARK SMILES IDX 18 25 22 26 23 27 27 28 19 29 21 30 24 31 26 32 20 33 25 34
REMARK SMILES IDX 33 35 34 36 35 37 36 38 37 40 38 41 39 42 91 43 40 44 90 45
REMARK SMILES IDX 41 46 42 47 43 48 84 49 44 50 89 51 83 52 85 53 45 54 88 55
REMARK SMILES IDX 82 56 81 57 46 59 72 60 55 61 71 62 56 63 59 64 70 65 86 66
REMARK SMILES IDX 57 67 58 68 69 70 87 71 60 72 47 73 48 74 53 75 49 76 50 77
REMARK SMILES IDX 52 78 54 79 51 80 73 81 74 82 79 83 75 84 76 85 78 86 80 87
REMARK SMILES IDX 77 88 61 89 62 90 67 91 63 92 64 93 66 94 68 95 65 96
REMARK H PARENT 31 5 11 18 35 39 85 58 59 69
REMARK Flexibility Score: inf
ROOT
ATOM      1  C   UNL A   1      32.187  29.610  25.737  1.00  0.00     0.117 C 
ENDROOT
BRANCH   1   2
ATOM      2  N   UNL A   1      33.143  29.641  24.637  1.00  0.00    -0.354 N 
ATOM      3  C   UNL A   1      33.052  29.083  23.389  1.00  0.00     0.243 C 
ATOM      4  O   UNL A   1      33.946  29.322  22.575  1.00  0.00    -0.273 OA
ATOM      5  H   UNL A   1      33.975  30.135  24.817  1.00  0.00     0.163 HD
BRANCH   3   6
ATOM      6  C   UNL A   1      31.887  28.129  23.055  1.00  0.00     0.179 C 
BRANCH   6   7
ATOM      7  C   UNL A   1      30.727  28.990  22.470  1.00  0.00     0.072 C 
BRANCH   7   8
ATOM      8  C   UNL A   1      29.311  28.621  22.872  1.00  0.00    -0.028 A 
ATOM      9  C   UNL A   1      28.206  29.446  22.578  1.00  0.00     0.055 A 
ATOM     10  C   UNL A   1      26.919  29.065  22.984  1.00  0.00     0.020 A 
ATOM     11  C   UNL A   1      26.713  27.865  23.663  1.00  0.00     0.001 A 
ATOM     12  C   UNL A   1      29.064  27.371  23.473  1.00  0.00     0.005 A 
ATOM     13  C   UNL A   1      27.785  27.011  23.893  1.00  0.00     0.000 A 
BRANCH   9  14
ATOM     14  C   UNL A   1      28.340  30.649  21.801  1.00  0.00     0.099 C 
ATOM     15  N   UNL A   1      28.427  31.603  21.151  1.00  0.00    -0.192 NA
ENDBRANCH   9  14
ENDBRANCH   7   8
ENDBRANCH   6   7
BRANCH   6  16
ATOM     16  N   UNL A   1      32.258  26.965  22.241  1.00  0.00    -0.309 N 
ATOM     17  C   UNL A   1      33.164  25.995  22.538  1.00  0.00     0.407 C 
ATOM     18  H   UNL A   1      31.796  26.877  21.376  1.00  0.00     0.167 HD
ATOM     19  O   UNL A   1      33.942  25.587  21.688  1.00  0.00    -0.225 OA
BRANCH  17  20
ATOM     20  O   UNL A   1      33.063  25.549  23.814  1.00  0.00    -0.449 OA
BRANCH  20  21
ATOM     21  C   UNL A   1      34.150  25.874  24.704  1.00  0.00     0.248 C 
BRANCH  21  22
ATOM     22  C   UNL A   1      34.284  24.836  25.831  1.00  0.00     0.088 C 
ATOM     23  C   UNL A   1      32.976  24.084  26.050  1.00  0.00    -0.029 A 
ATOM     24  C   UNL A   1      35.212  23.705  25.398  1.00  0.00    -0.029 A 
ATOM     25  C   UNL A   1      31.780  24.570  26.558  1.00  0.00     0.005 A 
ATOM     26  C   UNL A   1      33.087  22.766  25.567  1.00  0.00    -0.014 A 
ATOM     27  C   UNL A   1      34.473  22.511  25.237  1.00  0.00    -0.014 A 
ATOM     28  C   UNL A   1      36.579  23.744  25.172  1.00  0.00     0.005 A 
ATOM     29  C   UNL A   1      30.641  23.781  26.422  1.00  0.00     0.000 A 
ATOM     30  C   UNL A   1      31.960  21.971  25.458  1.00  0.00     0.009 A 
ATOM     31  C   UNL A   1      35.108  21.336  24.871  1.00  0.00     0.009 A 
ATOM     32  C   UNL A   1      37.217  22.559  24.800  1.00  0.00     0.000 A 
ATOM     33  C   UNL A   1      30.727  22.500  25.857  1.00  0.00     0.001 A 
ATOM     34  C   UNL A   1      36.489  21.364  24.657  1.00  0.00     0.001 A 
ENDBRANCH  21  22
ENDBRANCH  20  21
ENDBRANCH  17  20
ENDBRANCH   6  16
ENDBRANCH   3   6
ENDBRANCH   1   2
BRANCH   1  35
ATOM     35  C   UNL A   1      31.736  30.994  26.133  1.00  0.00     0.042 C 
BRANCH  35  36
ATOM     36  C   UNL A   1      32.656  31.592  27.176  1.00  0.00     0.118 C 
BRANCH  36  37
ATOM     37  N   UNL A   1      32.376  33.004  27.422  1.00  0.00    -0.352 N 
ATOM     38  C   UNL A   1      33.063  33.904  28.196  1.00  0.00     0.251 C 
ATOM     39  H   UNL A   1      31.580  33.361  26.966  1.00  0.00     0.163 HD
ATOM     40  O   UNL A   1      32.583  35.001  28.454  1.00  0.00    -0.269 OA
BRANCH  38  41
ATOM     41  C   UNL A   1      34.378  33.515  28.734  1.00  0.00     0.039 A 
ATOM     42  C   UNL A   1      34.445  32.877  29.972  1.00  0.00     0.014 A 
ATOM     43  C   UNL A   1      35.532  33.727  27.976  1.00  0.00     0.014 A 
ATOM     44  C   UNL A   1      35.671  32.388  30.416  1.00  0.00     0.010 A 
ATOM     45  C   UNL A   1      36.719  33.124  28.358  1.00  0.00     0.010 A 
ATOM     46  C   UNL A   1      36.806  32.466  29.592  1.00  0.00    -0.014 A 
BRANCH  46  47
ATOM     47  C   UNL A   1      38.101  31.882  30.009  1.00  0.00     0.031 A 
ATOM     48  C   UNL A   1      39.003  32.652  30.935  1.00  0.00     0.074 A 
ATOM     49  C   UNL A   1      38.487  30.692  29.510  1.00  0.00     0.049 A 
ATOM     50  N   UNL A   1      40.193  32.336  31.376  1.00  0.00    -0.248 NA
ATOM     51  C   UNL A   1      38.521  33.963  31.401  1.00  0.00     0.031 C 
ATOM     52  C   UNL A   1      37.722  29.882  28.558  1.00  0.00     0.029 A 
ATOM     53  N   UNL A   1      39.625  29.958  29.730  1.00  0.00    -0.354 N 
ATOM     54  C   UNL A   1      40.603  33.412  32.154  1.00  0.00     0.074 A 
ATOM     55  C   UNL A   1      39.568  34.416  32.072  1.00  0.00     0.031 C 
ATOM     56  C   UNL A   1      38.396  28.750  28.303  1.00  0.00     0.029 A 
ATOM     57  C   UNL A   1      39.660  28.776  29.031  1.00  0.00     0.049 A 
ATOM     58  H   UNL A   1      40.346  30.250  30.332  1.00  0.00     0.167 HD
ATOM     59  C   UNL A   1      41.730  33.538  32.892  1.00  0.00     0.037 A 
ATOM     60  C   UNL A   1      40.613  27.827  28.972  1.00  0.00     0.037 A 
ATOM     61  C   UNL A   1      42.745  32.523  32.985  1.00  0.00     0.049 A 
ATOM     62  C   UNL A   1      41.863  28.000  29.793  1.00  0.00     0.074 A 
ATOM     63  C   UNL A   1      43.891  32.523  33.758  1.00  0.00     0.029 A 
ATOM     64  N   UNL A   1      42.741  31.335  32.270  1.00  0.00    -0.354 N 
ATOM     65  N   UNL A   1      42.198  28.983  30.594  1.00  0.00    -0.248 NA
ATOM     66  C   UNL A   1      42.863  26.928  29.708  1.00  0.00     0.031 C 
ATOM     67  C   UNL A   1      44.617  31.368  33.457  1.00  0.00     0.029 A 
ATOM     68  C   UNL A   1      43.885  30.610  32.557  1.00  0.00     0.049 A 
ATOM     69  H   UNL A   1      42.030  31.048  31.651  1.00  0.00     0.167 HD
ATOM     70  C   UNL A   1      43.430  28.633  31.130  1.00  0.00     0.074 A 
ATOM     71  C   UNL A   1      43.772  27.339  30.579  1.00  0.00     0.031 C 
ATOM     72  C   UNL A   1      44.208  29.320  32.003  1.00  0.00     0.037 A 
BRANCH  59  73
ATOM     73  C   UNL A   1      41.928  34.819  33.651  1.00  0.00     0.057 A 
ATOM     74  C   UNL A   1      41.379  35.024  34.925  1.00  0.00     0.134 A 
ATOM     75  C   UNL A   1      42.716  35.846  33.116  1.00  0.00     0.134 A 
ATOM     76  F   UNL A   1      40.602  34.088  35.491  1.00  0.00    -0.206 F 
ATOM     77  C   UNL A   1      41.587  36.213  35.627  1.00  0.00     0.040 A 
ATOM     78  C   UNL A   1      42.959  37.025  33.824  1.00  0.00     0.040 A 
ATOM     79  F   UNL A   1      43.273  35.717  31.903  1.00  0.00    -0.206 F 
ATOM     80  C   UNL A   1      42.388  37.212  35.080  1.00  0.00     0.006 A 
ENDBRANCH  59  73
BRANCH  60  81
ATOM     81  C   UNL A   1      40.428  26.631  28.111  1.00  0.00     0.057 A 
ATOM     82  C   UNL A   1      41.088  26.506  26.883  1.00  0.00     0.134 A 
ATOM     83  C   UNL A   1      39.566  25.590  28.484  1.00  0.00     0.134 A 
ATOM     84  F   UNL A   1      41.915  27.473  26.460  1.00  0.00    -0.206 F 
ATOM     85  C   UNL A   1      40.875  25.411  26.044  1.00  0.00     0.040 A 
ATOM     86  C   UNL A   1      39.369  24.474  27.671  1.00  0.00     0.040 A 
ATOM     87  F   UNL A   1      38.912  25.640  29.654  1.00  0.00    -0.206 F 
ATOM     88  C   UNL A   1      40.015  24.389  26.440  1.00  0.00     0.006 A 
ENDBRANCH  60  81
BRANCH  72  89
ATOM     89  C   UNL A   1      45.486  28.667  32.449  1.00  0.00     0.057 A 
ATOM     90  C   UNL A   1      46.696  28.851  31.769  1.00  0.00     0.134 A 
ATOM     91  C   UNL A   1      45.509  27.872  33.604  1.00  0.00     0.134 A 
ATOM     92  F   UNL A   1      46.743  29.592  30.650  1.00  0.00    -0.206 F 
ATOM     93  C   UNL A   1      47.876  28.243  32.201  1.00  0.00     0.040 A 
ATOM     94  C   UNL A   1      46.688  27.289  34.066  1.00  0.00     0.040 A 
ATOM     95  F   UNL A   1      44.388  27.665  34.311  1.00  0.00    -0.206 F 
ATOM     96  C   UNL A   1      47.875  27.465  33.359  1.00  0.00     0.006 A 
ENDBRANCH  72  89
ENDBRANCH  46  47
ENDBRANCH  38  41
ENDBRANCH  36  37
ENDBRANCH  35  36
ENDBRANCH   1  35
TORSDOF 17
ENDMDL
MODEL 3
REMARK VINA RESULT:     -13.0      0.590      5.923
REMARK SMILES N#Cc1ccccc1C[C@@H](NC(=O)OCC1c2ccccc2-c2ccccc21)C(=O)NCCCNC(=O)c1ccc(-c2c3nc(c(-c4c(F)cccc4F)c4ccc([nH]4)c(-c4c(F)cccc4F)c4nc(c(-c5c(F)cccc5F)c5ccc2[nH]5)C=C4)C=C3)cc1
REMARK SMILES IDX 32 1 31 2 29 3 30 4 10 6 9 7 8 8 3 9 4 10 5 11 7 12 6 13
REMARK SMILES IDX 2 14 1 15 11 16 12 17 13 19 14 20 15 21 16 22 17 23 28 24
REMARK SMILES IDX 18 25 22 26 23 27 27 28 19 29 21 30 24 31 26 32 20 33 25 34
REMARK SMILES IDX 33 35 34 36 35 37 36 38 37 40 38 41 39 42 91 43 40 44 90 45
REMARK SMILES IDX 41 46 42 47 43 48 84 49 44 50 89 51 83 52 85 53 45 54 88 55
REMARK SMILES IDX 82 56 81 57 46 59 72 60 55 61 71 62 56 63 59 64 70 65 86 66
REMARK SMILES IDX 57 67 58 68 69 70 87 71 60 72 47 73 48 74 53 75 49 76 50 77
REMARK SMILES IDX 52 78 54 79 51 80 73 81 74 82 79 83 75 84 76 85 78 86 80 87
REMARK SMILES IDX 77 88 61 89 62 90 67 91 63 92 64 93 66 94 68 95 65 96
REMARK H PARENT 31 5 11 18 35 39 85 58 59 69
REMARK Flexibility Score: inf
ROOT
ATOM      1  C   UNL A   1      36.225  21.378  25.047  1.00  0.00     0.117 C 
ENDROOT
BRANCH   1   2
ATOM      2  N   UNL A   1      35.675  21.595  26.379  1.00  0.00    -0.354 N 
ATOM      3  C   UNL A   1      34.380  21.496  26.813  1.00  0.00     0.243 C 
ATOM      4  O   UNL A   1      34.154  21.628  28.018  1.00  0.00    -0.273 OA
ATOM      5  H   UNL A   1      36.331  21.851  27.068  1.00  0.00     0.163 HD
BRANCH   3   6
ATOM      6  C   UNL A   1      33.240  21.292  25.794  1.00  0.00     0.179 C 
BRANCH   6   7
ATOM      7  C   UNL A   1      33.180  19.772  25.453  1.00  0.00     0.072 C 
BRANCH   7   8
ATOM      8  C   UNL A   1      32.814  19.388  24.031  1.00  0.00    -0.028 A 
ATOM      9  C   UNL A   1      32.875  18.056  23.572  1.00  0.00     0.055 A 
ATOM     10  C   UNL A   1      32.539  17.757  22.245  1.00  0.00     0.020 A 
ATOM     11  C   UNL A   1      32.124  18.761  21.371  1.00  0.00     0.001 A 
ATOM     12  C   UNL A   1      32.302  20.367  23.159  1.00  0.00     0.005 A 
ATOM     13  C   UNL A   1      31.991  20.064  21.834  1.00  0.00     0.000 A 
BRANCH   9  14
ATOM     14  C   UNL A   1      33.206  16.964  24.448  1.00  0.00     0.099 C 
ATOM     15  N   UNL A   1      33.505  16.085  25.139  1.00  0.00    -0.192 NA
ENDBRANCH   9  14
ENDBRANCH   7   8
ENDBRANCH   6   7
BRANCH   6  16
ATOM     16  N   UNL A   1      31.954  21.884  26.181  1.00  0.00    -0.309 N 
ATOM     17  C   UNL A   1      31.712  23.159  26.588  1.00  0.00     0.407 C 
ATOM     18  H   UNL A   1      31.173  21.286  26.142  1.00  0.00     0.167 HD
ATOM     19  O   UNL A   1      30.968  23.382  27.531  1.00  0.00    -0.225 OA
BRANCH  17  20
ATOM     20  O   UNL A   1      32.343  24.086  25.827  1.00  0.00    -0.449 OA
BRANCH  20  21
ATOM     21  C   UNL A   1      33.440  24.793  26.439  1.00  0.00     0.248 C 
BRANCH  21  22
ATOM     22  C   UNL A   1      34.255  25.579  25.399  1.00  0.00     0.088 C 
ATOM     23  C   UNL A   1      33.938  25.116  23.981  1.00  0.00    -0.029 A 
ATOM     24  C   UNL A   1      33.788  27.031  25.352  1.00  0.00    -0.029 A 
ATOM     25  C   UNL A   1      34.240  23.899  23.388  1.00  0.00     0.005 A 
ATOM     26  C   UNL A   1      33.172  26.089  23.312  1.00  0.00    -0.014 A 
ATOM     27  C   UNL A   1      33.143  27.290  24.120  1.00  0.00    -0.014 A 
ATOM     28  C   UNL A   1      33.929  28.019  26.314  1.00  0.00     0.005 A 
ATOM     29  C   UNL A   1      33.624  23.588  22.178  1.00  0.00     0.000 A 
ATOM     30  C   UNL A   1      32.582  25.792  22.096  1.00  0.00     0.009 A 
ATOM     31  C   UNL A   1      32.654  28.554  23.835  1.00  0.00     0.009 A 
ATOM     32  C   UNL A   1      33.432  29.292  26.027  1.00  0.00     0.000 A 
ATOM     33  C   UNL A   1      32.785  24.520  21.548  1.00  0.00     0.001 A 
ATOM     34  C   UNL A   1      32.806  29.558  24.796  1.00  0.00     0.001 A 
ENDBRANCH  21  22
ENDBRANCH  20  21
ENDBRANCH  17  20
ENDBRANCH   6  16
ENDBRANCH   3   6
ENDBRANCH   1   2
BRANCH   1  35
ATOM     35  C   UNL A   1      37.237  20.259  25.028  1.00  0.00     0.042 C 
BRANCH  35  36
ATOM     36  C   UNL A   1      38.581  20.729  25.543  1.00  0.00     0.118 C 
BRANCH  36  37
ATOM     37  N   UNL A   1      39.553  19.643  25.634  1.00  0.00    -0.352 N 
ATOM     38  C   UNL A   1      40.877  19.690  25.989  1.00  0.00     0.251 C 
ATOM     39  H   UNL A   1      39.208  18.749  25.409  1.00  0.00     0.163 HD
ATOM     40  O   UNL A   1      41.604  18.717  25.823  1.00  0.00    -0.269 OA
BRANCH  38  41
ATOM     41  C   UNL A   1      41.416  20.941  26.548  1.00  0.00     0.039 A 
ATOM     42  C   UNL A   1      41.986  21.880  25.690  1.00  0.00     0.014 A 
ATOM     43  C   UNL A   1      41.292  21.205  27.915  1.00  0.00     0.014 A 
ATOM     44  C   UNL A   1      42.370  23.118  26.199  1.00  0.00     0.010 A 
ATOM     45  C   UNL A   1      41.550  22.480  28.389  1.00  0.00     0.010 A 
ATOM     46  C   UNL A   1      42.110  23.444  27.542  1.00  0.00    -0.014 A 
BRANCH  46  47
ATOM     47  C   UNL A   1      42.436  24.782  28.085  1.00  0.00     0.031 A 
ATOM     48  C   UNL A   1      43.842  25.087  28.525  1.00  0.00     0.074 A 
ATOM     49  C   UNL A   1      41.459  25.696  28.235  1.00  0.00     0.049 A 
ATOM     50  N   UNL A   1      44.317  26.177  29.071  1.00  0.00    -0.248 NA
ATOM     51  C   UNL A   1      44.841  24.016  28.363  1.00  0.00     0.031 C 
ATOM     52  C   UNL A   1      40.047  25.493  27.899  1.00  0.00     0.029 A 
ATOM     53  N   UNL A   1      41.503  26.980  28.716  1.00  0.00    -0.354 N 
ATOM     54  C   UNL A   1      45.657  25.916  29.327  1.00  0.00     0.074 A 
ATOM     55  C   UNL A   1      45.906  24.546  28.943  1.00  0.00     0.031 C 
ATOM     56  C   UNL A   1      39.368  26.622  28.152  1.00  0.00     0.029 A 
ATOM     57  C   UNL A   1      40.281  27.610  28.715  1.00  0.00     0.049 A 
ATOM     58  H   UNL A   1      42.330  27.409  29.031  1.00  0.00     0.167 HD
ATOM     59  C   UNL A   1      46.600  26.754  29.816  1.00  0.00     0.037 A 
ATOM     60  C   UNL A   1      39.936  28.842  29.135  1.00  0.00     0.037 A 
ATOM     61  C   UNL A   1      46.347  28.123  30.176  1.00  0.00     0.049 A 
ATOM     62  C   UNL A   1      41.004  29.747  29.687  1.00  0.00     0.074 A 
ATOM     63  C   UNL A   1      47.248  29.076  30.615  1.00  0.00     0.029 A 
ATOM     64  N   UNL A   1      45.100  28.729  30.152  1.00  0.00    -0.354 N 
ATOM     65  N   UNL A   1      42.286  29.518  29.842  1.00  0.00    -0.248 NA
ATOM     66  C   UNL A   1      40.579  31.086  30.114  1.00  0.00     0.031 C 
ATOM     67  C   UNL A   1      46.535  30.237  30.925  1.00  0.00     0.029 A 
ATOM     68  C   UNL A   1      45.203  30.033  30.603  1.00  0.00     0.049 A 
ATOM     69  H   UNL A   1      44.266  28.296  29.855  1.00  0.00     0.167 HD
ATOM     70  C   UNL A   1      42.824  30.690  30.354  1.00  0.00     0.074 A 
ATOM     71  C   UNL A   1      41.733  31.636  30.464  1.00  0.00     0.031 C 
ATOM     72  C   UNL A   1      44.106  30.963  30.702  1.00  0.00     0.037 A 
BRANCH  59  73
ATOM     73  C   UNL A   1      47.989  26.212  29.995  1.00  0.00     0.057 A 
ATOM     74  C   UNL A   1      48.928  26.203  28.953  1.00  0.00     0.134 A 
ATOM     75  C   UNL A   1      48.408  25.731  31.243  1.00  0.00     0.134 A 
ATOM     76  F   UNL A   1      48.590  26.635  27.729  1.00  0.00    -0.206 F 
ATOM     77  C   UNL A   1      50.222  25.714  29.140  1.00  0.00     0.040 A 
ATOM     78  C   UNL A   1      49.710  25.271  31.450  1.00  0.00     0.040 A 
ATOM     79  F   UNL A   1      47.563  25.712  32.285  1.00  0.00    -0.206 F 
ATOM     80  C   UNL A   1      50.618  25.256  30.394  1.00  0.00     0.006 A 
ENDBRANCH  59  73
BRANCH  60  81
ATOM     81  C   UNL A   1      38.523  29.293  29.051  1.00  0.00     0.057 A 
ATOM     82  C   UNL A   1      37.676  29.249  30.164  1.00  0.00     0.134 A 
ATOM     83  C   UNL A   1      37.978  29.761  27.847  1.00  0.00     0.134 A 
ATOM     84  F   UNL A   1      38.132  28.799  31.342  1.00  0.00    -0.206 F 
ATOM     85  C   UNL A   1      36.333  29.620  30.078  1.00  0.00     0.040 A 
ATOM     86  C   UNL A   1      36.647  30.165  27.755  1.00  0.00     0.040 A 
ATOM     87  F   UNL A   1      38.738  29.841  26.745  1.00  0.00    -0.206 F 
ATOM     88  C   UNL A   1      35.816  30.083  28.870  1.00  0.00     0.006 A 
ENDBRANCH  60  81
BRANCH  72  89
ATOM     89  C   UNL A   1      44.407  32.351  31.191  1.00  0.00     0.057 A 
ATOM     90  C   UNL A   1      44.734  33.396  30.318  1.00  0.00     0.134 A 
ATOM     91  C   UNL A   1      44.328  32.653  32.559  1.00  0.00     0.134 A 
ATOM     92  F   UNL A   1      44.837  33.174  28.999  1.00  0.00    -0.206 F 
ATOM     93  C   UNL A   1      45.004  34.682  30.789  1.00  0.00     0.040 A 
ATOM     94  C   UNL A   1      44.559  33.942  33.036  1.00  0.00     0.040 A 
ATOM     95  F   UNL A   1      44.007  31.703  33.449  1.00  0.00    -0.206 F 
ATOM     96  C   UNL A   1      44.908  34.960  32.152  1.00  0.00     0.006 A 
ENDBRANCH  72  89
ENDBRANCH  46  47
ENDBRANCH  38  41
ENDBRANCH  36  37
ENDBRANCH  35  36
ENDBRANCH   1  35
TORSDOF 17
ENDMDL
