MODEL 1
REMARK VINA RESULT:     -10.0      0.000      0.000
REMARK SMILES C=CCN(CC(=O)NCCCNC(=O)c1ccc(-c2c3nc(c(-c4c(F)cccc4F)c4ccc([nH]4)c(-c4c(F)cccc4F)c4nc(c(-c5c(F)cccc5F)c5ccc2[nH]5)C=C4)C=C3)cc1)C(=O)N(C)[C@H]1CCC[N@H+](C)C1
REMARK SMILES IDX 9 1 8 2 6 3 7 4 5 6 4 7 3 8 2 9 1 10 69 11 70 12 71 13 72 14
REMARK SMILES IDX 73 15 74 16 79 17 75 18 77 19 76 20 78 21 10 23 11 24 12 25
REMARK SMILES IDX 13 26 14 28 15 29 16 30 68 31 17 32 67 33 18 34 19 35 20 36
REMARK SMILES IDX 61 37 21 38 66 39 60 40 62 41 22 42 65 43 59 44 58 45 23 47
REMARK SMILES IDX 49 48 32 49 48 50 33 51 36 52 47 53 63 54 34 55 35 56 46 58
REMARK SMILES IDX 64 59 37 60 24 61 25 62 30 63 26 64 27 65 29 66 31 67 28 68
REMARK SMILES IDX 50 69 51 70 56 71 52 72 53 73 55 74 57 75 54 76 38 77 39 78
REMARK SMILES IDX 44 79 40 80 41 81 43 82 45 83 42 84
REMARK H PARENT 8 5 77 22 12 27 62 46 36 57
REMARK Flexibility Score: inf
ROOT
ATOM      1  C   UNL A   1      31.397  30.801  26.449  1.00  0.00     0.117 C 
ENDROOT
BRANCH   1   2
ATOM      2  N   UNL A   1      31.302  30.406  25.063  1.00  0.00    -0.354 N 
ATOM      3  C   UNL A   1      31.394  29.166  24.510  1.00  0.00     0.239 C 
ATOM      4  O   UNL A   1      31.003  29.040  23.345  1.00  0.00    -0.273 OA
ATOM      5  H   UNL A   1      31.148  31.141  24.426  1.00  0.00     0.163 HD
BRANCH   3   6
ATOM      6  C   UNL A   1      31.808  27.945  25.340  1.00  0.00     0.221 C 
BRANCH   6   7
ATOM      7  N   UNL A   1      33.180  27.438  25.176  1.00  0.00    -0.312 N 
BRANCH   7   8
ATOM      8  C   UNL A   1      34.249  28.370  25.560  1.00  0.00     0.149 C 
BRANCH   8   9
ATOM      9  C   UNL A   1      34.225  28.700  27.024  1.00  0.00    -0.013 C 
ATOM     10  C   UNL A   1      34.784  29.813  27.524  1.00  0.00     0.006 C 
ENDBRANCH   8   9
ENDBRANCH   7   8
BRANCH   7  11
ATOM     11  C   UNL A   1      33.610  26.226  24.639  1.00  0.00     0.320 C 
ATOM     12  O   UNL A   1      34.439  25.574  25.280  1.00  0.00    -0.248 OA
BRANCH  11  13
ATOM     13  N   UNL A   1      33.160  25.759  23.413  1.00  0.00    -0.319 N 
ATOM     14  C   UNL A   1      33.339  26.473  22.155  1.00  0.00     0.149 C 
BRANCH  13  15
ATOM     15  C   UNL A   1      32.088  24.701  23.345  1.00  0.00     0.141 C 
ATOM     16  C   UNL A   1      32.606  23.389  22.704  1.00  0.00     0.037 C 
ATOM     17  C   UNL A   1      31.341  24.267  24.644  1.00  0.00     0.287 C 
ATOM     18  C   UNL A   1      33.469  22.599  23.688  1.00  0.00     0.064 C 
ATOM     19  N   UNL A   1      32.208  23.542  25.595  1.00  0.00    -0.336 N 
ATOM     20  C   UNL A   1      32.717  22.309  24.990  1.00  0.00     0.262 C 
ATOM     21  C   UNL A   1      31.466  23.261  26.823  1.00  0.00     0.332 C 
ATOM     22  H   UNL A   1      33.011  24.126  25.829  1.00  0.00     0.347 HD
ENDBRANCH  13  15
ENDBRANCH  11  13
ENDBRANCH   7  11
ENDBRANCH   6   7
ENDBRANCH   3   6
ENDBRANCH   1   2
BRANCH   1  23
ATOM     23  C   UNL A   1      31.304  32.308  26.641  1.00  0.00     0.042 C 
BRANCH  23  24
ATOM     24  C   UNL A   1      32.654  32.990  26.841  1.00  0.00     0.118 C 
BRANCH  24  25
ATOM     25  N   UNL A   1      32.557  34.208  27.642  1.00  0.00    -0.352 N 
ATOM     26  C   UNL A   1      33.235  34.596  28.767  1.00  0.00     0.251 C 
ATOM     27  H   UNL A   1      31.893  34.859  27.320  1.00  0.00     0.163 HD
ATOM     28  O   UNL A   1      32.845  35.584  29.396  1.00  0.00    -0.269 OA
BRANCH  26  29
ATOM     29  C   UNL A   1      34.414  33.849  29.245  1.00  0.00     0.039 A 
ATOM     30  C   UNL A   1      35.689  34.308  28.903  1.00  0.00     0.014 A 
ATOM     31  C   UNL A   1      34.271  32.681  29.998  1.00  0.00     0.014 A 
ATOM     32  C   UNL A   1      36.819  33.641  29.381  1.00  0.00     0.010 A 
ATOM     33  C   UNL A   1      35.396  32.062  30.537  1.00  0.00     0.010 A 
ATOM     34  C   UNL A   1      36.680  32.538  30.240  1.00  0.00    -0.014 A 
BRANCH  34  35
ATOM     35  C   UNL A   1      37.862  31.894  30.863  1.00  0.00     0.031 A 
ATOM     36  C   UNL A   1      38.622  30.824  30.133  1.00  0.00     0.074 A 
ATOM     37  C   UNL A   1      38.200  32.221  32.126  1.00  0.00     0.049 A 
ATOM     38  N   UNL A   1      39.623  30.090  30.552  1.00  0.00    -0.248 NA
ATOM     39  C   UNL A   1      38.184  30.517  28.763  1.00  0.00     0.031 C 
ATOM     40  C   UNL A   1      37.508  33.209  32.957  1.00  0.00     0.029 A 
ATOM     41  N   UNL A   1      39.199  31.746  32.937  1.00  0.00    -0.354 N 
ATOM     42  C   UNL A   1      39.925  29.229  29.505  1.00  0.00     0.074 A 
ATOM     43  C   UNL A   1      38.970  29.497  28.449  1.00  0.00     0.031 C 
ATOM     44  C   UNL A   1      38.114  33.279  34.153  1.00  0.00     0.029 A 
ATOM     45  C   UNL A   1      39.207  32.313  34.189  1.00  0.00     0.049 A 
ATOM     46  H   UNL A   1      39.848  31.064  32.650  1.00  0.00     0.167 HD
ATOM     47  C   UNL A   1      40.917  28.311  29.424  1.00  0.00     0.037 A 
ATOM     48  C   UNL A   1      39.996  32.073  35.252  1.00  0.00     0.037 A 
ATOM     49  C   UNL A   1      41.875  28.060  30.470  1.00  0.00     0.049 A 
ATOM     50  C   UNL A   1      41.082  31.040  35.141  1.00  0.00     0.074 A 
ATOM     51  C   UNL A   1      42.959  27.199  30.457  1.00  0.00     0.029 A 
ATOM     52  N   UNL A   1      41.859  28.664  31.718  1.00  0.00    -0.354 N 
ATOM     53  N   UNL A   1      41.402  30.284  34.119  1.00  0.00    -0.248 NA
ATOM     54  C   UNL A   1      41.920  30.831  36.330  1.00  0.00     0.031 C 
ATOM     55  C   UNL A   1      43.570  27.245  31.715  1.00  0.00     0.029 A 
ATOM     56  C   UNL A   1      42.897  28.173  32.494  1.00  0.00     0.049 A 
ATOM     57  H   UNL A   1      41.207  29.342  32.010  1.00  0.00     0.167 HD
ATOM     58  C   UNL A   1      42.488  29.525  34.532  1.00  0.00     0.074 A 
ATOM     59  C   UNL A   1      42.785  29.926  35.892  1.00  0.00     0.031 C 
ATOM     60  C   UNL A   1      43.178  28.579  33.849  1.00  0.00     0.037 A 
BRANCH  47  61
ATOM     61  C   UNL A   1      41.017  27.506  28.160  1.00  0.00     0.057 A 
ATOM     62  C   UNL A   1      40.341  26.289  28.002  1.00  0.00     0.134 A 
ATOM     63  C   UNL A   1      41.767  27.972  27.072  1.00  0.00     0.134 A 
ATOM     64  F   UNL A   1      39.612  25.781  29.008  1.00  0.00    -0.206 F 
ATOM     65  C   UNL A   1      40.429  25.552  26.820  1.00  0.00     0.040 A 
ATOM     66  C   UNL A   1      41.842  27.257  25.876  1.00  0.00     0.040 A 
ATOM     67  F   UNL A   1      42.434  29.133  27.152  1.00  0.00    -0.206 F 
ATOM     68  C   UNL A   1      41.176  26.039  25.750  1.00  0.00     0.006 A 
ENDBRANCH  47  61
BRANCH  48  69
ATOM     69  C   UNL A   1      39.795  32.833  36.510  1.00  0.00     0.057 A 
ATOM     70  C   UNL A   1      40.580  33.952  36.810  1.00  0.00     0.134 A 
ATOM     71  C   UNL A   1      38.815  32.465  37.439  1.00  0.00     0.134 A 
ATOM     72  F   UNL A   1      41.548  34.343  35.967  1.00  0.00    -0.206 F 
ATOM     73  C   UNL A   1      40.410  34.669  37.996  1.00  0.00     0.040 A 
ATOM     74  C   UNL A   1      38.616  33.186  38.617  1.00  0.00     0.040 A 
ATOM     75  F   UNL A   1      38.025  31.406  37.207  1.00  0.00    -0.206 F 
ATOM     76  C   UNL A   1      39.420  34.289  38.900  1.00  0.00     0.006 A 
ENDBRANCH  48  69
BRANCH  60  77
ATOM     77  C   UNL A   1      44.333  27.931  34.553  1.00  0.00     0.057 A 
ATOM     78  C   UNL A   1      44.185  26.738  35.271  1.00  0.00     0.134 A 
ATOM     79  C   UNL A   1      45.615  28.491  34.486  1.00  0.00     0.134 A 
ATOM     80  F   UNL A   1      42.981  26.157  35.384  1.00  0.00    -0.206 F 
ATOM     81  C   UNL A   1      45.267  26.136  35.917  1.00  0.00     0.040 A 
ATOM     82  C   UNL A   1      46.710  27.885  35.105  1.00  0.00     0.040 A 
ATOM     83  F   UNL A   1      45.828  29.630  33.809  1.00  0.00    -0.206 F 
ATOM     84  C   UNL A   1      46.535  26.707  35.828  1.00  0.00     0.006 A 
ENDBRANCH  60  77
ENDBRANCH  34  35
ENDBRANCH  26  29
ENDBRANCH  24  25
ENDBRANCH  23  24
ENDBRANCH   1  23
TORSDOF 16
ENDMDL
MODEL 2
REMARK VINA RESULT:      -9.9      1.229      2.197
REMARK SMILES C=CCN(CC(=O)NCCCNC(=O)c1ccc(-c2c3nc(c(-c4c(F)cccc4F)c4ccc([nH]4)c(-c4c(F)cccc4F)c4nc(c(-c5c(F)cccc5F)c5ccc2[nH]5)C=C4)C=C3)cc1)C(=O)N(C)[C@H]1CCC[N@H+](C)C1
REMARK SMILES IDX 9 1 8 2 6 3 7 4 5 6 4 7 3 8 2 9 1 10 69 11 70 12 71 13 72 14
REMARK SMILES IDX 73 15 74 16 79 17 75 18 77 19 76 20 78 21 10 23 11 24 12 25
REMARK SMILES IDX 13 26 14 28 15 29 16 30 68 31 17 32 67 33 18 34 19 35 20 36
REMARK SMILES IDX 61 37 21 38 66 39 60 40 62 41 22 42 65 43 59 44 58 45 23 47
REMARK SMILES IDX 49 48 32 49 48 50 33 51 36 52 47 53 63 54 34 55 35 56 46 58
REMARK SMILES IDX 64 59 37 60 24 61 25 62 30 63 26 64 27 65 29 66 31 67 28 68
REMARK SMILES IDX 50 69 51 70 56 71 52 72 53 73 55 74 57 75 54 76 38 77 39 78
REMARK SMILES IDX 44 79 40 80 41 81 43 82 45 83 42 84
REMARK H PARENT 8 5 77 22 12 27 62 46 36 57
REMARK Flexibility Score: inf
ROOT
ATOM      1  C   UNL A   1      31.586  30.764  26.118  1.00  0.00     0.117 C 
ENDROOT
BRANCH   1   2
ATOM      2  N   UNL A   1      32.693  30.115  26.783  1.00  0.00    -0.354 N 
ATOM      3  C   UNL A   1      33.604  29.235  26.285  1.00  0.00     0.239 C 
ATOM      4  O   UNL A   1      34.617  29.034  26.962  1.00  0.00    -0.273 OA
ATOM      5  H   UNL A   1      32.803  30.342  27.735  1.00  0.00     0.163 HD
BRANCH   3   6
ATOM      6  C   UNL A   1      33.464  28.644  24.878  1.00  0.00     0.221 C 
BRANCH   6   7
ATOM      7  N   UNL A   1      32.886  27.296  24.754  1.00  0.00    -0.312 N 
BRANCH   7   8
ATOM      8  C   UNL A   1      31.464  27.182  25.108  1.00  0.00     0.149 C 
BRANCH   8   9
ATOM      9  C   UNL A   1      30.572  27.895  24.135  1.00  0.00    -0.013 C 
ATOM     10  C   UNL A   1      29.847  27.246  23.209  1.00  0.00     0.006 C 
ENDBRANCH   8   9
ENDBRANCH   7   8
BRANCH   7  11
ATOM     11  C   UNL A   1      33.515  26.099  24.419  1.00  0.00     0.320 C 
ATOM     12  O   UNL A   1      34.380  25.668  25.186  1.00  0.00    -0.248 OA
BRANCH  11  13
ATOM     13  N   UNL A   1      33.218  25.408  23.252  1.00  0.00    -0.319 N 
ATOM     14  C   UNL A   1      33.231  26.012  21.926  1.00  0.00     0.149 C 
BRANCH  13  15
ATOM     15  C   UNL A   1      32.452  24.112  23.305  1.00  0.00     0.141 C 
ATOM     16  C   UNL A   1      33.289  22.920  22.775  1.00  0.00     0.037 C 
ATOM     17  C   UNL A   1      31.839  23.626  24.655  1.00  0.00     0.287 C 
ATOM     18  C   UNL A   1      34.323  22.471  23.808  1.00  0.00     0.064 C 
ATOM     19  N   UNL A   1      32.860  23.238  25.648  1.00  0.00    -0.336 N 
ATOM     20  C   UNL A   1      33.668  22.123  25.148  1.00  0.00     0.262 C 
ATOM     21  C   UNL A   1      32.213  22.894  26.914  1.00  0.00     0.332 C 
ATOM     22  H   UNL A   1      33.487  24.026  25.810  1.00  0.00     0.347 HD
ENDBRANCH  13  15
ENDBRANCH  11  13
ENDBRANCH   7  11
ENDBRANCH   6   7
ENDBRANCH   3   6
ENDBRANCH   1   2
BRANCH   1  23
ATOM     23  C   UNL A   1      31.378  32.197  26.582  1.00  0.00     0.042 C 
BRANCH  23  24
ATOM     24  C   UNL A   1      32.596  32.810  27.267  1.00  0.00     0.118 C 
BRANCH  24  25
ATOM     25  N   UNL A   1      32.393  34.210  27.633  1.00  0.00    -0.352 N 
ATOM     26  C   UNL A   1      32.995  34.981  28.591  1.00  0.00     0.251 C 
ATOM     27  H   UNL A   1      31.709  34.677  27.101  1.00  0.00     0.163 HD
ATOM     28  O   UNL A   1      32.520  36.088  28.860  1.00  0.00    -0.269 OA
BRANCH  26  29
ATOM     29  C   UNL A   1      34.190  34.506  29.315  1.00  0.00     0.039 A 
ATOM     30  C   UNL A   1      34.033  33.962  30.593  1.00  0.00     0.014 A 
ATOM     31  C   UNL A   1      35.466  34.624  28.758  1.00  0.00     0.014 A 
ATOM     32  C   UNL A   1      35.144  33.468  31.279  1.00  0.00     0.010 A 
ATOM     33  C   UNL A   1      36.561  34.062  29.409  1.00  0.00     0.010 A 
ATOM     34  C   UNL A   1      36.411  33.473  30.672  1.00  0.00    -0.014 A 
BRANCH  34  35
ATOM     35  C   UNL A   1      37.581  32.837  31.326  1.00  0.00     0.031 A 
ATOM     36  C   UNL A   1      38.233  31.628  30.717  1.00  0.00     0.074 A 
ATOM     37  C   UNL A   1      38.004  33.306  32.516  1.00  0.00     0.049 A 
ATOM     38  N   UNL A   1      39.206  30.889  31.188  1.00  0.00    -0.248 NA
ATOM     39  C   UNL A   1      37.704  31.172  29.422  1.00  0.00     0.031 C 
ATOM     40  C   UNL A   1      37.421  34.442  33.234  1.00  0.00     0.029 A 
ATOM     41  N   UNL A   1      39.013  32.875  33.340  1.00  0.00    -0.354 N 
ATOM     42  C   UNL A   1      39.397  29.877  30.257  1.00  0.00     0.074 A 
ATOM     43  C   UNL A   1      38.407  30.067  29.217  1.00  0.00     0.031 C 
ATOM     44  C   UNL A   1      38.092  34.629  34.381  1.00  0.00     0.029 A 
ATOM     45  C   UNL A   1      39.123  33.603  34.501  1.00  0.00     0.049 A 
ATOM     46  H   UNL A   1      39.601  32.117  33.122  1.00  0.00     0.167 HD
ATOM     47  C   UNL A   1      40.324  28.889  30.259  1.00  0.00     0.037 A 
ATOM     48  C   UNL A   1      39.950  33.452  35.552  1.00  0.00     0.037 A 
ATOM     49  C   UNL A   1      41.318  28.715  31.288  1.00  0.00     0.049 A 
ATOM     50  C   UNL A   1      40.961  32.341  35.536  1.00  0.00     0.074 A 
ATOM     51  C   UNL A   1      42.343  27.786  31.345  1.00  0.00     0.029 A 
ATOM     52  N   UNL A   1      41.406  29.480  32.441  1.00  0.00    -0.354 N 
ATOM     53  N   UNL A   1      41.178  31.434  34.614  1.00  0.00    -0.248 NA
ATOM     54  C   UNL A   1      41.846  32.234  36.705  1.00  0.00     0.031 C 
ATOM     55  C   UNL A   1      43.021  27.958  32.557  1.00  0.00     0.029 A 
ATOM     56  C   UNL A   1      42.450  29.026  33.230  1.00  0.00     0.049 A 
ATOM     57  H   UNL A   1      40.814  30.234  32.665  1.00  0.00     0.167 HD
ATOM     58  C   UNL A   1      42.235  30.663  35.080  1.00  0.00     0.074 A 
ATOM     59  C   UNL A   1      42.628  31.221  36.358  1.00  0.00     0.031 C 
ATOM     60  C   UNL A   1      42.826  29.589  34.503  1.00  0.00     0.037 A 
BRANCH  47  61
ATOM     61  C   UNL A   1      40.306  27.918  29.114  1.00  0.00     0.057 A 
ATOM     62  C   UNL A   1      39.512  26.764  29.135  1.00  0.00     0.134 A 
ATOM     63  C   UNL A   1      41.063  28.159  27.960  1.00  0.00     0.134 A 
ATOM     64  F   UNL A   1      38.770  26.469  30.214  1.00  0.00    -0.206 F 
ATOM     65  C   UNL A   1      39.492  25.871  28.062  1.00  0.00     0.040 A 
ATOM     66  C   UNL A   1      41.031  27.287  26.871  1.00  0.00     0.040 A 
ATOM     67  F   UNL A   1      41.840  29.248  27.870  1.00  0.00    -0.206 F 
ATOM     68  C   UNL A   1      40.248  26.135  26.922  1.00  0.00     0.006 A 
ENDBRANCH  47  61
BRANCH  48  69
ATOM     69  C   UNL A   1      39.863  34.386  36.702  1.00  0.00     0.057 A 
ATOM     70  C   UNL A   1      39.128  34.054  37.846  1.00  0.00     0.134 A 
ATOM     71  C   UNL A   1      40.513  35.625  36.689  1.00  0.00     0.134 A 
ATOM     72  F   UNL A   1      38.467  32.888  37.909  1.00  0.00    -0.206 F 
ATOM     73  C   UNL A   1      39.027  34.928  38.929  1.00  0.00     0.040 A 
ATOM     74  C   UNL A   1      40.443  36.498  37.776  1.00  0.00     0.040 A 
ATOM     75  F   UNL A   1      41.240  35.998  35.626  1.00  0.00    -0.206 F 
ATOM     76  C   UNL A   1      39.692  36.152  38.898  1.00  0.00     0.006 A 
ENDBRANCH  48  69
BRANCH  60  77
ATOM     77  C   UNL A   1      43.974  28.962  35.239  1.00  0.00     0.057 A 
ATOM     78  C   UNL A   1      45.298  29.364  35.021  1.00  0.00     0.134 A 
ATOM     79  C   UNL A   1      43.750  27.969  36.200  1.00  0.00     0.134 A 
ATOM     80  F   UNL A   1      45.582  30.302  34.104  1.00  0.00    -0.206 F 
ATOM     81  C   UNL A   1      46.360  28.783  35.715  1.00  0.00     0.040 A 
ATOM     82  C   UNL A   1      44.800  27.400  36.921  1.00  0.00     0.040 A 
ATOM     83  F   UNL A   1      42.504  27.544  36.463  1.00  0.00    -0.206 F 
ATOM     84  C   UNL A   1      46.111  27.802  36.674  1.00  0.00     0.006 A 
ENDBRANCH  60  77
ENDBRANCH  34  35
ENDBRANCH  26  29
ENDBRANCH  24  25
ENDBRANCH  23  24
ENDBRANCH   1  23
TORSDOF 16
ENDMDL
MODEL 3
REMARK VINA RESULT:      -9.9      1.003      6.269
REMARK SMILES C=CCN(CC(=O)NCCCNC(=O)c1ccc(-c2c3nc(c(-c4c(F)cccc4F)c4ccc([nH]4)c(-c4c(F)cccc4F)c4nc(c(-c5c(F)cccc5F)c5ccc2[nH]5)C=C4)C=C3)cc1)C(=O)N(C)[C@H]1CCC[N@H+](C)C1
REMARK SMILES IDX 9 1 8 2 6 3 7 4 5 6 4 7 3 8 2 9 1 10 69 11 70 12 71 13 72 14
REMARK SMILES IDX 73 15 74 16 79 17 75 18 77 19 76 20 78 21 10 23 11 24 12 25
REMARK SMILES IDX 13 26 14 28 15 29 16 30 68 31 17 32 67 33 18 34 19 35 20 36
REMARK SMILES IDX 61 37 21 38 66 39 60 40 62 41 22 42 65 43 59 44 58 45 23 47
REMARK SMILES IDX 49 48 32 49 48 50 33 51 36 52 47 53 63 54 34 55 35 56 46 58
REMARK SMILES IDX 64 59 37 60 24 61 25 62 30 63 26 64 27 65 29 66 31 67 28 68
REMARK SMILES IDX 50 69 51 70 56 71 52 72 53 73 55 74 57 75 54 76 38 77 39 78
REMARK SMILES IDX 44 79 40 80 41 81 43 82 45 83 42 84
REMARK H PARENT 8 5 77 22 12 27 62 46 36 57
REMARK Flexibility Score: inf
ROOT
ATOM      1  C   UNL A   1      31.281  30.790  26.330  1.00  0.00     0.117 C 
ENDROOT
BRANCH   1   2
ATOM      2  N   UNL A   1      31.181  30.382  24.947  1.00  0.00    -0.354 N 
ATOM      3  C   UNL A   1      31.157  29.129  24.416  1.00  0.00     0.239 C 
ATOM      4  O   UNL A   1      30.785  29.023  23.243  1.00  0.00    -0.273 OA
ATOM      5  H   UNL A   1      31.120  31.117  24.295  1.00  0.00     0.163 HD
BRANCH   3   6
ATOM      6  C   UNL A   1      31.422  27.887  25.275  1.00  0.00     0.221 C 
BRANCH   6   7
ATOM      7  N   UNL A   1      32.772  27.302  25.238  1.00  0.00    -0.312 N 
BRANCH   7   8
ATOM      8  C   UNL A   1      33.874  28.237  25.503  1.00  0.00     0.149 C 
BRANCH   8   9
ATOM      9  C   UNL A   1      34.011  28.565  26.961  1.00  0.00    -0.013 C 
ATOM     10  C   UNL A   1      34.585  29.697  27.396  1.00  0.00     0.006 C 
ENDBRANCH   8   9
ENDBRANCH   7   8
BRANCH   7  11
ATOM     11  C   UNL A   1      33.157  26.002  24.915  1.00  0.00     0.320 C 
ATOM     12  O   UNL A   1      33.721  25.335  25.786  1.00  0.00    -0.248 OA
BRANCH  11  13
ATOM     13  N   UNL A   1      32.952  25.462  23.653  1.00  0.00    -0.319 N 
ATOM     14  C   UNL A   1      33.501  26.028  22.427  1.00  0.00     0.149 C 
BRANCH  13  15
ATOM     15  C   UNL A   1      31.810  24.510  23.406  1.00  0.00     0.141 C 
ATOM     16  C   UNL A   1      32.296  23.153  22.838  1.00  0.00     0.037 C 
ATOM     17  C   UNL A   1      30.830  24.153  24.567  1.00  0.00     0.287 C 
ATOM     18  C   UNL A   1      32.915  22.287  23.936  1.00  0.00     0.064 C 
ATOM     19  N   UNL A   1      31.465  23.352  25.633  1.00  0.00    -0.336 N 
ATOM     20  C   UNL A   1      31.944  22.074  25.101  1.00  0.00     0.262 C 
ATOM     21  C   UNL A   1      30.516  23.146  26.726  1.00  0.00     0.332 C 
ATOM     22  H   UNL A   1      32.273  23.858  25.997  1.00  0.00     0.347 HD
ENDBRANCH  13  15
ENDBRANCH  11  13
ENDBRANCH   7  11
ENDBRANCH   6   7
ENDBRANCH   3   6
ENDBRANCH   1   2
BRANCH   1  23
ATOM     23  C   UNL A   1      31.294  32.302  26.499  1.00  0.00     0.042 C 
BRANCH  23  24
ATOM     24  C   UNL A   1      32.551  32.838  27.178  1.00  0.00     0.118 C 
BRANCH  24  25
ATOM     25  N   UNL A   1      32.389  34.206  27.665  1.00  0.00    -0.352 N 
ATOM     26  C   UNL A   1      33.043  34.885  28.657  1.00  0.00     0.251 C 
ATOM     27  H   UNL A   1      31.692  34.725  27.203  1.00  0.00     0.163 HD
ATOM     28  O   UNL A   1      32.601  35.974  29.036  1.00  0.00    -0.269 OA
BRANCH  26  29
ATOM     29  C   UNL A   1      34.258  34.335  29.288  1.00  0.00     0.039 A 
ATOM     30  C   UNL A   1      34.148  33.705  30.531  1.00  0.00     0.014 A 
ATOM     31  C   UNL A   1      35.510  34.466  28.681  1.00  0.00     0.014 A 
ATOM     32  C   UNL A   1      35.277  33.139  31.126  1.00  0.00     0.010 A 
ATOM     33  C   UNL A   1      36.620  33.835  29.237  1.00  0.00     0.010 A 
ATOM     34  C   UNL A   1      36.514  33.161  30.461  1.00  0.00    -0.014 A 
BRANCH  34  35
ATOM     35  C   UNL A   1      37.697  32.455  31.012  1.00  0.00     0.031 A 
ATOM     36  C   UNL A   1      38.413  32.991  32.219  1.00  0.00     0.074 A 
ATOM     37  C   UNL A   1      38.173  31.371  30.370  1.00  0.00     0.049 A 
ATOM     38  N   UNL A   1      39.511  32.559  32.787  1.00  0.00    -0.248 NA
ATOM     39  C   UNL A   1      37.836  34.185  32.856  1.00  0.00     0.031 C 
ATOM     40  C   UNL A   1      37.596  30.783  29.159  1.00  0.00     0.029 A 
ATOM     41  N   UNL A   1      39.262  30.579  30.636  1.00  0.00    -0.354 N 
ATOM     42  C   UNL A   1      39.763  33.434  33.837  1.00  0.00     0.074 A 
ATOM     43  C   UNL A   1      38.730  34.448  33.798  1.00  0.00     0.031 C 
ATOM     44  C   UNL A   1      38.324  29.716  28.797  1.00  0.00     0.029 A 
ATOM     45  C   UNL A   1      39.442  29.568  29.723  1.00  0.00     0.049 A 
ATOM     46  H   UNL A   1      39.857  30.722  31.407  1.00  0.00     0.167 HD
ATOM     47  C   UNL A   1      40.753  33.385  34.759  1.00  0.00     0.037 A 
ATOM     48  C   UNL A   1      40.408  28.635  29.632  1.00  0.00     0.037 A 
ATOM     49  C   UNL A   1      41.768  32.364  34.804  1.00  0.00     0.049 A 
ATOM     50  C   UNL A   1      41.503  28.610  30.661  1.00  0.00     0.074 A 
ATOM     51  C   UNL A   1      42.773  32.189  35.739  1.00  0.00     0.029 A 
ATOM     52  N   UNL A   1      41.910  31.349  33.870  1.00  0.00    -0.354 N 
ATOM     53  N   UNL A   1      41.688  29.400  31.690  1.00  0.00    -0.248 NA
ATOM     54  C   UNL A   1      42.522  27.561  30.517  1.00  0.00     0.031 C 
ATOM     55  C   UNL A   1      43.554  31.097  35.344  1.00  0.00     0.029 A 
ATOM     56  C   UNL A   1      43.004  30.561  34.190  1.00  0.00     0.049 A 
ATOM     57  H   UNL A   1      41.320  31.208  33.094  1.00  0.00     0.167 HD
ATOM     58  C   UNL A   1      42.829  28.933  32.328  1.00  0.00     0.074 A 
ATOM     59  C   UNL A   1      43.284  27.779  31.580  1.00  0.00     0.031 C 
ATOM     60  C   UNL A   1      43.447  29.417  33.433  1.00  0.00     0.037 A 
BRANCH  47  61
ATOM     61  C   UNL A   1      40.789  34.471  35.796  1.00  0.00     0.057 A 
ATOM     62  C   UNL A   1      40.098  34.358  37.009  1.00  0.00     0.134 A 
ATOM     63  C   UNL A   1      41.555  35.627  35.595  1.00  0.00     0.134 A 
ATOM     64  F   UNL A   1      39.339  33.281  37.262  1.00  0.00    -0.206 F 
ATOM     65  C   UNL A   1      40.145  35.367  37.973  1.00  0.00     0.040 A 
ATOM     66  C   UNL A   1      41.630  36.630  36.562  1.00  0.00     0.040 A 
ATOM     67  F   UNL A   1      42.247  35.797  34.458  1.00  0.00    -0.206 F 
ATOM     68  C   UNL A   1      40.919  36.505  37.754  1.00  0.00     0.006 A 
ENDBRANCH  47  61
BRANCH  48  69
ATOM     69  C   UNL A   1      40.375  27.641  28.531  1.00  0.00     0.057 A 
ATOM     70  C   UNL A   1      41.084  27.857  27.343  1.00  0.00     0.134 A 
ATOM     71  C   UNL A   1      39.643  26.454  28.639  1.00  0.00     0.134 A 
ATOM     72  F   UNL A   1      41.789  28.985  27.173  1.00  0.00    -0.206 F 
ATOM     73  C   UNL A   1      41.051  26.936  26.295  1.00  0.00     0.040 A 
ATOM     74  C   UNL A   1      39.622  25.512  27.609  1.00  0.00     0.040 A 
ATOM     75  F   UNL A   1      38.950  26.184  29.755  1.00  0.00    -0.206 F 
ATOM     76  C   UNL A   1      40.323  25.756  26.430  1.00  0.00     0.006 A 
ENDBRANCH  48  69
BRANCH  60  77
ATOM     77  C   UNL A   1      44.667  28.685  33.911  1.00  0.00     0.057 A 
ATOM     78  C   UNL A   1      45.955  29.046  33.496  1.00  0.00     0.134 A 
ATOM     79  C   UNL A   1      44.553  27.628  34.822  1.00  0.00     0.134 A 
ATOM     80  F   UNL A   1      46.131  30.042  32.615  1.00  0.00    -0.206 F 
ATOM     81  C   UNL A   1      47.085  28.366  33.952  1.00  0.00     0.040 A 
ATOM     82  C   UNL A   1      45.678  26.957  35.306  1.00  0.00     0.040 A 
ATOM     83  F   UNL A   1      43.349  27.236  35.266  1.00  0.00    -0.206 F 
ATOM     84  C   UNL A   1      46.948  27.322  34.865  1.00  0.00     0.006 A 
ENDBRANCH  60  77
ENDBRANCH  34  35
ENDBRANCH  26  29
ENDBRANCH  24  25
ENDBRANCH  23  24
ENDBRANCH   1  23
TORSDOF 16
ENDMDL
