MODEL 1
REMARK VINA RESULT:     -11.6      0.000      0.000
REMARK SMILES C[N@@H+]1CCC[C@@H](C(=O)N[C@H](C(=O)NCCCNC(=O)c2ccc(-c3c4nc(c(-c5c(F)cccc5F)c5ccc([nH]5)c(-c5c(F)cccc5F)c5nc(c(-c6c(F)cccc6F)c6ccc3[nH]6)C=C5)C=C4)cc2)c2ccccc2)C1
REMARK SMILES IDX 15 1 14 2 13 3 11 4 12 5 10 7 9 8 7 9 8 10 6 12 1 13 2 14
REMARK SMILES IDX 3 15 80 16 4 18 5 19 74 20 75 21 79 22 76 23 78 24 77 25
REMARK SMILES IDX 16 26 17 27 18 28 19 30 20 31 21 32 73 33 22 34 72 35 23 36
REMARK SMILES IDX 24 37 25 38 66 39 26 40 71 41 65 42 67 43 27 44 70 45 64 46
REMARK SMILES IDX 63 47 28 49 54 50 37 51 53 52 38 53 41 54 52 55 68 56 39 57
REMARK SMILES IDX 40 58 51 60 69 61 42 62 29 63 30 64 35 65 31 66 32 67 34 68
REMARK SMILES IDX 36 69 33 70 55 71 56 72 61 73 57 74 58 75 60 76 62 77 59 78
REMARK SMILES IDX 43 79 44 80 49 81 45 82 46 83 48 84 50 85 47 86
REMARK H PARENT 13 6 9 11 2 17 17 29 67 48 41 59
REMARK Flexibility Score: inf
ROOT
ATOM      1  C   UNL A   1      33.861  28.262  25.758  1.00  0.00     0.042 C 
ENDROOT
BRANCH   1   2
ATOM      2  C   UNL A   1      33.221  26.990  25.206  1.00  0.00     0.117 C 
BRANCH   2   3
ATOM      3  N   UNL A   1      33.431  26.821  23.772  1.00  0.00    -0.354 N 
ATOM      4  C   UNL A   1      33.703  25.685  23.047  1.00  0.00     0.247 C 
ATOM      5  O   UNL A   1      33.914  25.817  21.838  1.00  0.00    -0.272 OA
ATOM      6  H   UNL A   1      33.369  27.649  23.241  1.00  0.00     0.163 HD
BRANCH   4   7
ATOM      7  C   UNL A   1      33.767  24.310  23.759  1.00  0.00     0.202 C 
BRANCH   7   8
ATOM      8  N   UNL A   1      33.165  23.280  22.921  1.00  0.00    -0.340 N 
ATOM      9  C   UNL A   1      32.310  22.264  23.182  1.00  0.00     0.229 C 
ATOM     10  O   UNL A   1      31.961  21.589  22.203  1.00  0.00    -0.275 OA
ATOM     11  H   UNL A   1      33.435  23.333  21.976  1.00  0.00     0.164 HD
BRANCH   9  12
ATOM     12  C   UNL A   1      31.713  21.907  24.556  1.00  0.00     0.133 C 
ATOM     13  C   UNL A   1      34.251  21.490  27.363  1.00  0.00     0.332 C 
ATOM     14  N   UNL A   1      33.333  22.166  26.452  1.00  0.00    -0.337 N 
ATOM     15  C   UNL A   1      32.416  23.060  27.164  1.00  0.00     0.262 C 
ATOM     16  C   UNL A   1      32.617  21.223  25.586  1.00  0.00     0.275 C 
ATOM     17  H   UNL A   1      33.904  22.749  25.840  1.00  0.00     0.347 HD
ATOM     18  C   UNL A   1      31.567  23.875  26.185  1.00  0.00     0.062 C 
ATOM     19  C   UNL A   1      30.841  23.008  25.167  1.00  0.00     0.025 C 
ENDBRANCH   9  12
ENDBRANCH   7   8
BRANCH   7  20
ATOM     20  C   UNL A   1      35.153  23.905  24.253  1.00  0.00    -0.016 A 
ATOM     21  C   UNL A   1      35.724  24.402  25.432  1.00  0.00     0.006 A 
ATOM     22  C   UNL A   1      35.848  22.890  23.574  1.00  0.00     0.006 A 
ATOM     23  C   UNL A   1      36.867  23.809  25.979  1.00  0.00     0.000 A 
ATOM     24  C   UNL A   1      36.995  22.306  24.109  1.00  0.00     0.000 A 
ATOM     25  C   UNL A   1      37.487  22.746  25.331  1.00  0.00     0.000 A 
ENDBRANCH   7  20
ENDBRANCH   4   7
ENDBRANCH   2   3
ENDBRANCH   1   2
BRANCH   1  26
ATOM     26  C   UNL A   1      33.657  28.476  27.252  1.00  0.00     0.118 C 
BRANCH  26  27
ATOM     27  N   UNL A   1      33.607  29.883  27.612  1.00  0.00    -0.352 N 
ATOM     28  C   UNL A   1      34.559  30.666  28.223  1.00  0.00     0.251 C 
ATOM     29  H   UNL A   1      32.767  30.344  27.386  1.00  0.00     0.163 HD
ATOM     30  O   UNL A   1      34.257  31.790  28.612  1.00  0.00    -0.269 OA
BRANCH  28  31
ATOM     31  C   UNL A   1      35.937  30.160  28.442  1.00  0.00     0.039 A 
ATOM     32  C   UNL A   1      36.841  30.191  27.375  1.00  0.00     0.014 A 
ATOM     33  C   UNL A   1      36.337  29.624  29.669  1.00  0.00     0.014 A 
ATOM     34  C   UNL A   1      38.153  29.743  27.556  1.00  0.00     0.010 A 
ATOM     35  C   UNL A   1      37.666  29.253  29.871  1.00  0.00     0.010 A 
ATOM     36  C   UNL A   1      38.588  29.298  28.814  1.00  0.00    -0.014 A 
BRANCH  36  37
ATOM     37  C   UNL A   1      39.994  28.864  29.037  1.00  0.00     0.031 A 
ATOM     38  C   UNL A   1      40.988  29.801  29.670  1.00  0.00     0.074 A 
ATOM     39  C   UNL A   1      40.395  27.646  28.623  1.00  0.00     0.049 A 
ATOM     40  N   UNL A   1      42.269  29.627  29.887  1.00  0.00    -0.248 NA
ATOM     41  C   UNL A   1      40.483  31.117  30.090  1.00  0.00     0.031 C 
ATOM     42  C   UNL A   1      39.549  26.655  27.958  1.00  0.00     0.029 A 
ATOM     43  N   UNL A   1      41.624  27.036  28.695  1.00  0.00    -0.354 N 
ATOM     44  C   UNL A   1      42.722  30.813  30.449  1.00  0.00     0.074 A 
ATOM     45  C   UNL A   1      41.593  31.718  30.495  1.00  0.00     0.031 C 
ATOM     46  C   UNL A   1      40.276  25.554  27.705  1.00  0.00     0.029 A 
ATOM     47  C   UNL A   1      41.646  25.773  28.156  1.00  0.00     0.049 A 
ATOM     48  H   UNL A   1      42.415  27.465  29.096  1.00  0.00     0.167 HD
ATOM     49  C   UNL A   1      43.959  31.118  30.910  1.00  0.00     0.037 A 
ATOM     50  C   UNL A   1      42.658  24.891  28.034  1.00  0.00     0.037 A 
ATOM     51  C   UNL A   1      45.077  30.211  30.899  1.00  0.00     0.049 A 
ATOM     52  C   UNL A   1      44.022  25.251  28.554  1.00  0.00     0.074 A 
ATOM     53  C   UNL A   1      46.352  30.408  31.401  1.00  0.00     0.029 A 
ATOM     54  N   UNL A   1      45.052  28.935  30.359  1.00  0.00    -0.354 N 
ATOM     55  N   UNL A   1      44.418  26.355  29.139  1.00  0.00    -0.248 NA
ATOM     56  C   UNL A   1      45.077  24.240  28.399  1.00  0.00     0.031 C 
ATOM     57  C   UNL A   1      47.111  29.264  31.130  1.00  0.00     0.029 A 
ATOM     58  C   UNL A   1      46.295  28.339  30.498  1.00  0.00     0.049 A 
ATOM     59  H   UNL A   1      44.268  28.513  29.938  1.00  0.00     0.167 HD
ATOM     60  C   UNL A   1      45.759  26.160  29.448  1.00  0.00     0.074 A 
ATOM     61  C   UNL A   1      46.105  24.829  28.994  1.00  0.00     0.031 C 
ATOM     62  C   UNL A   1      46.625  27.010  30.052  1.00  0.00     0.037 A 
BRANCH  49  63
ATOM     63  C   UNL A   1      44.167  32.493  31.474  1.00  0.00     0.057 A 
ATOM     64  C   UNL A   1      44.568  33.568  30.670  1.00  0.00     0.134 A 
ATOM     65  C   UNL A   1      43.933  32.755  32.831  1.00  0.00     0.134 A 
ATOM     66  F   UNL A   1      44.820  33.384  29.365  1.00  0.00    -0.206 F 
ATOM     67  C   UNL A   1      44.756  34.847  31.199  1.00  0.00     0.040 A 
ATOM     68  C   UNL A   1      44.092  34.034  33.366  1.00  0.00     0.040 A 
ATOM     69  F   UNL A   1      43.540  31.773  33.655  1.00  0.00    -0.206 F 
ATOM     70  C   UNL A   1      44.512  35.082  32.550  1.00  0.00     0.006 A 
ENDBRANCH  49  63
BRANCH  50  71
ATOM     71  C   UNL A   1      42.414  23.564  27.414  1.00  0.00     0.057 A 
ATOM     72  C   UNL A   1      42.558  23.378  26.034  1.00  0.00     0.134 A 
ATOM     73  C   UNL A   1      42.027  22.458  28.178  1.00  0.00     0.134 A 
ATOM     74  F   UNL A   1      42.907  24.407  25.248  1.00  0.00    -0.206 F 
ATOM     75  C   UNL A   1      42.307  22.144  25.433  1.00  0.00     0.040 A 
ATOM     76  C   UNL A   1      41.796  21.211  27.593  1.00  0.00     0.040 A 
ATOM     77  F   UNL A   1      41.880  22.570  29.506  1.00  0.00    -0.206 F 
ATOM     78  C   UNL A   1      41.930  21.055  26.215  1.00  0.00     0.006 A 
ENDBRANCH  50  71
BRANCH  62  79
ATOM     79  C   UNL A   1      48.022  26.515  30.289  1.00  0.00     0.057 A 
ATOM     80  C   UNL A   1      48.379  25.848  31.467  1.00  0.00     0.134 A 
ATOM     81  C   UNL A   1      49.010  26.675  29.309  1.00  0.00     0.134 A 
ATOM     82  F   UNL A   1      47.483  25.675  32.450  1.00  0.00    -0.206 F 
ATOM     83  C   UNL A   1      49.677  25.374  31.671  1.00  0.00     0.040 A 
ATOM     84  C   UNL A   1      50.304  26.184  29.490  1.00  0.00     0.040 A 
ATOM     85  F   UNL A   1      48.730  27.299  28.154  1.00  0.00    -0.206 F 
ATOM     86  C   UNL A   1      50.641  25.536  30.677  1.00  0.00     0.006 A 
ENDBRANCH  62  79
ENDBRANCH  36  37
ENDBRANCH  28  31
ENDBRANCH  26  27
ENDBRANCH   1  26
TORSDOF 13
ENDMDL
MODEL 2
REMARK VINA RESULT:     -11.4      2.393      7.265
REMARK SMILES C[N@@H+]1CCC[C@@H](C(=O)N[C@H](C(=O)NCCCNC(=O)c2ccc(-c3c4nc(c(-c5c(F)cccc5F)c5ccc([nH]5)c(-c5c(F)cccc5F)c5nc(c(-c6c(F)cccc6F)c6ccc3[nH]6)C=C5)C=C4)cc2)c2ccccc2)C1
REMARK SMILES IDX 15 1 14 2 13 3 11 4 12 5 10 7 9 8 7 9 8 10 6 12 1 13 2 14
REMARK SMILES IDX 3 15 80 16 4 18 5 19 74 20 75 21 79 22 76 23 78 24 77 25
REMARK SMILES IDX 16 26 17 27 18 28 19 30 20 31 21 32 73 33 22 34 72 35 23 36
REMARK SMILES IDX 24 37 25 38 66 39 26 40 71 41 65 42 67 43 27 44 70 45 64 46
REMARK SMILES IDX 63 47 28 49 54 50 37 51 53 52 38 53 41 54 52 55 68 56 39 57
REMARK SMILES IDX 40 58 51 60 69 61 42 62 29 63 30 64 35 65 31 66 32 67 34 68
REMARK SMILES IDX 36 69 33 70 55 71 56 72 61 73 57 74 58 75 60 76 62 77 59 78
REMARK SMILES IDX 43 79 44 80 49 81 45 82 46 83 48 84 50 85 47 86
REMARK H PARENT 13 6 9 11 2 17 17 29 67 48 41 59
REMARK Flexibility Score: inf
ROOT
ATOM      1  C   UNL A   1      37.126  19.791  24.988  1.00  0.00     0.042 C 
ENDROOT
BRANCH   1   2
ATOM      2  C   UNL A   1      35.995  20.801  24.803  1.00  0.00     0.117 C 
BRANCH   2   3
ATOM      3  N   UNL A   1      35.216  21.016  26.019  1.00  0.00    -0.354 N 
ATOM      4  C   UNL A   1      33.862  20.917  26.228  1.00  0.00     0.247 C 
ATOM      5  O   UNL A   1      33.434  21.224  27.345  1.00  0.00    -0.272 OA
ATOM      6  H   UNL A   1      35.743  21.271  26.811  1.00  0.00     0.163 HD
BRANCH   4   7
ATOM      7  C   UNL A   1      32.931  20.464  25.075  1.00  0.00     0.202 C 
BRANCH   7   8
ATOM      8  N   UNL A   1      33.164  21.279  23.889  1.00  0.00    -0.340 N 
ATOM      9  C   UNL A   1      32.730  22.505  23.515  1.00  0.00     0.229 C 
ATOM     10  O   UNL A   1      33.168  22.924  22.434  1.00  0.00    -0.275 OA
ATOM     11  H   UNL A   1      33.753  20.852  23.228  1.00  0.00     0.164 HD
BRANCH   9  12
ATOM     12  C   UNL A   1      31.790  23.422  24.319  1.00  0.00     0.133 C 
ATOM     13  C   UNL A   1      33.441  26.495  25.844  1.00  0.00     0.332 C 
ATOM     14  N   UNL A   1      32.780  25.665  24.842  1.00  0.00    -0.337 N 
ATOM     15  C   UNL A   1      31.642  26.353  24.227  1.00  0.00     0.262 C 
ATOM     16  C   UNL A   1      32.404  24.350  25.372  1.00  0.00     0.275 C 
ATOM     17  H   UNL A   1      33.464  25.498  24.103  1.00  0.00     0.347 HD
ATOM     18  C   UNL A   1      31.058  25.534  23.073  1.00  0.00     0.062 C 
ATOM     19  C   UNL A   1      30.711  24.108  23.477  1.00  0.00     0.025 C 
ENDBRANCH   9  12
ENDBRANCH   7   8
BRANCH   7  20
ATOM     20  C   UNL A   1      32.977  18.972  24.760  1.00  0.00    -0.016 A 
ATOM     21  C   UNL A   1      33.331  18.462  23.503  1.00  0.00     0.006 A 
ATOM     22  C   UNL A   1      32.786  18.049  25.802  1.00  0.00     0.006 A 
ATOM     23  C   UNL A   1      33.618  17.103  23.336  1.00  0.00     0.000 A 
ATOM     24  C   UNL A   1      33.057  16.691  25.637  1.00  0.00     0.000 A 
ATOM     25  C   UNL A   1      33.505  16.223  24.408  1.00  0.00     0.000 A 
ENDBRANCH   7  20
ENDBRANCH   4   7
ENDBRANCH   2   3
ENDBRANCH   1   2
BRANCH   1  26
ATOM     26  C   UNL A   1      38.418  20.381  25.536  1.00  0.00     0.118 C 
BRANCH  26  27
ATOM     27  N   UNL A   1      39.487  19.401  25.620  1.00  0.00    -0.352 N 
ATOM     28  C   UNL A   1      40.803  19.568  25.991  1.00  0.00     0.251 C 
ATOM     29  H   UNL A   1      39.234  18.482  25.376  1.00  0.00     0.163 HD
ATOM     30  O   UNL A   1      41.598  18.649  25.818  1.00  0.00    -0.269 OA
BRANCH  28  31
ATOM     31  C   UNL A   1      41.276  20.849  26.569  1.00  0.00     0.039 A 
ATOM     32  C   UNL A   1      41.829  21.808  25.715  1.00  0.00     0.014 A 
ATOM     33  C   UNL A   1      41.216  21.102  27.942  1.00  0.00     0.014 A 
ATOM     34  C   UNL A   1      42.263  23.036  26.227  1.00  0.00     0.010 A 
ATOM     35  C   UNL A   1      41.574  22.355  28.440  1.00  0.00     0.010 A 
ATOM     36  C   UNL A   1      42.111  23.334  27.589  1.00  0.00    -0.014 A 
BRANCH  36  37
ATOM     37  C   UNL A   1      42.522  24.653  28.143  1.00  0.00     0.031 A 
ATOM     38  C   UNL A   1      41.502  25.739  28.354  1.00  0.00     0.074 A 
ATOM     39  C   UNL A   1      43.821  24.896  28.407  1.00  0.00     0.049 A 
ATOM     40  N   UNL A   1      41.678  26.972  28.764  1.00  0.00    -0.248 NA
ATOM     41  C   UNL A   1      40.105  25.407  28.038  1.00  0.00     0.031 C 
ATOM     42  C   UNL A   1      44.919  23.949  28.208  1.00  0.00     0.029 A 
ATOM     43  N   UNL A   1      44.439  26.022  28.893  1.00  0.00    -0.354 N 
ATOM     44  C   UNL A   1      40.420  27.562  28.737  1.00  0.00     0.074 A 
ATOM     45  C   UNL A   1      39.499  26.571  28.224  1.00  0.00     0.031 C 
ATOM     46  C   UNL A   1      46.071  24.524  28.591  1.00  0.00     0.029 A 
ATOM     47  C   UNL A   1      45.800  25.890  29.028  1.00  0.00     0.049 A 
ATOM     48  H   UNL A   1      43.952  26.847  29.123  1.00  0.00     0.167 HD
ATOM     49  C   UNL A   1      40.057  28.808  29.127  1.00  0.00     0.037 A 
ATOM     50  C   UNL A   1      46.727  26.771  29.452  1.00  0.00     0.037 A 
ATOM     51  C   UNL A   1      40.962  29.786  29.671  1.00  0.00     0.049 A 
ATOM     52  C   UNL A   1      46.300  28.148  29.879  1.00  0.00     0.074 A 
ATOM     53  C   UNL A   1      40.677  31.052  30.152  1.00  0.00     0.029 A 
ATOM     54  N   UNL A   1      42.331  29.606  29.806  1.00  0.00    -0.354 N 
ATOM     55  N   UNL A   1      45.098  28.670  29.906  1.00  0.00    -0.248 NA
ATOM     56  C   UNL A   1      47.360  29.056  30.341  1.00  0.00     0.031 C 
ATOM     57  C   UNL A   1      41.878  31.653  30.543  1.00  0.00     0.029 A 
ATOM     58  C   UNL A   1      42.905  30.745  30.346  1.00  0.00     0.049 A 
ATOM     59  H   UNL A   1      42.821  28.790  29.556  1.00  0.00     0.167 HD
ATOM     60  C   UNL A   1      45.253  29.954  30.412  1.00  0.00     0.074 A 
ATOM     61  C   UNL A   1      46.663  30.129  30.689  1.00  0.00     0.031 C 
ATOM     62  C   UNL A   1      44.309  30.904  30.627  1.00  0.00     0.037 A 
BRANCH  49  63
ATOM     63  C   UNL A   1      38.611  29.182  28.985  1.00  0.00     0.057 A 
ATOM     64  C   UNL A   1      37.727  29.141  30.071  1.00  0.00     0.134 A 
ATOM     65  C   UNL A   1      38.101  29.622  27.756  1.00  0.00     0.134 A 
ATOM     66  F   UNL A   1      38.148  28.719  31.274  1.00  0.00    -0.206 F 
ATOM     67  C   UNL A   1      36.383  29.494  29.935  1.00  0.00     0.040 A 
ATOM     68  C   UNL A   1      36.766  30.002  27.613  1.00  0.00     0.040 A 
ATOM     69  F   UNL A   1      38.894  29.693  26.677  1.00  0.00    -0.206 F 
ATOM     70  C   UNL A   1      35.902  29.932  28.704  1.00  0.00     0.006 A 
ENDBRANCH  49  63
BRANCH  50  71
ATOM     71  C   UNL A   1      48.155  26.372  29.517  1.00  0.00     0.057 A 
ATOM     72  C   UNL A   1      48.687  25.788  30.674  1.00  0.00     0.134 A 
ATOM     73  C   UNL A   1      49.022  26.568  28.436  1.00  0.00     0.134 A 
ATOM     74  F   UNL A   1      47.909  25.594  31.749  1.00  0.00    -0.206 F 
ATOM     75  C   UNL A   1      50.033  25.432  30.760  1.00  0.00     0.040 A 
ATOM     76  C   UNL A   1      50.366  26.194  28.500  1.00  0.00     0.040 A 
ATOM     77  F   UNL A   1      48.572  27.116  27.298  1.00  0.00    -0.206 F 
ATOM     78  C   UNL A   1      50.875  25.630  29.668  1.00  0.00     0.006 A 
ENDBRANCH  50  71
BRANCH  62  79
ATOM     79  C   UNL A   1      44.765  32.204  31.220  1.00  0.00     0.057 A 
ATOM     80  C   UNL A   1      45.145  33.289  30.421  1.00  0.00     0.134 A 
ATOM     81  C   UNL A   1      44.787  32.383  32.610  1.00  0.00     0.134 A 
ATOM     82  F   UNL A   1      45.158  33.178  29.085  1.00  0.00    -0.206 F 
ATOM     83  C   UNL A   1      45.549  34.502  30.983  1.00  0.00     0.040 A 
ATOM     84  C   UNL A   1      45.166  33.597  33.183  1.00  0.00     0.040 A 
ATOM     85  F   UNL A   1      44.428  31.384  33.431  1.00  0.00    -0.206 F 
ATOM     86  C   UNL A   1      45.555  34.659  32.369  1.00  0.00     0.006 A 
ENDBRANCH  62  79
ENDBRANCH  36  37
ENDBRANCH  28  31
ENDBRANCH  26  27
ENDBRANCH   1  26
TORSDOF 13
ENDMDL
MODEL 3
REMARK VINA RESULT:     -11.3      2.437      7.401
REMARK SMILES C[N@@H+]1CCC[C@@H](C(=O)N[C@H](C(=O)NCCCNC(=O)c2ccc(-c3c4nc(c(-c5c(F)cccc5F)c5ccc([nH]5)c(-c5c(F)cccc5F)c5nc(c(-c6c(F)cccc6F)c6ccc3[nH]6)C=C5)C=C4)cc2)c2ccccc2)C1
REMARK SMILES IDX 15 1 14 2 13 3 11 4 12 5 10 7 9 8 7 9 8 10 6 12 1 13 2 14
REMARK SMILES IDX 3 15 80 16 4 18 5 19 74 20 75 21 79 22 76 23 78 24 77 25
REMARK SMILES IDX 16 26 17 27 18 28 19 30 20 31 21 32 73 33 22 34 72 35 23 36
REMARK SMILES IDX 24 37 25 38 66 39 26 40 71 41 65 42 67 43 27 44 70 45 64 46
REMARK SMILES IDX 63 47 28 49 54 50 37 51 53 52 38 53 41 54 52 55 68 56 39 57
REMARK SMILES IDX 40 58 51 60 69 61 42 62 29 63 30 64 35 65 31 66 32 67 34 68
REMARK SMILES IDX 36 69 33 70 55 71 56 72 61 73 57 74 58 75 60 76 62 77 59 78
REMARK SMILES IDX 43 79 44 80 49 81 45 82 46 83 48 84 50 85 47 86
REMARK H PARENT 13 6 9 11 2 17 17 29 67 48 41 59
REMARK Flexibility Score: inf
ROOT
ATOM      1  C   UNL A   1      37.211  19.565  24.991  1.00  0.00     0.042 C 
ENDROOT
BRANCH   1   2
ATOM      2  C   UNL A   1      36.046  20.522  24.742  1.00  0.00     0.117 C 
BRANCH   2   3
ATOM      3  N   UNL A   1      35.290  20.828  25.951  1.00  0.00    -0.354 N 
ATOM      4  C   UNL A   1      33.936  20.778  26.182  1.00  0.00     0.247 C 
ATOM      5  O   UNL A   1      33.531  21.162  27.283  1.00  0.00    -0.272 OA
ATOM      6  H   UNL A   1      35.834  21.115  26.721  1.00  0.00     0.163 HD
BRANCH   4   7
ATOM      7  C   UNL A   1      32.978  20.285  25.068  1.00  0.00     0.202 C 
BRANCH   7   8
ATOM      8  N   UNL A   1      33.154  21.083  23.861  1.00  0.00    -0.340 N 
ATOM      9  C   UNL A   1      32.699  22.302  23.488  1.00  0.00     0.229 C 
ATOM     10  O   UNL A   1      33.087  22.706  22.383  1.00  0.00    -0.275 OA
ATOM     11  H   UNL A   1      33.717  20.649  23.180  1.00  0.00     0.164 HD
BRANCH   9  12
ATOM     12  C   UNL A   1      31.791  23.227  24.320  1.00  0.00     0.133 C 
ATOM     13  C   UNL A   1      33.514  26.279  25.804  1.00  0.00     0.332 C 
ATOM     14  N   UNL A   1      32.818  25.459  24.819  1.00  0.00    -0.337 N 
ATOM     15  C   UNL A   1      31.670  26.159  24.237  1.00  0.00     0.262 C 
ATOM     16  C   UNL A   1      32.443  24.146  25.357  1.00  0.00     0.275 C 
ATOM     17  H   UNL A   1      33.479  25.287  24.062  1.00  0.00     0.347 HD
ATOM     18  C   UNL A   1      31.046  25.349  23.099  1.00  0.00     0.062 C 
ATOM     19  C   UNL A   1      30.696  23.926  23.509  1.00  0.00     0.025 C 
ENDBRANCH   9  12
ENDBRANCH   7   8
BRANCH   7  20
ATOM     20  C   UNL A   1      33.048  18.789  24.777  1.00  0.00    -0.016 A 
ATOM     21  C   UNL A   1      33.566  18.260  23.587  1.00  0.00     0.006 A 
ATOM     22  C   UNL A   1      32.700  17.881  25.791  1.00  0.00     0.006 A 
ATOM     23  C   UNL A   1      33.855  16.896  23.475  1.00  0.00     0.000 A 
ATOM     24  C   UNL A   1      32.973  16.518  25.679  1.00  0.00     0.000 A 
ATOM     25  C   UNL A   1      33.581  16.030  24.530  1.00  0.00     0.000 A 
ENDBRANCH   7  20
ENDBRANCH   4   7
ENDBRANCH   2   3
ENDBRANCH   1   2
BRANCH   1  26
ATOM     26  C   UNL A   1      38.516  20.245  25.383  1.00  0.00     0.118 C 
BRANCH  26  27
ATOM     27  N   UNL A   1      39.601  19.299  25.580  1.00  0.00    -0.352 N 
ATOM     28  C   UNL A   1      40.886  19.518  26.022  1.00  0.00     0.251 C 
ATOM     29  H   UNL A   1      39.384  18.363  25.368  1.00  0.00     0.163 HD
ATOM     30  O   UNL A   1      41.712  18.613  25.944  1.00  0.00    -0.269 OA
BRANCH  28  31
ATOM     31  C   UNL A   1      41.292  20.838  26.563  1.00  0.00     0.039 A 
ATOM     32  C   UNL A   1      41.882  21.766  25.698  1.00  0.00     0.014 A 
ATOM     33  C   UNL A   1      41.134  21.159  27.914  1.00  0.00     0.014 A 
ATOM     34  C   UNL A   1      42.255  23.027  26.173  1.00  0.00     0.010 A 
ATOM     35  C   UNL A   1      41.432  22.443  28.368  1.00  0.00     0.010 A 
ATOM     36  C   UNL A   1      42.006  23.390  27.506  1.00  0.00    -0.014 A 
BRANCH  36  37
ATOM     37  C   UNL A   1      42.351  24.745  28.016  1.00  0.00     0.031 A 
ATOM     38  C   UNL A   1      43.771  25.077  28.389  1.00  0.00     0.074 A 
ATOM     39  C   UNL A   1      41.382  25.664  28.196  1.00  0.00     0.049 A 
ATOM     40  N   UNL A   1      44.255  26.178  28.910  1.00  0.00    -0.248 NA
ATOM     41  C   UNL A   1      44.776  24.025  28.175  1.00  0.00     0.031 C 
ATOM     42  C   UNL A   1      39.959  25.461  27.916  1.00  0.00     0.029 A 
ATOM     43  N   UNL A   1      41.446  26.952  28.666  1.00  0.00    -0.354 N 
ATOM     44  C   UNL A   1      45.611  25.944  29.100  1.00  0.00     0.074 A 
ATOM     45  C   UNL A   1      45.865  24.580  28.686  1.00  0.00     0.031 C 
ATOM     46  C   UNL A   1      39.291  26.592  28.197  1.00  0.00     0.029 A 
ATOM     47  C   UNL A   1      40.229  27.586  28.709  1.00  0.00     0.049 A 
ATOM     48  H   UNL A   1      42.288  27.382  28.946  1.00  0.00     0.167 HD
ATOM     49  C   UNL A   1      46.565  26.791  29.554  1.00  0.00     0.037 A 
ATOM     50  C   UNL A   1      39.902  28.827  29.119  1.00  0.00     0.037 A 
ATOM     51  C   UNL A   1      46.325  28.158  29.933  1.00  0.00     0.049 A 
ATOM     52  C   UNL A   1      40.979  29.750  29.619  1.00  0.00     0.074 A 
ATOM     53  C   UNL A   1      47.239  29.113  30.346  1.00  0.00     0.029 A 
ATOM     54  N   UNL A   1      45.079  28.766  29.947  1.00  0.00    -0.354 N 
ATOM     55  N   UNL A   1      42.266  29.533  29.733  1.00  0.00    -0.248 NA
ATOM     56  C   UNL A   1      40.556  31.093  30.041  1.00  0.00     0.031 C 
ATOM     57  C   UNL A   1      46.541  30.287  30.646  1.00  0.00     0.029 A 
ATOM     58  C   UNL A   1      45.198  30.077  30.378  1.00  0.00     0.049 A 
ATOM     59  H   UNL A   1      44.234  28.331  29.688  1.00  0.00     0.167 HD
ATOM     60  C   UNL A   1      42.810  30.718  30.213  1.00  0.00     0.074 A 
ATOM     61  C   UNL A   1      41.715  31.654  30.357  1.00  0.00     0.031 C 
ATOM     62  C   UNL A   1      44.102  31.003  30.508  1.00  0.00     0.037 A 
BRANCH  49  63
ATOM     63  C   UNL A   1      47.966  26.262  29.658  1.00  0.00     0.057 A 
ATOM     64  C   UNL A   1      48.865  26.336  28.586  1.00  0.00     0.134 A 
ATOM     65  C   UNL A   1      48.434  25.702  30.854  1.00  0.00     0.134 A 
ATOM     66  F   UNL A   1      48.478  26.852  27.409  1.00  0.00    -0.206 F 
ATOM     67  C   UNL A   1      50.169  25.847  28.689  1.00  0.00     0.040 A 
ATOM     68  C   UNL A   1      49.742  25.232  30.977  1.00  0.00     0.040 A 
ATOM     69  F   UNL A   1      47.628  25.607  31.922  1.00  0.00    -0.206 F 
ATOM     70  C   UNL A   1      50.611  25.298  29.890  1.00  0.00     0.006 A 
ENDBRANCH  49  63
BRANCH  50  71
ATOM     71  C   UNL A   1      38.491  29.283  29.052  1.00  0.00     0.057 A 
ATOM     72  C   UNL A   1      37.953  29.786  27.861  1.00  0.00     0.134 A 
ATOM     73  C   UNL A   1      37.652  29.236  30.171  1.00  0.00     0.134 A 
ATOM     74  F   UNL A   1      38.715  29.874  26.762  1.00  0.00    -0.206 F 
ATOM     75  C   UNL A   1      36.636  30.244  27.790  1.00  0.00     0.040 A 
ATOM     76  C   UNL A   1      36.325  29.668  30.108  1.00  0.00     0.040 A 
ATOM     77  F   UNL A   1      38.105  28.759  31.339  1.00  0.00    -0.206 F 
ATOM     78  C   UNL A   1      35.817  30.180  28.916  1.00  0.00     0.006 A 
ENDBRANCH  50  71
BRANCH  62  79
ATOM     79  C   UNL A   1      44.408  32.393  30.983  1.00  0.00     0.057 A 
ATOM     80  C   UNL A   1      44.691  33.434  30.091  1.00  0.00     0.134 A 
ATOM     81  C   UNL A   1      44.382  32.700  32.350  1.00  0.00     0.134 A 
ATOM     82  F   UNL A   1      44.745  33.202  28.771  1.00  0.00    -0.206 F 
ATOM     83  C   UNL A   1      44.956  34.728  30.542  1.00  0.00     0.040 A 
ATOM     84  C   UNL A   1      44.621  33.995  32.812  1.00  0.00     0.040 A 
ATOM     85  F   UNL A   1      44.110  31.748  33.257  1.00  0.00    -0.206 F 
ATOM     86  C   UNL A   1      44.915  35.012  31.906  1.00  0.00     0.006 A 
ENDBRANCH  62  79
ENDBRANCH  36  37
ENDBRANCH  28  31
ENDBRANCH  26  27
ENDBRANCH   1  26
TORSDOF 13
ENDMDL
