MODEL 1
REMARK VINA RESULT:     -12.8      0.000      0.000
REMARK SMILES CC1=C(C(=O)Nc2ccccc2)[C@@H](c2ccc(C(=O)NCCCNC(=O)c3ccc(-c4c5nc(c(-c6c(F)cccc6F)c6ccc([nH]6)c(-c6c(F)cccc6F)c6nc(c(-c7c(F)cccc7F)c7ccc4[nH]7)C=C6)C=C5)cc3)cc2)n2ncnc2N1
REMARK SMILES IDX 21 1 20 2 18 3 19 4 17 6 14 7 15 8 82 9 16 10 81 11 13 12
REMARK SMILES IDX 1 13 2 14 3 15 88 16 87 17 83 19 86 20 84 21 85 22 4 23 5 24
REMARK SMILES IDX 6 25 7 27 8 28 12 29 9 30 11 31 10 32 22 33 23 34 24 35
REMARK SMILES IDX 25 36 26 38 27 39 28 40 80 41 29 42 79 43 30 44 31 45 32 46
REMARK SMILES IDX 73 47 33 48 78 49 72 50 74 51 34 52 77 53 71 54 70 55 35 57
REMARK SMILES IDX 61 58 44 59 60 60 45 61 48 62 59 63 75 64 46 65 47 66 58 68
REMARK SMILES IDX 76 69 49 70 36 71 37 72 42 73 38 74 39 75 41 76 43 77 40 78
REMARK SMILES IDX 62 79 63 80 68 81 64 82 65 83 67 84 69 85 66 86 50 87 51 88
REMARK SMILES IDX 56 89 52 90 53 91 55 92 57 93 54 94
REMARK H PARENT 20 5 88 18 6 26 24 37 74 56 48 67
REMARK Flexibility Score: inf
ROOT
ATOM      1  C   UNL A   1      37.411  20.854  24.667  1.00  0.00     0.118 C 
ENDROOT
BRANCH   1   2
ATOM      2  N   UNL A   1      38.046  22.123  25.010  1.00  0.00    -0.352 N 
ATOM      3  C   UNL A   1      37.511  23.369  25.268  1.00  0.00     0.251 C 
ATOM      4  O   UNL A   1      38.260  24.253  25.679  1.00  0.00    -0.269 OA
ATOM      5  H   UNL A   1      39.027  22.083  25.069  1.00  0.00     0.163 HD
BRANCH   3   6
ATOM      6  C   UNL A   1      36.063  23.665  25.096  1.00  0.00     0.039 A 
ATOM      7  C   UNL A   1      33.299  24.161  24.863  1.00  0.00    -0.019 A 
ATOM      8  C   UNL A   1      34.006  24.633  25.976  1.00  0.00     0.007 A 
ATOM      9  C   UNL A   1      34.000  23.491  23.856  1.00  0.00     0.007 A 
ATOM     10  C   UNL A   1      35.381  24.375  26.095  1.00  0.00     0.014 A 
ATOM     11  C   UNL A   1      35.362  23.292  23.957  1.00  0.00     0.014 A 
BRANCH   7  12
ATOM     12  C   UNL A   1      31.810  24.333  24.652  1.00  0.00     0.179 C 
ATOM     13  C   UNL A   1      29.314  27.215  23.880  1.00  0.00     0.065 C 
ATOM     14  C   UNL A   1      30.119  26.149  24.573  1.00  0.00     0.026 C 
ATOM     15  C   UNL A   1      31.347  25.717  24.182  1.00  0.00     0.065 C 
ATOM     16  N   UNL A   1      29.437  25.504  25.601  1.00  0.00    -0.328 N 
ATOM     17  C   UNL A   1      29.871  24.387  26.208  1.00  0.00     0.226 A 
ATOM     18  H   UNL A   1      28.582  25.891  25.901  1.00  0.00     0.169 HD
ATOM     19  N   UNL A   1      31.042  23.824  25.792  1.00  0.00    -0.219 N 
ATOM     20  N   UNL A   1      29.337  23.647  27.145  1.00  0.00    -0.200 NA
ATOM     21  N   UNL A   1      31.252  22.632  26.395  1.00  0.00    -0.157 NA
ATOM     22  C   UNL A   1      30.207  22.591  27.228  1.00  0.00     0.248 A 
BRANCH  15  23
ATOM     23  C   UNL A   1      32.197  26.283  23.091  1.00  0.00     0.255 C 
ATOM     24  O   UNL A   1      32.071  25.829  21.949  1.00  0.00    -0.269 OA
ATOM     25  N   UNL A   1      33.112  27.284  23.262  1.00  0.00    -0.322 N 
ATOM     26  H   UNL A   1      33.763  27.381  22.530  1.00  0.00     0.170 HD
BRANCH  25  27
ATOM     27  C   UNL A   1      33.266  28.192  24.313  1.00  0.00     0.041 A 
ATOM     28  C   UNL A   1      32.329  29.232  24.360  1.00  0.00     0.026 A 
ATOM     29  C   UNL A   1      34.210  28.054  25.327  1.00  0.00     0.026 A 
ATOM     30  C   UNL A   1      32.235  30.037  25.492  1.00  0.00     0.002 A 
ATOM     31  C   UNL A   1      34.149  28.903  26.438  1.00  0.00     0.002 A 
ATOM     32  C   UNL A   1      33.139  29.865  26.537  1.00  0.00     0.000 A 
ENDBRANCH  25  27
ENDBRANCH  15  23
ENDBRANCH   7  12
ENDBRANCH   3   6
ENDBRANCH   1   2
BRANCH   1  33
ATOM     33  C   UNL A   1      38.277  19.630  25.019  1.00  0.00     0.042 C 
BRANCH  33  34
ATOM     34  C   UNL A   1      39.349  19.918  26.044  1.00  0.00     0.118 C 
BRANCH  34  35
ATOM     35  N   UNL A   1      40.591  19.187  25.788  1.00  0.00    -0.352 N 
ATOM     36  C   UNL A   1      41.889  19.667  25.724  1.00  0.00     0.251 C 
ATOM     37  H   UNL A   1      40.489  18.218  25.642  1.00  0.00     0.163 HD
ATOM     38  O   UNL A   1      42.761  19.045  25.149  1.00  0.00    -0.269 OA
BRANCH  36  39
ATOM     39  C   UNL A   1      42.187  20.960  26.369  1.00  0.00     0.039 A 
ATOM     40  C   UNL A   1      42.520  22.103  25.641  1.00  0.00     0.014 A 
ATOM     41  C   UNL A   1      42.069  21.012  27.750  1.00  0.00     0.014 A 
ATOM     42  C   UNL A   1      42.671  23.301  26.335  1.00  0.00     0.010 A 
ATOM     43  C   UNL A   1      41.893  22.216  28.359  1.00  0.00     0.010 A 
ATOM     44  C   UNL A   1      42.338  23.341  27.700  1.00  0.00    -0.014 A 
BRANCH  44  45
ATOM     45  C   UNL A   1      42.414  24.554  28.490  1.00  0.00     0.031 A 
ATOM     46  C   UNL A   1      41.259  25.455  28.324  1.00  0.00     0.074 A 
ATOM     47  C   UNL A   1      43.344  24.760  29.447  1.00  0.00     0.049 A 
ATOM     48  N   UNL A   1      41.213  26.526  27.607  1.00  0.00    -0.248 NA
ATOM     49  C   UNL A   1      39.959  25.034  28.863  1.00  0.00     0.031 C 
ATOM     50  C   UNL A   1      44.346  23.837  29.999  1.00  0.00     0.029 A 
ATOM     51  N   UNL A   1      43.532  25.876  30.197  1.00  0.00    -0.354 N 
ATOM     52  C   UNL A   1      39.940  27.047  27.792  1.00  0.00     0.074 A 
ATOM     53  C   UNL A   1      39.160  25.988  28.380  1.00  0.00     0.031 C 
ATOM     54  C   UNL A   1      44.879  24.361  31.126  1.00  0.00     0.029 A 
ATOM     55  C   UNL A   1      44.397  25.721  31.271  1.00  0.00     0.049 A 
ATOM     56  H   UNL A   1      43.088  26.730  29.993  1.00  0.00     0.167 HD
ATOM     57  C   UNL A   1      39.723  28.387  27.687  1.00  0.00     0.037 A 
ATOM     58  C   UNL A   1      44.670  26.656  32.214  1.00  0.00     0.037 A 
ATOM     59  C   UNL A   1      40.858  29.043  27.072  1.00  0.00     0.049 A 
ATOM     60  C   UNL A   1      44.298  27.974  31.637  1.00  0.00     0.074 A 
ATOM     61  C   UNL A   1      41.523  28.906  25.868  1.00  0.00     0.029 A 
ATOM     62  N   UNL A   1      41.729  29.711  27.900  1.00  0.00    -0.354 N 
ATOM     63  N   UNL A   1      44.930  28.534  30.642  1.00  0.00    -0.248 NA
ATOM     64  C   UNL A   1      42.936  28.442  31.852  1.00  0.00     0.031 C 
ATOM     65  C   UNL A   1      42.907  29.044  26.193  1.00  0.00     0.029 A 
ATOM     66  C   UNL A   1      43.002  29.332  27.555  1.00  0.00     0.049 A 
ATOM     67  H   UNL A   1      41.485  30.347  28.611  1.00  0.00     0.167 HD
ATOM     68  C   UNL A   1      43.930  29.080  29.850  1.00  0.00     0.074 A 
ATOM     69  C   UNL A   1      42.732  29.068  30.689  1.00  0.00     0.031 C 
ATOM     70  C   UNL A   1      44.090  29.215  28.499  1.00  0.00     0.037 A 
BRANCH  57  71
ATOM     71  C   UNL A   1      38.696  29.156  28.480  1.00  0.00     0.057 A 
ATOM     72  C   UNL A   1      38.688  29.019  29.881  1.00  0.00     0.134 A 
ATOM     73  C   UNL A   1      37.555  29.779  27.936  1.00  0.00     0.134 A 
ATOM     74  F   UNL A   1      39.718  28.448  30.524  1.00  0.00    -0.206 F 
ATOM     75  C   UNL A   1      37.587  29.379  30.665  1.00  0.00     0.040 A 
ATOM     76  C   UNL A   1      36.472  30.191  28.717  1.00  0.00     0.040 A 
ATOM     77  F   UNL A   1      37.371  29.936  26.621  1.00  0.00    -0.206 F 
ATOM     78  C   UNL A   1      36.467  29.957  30.081  1.00  0.00     0.006 A 
ENDBRANCH  57  71
BRANCH  58  79
ATOM     79  C   UNL A   1      44.923  26.472  33.661  1.00  0.00     0.057 A 
ATOM     80  C   UNL A   1      43.891  26.086  34.527  1.00  0.00     0.134 A 
ATOM     81  C   UNL A   1      46.229  26.373  34.172  1.00  0.00     0.134 A 
ATOM     82  F   UNL A   1      42.614  26.115  34.121  1.00  0.00    -0.206 F 
ATOM     83  C   UNL A   1      44.144  25.586  35.812  1.00  0.00     0.040 A 
ATOM     84  C   UNL A   1      46.494  25.880  35.454  1.00  0.00     0.040 A 
ATOM     85  F   UNL A   1      47.295  26.658  33.411  1.00  0.00    -0.206 F 
ATOM     86  C   UNL A   1      45.451  25.466  36.273  1.00  0.00     0.006 A 
ENDBRANCH  58  79
BRANCH  70  87
ATOM     87  C   UNL A   1      45.466  28.996  27.927  1.00  0.00     0.057 A 
ATOM     88  C   UNL A   1      45.949  27.759  27.471  1.00  0.00     0.134 A 
ATOM     89  C   UNL A   1      46.279  30.111  27.695  1.00  0.00     0.134 A 
ATOM     90  F   UNL A   1      45.208  26.649  27.557  1.00  0.00    -0.206 F 
ATOM     91  C   UNL A   1      47.199  27.633  26.855  1.00  0.00     0.040 A 
ATOM     92  C   UNL A   1      47.515  30.004  27.050  1.00  0.00     0.040 A 
ATOM     93  F   UNL A   1      45.864  31.336  28.051  1.00  0.00    -0.206 F 
ATOM     94  C   UNL A   1      47.983  28.761  26.638  1.00  0.00     0.006 A 
ENDBRANCH  70  87
ENDBRANCH  44  45
ENDBRANCH  36  39
ENDBRANCH  34  35
ENDBRANCH  33  34
ENDBRANCH   1  33
TORSDOF 13
ENDMDL
MODEL 2
REMARK VINA RESULT:     -12.4      2.569      7.347
REMARK SMILES CC1=C(C(=O)Nc2ccccc2)[C@@H](c2ccc(C(=O)NCCCNC(=O)c3ccc(-c4c5nc(c(-c6c(F)cccc6F)c6ccc([nH]6)c(-c6c(F)cccc6F)c6nc(c(-c7c(F)cccc7F)c7ccc4[nH]7)C=C6)C=C5)cc3)cc2)n2ncnc2N1
REMARK SMILES IDX 21 1 20 2 18 3 19 4 17 6 14 7 15 8 82 9 16 10 81 11 13 12
REMARK SMILES IDX 1 13 2 14 3 15 88 16 87 17 83 19 86 20 84 21 85 22 4 23 5 24
REMARK SMILES IDX 6 25 7 27 8 28 12 29 9 30 11 31 10 32 22 33 23 34 24 35
REMARK SMILES IDX 25 36 26 38 27 39 28 40 80 41 29 42 79 43 30 44 31 45 32 46
REMARK SMILES IDX 73 47 33 48 78 49 72 50 74 51 34 52 77 53 71 54 70 55 35 57
REMARK SMILES IDX 61 58 44 59 60 60 45 61 48 62 59 63 75 64 46 65 47 66 58 68
REMARK SMILES IDX 76 69 49 70 36 71 37 72 42 73 38 74 39 75 41 76 43 77 40 78
REMARK SMILES IDX 62 79 63 80 68 81 64 82 65 83 67 84 69 85 66 86 50 87 51 88
REMARK SMILES IDX 56 89 52 90 53 91 55 92 57 93 54 94
REMARK H PARENT 20 5 88 18 6 26 24 37 74 56 48 67
REMARK Flexibility Score: inf
ROOT
ATOM      1  C   UNL A   1      34.120  29.302  26.372  1.00  0.00     0.118 C 
ENDROOT
BRANCH   1   2
ATOM      2  N   UNL A   1      33.250  29.529  25.222  1.00  0.00    -0.352 N 
ATOM      3  C   UNL A   1      32.820  28.680  24.223  1.00  0.00     0.251 C 
ATOM      4  O   UNL A   1      31.964  29.086  23.439  1.00  0.00    -0.269 OA
ATOM      5  H   UNL A   1      32.909  30.449  25.147  1.00  0.00     0.163 HD
BRANCH   3   6
ATOM      6  C   UNL A   1      33.332  27.290  24.084  1.00  0.00     0.039 A 
ATOM      7  C   UNL A   1      34.200  24.628  23.772  1.00  0.00    -0.019 A 
ATOM      8  C   UNL A   1      33.952  25.422  22.645  1.00  0.00     0.007 A 
ATOM      9  C   UNL A   1      34.061  25.198  25.041  1.00  0.00     0.007 A 
ATOM     10  C   UNL A   1      33.507  26.745  22.804  1.00  0.00     0.014 A 
ATOM     11  C   UNL A   1      33.679  26.517  25.184  1.00  0.00     0.014 A 
BRANCH   7  12
ATOM     12  C   UNL A   1      34.632  23.177  23.725  1.00  0.00     0.179 C 
ATOM     13  C   UNL A   1      33.013  19.666  24.151  1.00  0.00     0.065 C 
ATOM     14  C   UNL A   1      33.780  20.940  24.382  1.00  0.00     0.026 C 
ATOM     15  C   UNL A   1      33.510  22.134  23.791  1.00  0.00     0.065 C 
ATOM     16  N   UNL A   1      34.920  20.780  25.165  1.00  0.00    -0.328 N 
ATOM     17  C   UNL A   1      35.864  21.722  25.322  1.00  0.00     0.226 A 
ATOM     18  H   UNL A   1      35.042  19.921  25.633  1.00  0.00     0.169 HD
ATOM     19  N   UNL A   1      35.724  22.910  24.665  1.00  0.00    -0.219 N 
ATOM     20  N   UNL A   1      36.995  21.714  25.978  1.00  0.00    -0.200 NA
ATOM     21  N   UNL A   1      36.827  23.679  24.807  1.00  0.00    -0.157 NA
ATOM     22  C   UNL A   1      37.551  22.921  25.637  1.00  0.00     0.248 A 
BRANCH  15  23
ATOM     23  C   UNL A   1      32.347  22.463  22.911  1.00  0.00     0.255 C 
ATOM     24  O   UNL A   1      32.316  21.986  21.773  1.00  0.00    -0.269 OA
ATOM     25  N   UNL A   1      31.298  23.257  23.280  1.00  0.00    -0.322 N 
ATOM     26  H   UNL A   1      30.744  23.585  22.534  1.00  0.00     0.170 HD
BRANCH  25  27
ATOM     27  C   UNL A   1      30.888  23.675  24.548  1.00  0.00     0.041 A 
ATOM     28  C   UNL A   1      30.461  25.007  24.641  1.00  0.00     0.026 A 
ATOM     29  C   UNL A   1      30.796  22.833  25.652  1.00  0.00     0.026 A 
ATOM     30  C   UNL A   1      29.802  25.451  25.784  1.00  0.00     0.002 A 
ATOM     31  C   UNL A   1      30.185  23.301  26.821  1.00  0.00     0.002 A 
ATOM     32  C   UNL A   1      29.653  24.593  26.871  1.00  0.00     0.000 A 
ENDBRANCH  25  27
ENDBRANCH  15  23
ENDBRANCH   7  12
ENDBRANCH   3   6
ENDBRANCH   1   2
BRANCH   1  33
ATOM     33  C   UNL A   1      33.743  30.159  27.595  1.00  0.00     0.042 C 
BRANCH  33  34
ATOM     34  C   UNL A   1      34.446  31.495  27.641  1.00  0.00     0.118 C 
BRANCH  34  35
ATOM     35  N   UNL A   1      34.395  32.118  28.964  1.00  0.00    -0.352 N 
ATOM     36  C   UNL A   1      35.177  31.863  30.080  1.00  0.00     0.251 C 
ATOM     37  H   UNL A   1      33.711  32.818  29.078  1.00  0.00     0.163 HD
ATOM     38  O   UNL A   1      34.799  32.169  31.195  1.00  0.00    -0.269 OA
BRANCH  36  39
ATOM     39  C   UNL A   1      36.481  31.203  29.881  1.00  0.00     0.039 A 
ATOM     40  C   UNL A   1      37.659  31.919  29.662  1.00  0.00     0.014 A 
ATOM     41  C   UNL A   1      36.503  29.820  29.974  1.00  0.00     0.014 A 
ATOM     42  C   UNL A   1      38.855  31.208  29.599  1.00  0.00     0.010 A 
ATOM     43  C   UNL A   1      37.678  29.187  30.239  1.00  0.00     0.010 A 
ATOM     44  C   UNL A   1      38.847  29.837  29.906  1.00  0.00    -0.014 A 
BRANCH  44  45
ATOM     45  C   UNL A   1      40.051  29.030  29.917  1.00  0.00     0.031 A 
ATOM     46  C   UNL A   1      40.628  28.826  31.258  1.00  0.00     0.074 A 
ATOM     47  C   UNL A   1      40.498  28.348  28.840  1.00  0.00     0.049 A 
ATOM     48  N   UNL A   1      41.642  29.442  31.762  1.00  0.00    -0.248 NA
ATOM     49  C   UNL A   1      39.899  27.981  32.214  1.00  0.00     0.031 C 
ATOM     50  C   UNL A   1      39.866  28.140  27.529  1.00  0.00     0.029 A 
ATOM     51  N   UNL A   1      41.635  27.615  28.735  1.00  0.00    -0.354 N 
ATOM     52  C   UNL A   1      41.827  28.891  33.023  1.00  0.00     0.074 A 
ATOM     53  C   UNL A   1      40.613  28.176  33.325  1.00  0.00     0.031 C 
ATOM     54  C   UNL A   1      40.523  27.171  26.853  1.00  0.00     0.029 A 
ATOM     55  C   UNL A   1      41.719  26.824  27.597  1.00  0.00     0.049 A 
ATOM     56  H   UNL A   1      42.347  27.642  29.414  1.00  0.00     0.167 HD
ATOM     57  C   UNL A   1      43.067  28.858  33.584  1.00  0.00     0.037 A 
ATOM     58  C   UNL A   1      42.706  25.938  27.315  1.00  0.00     0.037 A 
ATOM     59  C   UNL A   1      43.980  29.717  32.861  1.00  0.00     0.049 A 
ATOM     60  C   UNL A   1      43.879  26.318  28.144  1.00  0.00     0.074 A 
ATOM     61  C   UNL A   1      44.000  31.062  32.540  1.00  0.00     0.029 A 
ATOM     62  N   UNL A   1      44.858  29.118  31.988  1.00  0.00    -0.354 N 
ATOM     63  N   UNL A   1      44.567  27.412  27.969  1.00  0.00    -0.248 NA
ATOM     64  C   UNL A   1      43.990  25.717  29.466  1.00  0.00     0.031 C 
ATOM     65  C   UNL A   1      44.487  31.115  31.199  1.00  0.00     0.029 A 
ATOM     66  C   UNL A   1      44.809  29.815  30.807  1.00  0.00     0.049 A 
ATOM     67  H   UNL A   1      45.421  28.333  32.177  1.00  0.00     0.167 HD
ATOM     68  C   UNL A   1      44.831  27.873  29.251  1.00  0.00     0.074 A 
ATOM     69  C   UNL A   1      44.528  26.744  30.130  1.00  0.00     0.031 C 
ATOM     70  C   UNL A   1      44.984  29.207  29.507  1.00  0.00     0.037 A 
BRANCH  57  71
ATOM     71  C   UNL A   1      43.562  27.774  34.510  1.00  0.00     0.057 A 
ATOM     72  C   UNL A   1      43.666  26.462  34.014  1.00  0.00     0.134 A 
ATOM     73  C   UNL A   1      43.661  27.891  35.911  1.00  0.00     0.134 A 
ATOM     74  F   UNL A   1      43.595  26.215  32.696  1.00  0.00    -0.206 F 
ATOM     75  C   UNL A   1      43.756  25.346  34.852  1.00  0.00     0.040 A 
ATOM     76  C   UNL A   1      43.804  26.787  36.754  1.00  0.00     0.040 A 
ATOM     77  F   UNL A   1      43.525  29.055  36.553  1.00  0.00    -0.206 F 
ATOM     78  C   UNL A   1      43.813  25.506  36.231  1.00  0.00     0.006 A 
ENDBRANCH  57  71
BRANCH  58  79
ATOM     79  C   UNL A   1      42.611  24.626  26.636  1.00  0.00     0.057 A 
ATOM     80  C   UNL A   1      43.349  24.364  25.473  1.00  0.00     0.134 A 
ATOM     81  C   UNL A   1      42.040  23.509  27.270  1.00  0.00     0.134 A 
ATOM     82  F   UNL A   1      43.957  25.360  24.813  1.00  0.00    -0.206 F 
ATOM     83  C   UNL A   1      43.547  23.062  24.993  1.00  0.00     0.040 A 
ATOM     84  C   UNL A   1      42.227  22.205  26.799  1.00  0.00     0.040 A 
ATOM     85  F   UNL A   1      41.365  23.636  28.421  1.00  0.00    -0.206 F 
ATOM     86  C   UNL A   1      42.999  21.976  25.667  1.00  0.00     0.006 A 
ENDBRANCH  58  79
BRANCH  70  87
ATOM     87  C   UNL A   1      45.112  30.141  28.332  1.00  0.00     0.057 A 
ATOM     88  C   UNL A   1      44.033  30.796  27.717  1.00  0.00     0.134 A 
ATOM     89  C   UNL A   1      46.393  30.502  27.902  1.00  0.00     0.134 A 
ATOM     90  F   UNL A   1      42.774  30.595  28.123  1.00  0.00    -0.206 F 
ATOM     91  C   UNL A   1      44.221  31.732  26.694  1.00  0.00     0.040 A 
ATOM     92  C   UNL A   1      46.596  31.459  26.904  1.00  0.00     0.040 A 
ATOM     93  F   UNL A   1      47.477  29.961  28.479  1.00  0.00    -0.206 F 
ATOM     94  C   UNL A   1      45.508  32.070  26.288  1.00  0.00     0.006 A 
ENDBRANCH  70  87
ENDBRANCH  44  45
ENDBRANCH  36  39
ENDBRANCH  34  35
ENDBRANCH  33  34
ENDBRANCH   1  33
TORSDOF 13
ENDMDL
MODEL 3
REMARK VINA RESULT:     -12.3      2.608      6.463
REMARK SMILES CC1=C(C(=O)Nc2ccccc2)[C@@H](c2ccc(C(=O)NCCCNC(=O)c3ccc(-c4c5nc(c(-c6c(F)cccc6F)c6ccc([nH]6)c(-c6c(F)cccc6F)c6nc(c(-c7c(F)cccc7F)c7ccc4[nH]7)C=C6)C=C5)cc3)cc2)n2ncnc2N1
REMARK SMILES IDX 21 1 20 2 18 3 19 4 17 6 14 7 15 8 82 9 16 10 81 11 13 12
REMARK SMILES IDX 1 13 2 14 3 15 88 16 87 17 83 19 86 20 84 21 85 22 4 23 5 24
REMARK SMILES IDX 6 25 7 27 8 28 12 29 9 30 11 31 10 32 22 33 23 34 24 35
REMARK SMILES IDX 25 36 26 38 27 39 28 40 80 41 29 42 79 43 30 44 31 45 32 46
REMARK SMILES IDX 73 47 33 48 78 49 72 50 74 51 34 52 77 53 71 54 70 55 35 57
REMARK SMILES IDX 61 58 44 59 60 60 45 61 48 62 59 63 75 64 46 65 47 66 58 68
REMARK SMILES IDX 76 69 49 70 36 71 37 72 42 73 38 74 39 75 41 76 43 77 40 78
REMARK SMILES IDX 62 79 63 80 68 81 64 82 65 83 67 84 69 85 66 86 50 87 51 88
REMARK SMILES IDX 56 89 52 90 53 91 55 92 57 93 54 94
REMARK H PARENT 20 5 88 18 6 26 24 37 74 56 48 67
REMARK Flexibility Score: inf
ROOT
ATOM      1  C   UNL A   1      35.562  22.008  24.647  1.00  0.00     0.118 C 
ENDROOT
BRANCH   1   2
ATOM      2  N   UNL A   1      35.004  21.427  25.865  1.00  0.00    -0.352 N 
ATOM      3  C   UNL A   1      34.007  21.869  26.711  1.00  0.00     0.251 C 
ATOM      4  O   UNL A   1      33.619  21.114  27.602  1.00  0.00    -0.269 OA
ATOM      5  H   UNL A   1      35.408  20.569  26.127  1.00  0.00     0.163 HD
BRANCH   3   6
ATOM      6  C   UNL A   1      33.370  23.205  26.562  1.00  0.00     0.039 A 
ATOM      7  C   UNL A   1      32.084  25.687  26.210  1.00  0.00    -0.019 A 
ATOM      8  C   UNL A   1      31.421  24.639  26.860  1.00  0.00     0.007 A 
ATOM      9  C   UNL A   1      33.404  25.492  25.792  1.00  0.00     0.007 A 
ATOM     10  C   UNL A   1      32.060  23.399  27.024  1.00  0.00     0.014 A 
ATOM     11  C   UNL A   1      34.042  24.287  26.009  1.00  0.00     0.014 A 
BRANCH   7  12
ATOM     12  C   UNL A   1      31.480  27.047  25.931  1.00  0.00     0.179 C 
ATOM     13  C   UNL A   1      29.708  28.874  22.989  1.00  0.00     0.065 C 
ATOM     14  C   UNL A   1      30.723  28.408  23.997  1.00  0.00     0.026 C 
ATOM     15  C   UNL A   1      30.720  27.193  24.607  1.00  0.00     0.065 C 
ATOM     16  N   UNL A   1      31.625  29.394  24.389  1.00  0.00    -0.328 N 
ATOM     17  C   UNL A   1      32.471  29.271  25.424  1.00  0.00     0.226 A 
ATOM     18  H   UNL A   1      31.642  30.234  23.875  1.00  0.00     0.169 HD
ATOM     19  N   UNL A   1      32.448  28.123  26.162  1.00  0.00    -0.219 N 
ATOM     20  N   UNL A   1      33.336  30.106  25.940  1.00  0.00    -0.200 NA
ATOM     21  N   UNL A   1      33.245  28.226  27.249  1.00  0.00    -0.157 NA
ATOM     22  C   UNL A   1      33.784  29.433  27.047  1.00  0.00     0.248 A 
BRANCH  15  23
ATOM     23  C   UNL A   1      29.812  26.042  24.319  1.00  0.00     0.255 C 
ATOM     24  O   UNL A   1      28.622  26.135  24.636  1.00  0.00    -0.269 OA
ATOM     25  N   UNL A   1      30.203  24.879  23.717  1.00  0.00    -0.322 N 
ATOM     26  H   UNL A   1      29.574  24.128  23.817  1.00  0.00     0.170 HD
BRANCH  25  27
ATOM     27  C   UNL A   1      31.355  24.590  22.981  1.00  0.00     0.041 A 
ATOM     28  C   UNL A   1      31.906  23.318  23.187  1.00  0.00     0.026 A 
ATOM     29  C   UNL A   1      31.896  25.439  22.019  1.00  0.00     0.026 A 
ATOM     30  C   UNL A   1      32.893  22.837  22.332  1.00  0.00     0.002 A 
ATOM     31  C   UNL A   1      32.929  24.972  21.198  1.00  0.00     0.002 A 
ATOM     32  C   UNL A   1      33.397  23.661  21.328  1.00  0.00     0.000 A 
ENDBRANCH  25  27
ENDBRANCH  15  23
ENDBRANCH   7  12
ENDBRANCH   3   6
ENDBRANCH   1   2
BRANCH   1  33
ATOM     33  C   UNL A   1      37.098  21.915  24.582  1.00  0.00     0.042 C 
BRANCH  33  34
ATOM     34  C   UNL A   1      37.802  22.728  25.643  1.00  0.00     0.118 C 
BRANCH  34  35
ATOM     35  N   UNL A   1      38.812  21.960  26.372  1.00  0.00    -0.352 N 
ATOM     36  C   UNL A   1      39.972  22.404  26.986  1.00  0.00     0.251 C 
ATOM     37  H   UNL A   1      38.643  20.991  26.436  1.00  0.00     0.163 HD
ATOM     38  O   UNL A   1      40.889  21.641  27.223  1.00  0.00    -0.269 OA
BRANCH  36  39
ATOM     39  C   UNL A   1      40.069  23.833  27.341  1.00  0.00     0.039 A 
ATOM     40  C   UNL A   1      38.972  24.694  27.290  1.00  0.00     0.014 A 
ATOM     41  C   UNL A   1      41.301  24.285  27.787  1.00  0.00     0.014 A 
ATOM     42  C   UNL A   1      39.141  25.997  27.754  1.00  0.00     0.010 A 
ATOM     43  C   UNL A   1      41.366  25.425  28.527  1.00  0.00     0.010 A 
ATOM     44  C   UNL A   1      40.347  26.342  28.385  1.00  0.00    -0.014 A 
BRANCH  44  45
ATOM     45  C   UNL A   1      40.591  27.657  28.944  1.00  0.00     0.031 A 
ATOM     46  C   UNL A   1      41.678  28.401  28.281  1.00  0.00     0.074 A 
ATOM     47  C   UNL A   1      39.777  28.244  29.847  1.00  0.00     0.049 A 
ATOM     48  N   UNL A   1      42.884  28.549  28.709  1.00  0.00    -0.248 NA
ATOM     49  C   UNL A   1      41.460  28.883  26.910  1.00  0.00     0.031 C 
ATOM     50  C   UNL A   1      38.466  27.811  30.353  1.00  0.00     0.029 A 
ATOM     51  N   UNL A   1      39.948  29.439  30.468  1.00  0.00    -0.354 N 
ATOM     52  C   UNL A   1      43.521  29.347  27.769  1.00  0.00     0.074 A 
ATOM     53  C   UNL A   1      42.679  29.331  26.600  1.00  0.00     0.031 C 
ATOM     54  C   UNL A   1      37.878  28.826  31.027  1.00  0.00     0.029 A 
ATOM     55  C   UNL A   1      38.838  29.905  31.158  1.00  0.00     0.049 A 
ATOM     56  H   UNL A   1      40.797  29.937  30.430  1.00  0.00     0.167 HD
ATOM     57  C   UNL A   1      44.550  30.159  28.139  1.00  0.00     0.037 A 
ATOM     58  C   UNL A   1      38.732  31.108  31.774  1.00  0.00     0.037 A 
ATOM     59  C   UNL A   1      45.027  29.810  29.461  1.00  0.00     0.049 A 
ATOM     60  C   UNL A   1      40.115  31.599  32.008  1.00  0.00     0.074 A 
ATOM     61  C   UNL A   1      45.531  28.660  30.039  1.00  0.00     0.029 A 
ATOM     62  N   UNL A   1      44.626  30.604  30.510  1.00  0.00    -0.354 N 
ATOM     63  N   UNL A   1      40.949  31.044  32.843  1.00  0.00    -0.248 NA
ATOM     64  C   UNL A   1      40.725  32.410  30.963  1.00  0.00     0.031 C 
ATOM     65  C   UNL A   1      44.950  28.617  31.343  1.00  0.00     0.029 A 
ATOM     66  C   UNL A   1      44.191  29.775  31.514  1.00  0.00     0.049 A 
ATOM     67  H   UNL A   1      44.647  31.588  30.537  1.00  0.00     0.167 HD
ATOM     68  C   UNL A   1      42.173  31.065  32.187  1.00  0.00     0.074 A 
ATOM     69  C   UNL A   1      41.990  31.995  31.073  1.00  0.00     0.031 C 
ATOM     70  C   UNL A   1      43.120  30.109  32.426  1.00  0.00     0.037 A 
BRANCH  57  71
ATOM     71  C   UNL A   1      44.860  31.495  27.511  1.00  0.00     0.057 A 
ATOM     72  C   UNL A   1      46.070  31.642  26.807  1.00  0.00     0.134 A 
ATOM     73  C   UNL A   1      44.189  32.699  27.801  1.00  0.00     0.134 A 
ATOM     74  F   UNL A   1      46.803  30.572  26.464  1.00  0.00    -0.206 F 
ATOM     75  C   UNL A   1      46.619  32.894  26.509  1.00  0.00     0.040 A 
ATOM     76  C   UNL A   1      44.703  33.953  27.461  1.00  0.00     0.040 A 
ATOM     77  F   UNL A   1      43.058  32.747  28.512  1.00  0.00    -0.206 F 
ATOM     78  C   UNL A   1      45.939  34.057  26.847  1.00  0.00     0.006 A 
ENDBRANCH  57  71
BRANCH  58  79
ATOM     79  C   UNL A   1      37.551  31.993  31.887  1.00  0.00     0.057 A 
ATOM     80  C   UNL A   1      37.001  32.606  30.752  1.00  0.00     0.134 A 
ATOM     81  C   UNL A   1      36.758  32.019  33.048  1.00  0.00     0.134 A 
ATOM     82  F   UNL A   1      37.667  32.607  29.589  1.00  0.00    -0.206 F 
ATOM     83  C   UNL A   1      35.717  33.170  30.757  1.00  0.00     0.040 A 
ATOM     84  C   UNL A   1      35.478  32.582  33.067  1.00  0.00     0.040 A 
ATOM     85  F   UNL A   1      37.160  31.411  34.174  1.00  0.00    -0.206 F 
ATOM     86  C   UNL A   1      34.945  33.143  31.914  1.00  0.00     0.006 A 
ENDBRANCH  58  79
BRANCH  70  87
ATOM     87  C   UNL A   1      42.911  29.185  33.596  1.00  0.00     0.057 A 
ATOM     88  C   UNL A   1      43.259  29.490  34.922  1.00  0.00     0.134 A 
ATOM     89  C   UNL A   1      42.198  27.999  33.392  1.00  0.00     0.134 A 
ATOM     90  F   UNL A   1      43.855  30.646  35.236  1.00  0.00    -0.206 F 
ATOM     91  C   UNL A   1      42.949  28.635  35.985  1.00  0.00     0.040 A 
ATOM     92  C   UNL A   1      41.853  27.151  34.449  1.00  0.00     0.040 A 
ATOM     93  F   UNL A   1      41.783  27.663  32.161  1.00  0.00    -0.206 F 
ATOM     94  C   UNL A   1      42.238  27.463  35.749  1.00  0.00     0.006 A 
ENDBRANCH  70  87
ENDBRANCH  44  45
ENDBRANCH  36  39
ENDBRANCH  34  35
ENDBRANCH  33  34
ENDBRANCH   1  33
TORSDOF 13
ENDMDL
