MODEL 1
REMARK VINA RESULT:     -13.1      0.000      0.000
REMARK SMILES COc1cccc([C@@H]2[NH2+][C@@](C)(C(=O)NCCCNC(=O)c3ccc(-c4c5nc(c(-c6c(F)cccc6F)c6ccc([nH]6)c(-c6c(F)cccc6F)c6nc(c(-c7c(F)cccc7F)c7ccc4[nH]7)C=C6)C=C5)cc3)[C@@H]3C(=O)N(C)C(=O)[C@@H]32)c1O
REMARK SMILES IDX 16 1 15 2 14 3 12 4 13 5 10 7 8 8 9 9 82 10 75 13 80 14
REMARK SMILES IDX 11 15 76 16 78 17 81 18 77 19 79 20 7 21 3 22 4 23 83 24
REMARK SMILES IDX 5 25 6 26 2 27 1 28 84 29 17 31 18 32 19 33 20 35 21 36
REMARK SMILES IDX 22 37 74 38 23 39 73 40 24 41 25 42 26 43 67 44 27 45 72 46
REMARK SMILES IDX 66 47 68 48 28 49 71 50 65 51 64 52 29 54 55 55 38 56 54 57
REMARK SMILES IDX 39 58 42 59 53 60 69 61 40 62 41 63 52 65 70 66 43 67 30 68
REMARK SMILES IDX 31 69 36 70 32 71 33 72 35 73 37 74 34 75 56 76 57 77 62 78
REMARK SMILES IDX 58 79 59 80 61 81 63 82 60 83 44 84 45 85 50 86 46 87 47 88
REMARK SMILES IDX 49 89 51 90 48 91
REMARK H PARENT 14 6 9 11 9 12 84 30 18 34 68 53 42 64
REMARK Flexibility Score: inf
ROOT
ATOM      1  C   UNL A   1      32.234  27.998  27.263  1.00  0.00     0.042 C 
ENDROOT
BRANCH   1   2
ATOM      2  C   UNL A   1      32.047  26.839  26.297  1.00  0.00     0.118 C 
BRANCH   2   3
ATOM      3  N   UNL A   1      31.346  25.719  26.897  1.00  0.00    -0.351 N 
ATOM      4  C   UNL A   1      31.159  24.449  26.440  1.00  0.00     0.281 C 
ATOM      5  O   UNL A   1      30.448  23.716  27.135  1.00  0.00    -0.268 OA
ATOM      6  H   UNL A   1      30.940  25.907  27.774  1.00  0.00     0.163 HD
BRANCH   4   7
ATOM      7  C   UNL A   1      31.805  23.947  25.109  1.00  0.00     0.185 C 
ATOM      8  C   UNL A   1      32.261  21.641  25.570  1.00  0.00     0.232 C 
ATOM      9  N   UNL A   1      31.336  22.557  24.849  1.00  0.00    -0.326 N 
ATOM     10  C   UNL A   1      33.511  22.446  25.961  1.00  0.00     0.161 C 
ATOM     11  H   UNL A   1      30.384  22.439  25.196  1.00  0.00     0.347 HD
ATOM     12  H   UNL A   1      31.332  22.357  23.849  1.00  0.00     0.347 HD
ATOM     13  C   UNL A   1      33.316  23.814  25.322  1.00  0.00     0.169 C 
ATOM     14  C   UNL A   1      34.825  21.987  25.389  1.00  0.00     0.239 C 
ATOM     15  C   UNL A   1      31.462  24.923  23.975  1.00  0.00     0.091 C 
ATOM     16  C   UNL A   1      34.210  23.761  24.108  1.00  0.00     0.240 C 
ATOM     17  N   UNL A   1      35.105  22.744  24.285  1.00  0.00    -0.285 N 
ATOM     18  O   UNL A   1      35.507  21.081  25.835  1.00  0.00    -0.274 OA
ATOM     19  O   UNL A   1      34.196  24.540  23.167  1.00  0.00    -0.274 OA
ATOM     20  C   UNL A   1      36.220  22.490  23.409  1.00  0.00     0.156 C 
BRANCH   8  21
ATOM     21  C   UNL A   1      32.536  20.336  24.829  1.00  0.00     0.056 A 
ATOM     22  C   UNL A   1      32.884  17.906  24.787  1.00  0.00     0.161 A 
ATOM     23  C   UNL A   1      32.711  17.938  23.395  1.00  0.00     0.050 A 
ATOM     24  C   UNL A   1      32.817  19.116  25.494  1.00  0.00     0.166 A 
ATOM     25  C   UNL A   1      32.470  19.132  22.719  1.00  0.00     0.005 A 
ATOM     26  C   UNL A   1      32.377  20.323  23.433  1.00  0.00     0.014 A 
BRANCH  22  27
ATOM     27  O   UNL A   1      33.158  16.647  25.237  1.00  0.00    -0.493 OA
ATOM     28  C   UNL A   1      34.486  16.159  25.248  1.00  0.00     0.278 C 
ENDBRANCH  22  27
BRANCH  24  29
ATOM     29  O   UNL A   1      33.038  19.234  26.839  1.00  0.00    -0.504 OA
ATOM     30  H   UNL A   1      32.867  18.508  27.407  1.00  0.00     0.293 HD
ENDBRANCH  24  29
ENDBRANCH   8  21
ENDBRANCH   4   7
ENDBRANCH   2   3
ENDBRANCH   1   2
BRANCH   1  31
ATOM     31  C   UNL A   1      33.632  28.602  27.268  1.00  0.00     0.118 C 
BRANCH  31  32
ATOM     32  N   UNL A   1      33.662  29.981  27.733  1.00  0.00    -0.352 N 
ATOM     33  C   UNL A   1      34.658  30.695  28.354  1.00  0.00     0.251 C 
ATOM     34  H   UNL A   1      32.832  30.486  27.576  1.00  0.00     0.163 HD
ATOM     35  O   UNL A   1      34.407  31.810  28.805  1.00  0.00    -0.269 OA
BRANCH  33  36
ATOM     36  C   UNL A   1      36.015  30.127  28.516  1.00  0.00     0.039 A 
ATOM     37  C   UNL A   1      36.903  30.205  27.438  1.00  0.00     0.014 A 
ATOM     38  C   UNL A   1      36.418  29.510  29.702  1.00  0.00     0.014 A 
ATOM     39  C   UNL A   1      38.210  29.736  27.581  1.00  0.00     0.010 A 
ATOM     40  C   UNL A   1      37.749  29.135  29.876  1.00  0.00     0.010 A 
ATOM     41  C   UNL A   1      38.660  29.244  28.818  1.00  0.00    -0.014 A 
BRANCH  41  42
ATOM     42  C   UNL A   1      40.086  28.869  29.010  1.00  0.00     0.031 A 
ATOM     43  C   UNL A   1      41.056  29.821  29.657  1.00  0.00     0.074 A 
ATOM     44  C   UNL A   1      40.516  27.673  28.562  1.00  0.00     0.049 A 
ATOM     45  N   UNL A   1      42.328  29.649  29.919  1.00  0.00    -0.248 NA
ATOM     46  C   UNL A   1      40.540  31.145  30.037  1.00  0.00     0.031 C 
ATOM     47  C   UNL A   1      39.692  26.690  27.854  1.00  0.00     0.029 A 
ATOM     48  N   UNL A   1      41.749  27.077  28.638  1.00  0.00    -0.354 N 
ATOM     49  C   UNL A   1      42.762  30.840  30.489  1.00  0.00     0.074 A 
ATOM     50  C   UNL A   1      41.635  31.748  30.476  1.00  0.00     0.031 C 
ATOM     51  C   UNL A   1      40.430  25.598  27.602  1.00  0.00     0.029 A 
ATOM     52  C   UNL A   1      41.786  25.817  28.092  1.00  0.00     0.049 A 
ATOM     53  H   UNL A   1      42.534  27.512  29.044  1.00  0.00     0.167 HD
ATOM     54  C   UNL A   1      43.980  31.143  31.000  1.00  0.00     0.037 A 
ATOM     55  C   UNL A   1      42.798  24.934  27.998  1.00  0.00     0.037 A 
ATOM     56  C   UNL A   1      45.097  30.234  31.020  1.00  0.00     0.049 A 
ATOM     57  C   UNL A   1      44.137  25.293  28.576  1.00  0.00     0.074 A 
ATOM     58  C   UNL A   1      46.354  30.425  31.567  1.00  0.00     0.029 A 
ATOM     59  N   UNL A   1      45.095  28.964  30.462  1.00  0.00    -0.354 N 
ATOM     60  N   UNL A   1      44.509  26.392  29.188  1.00  0.00    -0.248 NA
ATOM     61  C   UNL A   1      45.196  24.282  28.462  1.00  0.00     0.031 C 
ATOM     62  C   UNL A   1      47.129  29.292  31.293  1.00  0.00     0.029 A 
ATOM     63  C   UNL A   1      46.337  28.370  30.628  1.00  0.00     0.049 A 
ATOM     64  H   UNL A   1      44.325  28.546  30.014  1.00  0.00     0.167 HD
ATOM     65  C   UNL A   1      45.835  26.196  29.549  1.00  0.00     0.074 A 
ATOM     66  C   UNL A   1      46.193  24.861  29.115  1.00  0.00     0.031 C 
ATOM     67  C   UNL A   1      46.684  27.045  30.179  1.00  0.00     0.037 A 
BRANCH  54  68
ATOM     68  C   UNL A   1      44.167  32.515  31.583  1.00  0.00     0.057 A 
ATOM     69  C   UNL A   1      44.615  33.595  30.809  1.00  0.00     0.134 A 
ATOM     70  C   UNL A   1      43.860  32.770  32.926  1.00  0.00     0.134 A 
ATOM     71  F   UNL A   1      44.938  33.419  29.519  1.00  0.00    -0.206 F 
ATOM     72  C   UNL A   1      44.775  34.870  31.354  1.00  0.00     0.040 A 
ATOM     73  C   UNL A   1      43.987  34.048  33.475  1.00  0.00     0.040 A 
ATOM     74  F   UNL A   1      43.420  31.786  33.724  1.00  0.00    -0.206 F 
ATOM     75  C   UNL A   1      44.452  35.101  32.690  1.00  0.00     0.006 A 
ENDBRANCH  54  68
BRANCH  55  76
ATOM     76  C   UNL A   1      42.577  23.612  27.358  1.00  0.00     0.057 A 
ATOM     77  C   UNL A   1      42.204  22.493  28.112  1.00  0.00     0.134 A 
ATOM     78  C   UNL A   1      42.745  23.431  25.979  1.00  0.00     0.134 A 
ATOM     79  F   UNL A   1      42.044  22.597  29.440  1.00  0.00    -0.206 F 
ATOM     80  C   UNL A   1      42.032  21.238  27.525  1.00  0.00     0.040 A 
ATOM     81  C   UNL A   1      42.547  22.190  25.374  1.00  0.00     0.040 A 
ATOM     82  F   UNL A   1      43.093  24.465  25.198  1.00  0.00    -0.206 F 
ATOM     83  C   UNL A   1      42.199  21.086  26.150  1.00  0.00     0.006 A 
ENDBRANCH  55  76
BRANCH  67  84
ATOM     84  C   UNL A   1      48.072  26.538  30.453  1.00  0.00     0.057 A 
ATOM     85  C   UNL A   1      49.119  26.712  29.536  1.00  0.00     0.134 A 
ATOM     86  C   UNL A   1      48.364  25.862  31.645  1.00  0.00     0.134 A 
ATOM     87  F   UNL A   1      48.905  27.339  28.371  1.00  0.00    -0.206 F 
ATOM     88  C   UNL A   1      50.392  26.192  29.776  1.00  0.00     0.040 A 
ATOM     89  C   UNL A   1      49.642  25.368  31.910  1.00  0.00     0.040 A 
ATOM     90  F   UNL A   1      47.413  25.671  32.572  1.00  0.00    -0.206 F 
ATOM     91  C   UNL A   1      50.656  25.520  30.968  1.00  0.00     0.006 A 
ENDBRANCH  67  84
ENDBRANCH  41  42
ENDBRANCH  33  36
ENDBRANCH  31  32
ENDBRANCH   1  31
TORSDOF 13
ENDMDL
MODEL 2
REMARK VINA RESULT:     -12.9      0.691      6.151
REMARK SMILES COc1cccc([C@@H]2[NH2+][C@@](C)(C(=O)NCCCNC(=O)c3ccc(-c4c5nc(c(-c6c(F)cccc6F)c6ccc([nH]6)c(-c6c(F)cccc6F)c6nc(c(-c7c(F)cccc7F)c7ccc4[nH]7)C=C6)C=C5)cc3)[C@@H]3C(=O)N(C)C(=O)[C@@H]32)c1O
REMARK SMILES IDX 16 1 15 2 14 3 12 4 13 5 10 7 8 8 9 9 82 10 75 13 80 14
REMARK SMILES IDX 11 15 76 16 78 17 81 18 77 19 79 20 7 21 3 22 4 23 83 24
REMARK SMILES IDX 5 25 6 26 2 27 1 28 84 29 17 31 18 32 19 33 20 35 21 36
REMARK SMILES IDX 22 37 74 38 23 39 73 40 24 41 25 42 26 43 67 44 27 45 72 46
REMARK SMILES IDX 66 47 68 48 28 49 71 50 65 51 64 52 29 54 55 55 38 56 54 57
REMARK SMILES IDX 39 58 42 59 53 60 69 61 40 62 41 63 52 65 70 66 43 67 30 68
REMARK SMILES IDX 31 69 36 70 32 71 33 72 35 73 37 74 34 75 56 76 57 77 62 78
REMARK SMILES IDX 58 79 59 80 61 81 63 82 60 83 44 84 45 85 50 86 46 87 47 88
REMARK SMILES IDX 49 89 51 90 48 91
REMARK H PARENT 14 6 9 11 9 12 84 30 18 34 68 53 42 64
REMARK Flexibility Score: inf
ROOT
ATOM      1  C   UNL A   1      32.479  28.185  27.152  1.00  0.00     0.042 C 
ENDROOT
BRANCH   1   2
ATOM      2  C   UNL A   1      32.336  26.993  26.218  1.00  0.00     0.118 C 
BRANCH   2   3
ATOM      3  N   UNL A   1      31.402  26.001  26.717  1.00  0.00    -0.351 N 
ATOM      4  C   UNL A   1      31.034  24.797  26.197  1.00  0.00     0.281 C 
ATOM      5  O   UNL A   1      30.149  24.185  26.805  1.00  0.00    -0.268 OA
ATOM      6  H   UNL A   1      30.965  26.236  27.568  1.00  0.00     0.163 HD
BRANCH   4   7
ATOM      7  C   UNL A   1      31.688  24.223  24.900  1.00  0.00     0.185 C 
ATOM      8  C   UNL A   1      32.229  21.974  25.522  1.00  0.00     0.232 C 
ATOM      9  N   UNL A   1      31.267  22.802  24.745  1.00  0.00    -0.326 N 
ATOM     10  C   UNL A   1      33.451  22.847  25.844  1.00  0.00     0.161 C 
ATOM     11  H   UNL A   1      30.323  22.676  25.108  1.00  0.00     0.347 HD
ATOM     12  H   UNL A   1      31.264  22.529  23.762  1.00  0.00     0.347 HD
ATOM     13  C   UNL A   1      33.204  24.158  25.109  1.00  0.00     0.169 C 
ATOM     14  C   UNL A   1      34.778  22.395  25.295  1.00  0.00     0.239 C 
ATOM     15  C   UNL A   1      31.305  25.102  23.702  1.00  0.00     0.091 C 
ATOM     16  C   UNL A   1      34.093  24.048  23.895  1.00  0.00     0.240 C 
ATOM     17  N   UNL A   1      35.024  23.079  24.137  1.00  0.00    -0.285 N 
ATOM     18  O   UNL A   1      35.494  21.548  25.800  1.00  0.00    -0.274 OA
ATOM     19  O   UNL A   1      34.045  24.757  22.900  1.00  0.00    -0.274 OA
ATOM     20  C   UNL A   1      36.142  22.801  23.272  1.00  0.00     0.156 C 
BRANCH   8  21
ATOM     21  C   UNL A   1      32.546  20.629  24.876  1.00  0.00     0.056 A 
ATOM     22  C   UNL A   1      33.013  18.222  25.009  1.00  0.00     0.161 A 
ATOM     23  C   UNL A   1      32.795  18.136  23.626  1.00  0.00     0.050 A 
ATOM     24  C   UNL A   1      32.909  19.480  25.622  1.00  0.00     0.166 A 
ATOM     25  C   UNL A   1      32.473  19.260  22.869  1.00  0.00     0.005 A 
ATOM     26  C   UNL A   1      32.343  20.497  23.491  1.00  0.00     0.014 A 
BRANCH  22  27
ATOM     27  O   UNL A   1      33.365  17.017  25.545  1.00  0.00    -0.493 OA
ATOM     28  C   UNL A   1      32.779  15.819  25.072  1.00  0.00     0.278 C 
ENDBRANCH  22  27
BRANCH  24  29
ATOM     29  O   UNL A   1      33.166  19.714  26.946  1.00  0.00    -0.504 OA
ATOM     30  H   UNL A   1      32.572  20.232  27.454  1.00  0.00     0.293 HD
ENDBRANCH  24  29
ENDBRANCH   8  21
ENDBRANCH   4   7
ENDBRANCH   2   3
ENDBRANCH   1   2
BRANCH   1  31
ATOM     31  C   UNL A   1      33.894  28.738  27.264  1.00  0.00     0.118 C 
BRANCH  31  32
ATOM     32  N   UNL A   1      33.947  30.070  27.849  1.00  0.00    -0.352 N 
ATOM     33  C   UNL A   1      34.957  30.714  28.520  1.00  0.00     0.251 C 
ATOM     34  H   UNL A   1      33.122  30.598  27.744  1.00  0.00     0.163 HD
ATOM     35  O   UNL A   1      34.725  31.788  29.070  1.00  0.00    -0.269 OA
BRANCH  33  36
ATOM     36  C   UNL A   1      36.308  30.117  28.618  1.00  0.00     0.039 A 
ATOM     37  C   UNL A   1      37.166  30.228  27.521  1.00  0.00     0.014 A 
ATOM     38  C   UNL A   1      36.732  29.441  29.764  1.00  0.00     0.014 A 
ATOM     39  C   UNL A   1      38.468  29.731  27.606  1.00  0.00     0.010 A 
ATOM     40  C   UNL A   1      38.060  29.037  29.885  1.00  0.00     0.010 A 
ATOM     41  C   UNL A   1      38.944  29.177  28.807  1.00  0.00    -0.014 A 
BRANCH  41  42
ATOM     42  C   UNL A   1      40.367  28.771  28.942  1.00  0.00     0.031 A 
ATOM     43  C   UNL A   1      40.824  27.398  28.529  1.00  0.00     0.074 A 
ATOM     44  C   UNL A   1      41.248  29.639  29.478  1.00  0.00     0.049 A 
ATOM     45  N   UNL A   1      42.029  26.886  28.561  1.00  0.00    -0.248 NA
ATOM     46  C   UNL A   1      39.793  26.470  28.040  1.00  0.00     0.031 C 
ATOM     47  C   UNL A   1      40.919  30.974  29.984  1.00  0.00     0.029 A 
ATOM     48  N   UNL A   1      42.601  29.532  29.685  1.00  0.00    -0.354 N 
ATOM     49  C   UNL A   1      41.899  25.580  28.102  1.00  0.00     0.074 A 
ATOM     50  C   UNL A   1      40.490  25.358  27.859  1.00  0.00     0.031 C 
ATOM     51  C   UNL A   1      42.044  31.577  30.398  1.00  0.00     0.029 A 
ATOM     52  C   UNL A   1      43.165  30.661  30.227  1.00  0.00     0.049 A 
ATOM     53  H   UNL A   1      43.117  28.724  29.465  1.00  0.00     0.167 HD
ATOM     54  C   UNL A   1      42.867  24.658  27.879  1.00  0.00     0.037 A 
ATOM     55  C   UNL A   1      44.445  30.931  30.548  1.00  0.00     0.037 A 
ATOM     56  C   UNL A   1      44.270  24.885  28.113  1.00  0.00     0.049 A 
ATOM     57  C   UNL A   1      45.499  29.893  30.287  1.00  0.00     0.074 A 
ATOM     58  C   UNL A   1      45.334  24.036  27.864  1.00  0.00     0.029 A 
ATOM     59  N   UNL A   1      44.805  26.043  28.659  1.00  0.00    -0.354 N 
ATOM     60  N   UNL A   1      45.371  28.693  29.772  1.00  0.00    -0.248 NA
ATOM     61  C   UNL A   1      46.878  30.251  30.640  1.00  0.00     0.031 C 
ATOM     62  C   UNL A   1      46.506  24.659  28.308  1.00  0.00     0.029 A 
ATOM     63  C   UNL A   1      46.180  25.920  28.779  1.00  0.00     0.049 A 
ATOM     64  H   UNL A   1      44.284  26.835  28.922  1.00  0.00     0.167 HD
ATOM     65  C   UNL A   1      46.653  28.164  29.721  1.00  0.00     0.074 A 
ATOM     66  C   UNL A   1      47.547  29.185  30.227  1.00  0.00     0.031 C 
ATOM     67  C   UNL A   1      47.057  26.940  29.297  1.00  0.00     0.037 A 
BRANCH  54  68
ATOM     68  C   UNL A   1      42.440  23.318  27.350  1.00  0.00     0.057 A 
ATOM     69  C   UNL A   1      42.502  23.007  25.984  1.00  0.00     0.134 A 
ATOM     70  C   UNL A   1      41.996  22.313  28.219  1.00  0.00     0.134 A 
ATOM     71  F   UNL A   1      42.906  23.926  25.095  1.00  0.00    -0.206 F 
ATOM     72  C   UNL A   1      42.115  21.756  25.500  1.00  0.00     0.040 A 
ATOM     73  C   UNL A   1      41.636  21.048  27.750  1.00  0.00     0.040 A 
ATOM     74  F   UNL A   1      41.917  22.538  29.538  1.00  0.00    -0.206 F 
ATOM     75  C   UNL A   1      41.688  20.769  26.386  1.00  0.00     0.006 A 
ENDBRANCH  54  68
BRANCH  55  76
ATOM     76  C   UNL A   1      44.806  32.251  31.125  1.00  0.00     0.057 A 
ATOM     77  C   UNL A   1      45.204  33.316  30.308  1.00  0.00     0.134 A 
ATOM     78  C   UNL A   1      44.775  32.478  32.507  1.00  0.00     0.134 A 
ATOM     79  F   UNL A   1      45.271  33.157  28.978  1.00  0.00    -0.206 F 
ATOM     80  C   UNL A   1      45.582  34.548  30.843  1.00  0.00     0.040 A 
ATOM     81  C   UNL A   1      45.122  33.713  33.054  1.00  0.00     0.040 A 
ATOM     82  F   UNL A   1      44.395  31.502  33.345  1.00  0.00    -0.206 F 
ATOM     83  C   UNL A   1      45.537  34.750  32.221  1.00  0.00     0.006 A 
ENDBRANCH  55  76
BRANCH  67  84
ATOM     84  C   UNL A   1      48.532  26.658  29.345  1.00  0.00     0.057 A 
ATOM     85  C   UNL A   1      49.130  26.023  30.443  1.00  0.00     0.134 A 
ATOM     86  C   UNL A   1      49.366  27.031  28.283  1.00  0.00     0.134 A 
ATOM     87  F   UNL A   1      48.392  25.650  31.498  1.00  0.00    -0.206 F 
ATOM     88  C   UNL A   1      50.509  25.812  30.501  1.00  0.00     0.040 A 
ATOM     89  C   UNL A   1      50.741  26.794  28.316  1.00  0.00     0.040 A 
ATOM     90  F   UNL A   1      48.859  27.632  27.195  1.00  0.00    -0.206 F 
ATOM     91  C   UNL A   1      51.318  26.196  29.434  1.00  0.00     0.006 A 
ENDBRANCH  67  84
ENDBRANCH  41  42
ENDBRANCH  33  36
ENDBRANCH  31  32
ENDBRANCH   1  31
TORSDOF 13
ENDMDL
MODEL 3
REMARK VINA RESULT:     -12.8      4.241      9.178
REMARK SMILES COc1cccc([C@@H]2[NH2+][C@@](C)(C(=O)NCCCNC(=O)c3ccc(-c4c5nc(c(-c6c(F)cccc6F)c6ccc([nH]6)c(-c6c(F)cccc6F)c6nc(c(-c7c(F)cccc7F)c7ccc4[nH]7)C=C6)C=C5)cc3)[C@@H]3C(=O)N(C)C(=O)[C@@H]32)c1O
REMARK SMILES IDX 16 1 15 2 14 3 12 4 13 5 10 7 8 8 9 9 82 10 75 13 80 14
REMARK SMILES IDX 11 15 76 16 78 17 81 18 77 19 79 20 7 21 3 22 4 23 83 24
REMARK SMILES IDX 5 25 6 26 2 27 1 28 84 29 17 31 18 32 19 33 20 35 21 36
REMARK SMILES IDX 22 37 74 38 23 39 73 40 24 41 25 42 26 43 67 44 27 45 72 46
REMARK SMILES IDX 66 47 68 48 28 49 71 50 65 51 64 52 29 54 55 55 38 56 54 57
REMARK SMILES IDX 39 58 42 59 53 60 69 61 40 62 41 63 52 65 70 66 43 67 30 68
REMARK SMILES IDX 31 69 36 70 32 71 33 72 35 73 37 74 34 75 56 76 57 77 62 78
REMARK SMILES IDX 58 79 59 80 61 81 63 82 60 83 44 84 45 85 50 86 46 87 47 88
REMARK SMILES IDX 49 89 51 90 48 91
REMARK H PARENT 14 6 9 11 9 12 84 30 18 34 68 53 42 64
REMARK Flexibility Score: inf
ROOT
ATOM      1  C   UNL A   1      36.717  23.491  24.816  1.00  0.00     0.042 C 
ENDROOT
BRANCH   1   2
ATOM      2  C   UNL A   1      35.293  24.016  24.733  1.00  0.00     0.118 C 
BRANCH   2   3
ATOM      3  N   UNL A   1      34.823  24.143  23.365  1.00  0.00    -0.351 N 
ATOM      4  C   UNL A   1      33.595  24.480  22.883  1.00  0.00     0.281 C 
ATOM      5  O   UNL A   1      33.456  24.436  21.656  1.00  0.00    -0.268 OA
ATOM      6  H   UNL A   1      35.500  23.953  22.676  1.00  0.00     0.163 HD
BRANCH   4   7
ATOM      7  C   UNL A   1      32.422  24.897  23.828  1.00  0.00     0.185 C 
ATOM      8  C   UNL A   1      31.709  26.991  22.908  1.00  0.00     0.232 C 
ATOM      9  N   UNL A   1      31.361  25.547  23.009  1.00  0.00    -0.326 N 
ATOM     10  C   UNL A   1      32.776  27.294  23.973  1.00  0.00     0.161 C 
ATOM     11  H   UNL A   1      31.331  25.128  22.080  1.00  0.00     0.347 HD
ATOM     12  H   UNL A   1      30.444  25.424  23.439  1.00  0.00     0.347 HD
ATOM     13  C   UNL A   1      32.922  26.001  24.764  1.00  0.00     0.169 C 
ATOM     14  C   UNL A   1      32.418  28.302  25.031  1.00  0.00     0.239 C 
ATOM     15  C   UNL A   1      31.923  23.665  24.597  1.00  0.00     0.091 C 
ATOM     16  C   UNL A   1      32.146  26.278  26.027  1.00  0.00     0.240 C 
ATOM     17  N   UNL A   1      31.993  27.630  26.143  1.00  0.00    -0.285 N 
ATOM     18  O   UNL A   1      32.485  29.512  24.899  1.00  0.00    -0.274 OA
ATOM     19  O   UNL A   1      31.787  25.448  26.850  1.00  0.00    -0.274 OA
ATOM     20  C   UNL A   1      31.442  28.282  27.304  1.00  0.00     0.156 C 
BRANCH   8  21
ATOM     21  C   UNL A   1      30.499  27.919  22.922  1.00  0.00     0.056 A 
ATOM     22  C   UNL A   1      29.315  29.939  22.184  1.00  0.00     0.161 A 
ATOM     23  C   UNL A   1      28.136  29.407  22.726  1.00  0.00     0.050 A 
ATOM     24  C   UNL A   1      30.499  29.196  22.308  1.00  0.00     0.166 A 
ATOM     25  C   UNL A   1      28.123  28.170  23.365  1.00  0.00     0.005 A 
ATOM     26  C   UNL A   1      29.295  27.428  23.457  1.00  0.00     0.014 A 
BRANCH  22  27
ATOM     27  O   UNL A   1      29.116  31.180  21.651  1.00  0.00    -0.493 OA
ATOM     28  C   UNL A   1      28.047  31.416  20.755  1.00  0.00     0.278 C 
ENDBRANCH  22  27
BRANCH  24  29
ATOM     29  O   UNL A   1      31.727  29.631  21.889  1.00  0.00    -0.504 OA
ATOM     30  H   UNL A   1      32.506  29.234  22.229  1.00  0.00     0.293 HD
ENDBRANCH  24  29
ENDBRANCH   8  21
ENDBRANCH   4   7
ENDBRANCH   2   3
ENDBRANCH   1   2
BRANCH   1  31
ATOM     31  C   UNL A   1      37.523  24.027  25.992  1.00  0.00     0.118 C 
BRANCH  31  32
ATOM     32  N   UNL A   1      38.921  23.619  25.965  1.00  0.00    -0.352 N 
ATOM     33  C   UNL A   1      40.036  24.206  26.511  1.00  0.00     0.251 C 
ATOM     34  H   UNL A   1      39.095  22.782  25.476  1.00  0.00     0.163 HD
ATOM     35  O   UNL A   1      41.148  23.768  26.227  1.00  0.00    -0.269 OA
BRANCH  33  36
ATOM     36  C   UNL A   1      39.918  25.378  27.407  1.00  0.00     0.039 A 
ATOM     37  C   UNL A   1      39.153  25.253  28.571  1.00  0.00     0.014 A 
ATOM     38  C   UNL A   1      40.535  26.596  27.112  1.00  0.00     0.014 A 
ATOM     39  C   UNL A   1      39.076  26.320  29.468  1.00  0.00     0.010 A 
ATOM     40  C   UNL A   1      40.540  27.623  28.053  1.00  0.00     0.010 A 
ATOM     41  C   UNL A   1      39.810  27.497  29.243  1.00  0.00    -0.014 A 
BRANCH  41  42
ATOM     42  C   UNL A   1      39.835  28.580  30.260  1.00  0.00     0.031 A 
ATOM     43  C   UNL A   1      38.862  29.726  30.196  1.00  0.00     0.074 A 
ATOM     44  C   UNL A   1      40.771  28.547  31.230  1.00  0.00     0.049 A 
ATOM     45  N   UNL A   1      38.733  30.744  31.011  1.00  0.00    -0.248 NA
ATOM     46  C   UNL A   1      37.930  29.748  29.059  1.00  0.00     0.031 C 
ATOM     47  C   UNL A   1      41.817  27.529  31.361  1.00  0.00     0.029 A 
ATOM     48  N   UNL A   1      40.994  29.387  32.291  1.00  0.00    -0.354 N 
ATOM     49  C   UNL A   1      37.711  31.525  30.483  1.00  0.00     0.074 A 
ATOM     50  C   UNL A   1      37.299  30.898  29.246  1.00  0.00     0.031 C 
ATOM     51  C   UNL A   1      42.539  27.779  32.464  1.00  0.00     0.029 A 
ATOM     52  C   UNL A   1      42.036  28.994  33.095  1.00  0.00     0.049 A 
ATOM     53  H   UNL A   1      40.459  30.196  32.460  1.00  0.00     0.167 HD
ATOM     54  C   UNL A   1      37.150  32.647  30.995  1.00  0.00     0.037 A 
ATOM     55  C   UNL A   1      42.530  29.547  34.219  1.00  0.00     0.037 A 
ATOM     56  C   UNL A   1      37.556  33.263  32.232  1.00  0.00     0.049 A 
ATOM     57  C   UNL A   1      41.887  30.789  34.767  1.00  0.00     0.074 A 
ATOM     58  C   UNL A   1      37.011  34.367  32.864  1.00  0.00     0.029 A 
ATOM     59  N   UNL A   1      38.612  32.833  33.022  1.00  0.00    -0.354 N 
ATOM     60  N   UNL A   1      40.866  31.468  34.301  1.00  0.00    -0.248 NA
ATOM     61  C   UNL A   1      42.458  31.335  36.005  1.00  0.00     0.031 C 
ATOM     62  C   UNL A   1      37.772  34.638  34.008  1.00  0.00     0.029 A 
ATOM     63  C   UNL A   1      38.753  33.666  34.121  1.00  0.00     0.049 A 
ATOM     64  H   UNL A   1      39.179  32.052  32.829  1.00  0.00     0.167 HD
ATOM     65  C   UNL A   1      40.660  32.506  35.199  1.00  0.00     0.074 A 
ATOM     66  C   UNL A   1      41.642  32.349  36.252  1.00  0.00     0.031 C 
ATOM     67  C   UNL A   1      39.743  33.505  35.155  1.00  0.00     0.037 A 
BRANCH  54  68
ATOM     68  C   UNL A   1      36.031  33.279  30.217  1.00  0.00     0.057 A 
ATOM     69  C   UNL A   1      34.690  33.147  30.607  1.00  0.00     0.134 A 
ATOM     70  C   UNL A   1      36.297  34.061  29.085  1.00  0.00     0.134 A 
ATOM     71  F   UNL A   1      34.363  32.403  31.674  1.00  0.00    -0.206 F 
ATOM     72  C   UNL A   1      33.656  33.747  29.887  1.00  0.00     0.040 A 
ATOM     73  C   UNL A   1      35.273  34.691  28.374  1.00  0.00     0.040 A 
ATOM     74  F   UNL A   1      37.556  34.236  28.658  1.00  0.00    -0.206 F 
ATOM     75  C   UNL A   1      33.947  34.529  28.771  1.00  0.00     0.006 A 
ENDBRANCH  54  68
BRANCH  55  76
ATOM     76  C   UNL A   1      43.678  28.914  34.918  1.00  0.00     0.057 A 
ATOM     77  C   UNL A   1      44.999  29.221  34.569  1.00  0.00     0.134 A 
ATOM     78  C   UNL A   1      43.485  27.979  35.943  1.00  0.00     0.134 A 
ATOM     79  F   UNL A   1      45.251  30.095  33.583  1.00  0.00    -0.206 F 
ATOM     80  C   UNL A   1      46.084  28.603  35.193  1.00  0.00     0.040 A 
ATOM     81  C   UNL A   1      44.560  27.376  36.596  1.00  0.00     0.040 A 
ATOM     82  F   UNL A   1      42.244  27.648  36.332  1.00  0.00    -0.206 F 
ATOM     83  C   UNL A   1      45.865  27.681  36.214  1.00  0.00     0.006 A 
ENDBRANCH  55  76
BRANCH  67  84
ATOM     84  C   UNL A   1      39.753  34.485  36.294  1.00  0.00     0.057 A 
ATOM     85  C   UNL A   1      40.474  35.686  36.233  1.00  0.00     0.134 A 
ATOM     86  C   UNL A   1      39.038  34.222  37.470  1.00  0.00     0.134 A 
ATOM     87  F   UNL A   1      41.189  35.995  35.142  1.00  0.00    -0.206 F 
ATOM     88  C   UNL A   1      40.518  36.567  37.316  1.00  0.00     0.040 A 
ATOM     89  C   UNL A   1      39.048  35.110  38.546  1.00  0.00     0.040 A 
ATOM     90  F   UNL A   1      38.316  33.097  37.593  1.00  0.00    -0.206 F 
ATOM     91  C   UNL A   1      39.802  36.280  38.476  1.00  0.00     0.006 A 
ENDBRANCH  67  84
ENDBRANCH  41  42
ENDBRANCH  33  36
ENDBRANCH  31  32
ENDBRANCH   1  31
TORSDOF 13
ENDMDL
