MODEL 1
REMARK VINA RESULT:     -12.6      0.000      0.000
REMARK SMILES Cc1ccc(Nc2c(F)cccc2Cl)c(CC(=O)NCCCNC(=O)c2ccc(-c3c4nc(c(-c5c(F)cccc5F)c5ccc([nH]5)c(-c5c(F)cccc5F)c5nc(c(-c6c(F)cccc6F)c6ccc3[nH]6)C=C5)C=C4)cc2)c1
REMARK SMILES IDX 20 1 19 2 17 3 18 4 16 6 15 7 1 8 2 9 3 10 80 11 4 12 5 13
REMARK SMILES IDX 6 14 7 16 8 17 13 18 9 19 10 20 12 21 14 22 11 23 21 24
REMARK SMILES IDX 22 25 23 26 24 27 25 29 26 30 27 31 79 32 28 33 78 34 29 35
REMARK SMILES IDX 30 36 31 37 72 38 32 39 77 40 71 41 73 42 33 43 76 44 70 45
REMARK SMILES IDX 69 46 34 48 60 49 43 50 59 51 44 52 47 53 58 54 74 55 45 56
REMARK SMILES IDX 46 57 57 59 75 60 48 61 35 62 36 63 41 64 37 65 38 66 40 67
REMARK SMILES IDX 42 68 39 69 61 70 62 71 67 72 63 73 64 74 66 75 68 76 65 77
REMARK SMILES IDX 49 78 50 79 55 80 51 81 52 82 54 83 56 84 53 85
REMARK H PARENT 19 5 6 15 23 28 73 47 47 58
REMARK Flexibility Score: inf
ROOT
ATOM      1  C   UNL A   1      32.409  30.591  26.527  1.00  0.00     0.117 C 
ENDROOT
BRANCH   1   2
ATOM      2  N   UNL A   1      31.804  29.538  27.329  1.00  0.00    -0.356 N 
ATOM      3  C   UNL A   1      31.972  28.185  27.239  1.00  0.00     0.224 C 
ATOM      4  O   UNL A   1      31.285  27.458  27.961  1.00  0.00    -0.275 OA
ATOM      5  H   UNL A   1      31.189  29.843  28.033  1.00  0.00     0.163 HD
BRANCH   3   6
ATOM      6  C   UNL A   1      32.953  27.576  26.251  1.00  0.00     0.137 C 
BRANCH   6   7
ATOM      7  C   UNL A   1      32.298  27.100  24.971  1.00  0.00    -0.015 A 
ATOM      8  C   UNL A   1      29.246  28.170  22.924  1.00  0.00     0.044 C 
ATOM      9  C   UNL A   1      30.467  27.427  23.374  1.00  0.00    -0.051 A 
ATOM     10  C   UNL A   1      30.845  26.254  22.728  1.00  0.00     0.005 A 
ATOM     11  C   UNL A   1      31.223  27.866  24.464  1.00  0.00     0.009 A 
ATOM     12  C   UNL A   1      31.943  25.520  23.183  1.00  0.00     0.026 A 
ATOM     13  C   UNL A   1      32.676  25.904  24.319  1.00  0.00     0.042 A 
BRANCH  13  14
ATOM     14  N   UNL A   1      33.761  25.125  24.778  1.00  0.00    -0.352 N 
ATOM     15  H   UNL A   1      34.642  25.561  24.727  1.00  0.00     0.167 HD
BRANCH  14  16
ATOM     16  C   UNL A   1      33.767  23.809  25.301  1.00  0.00     0.094 A 
ATOM     17  C   UNL A   1      33.095  23.473  26.487  1.00  0.00     0.148 A 
ATOM     18  C   UNL A   1      34.540  22.801  24.694  1.00  0.00     0.067 A 
ATOM     19  F   UNL A   1      32.328  24.380  27.113  1.00  0.00    -0.205 F 
ATOM     20  C   UNL A   1      33.183  22.199  27.050  1.00  0.00     0.041 A 
ATOM     21  C   UNL A   1      34.636  21.521  25.256  1.00  0.00     0.023 A 
ATOM     22  Cl  UNL A   1      35.453  23.119  23.259  1.00  0.00    -0.082 Cl
ATOM     23  C   UNL A   1      33.960  21.221  26.437  1.00  0.00     0.005 A 
ENDBRANCH  14  16
ENDBRANCH  13  14
ENDBRANCH   6   7
ENDBRANCH   3   6
ENDBRANCH   1   2
BRANCH   1  24
ATOM     24  C   UNL A   1      33.331  31.492  27.346  1.00  0.00     0.042 C 
BRANCH  24  25
ATOM     25  C   UNL A   1      34.671  30.870  27.701  1.00  0.00     0.118 C 
BRANCH  25  26
ATOM     26  N   UNL A   1      35.499  31.696  28.576  1.00  0.00    -0.352 N 
ATOM     27  C   UNL A   1      36.702  31.374  29.185  1.00  0.00     0.251 C 
ATOM     28  H   UNL A   1      35.157  32.601  28.758  1.00  0.00     0.163 HD
ATOM     29  O   UNL A   1      37.299  32.194  29.860  1.00  0.00    -0.269 OA
BRANCH  27  30
ATOM     30  C   UNL A   1      37.316  30.057  28.886  1.00  0.00     0.039 A 
ATOM     31  C   UNL A   1      37.444  29.147  29.939  1.00  0.00     0.014 A 
ATOM     32  C   UNL A   1      37.970  29.837  27.678  1.00  0.00     0.014 A 
ATOM     33  C   UNL A   1      38.437  28.173  29.874  1.00  0.00     0.010 A 
ATOM     34  C   UNL A   1      39.020  28.941  27.650  1.00  0.00     0.010 A 
ATOM     35  C   UNL A   1      39.303  28.168  28.781  1.00  0.00    -0.014 A 
BRANCH  35  36
ATOM     36  C   UNL A   1      40.604  27.508  28.807  1.00  0.00     0.031 A 
ATOM     37  C   UNL A   1      40.734  26.068  28.519  1.00  0.00     0.074 A 
ATOM     38  C   UNL A   1      41.714  28.251  29.014  1.00  0.00     0.049 A 
ATOM     39  N   UNL A   1      41.748  25.346  28.859  1.00  0.00    -0.248 NA
ATOM     40  C   UNL A   1      39.689  25.313  27.846  1.00  0.00     0.031 C 
ATOM     41  C   UNL A   1      43.105  27.852  28.816  1.00  0.00     0.029 A 
ATOM     42  N   UNL A   1      41.799  29.480  29.686  1.00  0.00    -0.354 N 
ATOM     43  C   UNL A   1      41.632  24.129  28.227  1.00  0.00     0.074 A 
ATOM     44  C   UNL A   1      40.300  24.137  27.664  1.00  0.00     0.031 C 
ATOM     45  C   UNL A   1      43.884  28.614  29.599  1.00  0.00     0.029 A 
ATOM     46  C   UNL A   1      43.004  29.423  30.424  1.00  0.00     0.049 A 
ATOM     47  H   UNL A   1      41.156  30.225  29.650  1.00  0.00     0.167 HD
ATOM     48  C   UNL A   1      42.723  23.311  28.152  1.00  0.00     0.037 A 
ATOM     49  C   UNL A   1      42.989  29.435  31.788  1.00  0.00     0.037 A 
ATOM     50  C   UNL A   1      43.846  23.838  28.930  1.00  0.00     0.049 A 
ATOM     51  C   UNL A   1      43.578  28.201  32.442  1.00  0.00     0.074 A 
ATOM     52  C   UNL A   1      45.010  24.528  28.623  1.00  0.00     0.029 A 
ATOM     53  N   UNL A   1      43.718  23.916  30.305  1.00  0.00    -0.354 N 
ATOM     54  N   UNL A   1      44.012  27.156  31.793  1.00  0.00    -0.248 NA
ATOM     55  C   UNL A   1      43.628  28.011  33.894  1.00  0.00     0.031 C 
ATOM     56  C   UNL A   1      45.563  25.034  29.834  1.00  0.00     0.029 A 
ATOM     57  C   UNL A   1      44.737  24.653  30.873  1.00  0.00     0.049 A 
ATOM     58  H   UNL A   1      42.988  23.496  30.816  1.00  0.00     0.167 HD
ATOM     59  C   UNL A   1      44.317  26.164  32.686  1.00  0.00     0.074 A 
ATOM     60  C   UNL A   1      44.074  26.748  33.992  1.00  0.00     0.031 C 
ATOM     61  C   UNL A   1      44.697  24.914  32.302  1.00  0.00     0.037 A 
BRANCH  48  62
ATOM     62  C   UNL A   1      42.854  22.155  27.181  1.00  0.00     0.057 A 
ATOM     63  C   UNL A   1      42.061  20.999  27.327  1.00  0.00     0.134 A 
ATOM     64  C   UNL A   1      43.773  22.085  26.121  1.00  0.00     0.134 A 
ATOM     65  F   UNL A   1      41.051  20.940  28.205  1.00  0.00    -0.206 F 
ATOM     66  C   UNL A   1      42.259  19.833  26.575  1.00  0.00     0.040 A 
ATOM     67  C   UNL A   1      44.023  20.909  25.398  1.00  0.00     0.040 A 
ATOM     68  F   UNL A   1      44.423  23.167  25.680  1.00  0.00    -0.206 F 
ATOM     69  C   UNL A   1      43.274  19.768  25.636  1.00  0.00     0.006 A 
ENDBRANCH  48  62
BRANCH  49  70
ATOM     70  C   UNL A   1      41.870  30.239  32.347  1.00  0.00     0.057 A 
ATOM     71  C   UNL A   1      41.983  31.642  32.357  1.00  0.00     0.134 A 
ATOM     72  C   UNL A   1      40.595  29.702  32.536  1.00  0.00     0.134 A 
ATOM     73  F   UNL A   1      43.179  32.226  32.179  1.00  0.00    -0.206 F 
ATOM     74  C   UNL A   1      40.862  32.471  32.431  1.00  0.00     0.040 A 
ATOM     75  C   UNL A   1      39.466  30.524  32.632  1.00  0.00     0.040 A 
ATOM     76  F   UNL A   1      40.401  28.376  32.514  1.00  0.00    -0.206 F 
ATOM     77  C   UNL A   1      39.594  31.910  32.538  1.00  0.00     0.006 A 
ENDBRANCH  49  70
BRANCH  61  78
ATOM     78  C   UNL A   1      45.050  23.829  33.273  1.00  0.00     0.057 A 
ATOM     79  C   UNL A   1      44.118  22.873  33.695  1.00  0.00     0.134 A 
ATOM     80  C   UNL A   1      46.305  23.791  33.908  1.00  0.00     0.134 A 
ATOM     81  F   UNL A   1      42.878  22.846  33.183  1.00  0.00    -0.206 F 
ATOM     82  C   UNL A   1      44.422  21.923  34.676  1.00  0.00     0.040 A 
ATOM     83  C   UNL A   1      46.606  22.877  34.920  1.00  0.00     0.040 A 
ATOM     84  F   UNL A   1      47.294  24.629  33.557  1.00  0.00    -0.206 F 
ATOM     85  C   UNL A   1      45.664  21.933  35.303  1.00  0.00     0.006 A 
ENDBRANCH  61  78
ENDBRANCH  35  36
ENDBRANCH  27  30
ENDBRANCH  25  26
ENDBRANCH  24  25
ENDBRANCH   1  24
TORSDOF 13
ENDMDL
MODEL 2
REMARK VINA RESULT:     -12.5      4.090      9.275
REMARK SMILES Cc1ccc(Nc2c(F)cccc2Cl)c(CC(=O)NCCCNC(=O)c2ccc(-c3c4nc(c(-c5c(F)cccc5F)c5ccc([nH]5)c(-c5c(F)cccc5F)c5nc(c(-c6c(F)cccc6F)c6ccc3[nH]6)C=C5)C=C4)cc2)c1
REMARK SMILES IDX 20 1 19 2 17 3 18 4 16 6 15 7 1 8 2 9 3 10 80 11 4 12 5 13
REMARK SMILES IDX 6 14 7 16 8 17 13 18 9 19 10 20 12 21 14 22 11 23 21 24
REMARK SMILES IDX 22 25 23 26 24 27 25 29 26 30 27 31 79 32 28 33 78 34 29 35
REMARK SMILES IDX 30 36 31 37 72 38 32 39 77 40 71 41 73 42 33 43 76 44 70 45
REMARK SMILES IDX 69 46 34 48 60 49 43 50 59 51 44 52 47 53 58 54 74 55 45 56
REMARK SMILES IDX 46 57 57 59 75 60 48 61 35 62 36 63 41 64 37 65 38 66 40 67
REMARK SMILES IDX 42 68 39 69 61 70 62 71 67 72 63 73 64 74 66 75 68 76 65 77
REMARK SMILES IDX 49 78 50 79 55 80 51 81 52 82 54 83 56 84 53 85
REMARK H PARENT 19 5 6 15 23 28 73 47 47 58
REMARK Flexibility Score: inf
ROOT
ATOM      1  C   UNL A   1      37.774  22.060  25.293  1.00  0.00     0.117 C 
ENDROOT
BRANCH   1   2
ATOM      2  N   UNL A   1      36.604  21.899  26.143  1.00  0.00    -0.356 N 
ATOM      3  C   UNL A   1      35.305  21.670  25.786  1.00  0.00     0.224 C 
ATOM      4  O   UNL A   1      34.445  21.661  26.669  1.00  0.00    -0.275 OA
ATOM      5  H   UNL A   1      36.772  21.964  27.111  1.00  0.00     0.163 HD
BRANCH   3   6
ATOM      6  C   UNL A   1      34.912  21.467  24.331  1.00  0.00     0.137 C 
BRANCH   6   7
ATOM      7  C   UNL A   1      33.791  22.381  23.880  1.00  0.00    -0.015 A 
ATOM      8  C   UNL A   1      33.587  25.936  22.477  1.00  0.00     0.044 C 
ATOM      9  C   UNL A   1      33.192  24.579  22.975  1.00  0.00    -0.051 A 
ATOM     10  C   UNL A   1      31.849  24.274  23.173  1.00  0.00     0.005 A 
ATOM     11  C   UNL A   1      34.152  23.613  23.288  1.00  0.00     0.009 A 
ATOM     12  C   UNL A   1      31.477  23.036  23.701  1.00  0.00     0.026 A 
ATOM     13  C   UNL A   1      32.427  22.075  24.088  1.00  0.00     0.042 A 
BRANCH  13  14
ATOM     14  N   UNL A   1      32.025  20.845  24.650  1.00  0.00    -0.352 N 
ATOM     15  H   UNL A   1      31.405  20.913  25.412  1.00  0.00     0.167 HD
BRANCH  14  16
ATOM     16  C   UNL A   1      32.382  19.525  24.279  1.00  0.00     0.094 A 
ATOM     17  C   UNL A   1      32.887  18.599  25.205  1.00  0.00     0.148 A 
ATOM     18  C   UNL A   1      32.338  19.124  22.930  1.00  0.00     0.067 A 
ATOM     19  F   UNL A   1      32.947  18.907  26.510  1.00  0.00    -0.205 F 
ATOM     20  C   UNL A   1      33.329  17.333  24.817  1.00  0.00     0.041 A 
ATOM     21  C   UNL A   1      32.782  17.856  22.534  1.00  0.00     0.023 A 
ATOM     22  Cl  UNL A   1      31.784  20.204  21.696  1.00  0.00    -0.082 Cl
ATOM     23  C   UNL A   1      33.282  16.961  23.477  1.00  0.00     0.005 A 
ENDBRANCH  14  16
ENDBRANCH  13  14
ENDBRANCH   6   7
ENDBRANCH   3   6
ENDBRANCH   1   2
BRANCH   1  24
ATOM     24  C   UNL A   1      39.059  21.598  25.975  1.00  0.00     0.042 C 
BRANCH  24  25
ATOM     25  C   UNL A   1      39.658  22.601  26.947  1.00  0.00     0.118 C 
BRANCH  25  26
ATOM     26  N   UNL A   1      41.020  23.010  26.620  1.00  0.00    -0.352 N 
ATOM     27  C   UNL A   1      41.539  24.292  26.525  1.00  0.00     0.251 C 
ATOM     28  H   UNL A   1      41.654  22.278  26.442  1.00  0.00     0.163 HD
ATOM     29  O   UNL A   1      42.719  24.470  26.281  1.00  0.00    -0.269 OA
BRANCH  27  30
ATOM     30  C   UNL A   1      40.660  25.438  26.861  1.00  0.00     0.039 A 
ATOM     31  C   UNL A   1      40.818  26.616  26.126  1.00  0.00     0.014 A 
ATOM     32  C   UNL A   1      39.895  25.427  28.024  1.00  0.00     0.014 A 
ATOM     33  C   UNL A   1      40.444  27.828  26.701  1.00  0.00     0.010 A 
ATOM     34  C   UNL A   1      39.615  26.631  28.640  1.00  0.00     0.010 A 
ATOM     35  C   UNL A   1      39.967  27.830  28.011  1.00  0.00    -0.014 A 
BRANCH  35  36
ATOM     36  C   UNL A   1      39.958  29.027  28.846  1.00  0.00     0.031 A 
ATOM     37  C   UNL A   1      38.900  30.044  28.711  1.00  0.00     0.074 A 
ATOM     38  C   UNL A   1      40.889  29.158  29.817  1.00  0.00     0.049 A 
ATOM     39  N   UNL A   1      38.999  31.261  29.130  1.00  0.00    -0.248 NA
ATOM     40  C   UNL A   1      37.638  29.767  28.042  1.00  0.00     0.031 C 
ATOM     41  C   UNL A   1      40.904  30.119  30.917  1.00  0.00     0.029 A 
ATOM     42  N   UNL A   1      42.162  28.569  29.857  1.00  0.00    -0.354 N 
ATOM     43  C   UNL A   1      37.754  31.840  29.047  1.00  0.00     0.074 A 
ATOM     44  C   UNL A   1      36.959  30.890  28.301  1.00  0.00     0.031 C 
ATOM     45  C   UNL A   1      42.172  30.293  31.317  1.00  0.00     0.029 A 
ATOM     46  C   UNL A   1      43.018  29.558  30.393  1.00  0.00     0.049 A 
ATOM     47  H   UNL A   1      42.408  27.659  29.571  1.00  0.00     0.167 HD
ATOM     48  C   UNL A   1      37.513  32.999  29.728  1.00  0.00     0.037 A 
ATOM     49  C   UNL A   1      44.021  30.097  29.641  1.00  0.00     0.037 A 
ATOM     50  C   UNL A   1      38.734  33.530  30.338  1.00  0.00     0.049 A 
ATOM     51  C   UNL A   1      43.913  31.591  29.412  1.00  0.00     0.074 A 
ATOM     52  C   UNL A   1      39.271  33.519  31.617  1.00  0.00     0.029 A 
ATOM     53  N   UNL A   1      39.752  33.963  29.509  1.00  0.00    -0.354 N 
ATOM     54  N   UNL A   1      42.922  32.332  29.822  1.00  0.00    -0.248 NA
ATOM     55  C   UNL A   1      44.875  32.349  28.608  1.00  0.00     0.031 C 
ATOM     56  C   UNL A   1      40.632  33.935  31.535  1.00  0.00     0.029 A 
ATOM     57  C   UNL A   1      40.919  34.196  30.209  1.00  0.00     0.049 A 
ATOM     58  H   UNL A   1      39.656  34.090  28.537  1.00  0.00     0.167 HD
ATOM     59  C   UNL A   1      43.055  33.592  29.304  1.00  0.00     0.074 A 
ATOM     60  C   UNL A   1      44.300  33.562  28.561  1.00  0.00     0.031 C 
ATOM     61  C   UNL A   1      42.114  34.563  29.470  1.00  0.00     0.037 A 
BRANCH  48  62
ATOM     62  C   UNL A   1      36.129  33.529  30.042  1.00  0.00     0.057 A 
ATOM     63  C   UNL A   1      35.292  34.013  29.017  1.00  0.00     0.134 A 
ATOM     64  C   UNL A   1      35.577  33.645  31.329  1.00  0.00     0.134 A 
ATOM     65  F   UNL A   1      35.605  33.869  27.722  1.00  0.00    -0.206 F 
ATOM     66  C   UNL A   1      34.081  34.675  29.263  1.00  0.00     0.040 A 
ATOM     67  C   UNL A   1      34.396  34.355  31.597  1.00  0.00     0.040 A 
ATOM     68  F   UNL A   1      36.110  33.019  32.383  1.00  0.00    -0.206 F 
ATOM     69  C   UNL A   1      33.650  34.889  30.560  1.00  0.00     0.006 A 
ENDBRANCH  48  62
BRANCH  49  70
ATOM     70  C   UNL A   1      44.601  29.130  28.672  1.00  0.00     0.057 A 
ATOM     71  C   UNL A   1      45.513  28.166  29.139  1.00  0.00     0.134 A 
ATOM     72  C   UNL A   1      44.030  28.909  27.416  1.00  0.00     0.134 A 
ATOM     73  F   UNL A   1      46.097  28.313  30.339  1.00  0.00    -0.206 F 
ATOM     74  C   UNL A   1      45.755  26.980  28.442  1.00  0.00     0.040 A 
ATOM     75  C   UNL A   1      44.282  27.734  26.699  1.00  0.00     0.040 A 
ATOM     76  F   UNL A   1      43.133  29.768  26.911  1.00  0.00    -0.206 F 
ATOM     77  C   UNL A   1      45.113  26.748  27.231  1.00  0.00     0.006 A 
ENDBRANCH  49  70
BRANCH  61  78
ATOM     78  C   UNL A   1      42.262  35.950  28.923  1.00  0.00     0.057 A 
ATOM     79  C   UNL A   1      41.717  36.327  27.689  1.00  0.00     0.134 A 
ATOM     80  C   UNL A   1      43.065  36.912  29.564  1.00  0.00     0.134 A 
ATOM     81  F   UNL A   1      40.970  35.471  26.976  1.00  0.00    -0.206 F 
ATOM     82  C   UNL A   1      41.940  37.592  27.134  1.00  0.00     0.040 A 
ATOM     83  C   UNL A   1      43.332  38.162  28.999  1.00  0.00     0.040 A 
ATOM     84  F   UNL A   1      43.605  36.683  30.770  1.00  0.00    -0.206 F 
ATOM     85  C   UNL A   1      42.763  38.509  27.782  1.00  0.00     0.006 A 
ENDBRANCH  61  78
ENDBRANCH  35  36
ENDBRANCH  27  30
ENDBRANCH  25  26
ENDBRANCH  24  25
ENDBRANCH   1  24
TORSDOF 13
ENDMDL
MODEL 3
REMARK VINA RESULT:     -12.4      3.992      9.385
REMARK SMILES Cc1ccc(Nc2c(F)cccc2Cl)c(CC(=O)NCCCNC(=O)c2ccc(-c3c4nc(c(-c5c(F)cccc5F)c5ccc([nH]5)c(-c5c(F)cccc5F)c5nc(c(-c6c(F)cccc6F)c6ccc3[nH]6)C=C5)C=C4)cc2)c1
REMARK SMILES IDX 20 1 19 2 17 3 18 4 16 6 15 7 1 8 2 9 3 10 80 11 4 12 5 13
REMARK SMILES IDX 6 14 7 16 8 17 13 18 9 19 10 20 12 21 14 22 11 23 21 24
REMARK SMILES IDX 22 25 23 26 24 27 25 29 26 30 27 31 79 32 28 33 78 34 29 35
REMARK SMILES IDX 30 36 31 37 72 38 32 39 77 40 71 41 73 42 33 43 76 44 70 45
REMARK SMILES IDX 69 46 34 48 60 49 43 50 59 51 44 52 47 53 58 54 74 55 45 56
REMARK SMILES IDX 46 57 57 59 75 60 48 61 35 62 36 63 41 64 37 65 38 66 40 67
REMARK SMILES IDX 42 68 39 69 61 70 62 71 67 72 63 73 64 74 66 75 68 76 65 77
REMARK SMILES IDX 49 78 50 79 55 80 51 81 52 82 54 83 56 84 53 85
REMARK H PARENT 19 5 6 15 23 28 73 47 47 58
REMARK Flexibility Score: inf
ROOT
ATOM      1  C   UNL A   1      37.820  23.327  25.807  1.00  0.00     0.117 C 
ENDROOT
BRANCH   1   2
ATOM      2  N   UNL A   1      37.367  23.329  24.424  1.00  0.00    -0.356 N 
ATOM      3  C   UNL A   1      36.114  23.100  23.929  1.00  0.00     0.224 C 
ATOM      4  O   UNL A   1      35.965  23.056  22.705  1.00  0.00    -0.275 OA
ATOM      5  H   UNL A   1      38.059  23.524  23.752  1.00  0.00     0.163 HD
BRANCH   3   6
ATOM      6  C   UNL A   1      34.931  22.866  24.854  1.00  0.00     0.137 C 
BRANCH   6   7
ATOM      7  C   UNL A   1      34.099  21.659  24.472  1.00  0.00    -0.015 A 
ATOM      8  C   UNL A   1      34.587  17.866  24.638  1.00  0.00     0.044 C 
ATOM      9  C   UNL A   1      33.979  19.212  24.384  1.00  0.00    -0.051 A 
ATOM     10  C   UNL A   1      32.792  19.314  23.665  1.00  0.00     0.005 A 
ATOM     11  C   UNL A   1      34.601  20.384  24.821  1.00  0.00     0.009 A 
ATOM     12  C   UNL A   1      32.254  20.568  23.366  1.00  0.00     0.026 A 
ATOM     13  C   UNL A   1      32.898  21.762  23.734  1.00  0.00     0.042 A 
BRANCH  13  14
ATOM     14  N   UNL A   1      32.350  23.016  23.390  1.00  0.00    -0.352 N 
ATOM     15  H   UNL A   1      32.217  23.167  22.426  1.00  0.00     0.167 HD
BRANCH  14  16
ATOM     16  C   UNL A   1      31.963  24.090  24.228  1.00  0.00     0.094 A 
ATOM     17  C   UNL A   1      30.997  23.941  25.236  1.00  0.00     0.148 A 
ATOM     18  C   UNL A   1      32.467  25.387  24.011  1.00  0.00     0.067 A 
ATOM     19  F   UNL A   1      30.480  22.732  25.508  1.00  0.00    -0.205 F 
ATOM     20  C   UNL A   1      30.548  25.023  25.995  1.00  0.00     0.041 A 
ATOM     21  C   UNL A   1      32.019  26.477  24.766  1.00  0.00     0.023 A 
ATOM     22  Cl  UNL A   1      33.622  25.696  22.760  1.00  0.00    -0.082 Cl
ATOM     23  C   UNL A   1      31.055  26.297  25.756  1.00  0.00     0.005 A 
ENDBRANCH  14  16
ENDBRANCH  13  14
ENDBRANCH   6   7
ENDBRANCH   3   6
ENDBRANCH   1   2
BRANCH   1  24
ATOM     24  C   UNL A   1      38.872  22.253  26.074  1.00  0.00     0.042 C 
BRANCH  24  25
ATOM     25  C   UNL A   1      39.855  22.591  27.183  1.00  0.00     0.118 C 
BRANCH  25  26
ATOM     26  N   UNL A   1      41.164  23.029  26.707  1.00  0.00    -0.352 N 
ATOM     27  C   UNL A   1      41.631  24.323  26.535  1.00  0.00     0.251 C 
ATOM     28  H   UNL A   1      41.797  22.312  26.479  1.00  0.00     0.163 HD
ATOM     29  O   UNL A   1      42.775  24.528  26.165  1.00  0.00    -0.269 OA
BRANCH  27  30
ATOM     30  C   UNL A   1      40.758  25.451  26.939  1.00  0.00     0.039 A 
ATOM     31  C   UNL A   1      40.835  26.631  26.193  1.00  0.00     0.014 A 
ATOM     32  C   UNL A   1      40.088  25.427  28.159  1.00  0.00     0.014 A 
ATOM     33  C   UNL A   1      40.483  27.836  26.796  1.00  0.00     0.010 A 
ATOM     34  C   UNL A   1      39.834  26.627  28.794  1.00  0.00     0.010 A 
ATOM     35  C   UNL A   1      40.110  27.831  28.140  1.00  0.00    -0.014 A 
BRANCH  35  36
ATOM     36  C   UNL A   1      40.143  29.029  28.972  1.00  0.00     0.031 A 
ATOM     37  C   UNL A   1      39.073  30.040  28.897  1.00  0.00     0.074 A 
ATOM     38  C   UNL A   1      41.128  29.167  29.888  1.00  0.00     0.049 A 
ATOM     39  N   UNL A   1      39.190  31.258  29.308  1.00  0.00    -0.248 NA
ATOM     40  C   UNL A   1      37.776  29.756  28.302  1.00  0.00     0.031 C 
ATOM     41  C   UNL A   1      41.200  30.129  30.984  1.00  0.00     0.029 A 
ATOM     42  N   UNL A   1      42.404  28.585  29.854  1.00  0.00    -0.354 N 
ATOM     43  C   UNL A   1      37.938  31.830  29.297  1.00  0.00     0.074 A 
ATOM     44  C   UNL A   1      37.107  30.875  28.599  1.00  0.00     0.031 C 
ATOM     45  C   UNL A   1      42.489  30.311  31.310  1.00  0.00     0.029 A 
ATOM     46  C   UNL A   1      43.284  29.580  30.339  1.00  0.00     0.049 A 
ATOM     47  H   UNL A   1      42.638  27.676  29.556  1.00  0.00     0.167 HD
ATOM     48  C   UNL A   1      37.731  32.990  29.989  1.00  0.00     0.037 A 
ATOM     49  C   UNL A   1      44.239  30.122  29.530  1.00  0.00     0.037 A 
ATOM     50  C   UNL A   1      38.982  33.528  30.527  1.00  0.00     0.049 A 
ATOM     51  C   UNL A   1      44.110  31.616  29.306  1.00  0.00     0.074 A 
ATOM     52  C   UNL A   1      39.592  33.522  31.773  1.00  0.00     0.029 A 
ATOM     53  N   UNL A   1      39.948  33.965  29.640  1.00  0.00    -0.354 N 
ATOM     54  N   UNL A   1      43.139  32.352  29.771  1.00  0.00    -0.248 NA
ATOM     55  C   UNL A   1      45.020  32.378  28.446  1.00  0.00     0.031 C 
ATOM     56  C   UNL A   1      40.943  33.945  31.611  1.00  0.00     0.029 A 
ATOM     57  C   UNL A   1      41.152  34.206  30.271  1.00  0.00     0.049 A 
ATOM     58  H   UNL A   1      39.795  34.090  28.674  1.00  0.00     0.167 HD
ATOM     59  C   UNL A   1      43.235  33.612  29.245  1.00  0.00     0.074 A 
ATOM     60  C   UNL A   1      44.436  33.587  28.431  1.00  0.00     0.031 C 
ATOM     61  C   UNL A   1      42.301  34.578  29.464  1.00  0.00     0.037 A 
BRANCH  48  62
ATOM     62  C   UNL A   1      36.364  33.512  30.382  1.00  0.00     0.057 A 
ATOM     63  C   UNL A   1      35.470  33.996  29.406  1.00  0.00     0.134 A 
ATOM     64  C   UNL A   1      35.884  33.622  31.698  1.00  0.00     0.134 A 
ATOM     65  F   UNL A   1      35.710  33.858  28.096  1.00  0.00    -0.206 F 
ATOM     66  C   UNL A   1      34.272  34.652  29.722  1.00  0.00     0.040 A 
ATOM     67  C   UNL A   1      34.718  34.325  32.034  1.00  0.00     0.040 A 
ATOM     68  F   UNL A   1      36.478  32.994  32.718  1.00  0.00    -0.206 F 
ATOM     69  C   UNL A   1      33.912  34.860  31.042  1.00  0.00     0.006 A 
ENDBRANCH  48  62
BRANCH  49  70
ATOM     70  C   UNL A   1      44.767  29.157  28.530  1.00  0.00     0.057 A 
ATOM     71  C   UNL A   1      45.730  28.215  28.939  1.00  0.00     0.134 A 
ATOM     72  C   UNL A   1      44.113  28.913  27.320  1.00  0.00     0.134 A 
ATOM     73  F   UNL A   1      46.395  28.386  30.092  1.00  0.00    -0.206 F 
ATOM     74  C   UNL A   1      45.945  27.028  28.236  1.00  0.00     0.040 A 
ATOM     75  C   UNL A   1      44.336  27.736  26.597  1.00  0.00     0.040 A 
ATOM     76  F   UNL A   1      43.165  29.749  26.874  1.00  0.00    -0.206 F 
ATOM     77  C   UNL A   1      45.222  26.772  27.077  1.00  0.00     0.006 A 
ENDBRANCH  49  70
BRANCH  61  78
ATOM     78  C   UNL A   1      42.409  35.965  28.908  1.00  0.00     0.057 A 
ATOM     79  C   UNL A   1      41.838  36.323  27.679  1.00  0.00     0.134 A 
ATOM     80  C   UNL A   1      43.199  36.949  29.531  1.00  0.00     0.134 A 
ATOM     81  F   UNL A   1      41.100  35.446  26.982  1.00  0.00    -0.206 F 
ATOM     82  C   UNL A   1      42.025  37.589  27.115  1.00  0.00     0.040 A 
ATOM     83  C   UNL A   1      43.429  38.201  28.957  1.00  0.00     0.040 A 
ATOM     84  F   UNL A   1      43.761  36.738  30.731  1.00  0.00    -0.206 F 
ATOM     85  C   UNL A   1      42.835  38.528  27.746  1.00  0.00     0.006 A 
ENDBRANCH  61  78
ENDBRANCH  35  36
ENDBRANCH  27  30
ENDBRANCH  25  26
ENDBRANCH  24  25
ENDBRANCH   1  24
TORSDOF 13
ENDMDL
