MODEL 1
REMARK VINA RESULT:     -12.4      0.000      0.000
REMARK SMILES Cc1ccc(S(=O)(=O)Nc2ccccc2/C=C/C(=O)NCCCNC(=O)c2ccc(-c3c4nc(c(-c5c(F)cccc5F)c5ccc([nH]5)c(-c5c(F)cccc5F)c5nc(c(-c6c(F)cccc6F)c6ccc3[nH]6)C=C5)C=C4)cc2)cc1
REMARK SMILES IDX 21 1 20 2 18 3 19 4 17 6 16 7 15 8 10 9 11 10 12 11 14 12
REMARK SMILES IDX 13 13 9 14 6 16 7 17 8 18 5 19 1 20 2 21 3 22 82 23 4 24
REMARK SMILES IDX 81 25 22 26 23 27 24 28 25 29 26 31 27 32 28 33 80 34 29 35
REMARK SMILES IDX 79 36 30 37 31 38 32 39 73 40 33 41 78 42 72 43 74 44 34 45
REMARK SMILES IDX 77 46 71 47 70 48 35 50 61 51 44 52 60 53 45 54 48 55 59 56
REMARK SMILES IDX 75 57 46 58 47 59 58 61 76 62 49 63 36 64 37 65 42 66 38 67
REMARK SMILES IDX 39 68 41 69 43 70 40 71 62 72 63 73 68 74 64 75 65 76 67 77
REMARK SMILES IDX 69 78 66 79 50 80 51 81 56 82 52 83 53 84 55 85 57 86 54 87
REMARK H PARENT 20 5 9 15 24 30 74 49 48 60
REMARK Flexibility Score: inf
ROOT
ATOM      1  C   UNL A   1      33.851  28.248  26.313  1.00  0.00     0.118 C 
ENDROOT
BRANCH   1   2
ATOM      2  N   UNL A   1      32.681  27.423  26.553  1.00  0.00    -0.352 N 
ATOM      3  C   UNL A   1      32.541  26.074  26.447  1.00  0.00     0.244 C 
ATOM      4  O   UNL A   1      31.517  25.526  26.841  1.00  0.00    -0.270 OA
ATOM      5  H   UNL A   1      31.872  27.908  26.832  1.00  0.00     0.163 HD
BRANCH   3   6
ATOM      6  C   UNL A   1      33.632  25.245  25.885  1.00  0.00     0.072 C 
ATOM      7  C   UNL A   1      33.994  24.085  26.446  1.00  0.00     0.016 C 
BRANCH   7   8
ATOM      8  C   UNL A   1      35.196  23.311  26.125  1.00  0.00    -0.001 A 
ATOM      9  C   UNL A   1      35.153  21.918  25.915  1.00  0.00     0.056 A 
ATOM     10  C   UNL A   1      36.281  21.251  25.432  1.00  0.00     0.027 A 
ATOM     11  C   UNL A   1      37.451  21.963  25.154  1.00  0.00     0.002 A 
ATOM     12  C   UNL A   1      36.370  24.017  25.823  1.00  0.00     0.010 A 
ATOM     13  C   UNL A   1      37.494  23.344  25.343  1.00  0.00     0.001 A 
BRANCH   9  14
ATOM     14  N   UNL A   1      33.935  21.197  26.086  1.00  0.00    -0.279 N 
ATOM     15  H   UNL A   1      33.667  20.910  26.990  1.00  0.00     0.180 HD
BRANCH  14  16
ATOM     16  S   UNL A   1      32.940  20.825  24.770  1.00  0.00     0.261 S 
ATOM     17  O   UNL A   1      31.692  20.393  25.376  1.00  0.00    -0.201 OA
ATOM     18  O   UNL A   1      33.667  19.959  23.872  1.00  0.00    -0.201 OA
BRANCH  16  19
ATOM     19  C   UNL A   1      32.602  22.336  23.883  1.00  0.00     0.087 A 
ATOM     20  C   UNL A   1      31.812  25.923  21.626  1.00  0.00     0.044 C 
ATOM     21  C   UNL A   1      32.088  24.682  22.425  1.00  0.00    -0.051 A 
ATOM     22  C   UNL A   1      31.135  24.178  23.322  1.00  0.00     0.005 A 
ATOM     23  C   UNL A   1      33.278  23.973  22.230  1.00  0.00     0.005 A 
ATOM     24  C   UNL A   1      31.396  23.020  24.066  1.00  0.00     0.022 A 
ATOM     25  C   UNL A   1      33.519  22.789  22.929  1.00  0.00     0.022 A 
ENDBRANCH  16  19
ENDBRANCH  14  16
ENDBRANCH   9  14
ENDBRANCH   7   8
ENDBRANCH   3   6
ENDBRANCH   1   2
BRANCH   1  26
ATOM     26  C   UNL A   1      33.470  29.706  26.084  1.00  0.00     0.042 C 
BRANCH  26  27
ATOM     27  C   UNL A   1      33.221  30.437  27.386  1.00  0.00     0.118 C 
BRANCH  27  28
ATOM     28  N   UNL A   1      34.187  31.503  27.636  1.00  0.00    -0.352 N 
ATOM     29  C   UNL A   1      35.481  31.464  28.117  1.00  0.00     0.251 C 
ATOM     30  H   UNL A   1      33.860  32.407  27.424  1.00  0.00     0.163 HD
ATOM     31  O   UNL A   1      36.085  32.519  28.291  1.00  0.00    -0.269 OA
BRANCH  29  32
ATOM     32  C   UNL A   1      36.209  30.173  28.222  1.00  0.00     0.039 A 
ATOM     33  C   UNL A   1      36.309  29.623  29.509  1.00  0.00     0.014 A 
ATOM     34  C   UNL A   1      37.106  29.805  27.236  1.00  0.00     0.014 A 
ATOM     35  C   UNL A   1      37.496  29.019  29.888  1.00  0.00     0.010 A 
ATOM     36  C   UNL A   1      38.348  29.409  27.648  1.00  0.00     0.010 A 
ATOM     37  C   UNL A   1      38.549  29.069  28.988  1.00  0.00    -0.014 A 
BRANCH  37  38
ATOM     38  C   UNL A   1      39.904  28.661  29.270  1.00  0.00     0.031 A 
ATOM     39  C   UNL A   1      40.265  27.299  28.847  1.00  0.00     0.074 A 
ATOM     40  C   UNL A   1      40.795  29.603  29.645  1.00  0.00     0.049 A 
ATOM     41  N   UNL A   1      41.357  26.707  29.150  1.00  0.00    -0.248 NA
ATOM     42  C   UNL A   1      39.369  26.467  28.044  1.00  0.00     0.031 C 
ATOM     43  C   UNL A   1      42.251  29.537  29.598  1.00  0.00     0.029 A 
ATOM     44  N   UNL A   1      40.528  30.784  30.351  1.00  0.00    -0.354 N 
ATOM     45  C   UNL A   1      41.449  25.570  28.376  1.00  0.00     0.074 A 
ATOM     46  C   UNL A   1      40.154  25.427  27.765  1.00  0.00     0.031 C 
ATOM     47  C   UNL A   1      42.754  30.420  30.481  1.00  0.00     0.029 A 
ATOM     48  C   UNL A   1      41.627  30.957  31.225  1.00  0.00     0.049 A 
ATOM     49  H   UNL A   1      39.741  31.369  30.260  1.00  0.00     0.167 HD
ATOM     50  C   UNL A   1      42.672  24.981  28.266  1.00  0.00     0.037 A 
ATOM     51  C   UNL A   1      41.459  30.818  32.575  1.00  0.00     0.037 A 
ATOM     52  C   UNL A   1      43.597  25.622  29.205  1.00  0.00     0.049 A 
ATOM     53  C   UNL A   1      42.241  29.649  33.126  1.00  0.00     0.074 A 
ATOM     54  C   UNL A   1      44.519  26.646  29.057  1.00  0.00     0.029 A 
ATOM     55  N   UNL A   1      43.346  25.509  30.569  1.00  0.00    -0.354 N 
ATOM     56  N   UNL A   1      42.547  28.582  32.435  1.00  0.00    -0.248 NA
ATOM     57  C   UNL A   1      42.802  29.627  34.472  1.00  0.00     0.031 C 
ATOM     58  C   UNL A   1      44.749  27.208  30.341  1.00  0.00     0.029 A 
ATOM     59  C   UNL A   1      43.996  26.507  31.269  1.00  0.00     0.049 A 
ATOM     60  H   UNL A   1      42.783  24.813  30.979  1.00  0.00     0.167 HD
ATOM     61  C   UNL A   1      43.351  27.767  33.191  1.00  0.00     0.074 A 
ATOM     62  C   UNL A   1      43.474  28.463  34.460  1.00  0.00     0.031 C 
ATOM     63  C   UNL A   1      43.882  26.598  32.718  1.00  0.00     0.037 A 
BRANCH  50  64
ATOM     64  C   UNL A   1      43.111  24.039  27.166  1.00  0.00     0.057 A 
ATOM     65  C   UNL A   1      43.643  24.562  25.968  1.00  0.00     0.134 A 
ATOM     66  C   UNL A   1      42.988  22.638  27.167  1.00  0.00     0.134 A 
ATOM     67  F   UNL A   1      43.882  25.872  25.816  1.00  0.00    -0.206 F 
ATOM     68  C   UNL A   1      43.951  23.771  24.853  1.00  0.00     0.040 A 
ATOM     69  C   UNL A   1      43.269  21.836  26.050  1.00  0.00     0.040 A 
ATOM     70  F   UNL A   1      42.629  21.949  28.252  1.00  0.00    -0.206 F 
ATOM     71  C   UNL A   1      43.745  22.403  24.882  1.00  0.00     0.006 A 
ENDBRANCH  50  64
BRANCH  51  72
ATOM     72  C   UNL A   1      40.108  31.278  33.016  1.00  0.00     0.057 A 
ATOM     73  C   UNL A   1      39.159  30.280  33.320  1.00  0.00     0.134 A 
ATOM     74  C   UNL A   1      39.916  32.532  33.604  1.00  0.00     0.134 A 
ATOM     75  F   UNL A   1      39.266  29.061  32.766  1.00  0.00    -0.206 F 
ATOM     76  C   UNL A   1      38.189  30.461  34.309  1.00  0.00     0.040 A 
ATOM     77  C   UNL A   1      38.925  32.730  34.577  1.00  0.00     0.040 A 
ATOM     78  F   UNL A   1      40.766  33.540  33.361  1.00  0.00    -0.206 F 
ATOM     79  C   UNL A   1      38.104  31.677  34.977  1.00  0.00     0.006 A 
ENDBRANCH  51  72
BRANCH  63  80
ATOM     80  C   UNL A   1      44.447  25.476  33.563  1.00  0.00     0.057 A 
ATOM     81  C   UNL A   1      43.694  24.718  34.473  1.00  0.00     0.134 A 
ATOM     82  C   UNL A   1      45.767  25.005  33.356  1.00  0.00     0.134 A 
ATOM     83  F   UNL A   1      42.391  24.950  34.680  1.00  0.00    -0.206 F 
ATOM     84  C   UNL A   1      44.230  23.632  35.178  1.00  0.00     0.040 A 
ATOM     85  C   UNL A   1      46.287  23.879  34.000  1.00  0.00     0.040 A 
ATOM     86  F   UNL A   1      46.608  25.592  32.493  1.00  0.00    -0.206 F 
ATOM     87  C   UNL A   1      45.525  23.199  34.934  1.00  0.00     0.006 A 
ENDBRANCH  63  80
ENDBRANCH  37  38
ENDBRANCH  29  32
ENDBRANCH  27  28
ENDBRANCH  26  27
ENDBRANCH   1  26
TORSDOF 14
ENDMDL
MODEL 2
REMARK VINA RESULT:     -12.3      1.969      3.337
REMARK SMILES Cc1ccc(S(=O)(=O)Nc2ccccc2/C=C/C(=O)NCCCNC(=O)c2ccc(-c3c4nc(c(-c5c(F)cccc5F)c5ccc([nH]5)c(-c5c(F)cccc5F)c5nc(c(-c6c(F)cccc6F)c6ccc3[nH]6)C=C5)C=C4)cc2)cc1
REMARK SMILES IDX 21 1 20 2 18 3 19 4 17 6 16 7 15 8 10 9 11 10 12 11 14 12
REMARK SMILES IDX 13 13 9 14 6 16 7 17 8 18 5 19 1 20 2 21 3 22 82 23 4 24
REMARK SMILES IDX 81 25 22 26 23 27 24 28 25 29 26 31 27 32 28 33 80 34 29 35
REMARK SMILES IDX 79 36 30 37 31 38 32 39 73 40 33 41 78 42 72 43 74 44 34 45
REMARK SMILES IDX 77 46 71 47 70 48 35 50 61 51 44 52 60 53 45 54 48 55 59 56
REMARK SMILES IDX 75 57 46 58 47 59 58 61 76 62 49 63 36 64 37 65 42 66 38 67
REMARK SMILES IDX 39 68 41 69 43 70 40 71 62 72 63 73 68 74 64 75 65 76 67 77
REMARK SMILES IDX 69 78 66 79 50 80 51 81 56 82 52 83 53 84 55 85 57 86 54 87
REMARK H PARENT 20 5 9 15 24 30 74 49 48 60
REMARK Flexibility Score: inf
ROOT
ATOM      1  C   UNL A   1      32.093  30.077  26.908  1.00  0.00     0.118 C 
ENDROOT
BRANCH   1   2
ATOM      2  N   UNL A   1      31.519  30.297  25.592  1.00  0.00    -0.352 N 
ATOM      3  C   UNL A   1      31.099  29.388  24.672  1.00  0.00     0.244 C 
ATOM      4  O   UNL A   1      30.493  29.757  23.671  1.00  0.00    -0.270 OA
ATOM      5  H   UNL A   1      31.420  31.240  25.328  1.00  0.00     0.163 HD
BRANCH   3   6
ATOM      6  C   UNL A   1      31.339  27.942  24.878  1.00  0.00     0.072 C 
ATOM      7  C   UNL A   1      30.571  27.012  24.296  1.00  0.00     0.016 C 
BRANCH   7   8
ATOM      8  C   UNL A   1      30.564  25.581  24.611  1.00  0.00    -0.001 A 
ATOM      9  C   UNL A   1      30.922  24.605  23.660  1.00  0.00     0.056 A 
ATOM     10  C   UNL A   1      31.079  23.274  24.052  1.00  0.00     0.027 A 
ATOM     11  C   UNL A   1      30.885  22.909  25.387  1.00  0.00     0.002 A 
ATOM     12  C   UNL A   1      30.391  25.205  25.951  1.00  0.00     0.010 A 
ATOM     13  C   UNL A   1      30.547  23.874  26.336  1.00  0.00     0.001 A 
BRANCH   9  14
ATOM     14  N   UNL A   1      31.233  24.980  22.320  1.00  0.00    -0.279 N 
ATOM     15  H   UNL A   1      30.512  25.021  21.651  1.00  0.00     0.180 HD
BRANCH  14  16
ATOM     16  S   UNL A   1      32.815  25.357  21.856  1.00  0.00     0.261 S 
ATOM     17  O   UNL A   1      32.878  26.805  21.939  1.00  0.00    -0.201 OA
ATOM     18  O   UNL A   1      33.110  24.672  20.620  1.00  0.00    -0.201 OA
BRANCH  16  19
ATOM     19  C   UNL A   1      33.927  24.708  23.093  1.00  0.00     0.087 A 
ATOM     20  C   UNL A   1      36.518  23.158  26.170  1.00  0.00     0.044 C 
ATOM     21  C   UNL A   1      35.628  23.699  25.089  1.00  0.00    -0.051 A 
ATOM     22  C   UNL A   1      35.364  22.950  23.933  1.00  0.00     0.005 A 
ATOM     23  C   UNL A   1      34.992  24.934  25.257  1.00  0.00     0.005 A 
ATOM     24  C   UNL A   1      34.533  23.458  22.926  1.00  0.00     0.022 A 
ATOM     25  C   UNL A   1      34.120  25.419  24.281  1.00  0.00     0.022 A 
ENDBRANCH  16  19
ENDBRANCH  14  16
ENDBRANCH   9  14
ENDBRANCH   7   8
ENDBRANCH   3   6
ENDBRANCH   1   2
BRANCH   1  26
ATOM     26  C   UNL A   1      33.122  31.147  27.255  1.00  0.00     0.042 C 
BRANCH  26  27
ATOM     27  C   UNL A   1      34.515  30.571  27.387  1.00  0.00     0.118 C 
BRANCH  27  28
ATOM     28  N   UNL A   1      35.425  31.440  28.128  1.00  0.00    -0.352 N 
ATOM     29  C   UNL A   1      36.589  31.161  28.818  1.00  0.00     0.251 C 
ATOM     30  H   UNL A   1      35.164  32.389  28.138  1.00  0.00     0.163 HD
ATOM     31  O   UNL A   1      37.160  32.070  29.415  1.00  0.00    -0.269 OA
BRANCH  29  32
ATOM     32  C   UNL A   1      37.256  29.843  28.671  1.00  0.00     0.039 A 
ATOM     33  C   UNL A   1      37.280  29.032  29.816  1.00  0.00     0.014 A 
ATOM     34  C   UNL A   1      38.177  29.645  27.659  1.00  0.00     0.014 A 
ATOM     35  C   UNL A   1      38.425  28.303  30.096  1.00  0.00     0.010 A 
ATOM     36  C   UNL A   1      39.383  29.110  28.017  1.00  0.00     0.010 A 
ATOM     37  C   UNL A   1      39.515  28.488  29.260  1.00  0.00    -0.014 A 
BRANCH  37  38
ATOM     38  C   UNL A   1      40.839  27.963  29.492  1.00  0.00     0.031 A 
ATOM     39  C   UNL A   1      41.107  26.630  28.933  1.00  0.00     0.074 A 
ATOM     40  C   UNL A   1      41.791  28.801  29.955  1.00  0.00     0.049 A 
ATOM     41  N   UNL A   1      42.157  25.938  29.168  1.00  0.00    -0.248 NA
ATOM     42  C   UNL A   1      40.158  25.945  28.056  1.00  0.00     0.031 C 
ATOM     43  C   UNL A   1      43.239  28.642  29.894  1.00  0.00     0.029 A 
ATOM     44  N   UNL A   1      41.604  29.920  30.778  1.00  0.00    -0.354 N 
ATOM     45  C   UNL A   1      42.172  24.881  28.284  1.00  0.00     0.074 A 
ATOM     46  C   UNL A   1      40.871  24.887  27.669  1.00  0.00     0.031 C 
ATOM     47  C   UNL A   1      43.799  29.395  30.858  1.00  0.00     0.029 A 
ATOM     48  C   UNL A   1      42.710  29.930  31.659  1.00  0.00     0.049 A 
ATOM     49  H   UNL A   1      40.858  30.563  30.751  1.00  0.00     0.167 HD
ATOM     50  C   UNL A   1      43.353  24.225  28.108  1.00  0.00     0.037 A 
ATOM     51  C   UNL A   1      42.532  29.667  32.989  1.00  0.00     0.037 A 
ATOM     52  C   UNL A   1      44.317  24.705  29.102  1.00  0.00     0.049 A 
ATOM     53  C   UNL A   1      43.232  28.398  33.415  1.00  0.00     0.074 A 
ATOM     54  C   UNL A   1      45.307  25.673  29.052  1.00  0.00     0.029 A 
ATOM     55  N   UNL A   1      44.058  24.472  30.449  1.00  0.00    -0.354 N 
ATOM     56  N   UNL A   1      43.466  27.388  32.618  1.00  0.00    -0.248 NA
ATOM     57  C   UNL A   1      43.789  28.203  34.749  1.00  0.00     0.031 C 
ATOM     58  C   UNL A   1      45.573  26.087  30.385  1.00  0.00     0.029 A 
ATOM     59  C   UNL A   1      44.772  25.348  31.242  1.00  0.00     0.049 A 
ATOM     60  H   UNL A   1      43.448  23.778  30.790  1.00  0.00     0.167 HD
ATOM     61  C   UNL A   1      44.212  26.448  33.285  1.00  0.00     0.074 A 
ATOM     62  C   UNL A   1      44.381  27.004  34.616  1.00  0.00     0.031 C 
ATOM     63  C   UNL A   1      44.663  25.300  32.693  1.00  0.00     0.037 A 
BRANCH  50  64
ATOM     64  C   UNL A   1      43.729  23.371  26.917  1.00  0.00     0.057 A 
ATOM     65  C   UNL A   1      43.167  22.084  26.775  1.00  0.00     0.134 A 
ATOM     66  C   UNL A   1      44.666  23.693  25.919  1.00  0.00     0.134 A 
ATOM     67  F   UNL A   1      42.215  21.636  27.604  1.00  0.00    -0.206 F 
ATOM     68  C   UNL A   1      43.557  21.180  25.778  1.00  0.00     0.040 A 
ATOM     69  C   UNL A   1      45.084  22.789  24.930  1.00  0.00     0.040 A 
ATOM     70  F   UNL A   1      45.207  24.907  25.808  1.00  0.00    -0.206 F 
ATOM     71  C   UNL A   1      44.536  21.522  24.861  1.00  0.00     0.006 A 
ENDBRANCH  50  64
BRANCH  51  72
ATOM     72  C   UNL A   1      41.214  30.170  33.481  1.00  0.00     0.057 A 
ATOM     73  C   UNL A   1      41.066  31.566  33.604  1.00  0.00     0.134 A 
ATOM     74  C   UNL A   1      40.043  29.421  33.334  1.00  0.00     0.134 A 
ATOM     75  F   UNL A   1      42.147  32.344  33.779  1.00  0.00    -0.206 F 
ATOM     76  C   UNL A   1      39.838  32.200  33.391  1.00  0.00     0.040 A 
ATOM     77  C   UNL A   1      38.802  30.049  33.149  1.00  0.00     0.040 A 
ATOM     78  F   UNL A   1      40.092  28.086  33.219  1.00  0.00    -0.206 F 
ATOM     79  C   UNL A   1      38.709  31.440  33.111  1.00  0.00     0.006 A 
ENDBRANCH  51  72
BRANCH  63  80
ATOM     80  C   UNL A   1      45.150  24.063  33.418  1.00  0.00     0.057 A 
ATOM     81  C   UNL A   1      46.414  23.946  34.018  1.00  0.00     0.134 A 
ATOM     82  C   UNL A   1      44.271  22.985  33.684  1.00  0.00     0.134 A 
ATOM     83  F   UNL A   1      47.312  24.939  33.975  1.00  0.00    -0.206 F 
ATOM     84  C   UNL A   1      46.800  22.817  34.753  1.00  0.00     0.040 A 
ATOM     85  C   UNL A   1      44.622  21.888  34.477  1.00  0.00     0.040 A 
ATOM     86  F   UNL A   1      43.015  22.955  33.217  1.00  0.00    -0.206 F 
ATOM     87  C   UNL A   1      45.900  21.790  34.997  1.00  0.00     0.006 A 
ENDBRANCH  63  80
ENDBRANCH  37  38
ENDBRANCH  29  32
ENDBRANCH  27  28
ENDBRANCH  26  27
ENDBRANCH   1  26
TORSDOF 14
ENDMDL
MODEL 3
REMARK VINA RESULT:     -12.1      2.078      3.659
REMARK SMILES Cc1ccc(S(=O)(=O)Nc2ccccc2/C=C/C(=O)NCCCNC(=O)c2ccc(-c3c4nc(c(-c5c(F)cccc5F)c5ccc([nH]5)c(-c5c(F)cccc5F)c5nc(c(-c6c(F)cccc6F)c6ccc3[nH]6)C=C5)C=C4)cc2)cc1
REMARK SMILES IDX 21 1 20 2 18 3 19 4 17 6 16 7 15 8 10 9 11 10 12 11 14 12
REMARK SMILES IDX 13 13 9 14 6 16 7 17 8 18 5 19 1 20 2 21 3 22 82 23 4 24
REMARK SMILES IDX 81 25 22 26 23 27 24 28 25 29 26 31 27 32 28 33 80 34 29 35
REMARK SMILES IDX 79 36 30 37 31 38 32 39 73 40 33 41 78 42 72 43 74 44 34 45
REMARK SMILES IDX 77 46 71 47 70 48 35 50 61 51 44 52 60 53 45 54 48 55 59 56
REMARK SMILES IDX 75 57 46 58 47 59 58 61 76 62 49 63 36 64 37 65 42 66 38 67
REMARK SMILES IDX 39 68 41 69 43 70 40 71 62 72 63 73 68 74 64 75 65 76 67 77
REMARK SMILES IDX 69 78 66 79 50 80 51 81 56 82 52 83 53 84 55 85 57 86 54 87
REMARK H PARENT 20 5 9 15 24 30 74 49 48 60
REMARK Flexibility Score: inf
ROOT
ATOM      1  C   UNL A   1      33.786  29.915  26.822  1.00  0.00     0.118 C 
ENDROOT
BRANCH   1   2
ATOM      2  N   UNL A   1      32.671  29.427  27.612  1.00  0.00    -0.352 N 
ATOM      3  C   UNL A   1      31.800  28.417  27.343  1.00  0.00     0.244 C 
ATOM      4  O   UNL A   1      31.010  28.036  28.202  1.00  0.00    -0.270 OA
ATOM      5  H   UNL A   1      32.523  29.892  28.467  1.00  0.00     0.163 HD
BRANCH   3   6
ATOM      6  C   UNL A   1      31.813  27.743  26.025  1.00  0.00     0.072 C 
ATOM      7  C   UNL A   1      32.187  26.464  25.893  1.00  0.00     0.016 C 
BRANCH   7   8
ATOM      8  C   UNL A   1      32.465  25.774  24.631  1.00  0.00    -0.001 A 
ATOM      9  C   UNL A   1      31.719  24.653  24.213  1.00  0.00     0.056 A 
ATOM     10  C   UNL A   1      31.894  24.141  22.926  1.00  0.00     0.027 A 
ATOM     11  C   UNL A   1      32.804  24.740  22.050  1.00  0.00     0.002 A 
ATOM     12  C   UNL A   1      33.360  26.378  23.736  1.00  0.00     0.010 A 
ATOM     13  C   UNL A   1      33.531  25.860  22.452  1.00  0.00     0.001 A 
BRANCH   9  14
ATOM     14  N   UNL A   1      30.708  24.102  25.054  1.00  0.00    -0.279 N 
ATOM     15  H   UNL A   1      29.774  24.393  24.938  1.00  0.00     0.180 HD
BRANCH  14  16
ATOM     16  S   UNL A   1      31.079  22.960  26.244  1.00  0.00     0.261 S 
ATOM     17  O   UNL A   1      30.084  21.918  26.062  1.00  0.00    -0.201 OA
ATOM     18  O   UNL A   1      31.217  23.640  27.510  1.00  0.00    -0.201 OA
BRANCH  16  19
ATOM     19  C   UNL A   1      32.669  22.248  25.856  1.00  0.00     0.087 A 
ATOM     20  C   UNL A   1      36.533  20.518  25.047  1.00  0.00     0.044 C 
ATOM     21  C   UNL A   1      35.186  21.125  25.314  1.00  0.00    -0.051 A 
ATOM     22  C   UNL A   1      34.023  20.558  24.773  1.00  0.00     0.005 A 
ATOM     23  C   UNL A   1      35.071  22.227  26.168  1.00  0.00     0.005 A 
ATOM     24  C   UNL A   1      32.767  21.128  25.024  1.00  0.00     0.022 A 
ATOM     25  C   UNL A   1      33.817  22.764  26.465  1.00  0.00     0.022 A 
ENDBRANCH  16  19
ENDBRANCH  14  16
ENDBRANCH   9  14
ENDBRANCH   7   8
ENDBRANCH   3   6
ENDBRANCH   1   2
BRANCH   1  26
ATOM     26  C   UNL A   1      35.062  30.003  27.650  1.00  0.00     0.042 C 
BRANCH  26  27
ATOM     27  C   UNL A   1      35.588  31.419  27.732  1.00  0.00     0.118 C 
BRANCH  27  28
ATOM     28  N   UNL A   1      34.596  32.368  28.231  1.00  0.00    -0.352 N 
ATOM     29  C   UNL A   1      34.596  33.181  29.348  1.00  0.00     0.251 C 
ATOM     30  H   UNL A   1      33.787  32.442  27.676  1.00  0.00     0.163 HD
ATOM     31  O   UNL A   1      33.606  33.867  29.587  1.00  0.00    -0.269 OA
BRANCH  29  32
ATOM     32  C   UNL A   1      35.841  33.389  30.130  1.00  0.00     0.039 A 
ATOM     33  C   UNL A   1      36.900  34.013  29.452  1.00  0.00     0.014 A 
ATOM     34  C   UNL A   1      36.091  32.614  31.248  1.00  0.00     0.014 A 
ATOM     35  C   UNL A   1      38.191  33.561  29.668  1.00  0.00     0.010 A 
ATOM     36  C   UNL A   1      37.317  32.012  31.321  1.00  0.00     0.010 A 
ATOM     37  C   UNL A   1      38.348  32.455  30.489  1.00  0.00    -0.014 A 
BRANCH  37  38
ATOM     38  C   UNL A   1      39.583  31.735  30.686  1.00  0.00     0.031 A 
ATOM     39  C   UNL A   1      39.740  30.503  29.898  1.00  0.00     0.074 A 
ATOM     40  C   UNL A   1      40.586  32.348  31.351  1.00  0.00     0.049 A 
ATOM     41  N   UNL A   1      40.683  29.654  30.052  1.00  0.00    -0.248 NA
ATOM     42  C   UNL A   1      38.789  30.116  28.857  1.00  0.00     0.031 C 
ATOM     43  C   UNL A   1      42.007  32.022  31.337  1.00  0.00     0.029 A 
ATOM     44  N   UNL A   1      40.464  33.312  32.361  1.00  0.00    -0.354 N 
ATOM     45  C   UNL A   1      40.646  28.783  28.985  1.00  0.00     0.074 A 
ATOM     46  C   UNL A   1      39.405  29.065  28.314  1.00  0.00     0.031 C 
ATOM     47  C   UNL A   1      42.574  32.510  32.455  1.00  0.00     0.029 A 
ATOM     48  C   UNL A   1      41.495  33.021  33.285  1.00  0.00     0.049 A 
ATOM     49  H   UNL A   1      39.800  34.037  32.416  1.00  0.00     0.167 HD
ATOM     50  C   UNL A   1      41.755  28.028  28.750  1.00  0.00     0.037 A 
ATOM     51  C   UNL A   1      41.187  32.544  34.529  1.00  0.00     0.037 A 
ATOM     52  C   UNL A   1      42.689  28.193  29.866  1.00  0.00     0.049 A 
ATOM     53  C   UNL A   1      41.705  31.141  34.741  1.00  0.00     0.074 A 
ATOM     54  C   UNL A   1      43.783  29.022  30.055  1.00  0.00     0.029 A 
ATOM     55  N   UNL A   1      42.304  27.752  31.129  1.00  0.00    -0.354 N 
ATOM     56  N   UNL A   1      41.883  30.272  33.780  1.00  0.00    -0.248 NA
ATOM     57  C   UNL A   1      42.134  30.637  36.041  1.00  0.00     0.031 C 
ATOM     58  C   UNL A   1      43.993  29.148  31.455  1.00  0.00     0.029 A 
ATOM     59  C   UNL A   1      43.051  28.371  32.111  1.00  0.00     0.049 A 
ATOM     60  H   UNL A   1      41.595  27.089  31.299  1.00  0.00     0.167 HD
ATOM     61  C   UNL A   1      42.466  29.141  34.294  1.00  0.00     0.074 A 
ATOM     62  C   UNL A   1      42.594  29.418  35.714  1.00  0.00     0.031 C 
ATOM     63  C   UNL A   1      42.827  28.073  33.519  1.00  0.00     0.037 A 
BRANCH  50  64
ATOM     64  C   UNL A   1      42.121  27.366  27.440  1.00  0.00     0.057 A 
ATOM     65  C   UNL A   1      42.347  25.973  27.399  1.00  0.00     0.134 A 
ATOM     66  C   UNL A   1      42.337  28.011  26.208  1.00  0.00     0.134 A 
ATOM     67  F   UNL A   1      42.133  25.194  28.468  1.00  0.00    -0.206 F 
ATOM     68  C   UNL A   1      42.815  25.302  26.261  1.00  0.00     0.040 A 
ATOM     69  C   UNL A   1      42.829  27.356  25.068  1.00  0.00     0.040 A 
ATOM     70  F   UNL A   1      42.051  29.299  26.012  1.00  0.00    -0.206 F 
ATOM     71  C   UNL A   1      43.079  25.996  25.093  1.00  0.00     0.006 A 
ENDBRANCH  50  64
BRANCH  51  72
ATOM     72  C   UNL A   1      39.902  33.110  35.037  1.00  0.00     0.057 A 
ATOM     73  C   UNL A   1      38.781  32.255  35.036  1.00  0.00     0.134 A 
ATOM     74  C   UNL A   1      39.877  34.183  35.933  1.00  0.00     0.134 A 
ATOM     75  F   UNL A   1      38.725  31.221  34.181  1.00  0.00    -0.206 F 
ATOM     76  C   UNL A   1      37.782  32.346  36.010  1.00  0.00     0.040 A 
ATOM     77  C   UNL A   1      38.861  34.299  36.894  1.00  0.00     0.040 A 
ATOM     78  F   UNL A   1      40.898  35.050  35.993  1.00  0.00    -0.206 F 
ATOM     79  C   UNL A   1      37.849  33.343  36.975  1.00  0.00     0.006 A 
ENDBRANCH  51  72
BRANCH  63  80
ATOM     80  C   UNL A   1      43.114  26.673  34.020  1.00  0.00     0.057 A 
ATOM     81  C   UNL A   1      44.364  26.041  33.924  1.00  0.00     0.134 A 
ATOM     82  C   UNL A   1      42.155  25.964  34.784  1.00  0.00     0.134 A 
ATOM     83  F   UNL A   1      45.417  26.639  33.350  1.00  0.00    -0.206 F 
ATOM     84  C   UNL A   1      44.617  24.777  34.473  1.00  0.00     0.040 A 
ATOM     85  C   UNL A   1      42.420  24.737  35.397  1.00  0.00     0.040 A 
ATOM     86  F   UNL A   1      40.922  26.443  35.005  1.00  0.00    -0.206 F 
ATOM     87  C   UNL A   1      43.649  24.125  35.224  1.00  0.00     0.006 A 
ENDBRANCH  63  80
ENDBRANCH  37  38
ENDBRANCH  29  32
ENDBRANCH  27  28
ENDBRANCH  26  27
ENDBRANCH   1  26
TORSDOF 14
ENDMDL
