MODEL 1
REMARK VINA RESULT:     -11.6      0.000      0.000
REMARK SMILES CCOc1ccccc1[C@H](C(=O)NCCCNC(=O)c1ccc(-c2c3nc(c(-c4c(F)cccc4F)c4ccc([nH]4)c(-c4c(F)cccc4F)c4nc(c(-c5c(F)cccc5F)c5ccc2[nH]5)C=C4)C=C3)cc1)[NH+]1CCC([NH+]2CCSCC2)CC1
REMARK SMILES IDX 14 1 13 2 11 3 12 4 10 6 9 7 4 8 5 9 6 10 8 11 7 12 3 13
REMARK SMILES IDX 2 14 1 15 74 16 75 17 85 18 76 20 84 21 77 22 78 23 79 24
REMARK SMILES IDX 83 25 80 27 82 28 81 29 15 30 16 31 17 32 18 33 19 35 20 36
REMARK SMILES IDX 21 37 73 38 22 39 72 40 23 41 24 42 25 43 66 44 26 45 71 46
REMARK SMILES IDX 65 47 67 48 27 49 70 50 64 51 63 52 28 54 54 55 37 56 53 57
REMARK SMILES IDX 38 58 41 59 52 60 68 61 39 62 40 63 51 65 69 66 42 67 29 68
REMARK SMILES IDX 30 69 35 70 31 71 32 72 34 73 36 74 33 75 55 76 56 77 61 78
REMARK SMILES IDX 57 79 58 80 60 81 62 82 59 83 43 84 44 85 49 86 45 87 46 88
REMARK SMILES IDX 48 89 50 90 47 91
REMARK H PARENT 13 5 74 19 78 26 17 34 67 53 41 64
REMARK Flexibility Score: inf
ROOT
ATOM      1  C   UNL A   1      32.124  30.541  26.821  1.00  0.00     0.118 C 
ENDROOT
BRANCH   1   2
ATOM      2  N   UNL A   1      32.827  30.320  25.557  1.00  0.00    -0.351 N 
ATOM      3  C   UNL A   1      32.792  29.306  24.629  1.00  0.00     0.283 C 
ATOM      4  O   UNL A   1      33.516  29.507  23.646  1.00  0.00    -0.268 OA
ATOM      5  H   UNL A   1      33.452  31.044  25.324  1.00  0.00     0.163 HD
BRANCH   3   6
ATOM      6  C   UNL A   1      32.058  27.947  24.881  1.00  0.00     0.309 C 
BRANCH   6   7
ATOM      7  C   UNL A   1      30.675  27.800  24.248  1.00  0.00     0.061 A 
ATOM      8  C   UNL A   1      29.841  26.676  24.449  1.00  0.00     0.128 A 
ATOM      9  C   UNL A   1      28.562  26.641  23.893  1.00  0.00     0.047 A 
ATOM     10  C   UNL A   1      28.094  27.728  23.148  1.00  0.00     0.004 A 
ATOM     11  C   UNL A   1      30.173  28.892  23.512  1.00  0.00     0.014 A 
ATOM     12  C   UNL A   1      28.898  28.850  22.955  1.00  0.00     0.001 A 
BRANCH   8  13
ATOM     13  O   UNL A   1      30.388  25.511  24.920  1.00  0.00    -0.493 OA
BRANCH  13  14
ATOM     14  C   UNL A   1      29.989  25.083  26.218  1.00  0.00     0.226 C 
ATOM     15  C   UNL A   1      30.721  23.776  26.499  1.00  0.00     0.049 C 
ENDBRANCH  13  14
ENDBRANCH   8  13
ENDBRANCH   6   7
BRANCH   6  16
ATOM     16  N   UNL A   1      32.848  26.663  24.731  1.00  0.00    -0.320 N 
ATOM     17  C   UNL A   1      33.444  26.418  23.422  1.00  0.00     0.269 C 
ATOM     18  C   UNL A   1      33.800  26.319  25.793  1.00  0.00     0.269 C 
ATOM     19  H   UNL A   1      32.068  26.014  24.841  1.00  0.00     0.349 HD
ATOM     20  C   UNL A   1      33.776  24.948  23.233  1.00  0.00     0.126 C 
ATOM     21  C   UNL A   1      34.267  24.844  25.683  1.00  0.00     0.126 C 
ATOM     22  C   UNL A   1      34.805  24.497  24.272  1.00  0.00     0.195 C 
BRANCH  22  23
ATOM     23  N   UNL A   1      35.259  23.084  24.098  1.00  0.00    -0.331 N 
ATOM     24  C   UNL A   1      34.435  22.161  24.922  1.00  0.00     0.273 C 
ATOM     25  C   UNL A   1      36.696  22.890  24.381  1.00  0.00     0.273 C 
ATOM     26  H   UNL A   1      35.128  22.864  23.110  1.00  0.00     0.348 HD
ATOM     27  C   UNL A   1      34.697  20.666  24.701  1.00  0.00     0.131 C 
ATOM     28  C   UNL A   1      37.215  21.475  24.085  1.00  0.00     0.131 C 
ATOM     29  S   UNL A   1      36.407  20.212  25.110  1.00  0.00    -0.150 SA
ENDBRANCH  22  23
ENDBRANCH   6  16
ENDBRANCH   3   6
ENDBRANCH   1   2
BRANCH   1  30
ATOM     30  C   UNL A   1      31.362  31.862  26.859  1.00  0.00     0.042 C 
BRANCH  30  31
ATOM     31  C   UNL A   1      32.228  33.087  26.548  1.00  0.00     0.118 C 
BRANCH  31  32
ATOM     32  N   UNL A   1      32.180  34.150  27.547  1.00  0.00    -0.352 N 
ATOM     33  C   UNL A   1      33.048  34.483  28.565  1.00  0.00     0.251 C 
ATOM     34  H   UNL A   1      31.388  34.732  27.483  1.00  0.00     0.163 HD
ATOM     35  O   UNL A   1      32.785  35.421  29.316  1.00  0.00    -0.269 OA
BRANCH  33  36
ATOM     36  C   UNL A   1      34.263  33.674  28.816  1.00  0.00     0.039 A 
ATOM     37  C   UNL A   1      35.516  34.279  28.676  1.00  0.00     0.014 A 
ATOM     38  C   UNL A   1      34.182  32.348  29.236  1.00  0.00     0.014 A 
ATOM     39  C   UNL A   1      36.664  33.607  29.106  1.00  0.00     0.010 A 
ATOM     40  C   UNL A   1      35.306  31.724  29.770  1.00  0.00     0.010 A 
ATOM     41  C   UNL A   1      36.557  32.358  29.739  1.00  0.00    -0.014 A 
BRANCH  41  42
ATOM     42  C   UNL A   1      37.715  31.732  30.434  1.00  0.00     0.031 A 
ATOM     43  C   UNL A   1      38.560  30.699  29.743  1.00  0.00     0.074 A 
ATOM     44  C   UNL A   1      37.938  32.016  31.734  1.00  0.00     0.049 A 
ATOM     45  N   UNL A   1      39.540  29.975  30.223  1.00  0.00    -0.248 NA
ATOM     46  C   UNL A   1      38.237  30.413  28.337  1.00  0.00     0.031 C 
ATOM     47  C   UNL A   1      37.153  32.948  32.546  1.00  0.00     0.029 A 
ATOM     48  N   UNL A   1      38.886  31.539  32.607  1.00  0.00    -0.354 N 
ATOM     49  C   UNL A   1      39.932  29.135  29.189  1.00  0.00     0.074 A 
ATOM     50  C   UNL A   1      39.047  29.398  28.075  1.00  0.00     0.031 C 
ATOM     51  C   UNL A   1      37.675  33.006  33.782  1.00  0.00     0.029 A 
ATOM     52  C   UNL A   1      38.798  32.079  33.867  1.00  0.00     0.049 A 
ATOM     53  H   UNL A   1      39.565  30.872  32.353  1.00  0.00     0.167 HD
ATOM     54  C   UNL A   1      40.952  28.242  29.160  1.00  0.00     0.037 A 
ATOM     55  C   UNL A   1      39.532  31.851  34.972  1.00  0.00     0.037 A 
ATOM     56  C   UNL A   1      41.851  28.004  30.259  1.00  0.00     0.049 A 
ATOM     57  C   UNL A   1      40.650  30.851  34.920  1.00  0.00     0.074 A 
ATOM     58  C   UNL A   1      42.970  27.191  30.296  1.00  0.00     0.029 A 
ATOM     59  N   UNL A   1      41.727  28.571  31.518  1.00  0.00    -0.354 N 
ATOM     60  N   UNL A   1      41.063  30.127  33.910  1.00  0.00    -0.248 NA
ATOM     61  C   UNL A   1      41.401  30.631  36.165  1.00  0.00     0.031 C 
ATOM     62  C   UNL A   1      43.494  27.226  31.593  1.00  0.00     0.029 A 
ATOM     63  C   UNL A   1      42.728  28.097  32.351  1.00  0.00     0.049 A 
ATOM     64  H   UNL A   1      41.031  29.215  31.781  1.00  0.00     0.167 HD
ATOM     65  C   UNL A   1      42.131  29.379  34.388  1.00  0.00     0.074 A 
ATOM     66  C   UNL A   1      42.312  29.751  35.777  1.00  0.00     0.031 C 
ATOM     67  C   UNL A   1      42.891  28.466  33.735  1.00  0.00     0.037 A 
BRANCH  54  68
ATOM     68  C   UNL A   1      41.140  27.457  27.893  1.00  0.00     0.057 A 
ATOM     69  C   UNL A   1      41.941  27.926  26.842  1.00  0.00     0.134 A 
ATOM     70  C   UNL A   1      40.521  26.213  27.724  1.00  0.00     0.134 A 
ATOM     71  F   UNL A   1      42.555  29.116  26.933  1.00  0.00    -0.206 F 
ATOM     72  C   UNL A   1      42.083  27.207  25.653  1.00  0.00     0.040 A 
ATOM     73  C   UNL A   1      40.680  25.470  26.552  1.00  0.00     0.040 A 
ATOM     74  F   UNL A   1      39.748  25.698  28.693  1.00  0.00    -0.206 F 
ATOM     75  C   UNL A   1      41.454  25.973  25.508  1.00  0.00     0.006 A 
ENDBRANCH  54  68
BRANCH  55  76
ATOM     76  C   UNL A   1      39.251  32.614  36.216  1.00  0.00     0.057 A 
ATOM     77  C   UNL A   1      39.877  33.842  36.458  1.00  0.00     0.134 A 
ATOM     78  C   UNL A   1      38.345  32.150  37.176  1.00  0.00     0.134 A 
ATOM     79  F   UNL A   1      40.769  34.328  35.583  1.00  0.00    -0.206 F 
ATOM     80  C   UNL A   1      39.619  34.579  37.614  1.00  0.00     0.040 A 
ATOM     81  C   UNL A   1      38.060  32.888  38.328  1.00  0.00     0.040 A 
ATOM     82  F   UNL A   1      37.707  30.983  37.000  1.00  0.00    -0.206 F 
ATOM     83  C   UNL A   1      38.701  34.105  38.550  1.00  0.00     0.006 A 
ENDBRANCH  55  76
BRANCH  67  84
ATOM     84  C   UNL A   1      43.994  27.811  34.514  1.00  0.00     0.057 A 
ATOM     85  C   UNL A   1      43.809  26.581  35.159  1.00  0.00     0.134 A 
ATOM     86  C   UNL A   1      45.264  28.397  34.587  1.00  0.00     0.134 A 
ATOM     87  F   UNL A   1      42.613  25.976  35.139  1.00  0.00    -0.206 F 
ATOM     88  C   UNL A   1      44.845  25.966  35.864  1.00  0.00     0.040 A 
ATOM     89  C   UNL A   1      46.314  27.779  35.268  1.00  0.00     0.040 A 
ATOM     90  F   UNL A   1      45.509  29.571  33.986  1.00  0.00    -0.206 F 
ATOM     91  C   UNL A   1      46.104  26.562  35.914  1.00  0.00     0.006 A 
ENDBRANCH  67  84
ENDBRANCH  41  42
ENDBRANCH  33  36
ENDBRANCH  31  32
ENDBRANCH  30  31
ENDBRANCH   1  30
TORSDOF 15
ENDMDL
MODEL 2
REMARK VINA RESULT:     -11.4      4.512      9.203
REMARK SMILES CCOc1ccccc1[C@H](C(=O)NCCCNC(=O)c1ccc(-c2c3nc(c(-c4c(F)cccc4F)c4ccc([nH]4)c(-c4c(F)cccc4F)c4nc(c(-c5c(F)cccc5F)c5ccc2[nH]5)C=C4)C=C3)cc1)[NH+]1CCC([NH+]2CCSCC2)CC1
REMARK SMILES IDX 14 1 13 2 11 3 12 4 10 6 9 7 4 8 5 9 6 10 8 11 7 12 3 13
REMARK SMILES IDX 2 14 1 15 74 16 75 17 85 18 76 20 84 21 77 22 78 23 79 24
REMARK SMILES IDX 83 25 80 27 82 28 81 29 15 30 16 31 17 32 18 33 19 35 20 36
REMARK SMILES IDX 21 37 73 38 22 39 72 40 23 41 24 42 25 43 66 44 26 45 71 46
REMARK SMILES IDX 65 47 67 48 27 49 70 50 64 51 63 52 28 54 54 55 37 56 53 57
REMARK SMILES IDX 38 58 41 59 52 60 68 61 39 62 40 63 51 65 69 66 42 67 29 68
REMARK SMILES IDX 30 69 35 70 31 71 32 72 34 73 36 74 33 75 55 76 56 77 61 78
REMARK SMILES IDX 57 79 58 80 60 81 62 82 59 83 43 84 44 85 49 86 45 87 46 88
REMARK SMILES IDX 48 89 50 90 47 91
REMARK H PARENT 13 5 74 19 78 26 17 34 67 53 41 64
REMARK Flexibility Score: inf
ROOT
ATOM      1  C   UNL A   1      37.074  22.791  23.953  1.00  0.00     0.118 C 
ENDROOT
BRANCH   1   2
ATOM      2  N   UNL A   1      36.350  23.738  24.800  1.00  0.00    -0.351 N 
ATOM      3  C   UNL A   1      35.054  24.198  24.798  1.00  0.00     0.283 C 
ATOM      4  O   UNL A   1      34.802  24.979  25.725  1.00  0.00    -0.268 OA
ATOM      5  H   UNL A   1      36.903  24.126  25.516  1.00  0.00     0.163 HD
BRANCH   3   6
ATOM      6  C   UNL A   1      34.051  23.912  23.632  1.00  0.00     0.309 C 
BRANCH   6   7
ATOM      7  C   UNL A   1      33.424  22.518  23.607  1.00  0.00     0.061 A 
ATOM      8  C   UNL A   1      33.397  21.656  24.727  1.00  0.00     0.128 A 
ATOM      9  C   UNL A   1      32.747  20.424  24.650  1.00  0.00     0.047 A 
ATOM     10  C   UNL A   1      32.103  20.046  23.466  1.00  0.00     0.004 A 
ATOM     11  C   UNL A   1      32.750  22.126  22.434  1.00  0.00     0.014 A 
ATOM     12  C   UNL A   1      32.107  20.893  22.360  1.00  0.00     0.001 A 
BRANCH   8  13
ATOM     13  O   UNL A   1      34.255  21.885  25.771  1.00  0.00    -0.493 OA
BRANCH  13  14
ATOM     14  C   UNL A   1      33.842  21.447  27.061  1.00  0.00     0.226 C 
ATOM     15  C   UNL A   1      32.943  22.537  27.633  1.00  0.00     0.049 C 
ENDBRANCH  13  14
ENDBRANCH   8  13
ENDBRANCH   6   7
BRANCH   6  16
ATOM     16  N   UNL A   1      33.014  24.965  23.298  1.00  0.00    -0.320 N 
ATOM     17  C   UNL A   1      31.990  25.208  24.308  1.00  0.00     0.269 C 
ATOM     18  C   UNL A   1      33.487  26.237  22.740  1.00  0.00     0.269 C 
ATOM     19  H   UNL A   1      32.571  24.473  22.522  1.00  0.00     0.349 HD
ATOM     20  C   UNL A   1      30.772  25.886  23.706  1.00  0.00     0.126 C 
ATOM     21  C   UNL A   1      32.322  27.062  22.136  1.00  0.00     0.126 C 
ATOM     22  C   UNL A   1      31.152  27.253  23.133  1.00  0.00     0.195 C 
BRANCH  22  23
ATOM     23  N   UNL A   1      29.990  28.029  22.604  1.00  0.00    -0.331 N 
ATOM     24  C   UNL A   1      30.370  29.445  22.359  1.00  0.00     0.273 C 
ATOM     25  C   UNL A   1      28.792  27.956  23.467  1.00  0.00     0.273 C 
ATOM     26  H   UNL A   1      29.734  27.590  21.720  1.00  0.00     0.348 HD
ATOM     27  C   UNL A   1      29.309  30.304  21.659  1.00  0.00     0.131 C 
ATOM     28  C   UNL A   1      27.547  28.639  22.882  1.00  0.00     0.131 C 
ATOM     29  S   UNL A   1      27.784  30.423  22.638  1.00  0.00    -0.150 SA
ENDBRANCH  22  23
ENDBRANCH   6  16
ENDBRANCH   3   6
ENDBRANCH   1   2
BRANCH   1  30
ATOM     30  C   UNL A   1      37.235  21.416  24.595  1.00  0.00     0.042 C 
BRANCH  30  31
ATOM     31  C   UNL A   1      38.362  21.344  25.630  1.00  0.00     0.118 C 
BRANCH  31  32
ATOM     32  N   UNL A   1      39.225  20.170  25.527  1.00  0.00    -0.352 N 
ATOM     33  C   UNL A   1      40.527  19.959  25.928  1.00  0.00     0.251 C 
ATOM     34  H   UNL A   1      38.803  19.393  25.093  1.00  0.00     0.163 HD
ATOM     35  O   UNL A   1      41.070  18.877  25.708  1.00  0.00    -0.269 OA
BRANCH  33  36
ATOM     36  C   UNL A   1      41.309  21.048  26.557  1.00  0.00     0.039 A 
ATOM     37  C   UNL A   1      41.984  21.954  25.734  1.00  0.00     0.014 A 
ATOM     38  C   UNL A   1      41.343  21.216  27.940  1.00  0.00     0.014 A 
ATOM     39  C   UNL A   1      42.553  23.106  26.288  1.00  0.00     0.010 A 
ATOM     40  C   UNL A   1      41.805  22.415  28.477  1.00  0.00     0.010 A 
ATOM     41  C   UNL A   1      42.389  23.387  27.654  1.00  0.00    -0.014 A 
BRANCH  41  42
ATOM     42  C   UNL A   1      42.753  24.712  28.227  1.00  0.00     0.031 A 
ATOM     43  C   UNL A   1      41.708  25.773  28.437  1.00  0.00     0.074 A 
ATOM     44  C   UNL A   1      44.050  25.000  28.457  1.00  0.00     0.049 A 
ATOM     45  N   UNL A   1      41.855  27.014  28.827  1.00  0.00    -0.248 NA
ATOM     46  C   UNL A   1      40.318  25.402  28.131  1.00  0.00     0.031 C 
ATOM     47  C   UNL A   1      45.175  24.088  28.233  1.00  0.00     0.029 A 
ATOM     48  N   UNL A   1      44.647  26.148  28.919  1.00  0.00    -0.354 N 
ATOM     49  C   UNL A   1      40.585  27.576  28.790  1.00  0.00     0.074 A 
ATOM     50  C   UNL A   1      39.690  26.557  28.285  1.00  0.00     0.031 C 
ATOM     51  C   UNL A   1      46.316  24.695  28.597  1.00  0.00     0.029 A 
ATOM     52  C   UNL A   1      46.013  26.054  29.030  1.00  0.00     0.049 A 
ATOM     53  H   UNL A   1      44.143  26.962  29.151  1.00  0.00     0.167 HD
ATOM     54  C   UNL A   1      40.195  28.818  29.165  1.00  0.00     0.037 A 
ATOM     55  C   UNL A   1      46.925  26.961  29.429  1.00  0.00     0.037 A 
ATOM     56  C   UNL A   1      41.081  29.820  29.697  1.00  0.00     0.049 A 
ATOM     57  C   UNL A   1      46.472  28.335  29.830  1.00  0.00     0.074 A 
ATOM     58  C   UNL A   1      40.768  31.073  30.193  1.00  0.00     0.029 A 
ATOM     59  N   UNL A   1      42.459  29.686  29.791  1.00  0.00    -0.354 N 
ATOM     60  N   UNL A   1      45.257  28.823  29.872  1.00  0.00    -0.248 NA
ATOM     61  C   UNL A   1      47.517  29.286  30.234  1.00  0.00     0.031 C 
ATOM     62  C   UNL A   1      41.961  31.717  30.540  1.00  0.00     0.029 A 
ATOM     63  C   UNL A   1      43.014  30.848  30.304  1.00  0.00     0.049 A 
ATOM     64  H   UNL A   1      42.967  28.883  29.534  1.00  0.00     0.167 HD
ATOM     65  C   UNL A   1      45.387  30.130  30.322  1.00  0.00     0.074 A 
ATOM     66  C   UNL A   1      46.799  30.352  30.557  1.00  0.00     0.031 C 
ATOM     67  C   UNL A   1      44.422  31.061  30.522  1.00  0.00     0.037 A 
BRANCH  54  68
ATOM     68  C   UNL A   1      38.740  29.157  29.007  1.00  0.00     0.057 A 
ATOM     69  C   UNL A   1      38.201  29.559  27.777  1.00  0.00     0.134 A 
ATOM     70  C   UNL A   1      37.864  29.075  30.096  1.00  0.00     0.134 A 
ATOM     71  F   UNL A   1      38.985  29.670  26.694  1.00  0.00    -0.206 F 
ATOM     72  C   UNL A   1      36.855  29.906  27.646  1.00  0.00     0.040 A 
ATOM     73  C   UNL A   1      36.510  29.391  29.972  1.00  0.00     0.040 A 
ATOM     74  F   UNL A   1      38.309  28.688  31.302  1.00  0.00    -0.206 F 
ATOM     75  C   UNL A   1      36.004  29.819  28.746  1.00  0.00     0.006 A 
ENDBRANCH  54  68
BRANCH  55  76
ATOM     76  C   UNL A   1      48.361  26.584  29.498  1.00  0.00     0.057 A 
ATOM     77  C   UNL A   1      49.226  26.866  28.435  1.00  0.00     0.134 A 
ATOM     78  C   UNL A   1      48.905  25.954  30.624  1.00  0.00     0.134 A 
ATOM     79  F   UNL A   1      48.758  27.451  27.323  1.00  0.00    -0.206 F 
ATOM     80  C   UNL A   1      50.579  26.531  28.484  1.00  0.00     0.040 A 
ATOM     81  C   UNL A   1      50.262  25.632  30.695  1.00  0.00     0.040 A 
ATOM     82  F   UNL A   1      48.129  25.662  31.678  1.00  0.00    -0.206 F 
ATOM     83  C   UNL A   1      51.102  25.918  29.621  1.00  0.00     0.006 A 
ENDBRANCH  55  76
BRANCH  67  84
ATOM     84  C   UNL A   1      44.862  32.404  31.026  1.00  0.00     0.057 A 
ATOM     85  C   UNL A   1      45.021  32.660  32.394  1.00  0.00     0.134 A 
ATOM     86  C   UNL A   1      45.167  33.440  30.134  1.00  0.00     0.134 A 
ATOM     87  F   UNL A   1      44.731  31.716  33.301  1.00  0.00    -0.206 F 
ATOM     88  C   UNL A   1      45.452  33.905  32.857  1.00  0.00     0.040 A 
ATOM     89  C   UNL A   1      45.622  34.680  30.583  1.00  0.00     0.040 A 
ATOM     90  F   UNL A   1      45.041  33.258  28.810  1.00  0.00    -0.206 F 
ATOM     91  C   UNL A   1      45.760  34.917  31.950  1.00  0.00     0.006 A 
ENDBRANCH  67  84
ENDBRANCH  41  42
ENDBRANCH  33  36
ENDBRANCH  31  32
ENDBRANCH  30  31
ENDBRANCH   1  30
TORSDOF 15
ENDMDL
MODEL 3
REMARK VINA RESULT:     -11.3      3.938      7.477
REMARK SMILES CCOc1ccccc1[C@H](C(=O)NCCCNC(=O)c1ccc(-c2c3nc(c(-c4c(F)cccc4F)c4ccc([nH]4)c(-c4c(F)cccc4F)c4nc(c(-c5c(F)cccc5F)c5ccc2[nH]5)C=C4)C=C3)cc1)[NH+]1CCC([NH+]2CCSCC2)CC1
REMARK SMILES IDX 14 1 13 2 11 3 12 4 10 6 9 7 4 8 5 9 6 10 8 11 7 12 3 13
REMARK SMILES IDX 2 14 1 15 74 16 75 17 85 18 76 20 84 21 77 22 78 23 79 24
REMARK SMILES IDX 83 25 80 27 82 28 81 29 15 30 16 31 17 32 18 33 19 35 20 36
REMARK SMILES IDX 21 37 73 38 22 39 72 40 23 41 24 42 25 43 66 44 26 45 71 46
REMARK SMILES IDX 65 47 67 48 27 49 70 50 64 51 63 52 28 54 54 55 37 56 53 57
REMARK SMILES IDX 38 58 41 59 52 60 68 61 39 62 40 63 51 65 69 66 42 67 29 68
REMARK SMILES IDX 30 69 35 70 31 71 32 72 34 73 36 74 33 75 55 76 56 77 61 78
REMARK SMILES IDX 57 79 58 80 60 81 62 82 59 83 43 84 44 85 49 86 45 87 46 88
REMARK SMILES IDX 48 89 50 90 47 91
REMARK H PARENT 13 5 74 19 78 26 17 34 67 53 41 64
REMARK Flexibility Score: inf
ROOT
ATOM      1  C   UNL A   1      32.297  27.319  26.834  1.00  0.00     0.118 C 
ENDROOT
BRANCH   1   2
ATOM      2  N   UNL A   1      30.977  26.693  26.904  1.00  0.00    -0.351 N 
ATOM      3  C   UNL A   1      30.295  25.846  26.062  1.00  0.00     0.283 C 
ATOM      4  O   UNL A   1      29.193  25.491  26.500  1.00  0.00    -0.268 OA
ATOM      5  H   UNL A   1      30.475  26.925  27.718  1.00  0.00     0.163 HD
BRANCH   3   6
ATOM      6  C   UNL A   1      30.778  25.518  24.611  1.00  0.00     0.309 C 
BRANCH   6   7
ATOM      7  C   UNL A   1      31.558  26.619  23.893  1.00  0.00     0.061 A 
ATOM      8  C   UNL A   1      30.965  27.811  23.417  1.00  0.00     0.128 A 
ATOM      9  C   UNL A   1      31.752  28.802  22.831  1.00  0.00     0.047 A 
ATOM     10  C   UNL A   1      33.136  28.626  22.729  1.00  0.00     0.004 A 
ATOM     11  C   UNL A   1      32.956  26.474  23.799  1.00  0.00     0.014 A 
ATOM     12  C   UNL A   1      33.737  27.464  23.209  1.00  0.00     0.001 A 
BRANCH   8  13
ATOM     13  O   UNL A   1      29.606  27.864  23.252  1.00  0.00    -0.493 OA
BRANCH  13  14
ATOM     14  C   UNL A   1      29.073  29.012  22.600  1.00  0.00     0.226 C 
ATOM     15  C   UNL A   1      27.651  29.197  23.117  1.00  0.00     0.049 C 
ENDBRANCH  13  14
ENDBRANCH   8  13
ENDBRANCH   6   7
BRANCH   6  16
ATOM     16  N   UNL A   1      31.410  24.166  24.350  1.00  0.00    -0.320 N 
ATOM     17  C   UNL A   1      31.460  23.246  25.481  1.00  0.00     0.269 C 
ATOM     18  C   UNL A   1      31.013  23.449  23.132  1.00  0.00     0.269 C 
ATOM     19  H   UNL A   1      32.360  24.495  24.177  1.00  0.00     0.349 HD
ATOM     20  C   UNL A   1      32.505  22.164  25.267  1.00  0.00     0.126 C 
ATOM     21  C   UNL A   1      31.975  22.273  22.825  1.00  0.00     0.126 C 
ATOM     22  C   UNL A   1      32.156  21.324  24.036  1.00  0.00     0.195 C 
BRANCH  22  23
ATOM     23  N   UNL A   1      33.084  20.175  23.807  1.00  0.00    -0.331 N 
ATOM     24  C   UNL A   1      32.322  18.925  23.550  1.00  0.00     0.273 C 
ATOM     25  C   UNL A   1      34.053  19.976  24.904  1.00  0.00     0.273 C 
ATOM     26  H   UNL A   1      33.631  20.414  22.980  1.00  0.00     0.348 HD
ATOM     27  C   UNL A   1      33.163  17.711  23.136  1.00  0.00     0.131 C 
ATOM     28  C   UNL A   1      35.100  18.883  24.635  1.00  0.00     0.131 C 
ATOM     29  S   UNL A   1      34.352  17.242  24.426  1.00  0.00    -0.150 SA
ENDBRANCH  22  23
ENDBRANCH   6  16
ENDBRANCH   3   6
ENDBRANCH   1   2
BRANCH   1  30
ATOM     30  C   UNL A   1      32.268  28.815  27.135  1.00  0.00     0.042 C 
BRANCH  30  31
ATOM     31  C   UNL A   1      33.644  29.486  27.076  1.00  0.00     0.118 C 
BRANCH  31  32
ATOM     32  N   UNL A   1      33.830  30.601  28.001  1.00  0.00    -0.352 N 
ATOM     33  C   UNL A   1      34.917  30.988  28.754  1.00  0.00     0.251 C 
ATOM     34  H   UNL A   1      33.039  31.179  28.104  1.00  0.00     0.163 HD
ATOM     35  O   UNL A   1      34.835  31.964  29.498  1.00  0.00    -0.269 OA
BRANCH  33  36
ATOM     36  C   UNL A   1      36.167  30.194  28.738  1.00  0.00     0.039 A 
ATOM     37  C   UNL A   1      36.984  30.246  27.605  1.00  0.00     0.014 A 
ATOM     38  C   UNL A   1      36.567  29.442  29.842  1.00  0.00     0.014 A 
ATOM     39  C   UNL A   1      38.262  29.680  27.643  1.00  0.00     0.010 A 
ATOM     40  C   UNL A   1      37.878  28.980  29.922  1.00  0.00     0.010 A 
ATOM     41  C   UNL A   1      38.751  29.119  28.834  1.00  0.00    -0.014 A 
BRANCH  41  42
ATOM     42  C   UNL A   1      40.183  28.740  28.988  1.00  0.00     0.031 A 
ATOM     43  C   UNL A   1      41.190  29.729  29.504  1.00  0.00     0.074 A 
ATOM     44  C   UNL A   1      40.598  27.531  28.557  1.00  0.00     0.049 A 
ATOM     45  N   UNL A   1      42.489  29.611  29.609  1.00  0.00    -0.248 NA
ATOM     46  C   UNL A   1      40.673  31.041  29.923  1.00  0.00     0.031 C 
ATOM     47  C   UNL A   1      39.739  26.498  27.972  1.00  0.00     0.029 A 
ATOM     48  N   UNL A   1      41.850  26.968  28.532  1.00  0.00    -0.354 N 
ATOM     49  C   UNL A   1      42.945  30.835  30.080  1.00  0.00     0.074 A 
ATOM     50  C   UNL A   1      41.790  31.701  30.186  1.00  0.00     0.031 C 
ATOM     51  C   UNL A   1      40.480  25.417  27.685  1.00  0.00     0.029 A 
ATOM     52  C   UNL A   1      41.873  25.694  28.017  1.00  0.00     0.049 A 
ATOM     53  H   UNL A   1      42.656  27.433  28.853  1.00  0.00     0.167 HD
ATOM     54  C   UNL A   1      44.207  31.200  30.417  1.00  0.00     0.037 A 
ATOM     55  C   UNL A   1      42.899  24.844  27.825  1.00  0.00     0.037 A 
ATOM     56  C   UNL A   1      45.350  30.328  30.340  1.00  0.00     0.049 A 
ATOM     57  C   UNL A   1      44.290  25.272  28.195  1.00  0.00     0.074 A 
ATOM     58  C   UNL A   1      46.649  30.572  30.746  1.00  0.00     0.029 A 
ATOM     59  N   UNL A   1      45.331  29.045  29.811  1.00  0.00    -0.354 N 
ATOM     60  N   UNL A   1      44.692  26.403  28.721  1.00  0.00    -0.248 NA
ATOM     61  C   UNL A   1      45.370  24.308  27.941  1.00  0.00     0.031 C 
ATOM     62  C   UNL A   1      47.428  29.457  30.417  1.00  0.00     0.029 A 
ATOM     63  C   UNL A   1      46.603  28.499  29.847  1.00  0.00     0.049 A 
ATOM     64  H   UNL A   1      44.530  28.590  29.463  1.00  0.00     0.167 HD
ATOM     65  C   UNL A   1      46.067  26.282  28.876  1.00  0.00     0.074 A 
ATOM     66  C   UNL A   1      46.426  24.960  28.406  1.00  0.00     0.031 C 
ATOM     67  C   UNL A   1      46.951  27.187  29.365  1.00  0.00     0.037 A 
BRANCH  54  68
ATOM     68  C   UNL A   1      44.409  32.609  30.897  1.00  0.00     0.057 A 
ATOM     69  C   UNL A   1      44.340  32.946  32.256  1.00  0.00     0.134 A 
ATOM     70  C   UNL A   1      44.682  33.640  29.992  1.00  0.00     0.134 A 
ATOM     71  F   UNL A   1      44.070  32.008  33.177  1.00  0.00    -0.206 F 
ATOM     72  C   UNL A   1      44.494  34.264  32.692  1.00  0.00     0.040 A 
ATOM     73  C   UNL A   1      44.868  34.957  30.418  1.00  0.00     0.040 A 
ATOM     74  F   UNL A   1      44.772  33.389  28.676  1.00  0.00    -0.206 F 
ATOM     75  C   UNL A   1      44.763  35.273  31.771  1.00  0.00     0.006 A 
ENDBRANCH  54  68
BRANCH  55  76
ATOM     76  C   UNL A   1      42.641  23.486  27.281  1.00  0.00     0.057 A 
ATOM     77  C   UNL A   1      42.733  23.237  25.907  1.00  0.00     0.134 A 
ATOM     78  C   UNL A   1      42.318  22.407  28.112  1.00  0.00     0.134 A 
ATOM     79  F   UNL A   1      43.021  24.236  25.059  1.00  0.00    -0.206 F 
ATOM     80  C   UNL A   1      42.506  21.967  25.376  1.00  0.00     0.040 A 
ATOM     81  C   UNL A   1      42.110  21.126  27.598  1.00  0.00     0.040 A 
ATOM     82  F   UNL A   1      42.221  22.579  29.439  1.00  0.00    -0.206 F 
ATOM     83  C   UNL A   1      42.200  20.905  26.225  1.00  0.00     0.006 A 
ENDBRANCH  55  76
BRANCH  67  84
ATOM     84  C   UNL A   1      48.392  26.773  29.422  1.00  0.00     0.057 A 
ATOM     85  C   UNL A   1      48.899  26.016  30.486  1.00  0.00     0.134 A 
ATOM     86  C   UNL A   1      49.272  27.101  28.383  1.00  0.00     0.134 A 
ATOM     87  F   UNL A   1      48.111  25.683  31.518  1.00  0.00    -0.206 F 
ATOM     88  C   UNL A   1      50.235  25.615  30.523  1.00  0.00     0.040 A 
ATOM     89  C   UNL A   1      50.604  26.684  28.397  1.00  0.00     0.040 A 
ATOM     90  F   UNL A   1      48.849  27.819  27.331  1.00  0.00    -0.206 F 
ATOM     91  C   UNL A   1      51.091  25.944  29.473  1.00  0.00     0.006 A 
ENDBRANCH  67  84
ENDBRANCH  41  42
ENDBRANCH  33  36
ENDBRANCH  31  32
ENDBRANCH  30  31
ENDBRANCH   1  30
TORSDOF 15
ENDMDL
