MODEL 1
REMARK VINA RESULT:     -11.7      0.000      0.000
REMARK SMILES Cc1cccc(C)c1OCC(=O)N1CCC[C@@H](C(=O)NCCCNC(=O)c2ccc(-c3c4nc(c(-c5c(F)cccc5F)c5ccc([nH]5)c(-c5c(F)cccc5F)c5nc(c(-c6c(F)cccc6F)c6ccc3[nH]6)C=C5)C=C4)cc2)C1
REMARK SMILES IDX 21 1 20 2 18 3 19 4 17 6 13 7 14 8 81 9 15 10 16 11 11 12
REMARK SMILES IDX 12 13 10 14 9 15 8 16 1 17 2 18 3 19 4 20 6 21 5 22 7 23
REMARK SMILES IDX 22 24 23 25 24 26 25 27 26 29 27 30 28 31 80 32 29 33 79 34
REMARK SMILES IDX 30 35 31 36 32 37 73 38 33 39 78 40 72 41 74 42 34 43 77 44
REMARK SMILES IDX 71 45 70 46 35 48 61 49 44 50 60 51 45 52 48 53 59 54 75 55
REMARK SMILES IDX 46 56 47 57 58 59 76 60 49 61 36 62 37 63 42 64 38 65 39 66
REMARK SMILES IDX 41 67 43 68 40 69 62 70 63 71 68 72 64 73 65 74 67 75 69 76
REMARK SMILES IDX 66 77 50 78 51 79 56 80 52 81 53 82 55 83 57 84 54 85
REMARK H PARENT 20 5 24 28 74 47 48 58
REMARK Flexibility Score: inf
ROOT
ATOM      1  C   UNL A   1      36.406  20.387  24.971  1.00  0.00     0.117 C 
ENDROOT
BRANCH   1   2
ATOM      2  N   UNL A   1      35.246  19.514  24.924  1.00  0.00    -0.356 N 
ATOM      3  C   UNL A   1      33.928  19.778  25.131  1.00  0.00     0.224 C 
ATOM      4  O   UNL A   1      33.128  18.844  25.040  1.00  0.00    -0.275 OA
ATOM      5  H   UNL A   1      35.447  18.575  24.707  1.00  0.00     0.163 HD
BRANCH   3   6
ATOM      6  C   UNL A   1      33.466  21.185  25.446  1.00  0.00     0.098 C 
ATOM      7  N   UNL A   1      31.555  22.702  25.259  1.00  0.00    -0.339 N 
ATOM      8  C   UNL A   1      31.607  23.065  26.678  1.00  0.00     0.119 C 
ATOM      9  C   UNL A   1      32.020  21.345  24.969  1.00  0.00     0.133 C 
ATOM     10  C   UNL A   1      33.005  22.859  27.261  1.00  0.00     0.022 C 
ATOM     11  C   UNL A   1      33.547  21.461  26.953  1.00  0.00     0.017 C 
BRANCH   7  12
ATOM     12  C   UNL A   1      31.088  23.628  24.338  1.00  0.00     0.260 C 
ATOM     13  O   UNL A   1      30.771  23.287  23.191  1.00  0.00    -0.271 OA
BRANCH  12  14
ATOM     14  C   UNL A   1      31.048  25.130  24.692  1.00  0.00     0.329 C 
BRANCH  14  15
ATOM     15  O   UNL A   1      31.974  26.067  24.212  1.00  0.00    -0.483 OA
BRANCH  15  16
ATOM     16  C   UNL A   1      32.317  27.239  24.812  1.00  0.00     0.125 A 
ATOM     17  C   UNL A   1      30.469  28.829  23.941  1.00  0.00     0.048 C 
ATOM     18  C   UNL A   1      31.684  28.492  24.755  1.00  0.00    -0.009 A 
ATOM     19  C   UNL A   1      32.203  29.545  25.541  1.00  0.00     0.007 A 
ATOM     20  C   UNL A   1      33.339  29.388  26.329  1.00  0.00     0.001 A 
ATOM     21  C   UNL A   1      33.487  27.090  25.606  1.00  0.00    -0.009 A 
ATOM     22  C   UNL A   1      33.991  28.166  26.349  1.00  0.00     0.007 A 
ATOM     23  C   UNL A   1      34.220  25.771  25.659  1.00  0.00     0.048 C 
ENDBRANCH  15  16
ENDBRANCH  14  15
ENDBRANCH  12  14
ENDBRANCH   7  12
ENDBRANCH   3   6
ENDBRANCH   1   2
BRANCH   1  24
ATOM     24  C   UNL A   1      37.712  19.612  24.835  1.00  0.00     0.042 C 
BRANCH  24  25
ATOM     25  C   UNL A   1      38.851  20.163  25.692  1.00  0.00     0.118 C 
BRANCH  25  26
ATOM     26  N   UNL A   1      40.003  19.273  25.739  1.00  0.00    -0.352 N 
ATOM     27  C   UNL A   1      41.316  19.527  26.047  1.00  0.00     0.251 C 
ATOM     28  H   UNL A   1      39.808  18.335  25.515  1.00  0.00     0.163 HD
ATOM     29  O   UNL A   1      42.161  18.658  25.851  1.00  0.00    -0.269 OA
BRANCH  27  30
ATOM     30  C   UNL A   1      41.728  20.840  26.591  1.00  0.00     0.039 A 
ATOM     31  C   UNL A   1      42.158  21.829  25.701  1.00  0.00     0.014 A 
ATOM     32  C   UNL A   1      41.727  21.094  27.965  1.00  0.00     0.014 A 
ATOM     33  C   UNL A   1      42.520  23.090  26.181  1.00  0.00     0.010 A 
ATOM     34  C   UNL A   1      42.014  22.374  28.437  1.00  0.00     0.010 A 
ATOM     35  C   UNL A   1      42.413  23.385  27.550  1.00  0.00    -0.014 A 
BRANCH  35  36
ATOM     36  C   UNL A   1      42.708  24.748  28.066  1.00  0.00     0.031 A 
ATOM     37  C   UNL A   1      44.106  25.120  28.477  1.00  0.00     0.074 A 
ATOM     38  C   UNL A   1      41.703  25.633  28.217  1.00  0.00     0.049 A 
ATOM     39  N   UNL A   1      44.542  26.232  29.014  1.00  0.00    -0.248 NA
ATOM     40  C   UNL A   1      45.149  24.101  28.279  1.00  0.00     0.031 C 
ATOM     41  C   UNL A   1      40.297  25.381  27.899  1.00  0.00     0.029 A 
ATOM     42  N   UNL A   1      41.710  26.922  28.690  1.00  0.00    -0.354 N 
ATOM     43  C   UNL A   1      45.903  26.046  29.219  1.00  0.00     0.074 A 
ATOM     44  C   UNL A   1      46.210  24.693  28.807  1.00  0.00     0.031 C 
ATOM     45  C   UNL A   1      39.580  26.483  28.168  1.00  0.00     0.029 A 
ATOM     46  C   UNL A   1      40.467  27.506  28.715  1.00  0.00     0.049 A 
ATOM     47  H   UNL A   1      42.528  27.384  28.983  1.00  0.00     0.167 HD
ATOM     48  C   UNL A   1      46.820  26.929  29.681  1.00  0.00     0.037 A 
ATOM     49  C   UNL A   1      40.081  28.723  29.142  1.00  0.00     0.037 A 
ATOM     50  C   UNL A   1      46.517  28.279  30.083  1.00  0.00     0.049 A 
ATOM     51  C   UNL A   1      41.115  29.677  29.675  1.00  0.00     0.074 A 
ATOM     52  C   UNL A   1      47.381  29.257  30.540  1.00  0.00     0.029 A 
ATOM     53  N   UNL A   1      45.248  28.839  30.075  1.00  0.00    -0.354 N 
ATOM     54  N   UNL A   1      42.407  29.505  29.811  1.00  0.00    -0.248 NA
ATOM     55  C   UNL A   1      40.638  30.999  30.105  1.00  0.00     0.031 C 
ATOM     56  C   UNL A   1      46.630  30.398  30.845  1.00  0.00     0.029 A 
ATOM     57  C   UNL A   1      45.305  30.145  30.532  1.00  0.00     0.049 A 
ATOM     58  H   UNL A   1      44.428  28.375  29.788  1.00  0.00     0.167 HD
ATOM     59  C   UNL A   1      42.900  30.702  30.312  1.00  0.00     0.074 A 
ATOM     60  C   UNL A   1      41.770  31.599  30.440  1.00  0.00     0.031 C 
ATOM     61  C   UNL A   1      44.174  31.030  30.640  1.00  0.00     0.037 A 
BRANCH  48  62
ATOM     62  C   UNL A   1      48.246  26.467  29.764  1.00  0.00     0.057 A 
ATOM     63  C   UNL A   1      49.158  26.712  28.728  1.00  0.00     0.134 A 
ATOM     64  C   UNL A   1      48.727  25.809  30.903  1.00  0.00     0.134 A 
ATOM     65  F   UNL A   1      48.760  27.328  27.604  1.00  0.00    -0.206 F 
ATOM     66  C   UNL A   1      50.489  26.299  28.812  1.00  0.00     0.040 A 
ATOM     67  C   UNL A   1      50.062  25.416  31.011  1.00  0.00     0.040 A 
ATOM     68  F   UNL A   1      47.910  25.549  31.935  1.00  0.00    -0.206 F 
ATOM     69  C   UNL A   1      50.946  25.656  29.959  1.00  0.00     0.006 A 
ENDBRANCH  48  62
BRANCH  49  70
ATOM     70  C   UNL A   1      38.650  29.120  29.081  1.00  0.00     0.057 A 
ATOM     71  C   UNL A   1      38.084  29.606  27.897  1.00  0.00     0.134 A 
ATOM     72  C   UNL A   1      37.825  29.050  30.209  1.00  0.00     0.134 A 
ATOM     73  F   UNL A   1      38.828  29.714  26.787  1.00  0.00    -0.206 F 
ATOM     74  C   UNL A   1      36.757  30.037  27.843  1.00  0.00     0.040 A 
ATOM     75  C   UNL A   1      36.488  29.449  30.163  1.00  0.00     0.040 A 
ATOM     76  F   UNL A   1      38.303  28.585  31.372  1.00  0.00    -0.206 F 
ATOM     77  C   UNL A   1      35.954  29.956  28.980  1.00  0.00     0.006 A 
ENDBRANCH  49  70
BRANCH  61  78
ATOM     78  C   UNL A   1      44.419  32.428  31.127  1.00  0.00     0.057 A 
ATOM     79  C   UNL A   1      44.386  32.756  32.490  1.00  0.00     0.134 A 
ATOM     80  C   UNL A   1      44.720  33.454  30.223  1.00  0.00     0.134 A 
ATOM     81  F   UNL A   1      44.091  31.822  33.406  1.00  0.00    -0.206 F 
ATOM     82  C   UNL A   1      44.619  34.060  32.931  1.00  0.00     0.040 A 
ATOM     83  C   UNL A   1      44.982  34.755  30.655  1.00  0.00     0.040 A 
ATOM     84  F   UNL A   1      44.775  33.207  28.906  1.00  0.00    -0.206 F 
ATOM     85  C   UNL A   1      44.925  35.062  32.013  1.00  0.00     0.006 A 
ENDBRANCH  61  78
ENDBRANCH  35  36
ENDBRANCH  27  30
ENDBRANCH  25  26
ENDBRANCH  24  25
ENDBRANCH   1  24
TORSDOF 14
ENDMDL
MODEL 2
REMARK VINA RESULT:     -11.7      3.441      8.853
REMARK SMILES Cc1cccc(C)c1OCC(=O)N1CCC[C@@H](C(=O)NCCCNC(=O)c2ccc(-c3c4nc(c(-c5c(F)cccc5F)c5ccc([nH]5)c(-c5c(F)cccc5F)c5nc(c(-c6c(F)cccc6F)c6ccc3[nH]6)C=C5)C=C4)cc2)C1
REMARK SMILES IDX 21 1 20 2 18 3 19 4 17 6 13 7 14 8 81 9 15 10 16 11 11 12
REMARK SMILES IDX 12 13 10 14 9 15 8 16 1 17 2 18 3 19 4 20 6 21 5 22 7 23
REMARK SMILES IDX 22 24 23 25 24 26 25 27 26 29 27 30 28 31 80 32 29 33 79 34
REMARK SMILES IDX 30 35 31 36 32 37 73 38 33 39 78 40 72 41 74 42 34 43 77 44
REMARK SMILES IDX 71 45 70 46 35 48 61 49 44 50 60 51 45 52 48 53 59 54 75 55
REMARK SMILES IDX 46 56 47 57 58 59 76 60 49 61 36 62 37 63 42 64 38 65 39 66
REMARK SMILES IDX 41 67 43 68 40 69 62 70 63 71 68 72 64 73 65 74 67 75 69 76
REMARK SMILES IDX 66 77 50 78 51 79 56 80 52 81 53 82 55 83 57 84 54 85
REMARK H PARENT 20 5 24 28 74 47 48 58
REMARK Flexibility Score: inf
ROOT
ATOM      1  C   UNL A   1      31.384  30.097  25.341  1.00  0.00     0.117 C 
ENDROOT
BRANCH   1   2
ATOM      2  N   UNL A   1      30.761  30.071  24.029  1.00  0.00    -0.356 N 
ATOM      3  C   UNL A   1      30.570  29.044  23.158  1.00  0.00     0.224 C 
ATOM      4  O   UNL A   1      30.013  29.290  22.086  1.00  0.00    -0.275 OA
ATOM      5  H   UNL A   1      30.422  30.941  23.718  1.00  0.00     0.163 HD
BRANCH   3   6
ATOM      6  C   UNL A   1      31.016  27.641  23.513  1.00  0.00     0.098 C 
ATOM      7  N   UNL A   1      30.247  25.535  24.492  1.00  0.00    -0.339 N 
ATOM      8  C   UNL A   1      30.742  24.742  23.365  1.00  0.00     0.119 C 
ATOM      9  C   UNL A   1      29.834  26.894  24.136  1.00  0.00     0.133 C 
ATOM     10  C   UNL A   1      31.879  25.454  22.631  1.00  0.00     0.022 C 
ATOM     11  C   UNL A   1      31.504  26.892  22.266  1.00  0.00     0.017 C 
BRANCH   7  12
ATOM     12  C   UNL A   1      30.204  24.967  25.757  1.00  0.00     0.260 C 
ATOM     13  O   UNL A   1      29.618  25.526  26.692  1.00  0.00    -0.271 OA
BRANCH  12  14
ATOM     14  C   UNL A   1      30.978  23.664  26.054  1.00  0.00     0.329 C 
BRANCH  14  15
ATOM     15  O   UNL A   1      32.326  23.630  26.437  1.00  0.00    -0.483 OA
BRANCH  15  16
ATOM     16  C   UNL A   1      33.380  23.296  25.644  1.00  0.00     0.125 A 
ATOM     17  C   UNL A   1      33.081  20.732  25.437  1.00  0.00     0.048 C 
ATOM     18  C   UNL A   1      33.759  22.038  25.145  1.00  0.00    -0.009 A 
ATOM     19  C   UNL A   1      34.865  21.969  24.268  1.00  0.00     0.007 A 
ATOM     20  C   UNL A   1      35.608  23.094  23.923  1.00  0.00     0.001 A 
ATOM     21  C   UNL A   1      34.153  24.439  25.301  1.00  0.00    -0.009 A 
ATOM     22  C   UNL A   1      35.262  24.326  24.453  1.00  0.00     0.007 A 
ATOM     23  C   UNL A   1      33.802  25.800  25.853  1.00  0.00     0.048 C 
ENDBRANCH  15  16
ENDBRANCH  14  15
ENDBRANCH  12  14
ENDBRANCH   7  12
ENDBRANCH   3   6
ENDBRANCH   1   2
BRANCH   1  24
ATOM     24  C   UNL A   1      31.125  31.410  26.072  1.00  0.00     0.042 C 
BRANCH  24  25
ATOM     25  C   UNL A   1      32.322  31.918  26.873  1.00  0.00     0.118 C 
BRANCH  25  26
ATOM     26  N   UNL A   1      32.182  33.312  27.274  1.00  0.00    -0.352 N 
ATOM     27  C   UNL A   1      32.954  34.084  28.106  1.00  0.00     0.251 C 
ATOM     28  H   UNL A   1      31.408  33.777  26.882  1.00  0.00     0.163 HD
ATOM     29  O   UNL A   1      32.550  35.193  28.447  1.00  0.00    -0.269 OA
BRANCH  27  30
ATOM     30  C   UNL A   1      34.252  33.589  28.614  1.00  0.00     0.039 A 
ATOM     31  C   UNL A   1      34.274  32.882  29.820  1.00  0.00     0.014 A 
ATOM     32  C   UNL A   1      35.447  33.842  27.934  1.00  0.00     0.014 A 
ATOM     33  C   UNL A   1      35.479  32.372  30.308  1.00  0.00     0.010 A 
ATOM     34  C   UNL A   1      36.636  33.268  28.380  1.00  0.00     0.010 A 
ATOM     35  C   UNL A   1      36.665  32.527  29.571  1.00  0.00    -0.014 A 
BRANCH  35  36
ATOM     36  C   UNL A   1      37.939  31.915  30.030  1.00  0.00     0.031 A 
ATOM     37  C   UNL A   1      38.816  32.632  31.019  1.00  0.00     0.074 A 
ATOM     38  C   UNL A   1      38.334  30.735  29.511  1.00  0.00     0.049 A 
ATOM     39  N   UNL A   1      39.993  32.290  31.481  1.00  0.00    -0.248 NA
ATOM     40  C   UNL A   1      38.316  33.913  31.541  1.00  0.00     0.031 C 
ATOM     41  C   UNL A   1      37.597  29.960  28.512  1.00  0.00     0.029 A 
ATOM     42  N   UNL A   1      39.461  29.987  29.746  1.00  0.00    -0.354 N 
ATOM     43  C   UNL A   1      40.373  33.311  32.343  1.00  0.00     0.074 A 
ATOM     44  C   UNL A   1      39.331  34.314  32.293  1.00  0.00     0.031 C 
ATOM     45  C   UNL A   1      38.281  28.839  28.231  1.00  0.00     0.029 A 
ATOM     46  C   UNL A   1      39.523  28.834  29.000  1.00  0.00     0.049 A 
ATOM     47  H   UNL A   1      40.159  30.250  30.388  1.00  0.00     0.167 HD
ATOM     48  C   UNL A   1      41.474  33.393  33.128  1.00  0.00     0.037 A 
ATOM     49  C   UNL A   1      40.476  27.886  28.932  1.00  0.00     0.037 A 
ATOM     50  C   UNL A   1      42.506  32.390  33.185  1.00  0.00     0.049 A 
ATOM     51  C   UNL A   1      41.702  28.014  29.795  1.00  0.00     0.074 A 
ATOM     52  C   UNL A   1      43.647  32.371  33.968  1.00  0.00     0.029 A 
ATOM     53  N   UNL A   1      42.522  31.229  32.428  1.00  0.00    -0.354 N 
ATOM     54  N   UNL A   1      42.020  28.959  30.646  1.00  0.00    -0.248 NA
ATOM     55  C   UNL A   1      42.698  26.938  29.694  1.00  0.00     0.031 C 
ATOM     56  C   UNL A   1      44.373  31.216  33.657  1.00  0.00     0.029 A 
ATOM     57  C   UNL A   1      43.659  30.492  32.716  1.00  0.00     0.049 A 
ATOM     58  H   UNL A   1      41.827  30.967  31.781  1.00  0.00     0.167 HD
ATOM     59  C   UNL A   1      43.234  28.577  31.202  1.00  0.00     0.074 A 
ATOM     60  C   UNL A   1      43.586  27.306  30.605  1.00  0.00     0.031 C 
ATOM     61  C   UNL A   1      43.990  29.222  32.124  1.00  0.00     0.037 A 
BRANCH  48  62
ATOM     62  C   UNL A   1      41.612  34.607  34.001  1.00  0.00     0.057 A 
ATOM     63  C   UNL A   1      41.085  34.639  35.300  1.00  0.00     0.134 A 
ATOM     64  C   UNL A   1      42.312  35.737  33.562  1.00  0.00     0.134 A 
ATOM     65  F   UNL A   1      40.393  33.593  35.780  1.00  0.00    -0.206 F 
ATOM     66  C   UNL A   1      41.229  35.759  36.120  1.00  0.00     0.040 A 
ATOM     67  C   UNL A   1      42.487  36.853  34.383  1.00  0.00     0.040 A 
ATOM     68  F   UNL A   1      42.849  35.770  32.333  1.00  0.00    -0.206 F 
ATOM     69  C   UNL A   1      41.938  36.867  35.665  1.00  0.00     0.006 A 
ENDBRANCH  48  62
BRANCH  49  70
ATOM     70  C   UNL A   1      40.314  26.726  28.019  1.00  0.00     0.057 A 
ATOM     71  C   UNL A   1      39.574  25.601  28.401  1.00  0.00     0.134 A 
ATOM     72  C   UNL A   1      40.919  26.700  26.756  1.00  0.00     0.134 A 
ATOM     73  F   UNL A   1      38.986  25.557  29.606  1.00  0.00    -0.206 F 
ATOM     74  C   UNL A   1      39.465  24.481  27.576  1.00  0.00     0.040 A 
ATOM     75  C   UNL A   1      40.794  25.599  25.908  1.00  0.00     0.040 A 
ATOM     76  F   UNL A   1      41.635  27.749  26.326  1.00  0.00    -0.206 F 
ATOM     77  C   UNL A   1      40.075  24.480  26.322  1.00  0.00     0.006 A 
ENDBRANCH  49  70
BRANCH  61  78
ATOM     78  C   UNL A   1      45.251  28.543  32.573  1.00  0.00     0.057 A 
ATOM     79  C   UNL A   1      46.482  28.775  31.946  1.00  0.00     0.134 A 
ATOM     80  C   UNL A   1      45.237  27.667  33.666  1.00  0.00     0.134 A 
ATOM     81  F   UNL A   1      46.562  29.592  30.885  1.00  0.00    -0.206 F 
ATOM     82  C   UNL A   1      47.649  28.140  32.375  1.00  0.00     0.040 A 
ATOM     83  C   UNL A   1      46.402  27.049  34.122  1.00  0.00     0.040 A 
ATOM     84  F   UNL A   1      44.092  27.408  34.317  1.00  0.00    -0.206 F 
ATOM     85  C   UNL A   1      47.612  27.279  33.470  1.00  0.00     0.006 A 
ENDBRANCH  61  78
ENDBRANCH  35  36
ENDBRANCH  27  30
ENDBRANCH  25  26
ENDBRANCH  24  25
ENDBRANCH   1  24
TORSDOF 14
ENDMDL
MODEL 3
REMARK VINA RESULT:     -11.6      4.355      9.096
REMARK SMILES Cc1cccc(C)c1OCC(=O)N1CCC[C@@H](C(=O)NCCCNC(=O)c2ccc(-c3c4nc(c(-c5c(F)cccc5F)c5ccc([nH]5)c(-c5c(F)cccc5F)c5nc(c(-c6c(F)cccc6F)c6ccc3[nH]6)C=C5)C=C4)cc2)C1
REMARK SMILES IDX 21 1 20 2 18 3 19 4 17 6 13 7 14 8 81 9 15 10 16 11 11 12
REMARK SMILES IDX 12 13 10 14 9 15 8 16 1 17 2 18 3 19 4 20 6 21 5 22 7 23
REMARK SMILES IDX 22 24 23 25 24 26 25 27 26 29 27 30 28 31 80 32 29 33 79 34
REMARK SMILES IDX 30 35 31 36 32 37 73 38 33 39 78 40 72 41 74 42 34 43 77 44
REMARK SMILES IDX 71 45 70 46 35 48 61 49 44 50 60 51 45 52 48 53 59 54 75 55
REMARK SMILES IDX 46 56 47 57 58 59 76 60 49 61 36 62 37 63 42 64 38 65 39 66
REMARK SMILES IDX 41 67 43 68 40 69 62 70 63 71 68 72 64 73 65 74 67 75 69 76
REMARK SMILES IDX 66 77 50 78 51 79 56 80 52 81 53 82 55 83 57 84 54 85
REMARK H PARENT 20 5 24 28 74 47 48 58
REMARK Flexibility Score: inf
ROOT
ATOM      1  C   UNL A   1      31.517  30.569  25.734  1.00  0.00     0.117 C 
ENDROOT
BRANCH   1   2
ATOM      2  N   UNL A   1      30.611  30.568  24.597  1.00  0.00    -0.356 N 
ATOM      3  C   UNL A   1      30.416  29.642  23.621  1.00  0.00     0.224 C 
ATOM      4  O   UNL A   1      29.580  29.888  22.748  1.00  0.00    -0.275 OA
ATOM      5  H   UNL A   1      30.046  31.370  24.522  1.00  0.00     0.163 HD
BRANCH   3   6
ATOM      6  C   UNL A   1      31.196  28.344  23.623  1.00  0.00     0.098 C 
ATOM      7  N   UNL A   1      31.030  25.964  23.082  1.00  0.00    -0.339 N 
ATOM      8  C   UNL A   1      32.259  25.981  22.285  1.00  0.00     0.119 C 
ATOM      9  C   UNL A   1      30.296  27.230  23.082  1.00  0.00     0.133 C 
ATOM     10  C   UNL A   1      33.188  27.120  22.706  1.00  0.00     0.022 C 
ATOM     11  C   UNL A   1      32.454  28.462  22.753  1.00  0.00     0.017 C 
BRANCH   7  12
ATOM     12  C   UNL A   1      30.667  24.801  23.746  1.00  0.00     0.260 C 
ATOM     13  O   UNL A   1      30.277  23.804  23.127  1.00  0.00    -0.271 OA
BRANCH  12  14
ATOM     14  C   UNL A   1      30.644  24.759  25.290  1.00  0.00     0.329 C 
BRANCH  14  15
ATOM     15  O   UNL A   1      31.754  24.416  26.075  1.00  0.00    -0.483 OA
BRANCH  15  16
ATOM     16  C   UNL A   1      32.912  23.855  25.631  1.00  0.00     0.125 A 
ATOM     17  C   UNL A   1      32.188  21.397  25.255  1.00  0.00     0.048 C 
ATOM     18  C   UNL A   1      33.168  22.534  25.229  1.00  0.00    -0.009 A 
ATOM     19  C   UNL A   1      34.453  22.220  24.730  1.00  0.00     0.007 A 
ATOM     20  C   UNL A   1      35.473  23.164  24.668  1.00  0.00     0.001 A 
ATOM     21  C   UNL A   1      33.963  24.811  25.581  1.00  0.00    -0.009 A 
ATOM     22  C   UNL A   1      35.233  24.456  25.109  1.00  0.00     0.007 A 
ATOM     23  C   UNL A   1      33.737  26.230  26.044  1.00  0.00     0.048 C 
ENDBRANCH  15  16
ENDBRANCH  14  15
ENDBRANCH  12  14
ENDBRANCH   7  12
ENDBRANCH   3   6
ENDBRANCH   1   2
BRANCH   1  24
ATOM     24  C   UNL A   1      31.322  31.795  26.620  1.00  0.00     0.042 C 
BRANCH  24  25
ATOM     25  C   UNL A   1      32.627  32.464  27.046  1.00  0.00     0.118 C 
BRANCH  25  26
ATOM     26  N   UNL A   1      32.442  33.848  27.464  1.00  0.00    -0.352 N 
ATOM     27  C   UNL A   1      33.064  34.574  28.448  1.00  0.00     0.251 C 
ATOM     28  H   UNL A   1      31.760  34.343  26.955  1.00  0.00     0.163 HD
ATOM     29  O   UNL A   1      32.626  35.681  28.749  1.00  0.00    -0.269 OA
BRANCH  27  30
ATOM     30  C   UNL A   1      34.240  34.032  29.164  1.00  0.00     0.039 A 
ATOM     31  C   UNL A   1      34.028  33.137  30.218  1.00  0.00     0.014 A 
ATOM     32  C   UNL A   1      35.541  34.420  28.832  1.00  0.00     0.014 A 
ATOM     33  C   UNL A   1      35.119  32.581  30.890  1.00  0.00     0.010 A 
ATOM     34  C   UNL A   1      36.629  33.808  29.450  1.00  0.00     0.010 A 
ATOM     35  C   UNL A   1      36.431  32.882  30.486  1.00  0.00    -0.014 A 
BRANCH  35  36
ATOM     36  C   UNL A   1      37.601  32.232  31.131  1.00  0.00     0.031 A 
ATOM     37  C   UNL A   1      38.333  31.118  30.434  1.00  0.00     0.074 A 
ATOM     38  C   UNL A   1      37.970  32.608  32.371  1.00  0.00     0.049 A 
ATOM     39  N   UNL A   1      39.327  30.384  30.866  1.00  0.00    -0.248 NA
ATOM     40  C   UNL A   1      37.872  30.766  29.081  1.00  0.00     0.031 C 
ATOM     41  C   UNL A   1      37.316  33.643  33.172  1.00  0.00     0.029 A 
ATOM     42  N   UNL A   1      38.981  32.151  33.181  1.00  0.00    -0.354 N 
ATOM     43  C   UNL A   1      39.609  29.487  29.844  1.00  0.00     0.074 A 
ATOM     44  C   UNL A   1      38.641  29.725  28.795  1.00  0.00     0.031 C 
ATOM     45  C   UNL A   1      37.951  33.756  34.350  1.00  0.00     0.029 A 
ATOM     46  C   UNL A   1      39.031  32.775  34.404  1.00  0.00     0.049 A 
ATOM     47  H   UNL A   1      39.611  31.445  32.910  1.00  0.00     0.167 HD
ATOM     48  C   UNL A   1      40.601  28.567  29.772  1.00  0.00     0.037 A 
ATOM     49  C   UNL A   1      39.845  32.572  35.457  1.00  0.00     0.037 A 
ATOM     50  C   UNL A   1      41.570  28.335  30.812  1.00  0.00     0.049 A 
ATOM     51  C   UNL A   1      40.923  31.526  35.361  1.00  0.00     0.074 A 
ATOM     52  C   UNL A   1      42.629  27.444  30.821  1.00  0.00     0.029 A 
ATOM     53  N   UNL A   1      41.598  29.000  32.028  1.00  0.00    -0.354 N 
ATOM     54  N   UNL A   1      41.211  30.724  34.365  1.00  0.00    -0.248 NA
ATOM     55  C   UNL A   1      41.795  31.365  36.533  1.00  0.00     0.031 C 
ATOM     56  C   UNL A   1      43.274  27.543  32.058  1.00  0.00     0.029 A 
ATOM     57  C   UNL A   1      42.648  28.530  32.800  1.00  0.00     0.049 A 
ATOM     58  H   UNL A   1      40.965  29.704  32.302  1.00  0.00     0.167 HD
ATOM     59  C   UNL A   1      42.312  29.985  34.778  1.00  0.00     0.074 A 
ATOM     60  C   UNL A   1      42.652  30.448  36.107  1.00  0.00     0.031 C 
ATOM     61  C   UNL A   1      42.982  29.010  34.116  1.00  0.00     0.037 A 
BRANCH  48  62
ATOM     62  C   UNL A   1      40.696  27.749  28.516  1.00  0.00     0.057 A 
ATOM     63  C   UNL A   1      40.006  26.536  28.377  1.00  0.00     0.134 A 
ATOM     64  C   UNL A   1      41.446  28.193  27.421  1.00  0.00     0.134 A 
ATOM     65  F   UNL A   1      39.278  26.048  29.393  1.00  0.00    -0.206 F 
ATOM     66  C   UNL A   1      40.078  25.784  27.203  1.00  0.00     0.040 A 
ATOM     67  C   UNL A   1      41.504  27.463  26.232  1.00  0.00     0.040 A 
ATOM     68  F   UNL A   1      42.125  29.348  27.484  1.00  0.00    -0.206 F 
ATOM     69  C   UNL A   1      40.823  26.252  26.124  1.00  0.00     0.006 A 
ENDBRANCH  48  62
BRANCH  49  70
ATOM     70  C   UNL A   1      39.684  33.376  36.695  1.00  0.00     0.057 A 
ATOM     71  C   UNL A   1      38.797  32.983  37.704  1.00  0.00     0.134 A 
ATOM     72  C   UNL A   1      40.390  34.570  36.887  1.00  0.00     0.134 A 
ATOM     73  F   UNL A   1      38.077  31.859  37.571  1.00  0.00    -0.206 F 
ATOM     74  C   UNL A   1      38.593  33.762  38.844  1.00  0.00     0.040 A 
ATOM     75  C   UNL A   1      40.219  35.344  38.036  1.00  0.00     0.040 A 
ATOM     76  F   UNL A   1      41.262  34.998  35.963  1.00  0.00    -0.206 F 
ATOM     77  C   UNL A   1      39.309  34.946  39.014  1.00  0.00     0.006 A 
ENDBRANCH  49  70
BRANCH  61  78
ATOM     78  C   UNL A   1      44.174  28.409  34.803  1.00  0.00     0.057 A 
ATOM     79  C   UNL A   1      45.455  28.964  34.686  1.00  0.00     0.134 A 
ATOM     80  C   UNL A   1      44.030  27.277  35.615  1.00  0.00     0.134 A 
ATOM     81  F   UNL A   1      45.662  30.040  33.912  1.00  0.00    -0.206 F 
ATOM     82  C   UNL A   1      46.555  28.398  35.332  1.00  0.00     0.040 A 
ATOM     83  C   UNL A   1      45.118  26.719  36.289  1.00  0.00     0.040 A 
ATOM     84  F   UNL A   1      42.829  26.702  35.777  1.00  0.00    -0.206 F 
ATOM     85  C   UNL A   1      46.387  27.276  36.142  1.00  0.00     0.006 A 
ENDBRANCH  61  78
ENDBRANCH  35  36
ENDBRANCH  27  30
ENDBRANCH  25  26
ENDBRANCH  24  25
ENDBRANCH   1  24
TORSDOF 14
ENDMDL
