MODEL 1
REMARK VINA RESULT:     -10.9      0.000      0.000
REMARK SMILES CC(C)C[C@H](CNc1cccc(F)c1C#N)CC(=O)NCCCNC(=O)c1ccc(-c2c3nc(c(-c4c(F)cccc4F)c4ccc([nH]4)c(-c4c(F)cccc4F)c4nc(c(-c5c(F)cccc5F)c5ccc2[nH]5)C=C4)C=C3)cc1
REMARK SMILES IDX 18 1 19 2 20 3 17 5 5 6 4 7 2 8 1 9 3 10 6 11 7 12 8 14 9 15
REMARK SMILES IDX 14 16 10 17 12 18 11 19 13 20 15 21 16 22 21 23 22 24 23 25
REMARK SMILES IDX 24 26 25 27 26 29 27 30 28 31 80 32 29 33 79 34 30 35 31 36
REMARK SMILES IDX 32 37 73 38 33 39 78 40 72 41 74 42 34 43 77 44 71 45 70 46
REMARK SMILES IDX 35 48 61 49 44 50 60 51 45 52 48 53 59 54 75 55 46 56 47 57
REMARK SMILES IDX 58 59 76 60 49 61 36 62 37 63 42 64 38 65 39 66 41 67 43 68
REMARK SMILES IDX 40 69 62 70 63 71 68 72 64 73 65 74 67 75 69 76 66 77 50 78
REMARK SMILES IDX 51 79 56 80 52 81 53 82 55 83 57 84 54 85
REMARK H PARENT 20 4 7 13 24 28 74 47 48 58
REMARK Flexibility Score: inf
ROOT
ATOM      1  C   UNL A   1      30.281  29.259  23.023  1.00  0.00     0.220 C 
ATOM      2  O   UNL A   1      29.434  29.368  22.137  1.00  0.00    -0.275 OA
ATOM      3  N   UNL A   1      30.361  30.244  23.960  1.00  0.00    -0.356 N 
ATOM      4  H   UNL A   1      29.666  30.936  23.883  1.00  0.00     0.163 HD
ENDROOT
BRANCH   1   5
ATOM      5  C   UNL A   1      31.217  28.062  23.061  1.00  0.00     0.105 C 
BRANCH   5   6
ATOM      6  C   UNL A   1      30.702  26.916  23.961  1.00  0.00     0.018 C 
BRANCH   6   7
ATOM      7  C   UNL A   1      31.575  26.805  25.232  1.00  0.00     0.009 C 
BRANCH   7   8
ATOM      8  C   UNL A   1      33.094  26.812  24.958  1.00  0.00    -0.017 C 
ATOM      9  C   UNL A   1      33.828  27.960  25.660  1.00  0.00     0.007 C 
ATOM     10  C   UNL A   1      33.690  25.481  25.426  1.00  0.00     0.007 C 
ENDBRANCH   7   8
ENDBRANCH   6   7
BRANCH   6  11
ATOM     11  C   UNL A   1      30.680  25.587  23.192  1.00  0.00     0.117 C 
BRANCH  11  12
ATOM     12  N   UNL A   1      30.284  24.457  24.030  1.00  0.00    -0.384 N 
ATOM     13  H   UNL A   1      29.428  24.464  24.516  1.00  0.00     0.160 HD
BRANCH  12  14
ATOM     14  C   UNL A   1      31.152  23.367  24.121  1.00  0.00     0.055 A 
ATOM     15  C   UNL A   1      31.933  23.064  22.992  1.00  0.00     0.027 A 
ATOM     16  C   UNL A   1      31.377  22.636  25.303  1.00  0.00     0.111 A 
ATOM     17  C   UNL A   1      32.908  22.065  23.030  1.00  0.00     0.005 A 
ATOM     18  C   UNL A   1      32.360  21.643  25.330  1.00  0.00     0.143 A 
ATOM     19  C   UNL A   1      33.125  21.354  24.205  1.00  0.00     0.041 A 
ATOM     20  F   UNL A   1      32.598  20.953  26.456  1.00  0.00    -0.205 F 
BRANCH  16  21
ATOM     21  C   UNL A   1      30.604  22.854  26.493  1.00  0.00     0.104 C 
ATOM     22  N   UNL A   1      29.984  23.062  27.447  1.00  0.00    -0.192 NA
ENDBRANCH  16  21
ENDBRANCH  12  14
ENDBRANCH  11  12
ENDBRANCH   6  11
ENDBRANCH   5   6
ENDBRANCH   1   5
BRANCH   3  23
ATOM     23  C   UNL A   1      31.298  30.447  25.058  1.00  0.00     0.117 C 
BRANCH  23  24
ATOM     24  C   UNL A   1      30.960  31.698  25.867  1.00  0.00     0.042 C 
BRANCH  24  25
ATOM     25  C   UNL A   1      31.921  31.992  27.004  1.00  0.00     0.118 C 
BRANCH  25  26
ATOM     26  N   UNL A   1      32.093  33.416  27.206  1.00  0.00    -0.352 N 
ATOM     27  C   UNL A   1      32.993  34.098  27.989  1.00  0.00     0.251 C 
ATOM     28  H   UNL A   1      31.465  33.985  26.705  1.00  0.00     0.163 HD
ATOM     29  O   UNL A   1      32.793  35.289  28.217  1.00  0.00    -0.269 OA
BRANCH  27  30
ATOM     30  C   UNL A   1      34.192  33.436  28.564  1.00  0.00     0.039 A 
ATOM     31  C   UNL A   1      34.085  32.101  28.972  1.00  0.00     0.014 A 
ATOM     32  C   UNL A   1      35.390  34.120  28.787  1.00  0.00     0.014 A 
ATOM     33  C   UNL A   1      35.175  31.456  29.566  1.00  0.00     0.010 A 
ATOM     34  C   UNL A   1      36.508  33.446  29.279  1.00  0.00     0.010 A 
ATOM     35  C   UNL A   1      36.407  32.115  29.703  1.00  0.00    -0.014 A 
BRANCH  35  36
ATOM     36  C   UNL A   1      37.578  31.439  30.327  1.00  0.00     0.031 A 
ATOM     37  C   UNL A   1      37.956  31.734  31.756  1.00  0.00     0.074 A 
ATOM     38  C   UNL A   1      38.326  30.586  29.601  1.00  0.00     0.049 A 
ATOM     39  N   UNL A   1      38.966  31.280  32.458  1.00  0.00    -0.248 NA
ATOM     40  C   UNL A   1      37.104  32.686  32.487  1.00  0.00     0.031 C 
ATOM     41  C   UNL A   1      38.098  30.245  28.197  1.00  0.00     0.029 A 
ATOM     42  N   UNL A   1      39.435  29.853  29.945  1.00  0.00    -0.354 N 
ATOM     43  C   UNL A   1      38.878  31.903  33.698  1.00  0.00     0.074 A 
ATOM     44  C   UNL A   1      37.753  32.809  33.635  1.00  0.00     0.031 C 
ATOM     45  C   UNL A   1      39.014  29.345  27.807  1.00  0.00     0.029 A 
ATOM     46  C   UNL A   1      39.922  29.078  28.919  1.00  0.00     0.049 A 
ATOM     47  H   UNL A   1      39.841  29.877  30.841  1.00  0.00     0.167 HD
ATOM     48  C   UNL A   1      39.645  31.719  34.800  1.00  0.00     0.037 A 
ATOM     49  C   UNL A   1      40.987  28.255  28.875  1.00  0.00     0.037 A 
ATOM     50  C   UNL A   1      40.748  30.796  34.871  1.00  0.00     0.049 A 
ATOM     51  C   UNL A   1      41.833  28.076  30.105  1.00  0.00     0.074 A 
ATOM     52  C   UNL A   1      41.551  30.495  35.959  1.00  0.00     0.029 A 
ATOM     53  N   UNL A   1      41.207  30.027  33.811  1.00  0.00    -0.354 N 
ATOM     54  N   UNL A   1      41.699  28.624  31.289  1.00  0.00    -0.248 NA
ATOM     55  C   UNL A   1      42.976  27.159  29.995  1.00  0.00     0.031 C 
ATOM     56  C   UNL A   1      42.528  29.585  35.542  1.00  0.00     0.029 A 
ATOM     57  C   UNL A   1      42.298  29.274  34.212  1.00  0.00     0.049 A 
ATOM     58  H   UNL A   1      40.814  30.018  32.909  1.00  0.00     0.167 HD
ATOM     59  C   UNL A   1      42.721  28.099  32.070  1.00  0.00     0.074 A 
ATOM     60  C   UNL A   1      43.458  27.178  31.230  1.00  0.00     0.031 C 
ATOM     61  C   UNL A   1      43.021  28.356  33.367  1.00  0.00     0.037 A 
BRANCH  48  62
ATOM     62  C   UNL A   1      39.321  32.537  36.017  1.00  0.00     0.057 A 
ATOM     63  C   UNL A   1      38.445  32.077  37.010  1.00  0.00     0.134 A 
ATOM     64  C   UNL A   1      39.916  33.790  36.218  1.00  0.00     0.134 A 
ATOM     65  F   UNL A   1      37.832  30.890  36.879  1.00  0.00    -0.206 F 
ATOM     66  C   UNL A   1      38.147  32.844  38.138  1.00  0.00     0.040 A 
ATOM     67  C   UNL A   1      39.651  34.553  37.356  1.00  0.00     0.040 A 
ATOM     68  F   UNL A   1      40.772  34.290  35.314  1.00  0.00    -0.206 F 
ATOM     69  C   UNL A   1      38.758  34.084  38.317  1.00  0.00     0.006 A 
ENDBRANCH  48  62
BRANCH  49  70
ATOM     70  C   UNL A   1      41.305  27.522  27.623  1.00  0.00     0.057 A 
ATOM     71  C   UNL A   1      42.084  28.109  26.618  1.00  0.00     0.134 A 
ATOM     72  C   UNL A   1      40.837  26.222  27.398  1.00  0.00     0.134 A 
ATOM     73  F   UNL A   1      42.544  29.360  26.765  1.00  0.00    -0.206 F 
ATOM     74  C   UNL A   1      42.369  27.438  25.428  1.00  0.00     0.040 A 
ATOM     75  C   UNL A   1      41.139  25.528  26.225  1.00  0.00     0.040 A 
ATOM     76  F   UNL A   1      40.089  25.601  28.322  1.00  0.00    -0.206 F 
ATOM     77  C   UNL A   1      41.902  26.140  25.232  1.00  0.00     0.006 A 
ENDBRANCH  49  70
BRANCH  61  78
ATOM     78  C   UNL A   1      44.175  27.608  33.969  1.00  0.00     0.057 A 
ATOM     79  C   UNL A   1      45.475  28.127  33.978  1.00  0.00     0.134 A 
ATOM     80  C   UNL A   1      43.973  26.364  34.583  1.00  0.00     0.134 A 
ATOM     81  F   UNL A   1      45.740  29.307  33.397  1.00  0.00    -0.206 F 
ATOM     82  C   UNL A   1      46.538  27.427  34.553  1.00  0.00     0.040 A 
ATOM     83  C   UNL A   1      45.020  25.668  35.188  1.00  0.00     0.040 A 
ATOM     84  F   UNL A   1      42.750  25.812  34.619  1.00  0.00    -0.206 F 
ATOM     85  C   UNL A   1      46.310  26.197  35.167  1.00  0.00     0.006 A 
ENDBRANCH  61  78
ENDBRANCH  35  36
ENDBRANCH  27  30
ENDBRANCH  25  26
ENDBRANCH  24  25
ENDBRANCH  23  24
ENDBRANCH   3  23
TORSDOF 17
ENDMDL
MODEL 2
REMARK VINA RESULT:     -10.8      4.704      8.679
REMARK SMILES CC(C)C[C@H](CNc1cccc(F)c1C#N)CC(=O)NCCCNC(=O)c1ccc(-c2c3nc(c(-c4c(F)cccc4F)c4ccc([nH]4)c(-c4c(F)cccc4F)c4nc(c(-c5c(F)cccc5F)c5ccc2[nH]5)C=C4)C=C3)cc1
REMARK SMILES IDX 18 1 19 2 20 3 17 5 5 6 4 7 2 8 1 9 3 10 6 11 7 12 8 14 9 15
REMARK SMILES IDX 14 16 10 17 12 18 11 19 13 20 15 21 16 22 21 23 22 24 23 25
REMARK SMILES IDX 24 26 25 27 26 29 27 30 28 31 80 32 29 33 79 34 30 35 31 36
REMARK SMILES IDX 32 37 73 38 33 39 78 40 72 41 74 42 34 43 77 44 71 45 70 46
REMARK SMILES IDX 35 48 61 49 44 50 60 51 45 52 48 53 59 54 75 55 46 56 47 57
REMARK SMILES IDX 58 59 76 60 49 61 36 62 37 63 42 64 38 65 39 66 41 67 43 68
REMARK SMILES IDX 40 69 62 70 63 71 68 72 64 73 65 74 67 75 69 76 66 77 50 78
REMARK SMILES IDX 51 79 56 80 52 81 53 82 55 83 57 84 54 85
REMARK H PARENT 20 4 7 13 24 28 74 47 48 58
REMARK Flexibility Score: inf
ROOT
ATOM      1  C   UNL A   1      36.562  22.972  25.329  1.00  0.00     0.220 C 
ATOM      2  O   UNL A   1      36.916  23.823  26.144  1.00  0.00    -0.275 OA
ATOM      3  N   UNL A   1      37.060  21.711  25.459  1.00  0.00    -0.356 N 
ATOM      4  H   UNL A   1      37.617  21.573  26.259  1.00  0.00     0.163 HD
ENDROOT
BRANCH   1   5
ATOM      5  C   UNL A   1      35.603  23.324  24.204  1.00  0.00     0.105 C 
BRANCH   5   6
ATOM      6  C   UNL A   1      34.347  24.082  24.691  1.00  0.00     0.018 C 
BRANCH   6   7
ATOM      7  C   UNL A   1      33.152  23.108  24.813  1.00  0.00     0.009 C 
BRANCH   7   8
ATOM      8  C   UNL A   1      33.283  21.836  23.949  1.00  0.00    -0.017 C 
ATOM      9  C   UNL A   1      33.048  20.544  24.739  1.00  0.00     0.007 C 
ATOM     10  C   UNL A   1      32.272  21.908  22.802  1.00  0.00     0.007 C 
ENDBRANCH   7   8
ENDBRANCH   6   7
BRANCH   6  11
ATOM     11  C   UNL A   1      34.012  25.246  23.748  1.00  0.00     0.117 C 
BRANCH  11  12
ATOM     12  N   UNL A   1      32.781  25.938  24.120  1.00  0.00    -0.384 N 
ATOM     13  H   UNL A   1      31.939  25.768  23.639  1.00  0.00     0.160 HD
BRANCH  12  14
ATOM     14  C   UNL A   1      32.830  26.848  25.180  1.00  0.00     0.055 A 
ATOM     15  C   UNL A   1      33.880  27.781  25.185  1.00  0.00     0.027 A 
ATOM     16  C   UNL A   1      31.832  26.961  26.166  1.00  0.00     0.111 A 
ATOM     17  C   UNL A   1      33.945  28.798  26.140  1.00  0.00     0.005 A 
ATOM     18  C   UNL A   1      31.905  27.987  27.113  1.00  0.00     0.143 A 
ATOM     19  C   UNL A   1      32.951  28.904  27.106  1.00  0.00     0.041 A 
ATOM     20  F   UNL A   1      30.950  28.118  28.047  1.00  0.00    -0.205 F 
BRANCH  16  21
ATOM     21  C   UNL A   1      30.742  26.033  26.258  1.00  0.00     0.104 C 
ATOM     22  N   UNL A   1      29.842  25.309  26.333  1.00  0.00    -0.192 NA
ENDBRANCH  16  21
ENDBRANCH  12  14
ENDBRANCH  11  12
ENDBRANCH   6  11
ENDBRANCH   5   6
ENDBRANCH   1   5
BRANCH   3  23
ATOM     23  C   UNL A   1      36.909  20.530  24.618  1.00  0.00     0.117 C 
BRANCH  23  24
ATOM     24  C   UNL A   1      38.006  19.502  24.883  1.00  0.00     0.042 C 
BRANCH  24  25
ATOM     25  C   UNL A   1      38.971  19.881  25.992  1.00  0.00     0.118 C 
BRANCH  25  26
ATOM     26  N   UNL A   1      40.215  19.144  25.897  1.00  0.00    -0.352 N 
ATOM     27  C   UNL A   1      41.514  19.579  26.007  1.00  0.00     0.251 C 
ATOM     28  H   UNL A   1      40.114  18.180  25.725  1.00  0.00     0.163 HD
ATOM     29  O   UNL A   1      42.417  18.836  25.632  1.00  0.00    -0.269 OA
BRANCH  27  30
ATOM     30  C   UNL A   1      41.849  20.915  26.562  1.00  0.00     0.039 A 
ATOM     31  C   UNL A   1      42.207  21.935  25.672  1.00  0.00     0.014 A 
ATOM     32  C   UNL A   1      41.902  21.163  27.936  1.00  0.00     0.014 A 
ATOM     33  C   UNL A   1      42.580  23.194  26.156  1.00  0.00     0.010 A 
ATOM     34  C   UNL A   1      42.169  22.447  28.413  1.00  0.00     0.010 A 
ATOM     35  C   UNL A   1      42.541  23.470  27.531  1.00  0.00    -0.014 A 
BRANCH  35  36
ATOM     36  C   UNL A   1      42.929  24.807  28.061  1.00  0.00     0.031 A 
ATOM     37  C   UNL A   1      41.879  25.856  28.327  1.00  0.00     0.074 A 
ATOM     38  C   UNL A   1      44.228  25.095  28.271  1.00  0.00     0.049 A 
ATOM     39  N   UNL A   1      42.024  27.089  28.744  1.00  0.00    -0.248 NA
ATOM     40  C   UNL A   1      40.480  25.479  28.061  1.00  0.00     0.031 C 
ATOM     41  C   UNL A   1      45.347  24.189  28.016  1.00  0.00     0.029 A 
ATOM     42  N   UNL A   1      44.826  26.236  28.746  1.00  0.00    -0.354 N 
ATOM     43  C   UNL A   1      40.746  27.635  28.774  1.00  0.00     0.074 A 
ATOM     44  C   UNL A   1      39.844  26.620  28.277  1.00  0.00     0.031 C 
ATOM     45  C   UNL A   1      46.493  24.794  28.367  1.00  0.00     0.029 A 
ATOM     46  C   UNL A   1      46.194  26.146  28.830  1.00  0.00     0.049 A 
ATOM     47  H   UNL A   1      44.322  27.042  29.004  1.00  0.00     0.167 HD
ATOM     48  C   UNL A   1      40.353  28.860  29.200  1.00  0.00     0.037 A 
ATOM     49  C   UNL A   1      47.108  27.053  29.225  1.00  0.00     0.037 A 
ATOM     50  C   UNL A   1      41.248  29.860  29.720  1.00  0.00     0.049 A 
ATOM     51  C   UNL A   1      46.650  28.410  29.682  1.00  0.00     0.074 A 
ATOM     52  C   UNL A   1      40.940  31.110  30.232  1.00  0.00     0.029 A 
ATOM     53  N   UNL A   1      42.627  29.727  29.793  1.00  0.00    -0.354 N 
ATOM     54  N   UNL A   1      45.432  28.890  29.764  1.00  0.00    -0.248 NA
ATOM     55  C   UNL A   1      47.694  29.353  30.107  1.00  0.00     0.031 C 
ATOM     56  C   UNL A   1      42.137  31.754  30.563  1.00  0.00     0.029 A 
ATOM     57  C   UNL A   1      43.186  30.883  30.314  1.00  0.00     0.049 A 
ATOM     58  H   UNL A   1      43.133  28.930  29.516  1.00  0.00     0.167 HD
ATOM     59  C   UNL A   1      45.561  30.175  30.274  1.00  0.00     0.074 A 
ATOM     60  C   UNL A   1      46.975  30.396  30.497  1.00  0.00     0.031 C 
ATOM     61  C   UNL A   1      44.596  31.090  30.535  1.00  0.00     0.037 A 
BRANCH  48  62
ATOM     62  C   UNL A   1      38.888  29.187  29.118  1.00  0.00     0.057 A 
ATOM     63  C   UNL A   1      38.045  29.111  30.235  1.00  0.00     0.134 A 
ATOM     64  C   UNL A   1      38.318  29.616  27.911  1.00  0.00     0.134 A 
ATOM     65  F   UNL A   1      38.523  28.699  31.420  1.00  0.00    -0.206 F 
ATOM     66  C   UNL A   1      36.686  29.416  30.149  1.00  0.00     0.040 A 
ATOM     67  C   UNL A   1      36.967  29.954  27.820  1.00  0.00     0.040 A 
ATOM     68  F   UNL A   1      39.067  29.722  26.803  1.00  0.00    -0.206 F 
ATOM     69  C   UNL A   1      36.144  29.846  28.939  1.00  0.00     0.006 A 
ENDBRANCH  48  62
BRANCH  49  70
ATOM     70  C   UNL A   1      48.551  26.700  29.222  1.00  0.00     0.057 A 
ATOM     71  C   UNL A   1      49.149  26.092  30.333  1.00  0.00     0.134 A 
ATOM     72  C   UNL A   1      49.367  26.964  28.116  1.00  0.00     0.134 A 
ATOM     73  F   UNL A   1      48.426  25.833  31.431  1.00  0.00    -0.206 F 
ATOM     74  C   UNL A   1      50.509  25.776  30.349  1.00  0.00     0.040 A 
ATOM     75  C   UNL A   1      50.721  26.628  28.108  1.00  0.00     0.040 A 
ATOM     76  F   UNL A   1      48.855  27.542  27.019  1.00  0.00    -0.206 F 
ATOM     77  C   UNL A   1      51.297  26.038  29.231  1.00  0.00     0.006 A 
ENDBRANCH  49  70
BRANCH  61  78
ATOM     78  C   UNL A   1      45.029  32.402  31.123  1.00  0.00     0.057 A 
ATOM     79  C   UNL A   1      45.263  33.531  30.329  1.00  0.00     0.134 A 
ATOM     80  C   UNL A   1      45.177  32.545  32.509  1.00  0.00     0.134 A 
ATOM     81  F   UNL A   1      45.150  33.459  28.994  1.00  0.00    -0.206 F 
ATOM     82  C   UNL A   1      45.653  34.749  30.889  1.00  0.00     0.040 A 
ATOM     83  C   UNL A   1      45.537  33.765  33.083  1.00  0.00     0.040 A 
ATOM     84  F   UNL A   1      44.959  31.507  33.329  1.00  0.00    -0.206 F 
ATOM     85  C   UNL A   1      45.784  34.870  32.271  1.00  0.00     0.006 A 
ENDBRANCH  61  78
ENDBRANCH  35  36
ENDBRANCH  27  30
ENDBRANCH  25  26
ENDBRANCH  24  25
ENDBRANCH  23  24
ENDBRANCH   3  23
TORSDOF 17
ENDMDL
MODEL 3
REMARK VINA RESULT:     -10.7      2.145      6.488
REMARK SMILES CC(C)C[C@H](CNc1cccc(F)c1C#N)CC(=O)NCCCNC(=O)c1ccc(-c2c3nc(c(-c4c(F)cccc4F)c4ccc([nH]4)c(-c4c(F)cccc4F)c4nc(c(-c5c(F)cccc5F)c5ccc2[nH]5)C=C4)C=C3)cc1
REMARK SMILES IDX 18 1 19 2 20 3 17 5 5 6 4 7 2 8 1 9 3 10 6 11 7 12 8 14 9 15
REMARK SMILES IDX 14 16 10 17 12 18 11 19 13 20 15 21 16 22 21 23 22 24 23 25
REMARK SMILES IDX 24 26 25 27 26 29 27 30 28 31 80 32 29 33 79 34 30 35 31 36
REMARK SMILES IDX 32 37 73 38 33 39 78 40 72 41 74 42 34 43 77 44 71 45 70 46
REMARK SMILES IDX 35 48 61 49 44 50 60 51 45 52 48 53 59 54 75 55 46 56 47 57
REMARK SMILES IDX 58 59 76 60 49 61 36 62 37 63 42 64 38 65 39 66 41 67 43 68
REMARK SMILES IDX 40 69 62 70 63 71 68 72 64 73 65 74 67 75 69 76 66 77 50 78
REMARK SMILES IDX 51 79 56 80 52 81 53 82 55 83 57 84 54 85
REMARK H PARENT 20 4 7 13 24 28 74 47 48 58
REMARK Flexibility Score: inf
ROOT
ATOM      1  C   UNL A   1      33.168  28.833  26.071  1.00  0.00     0.220 C 
ATOM      2  O   UNL A   1      34.385  28.664  26.146  1.00  0.00    -0.275 OA
ATOM      3  N   UNL A   1      32.711  30.083  25.782  1.00  0.00    -0.356 N 
ATOM      4  H   UNL A   1      33.416  30.740  25.583  1.00  0.00     0.163 HD
ENDROOT
BRANCH   1   5
ATOM      5  C   UNL A   1      32.207  27.680  26.304  1.00  0.00     0.105 C 
BRANCH   5   6
ATOM      6  C   UNL A   1      32.447  26.487  25.352  1.00  0.00     0.018 C 
BRANCH   6   7
ATOM      7  C   UNL A   1      31.245  26.322  24.393  1.00  0.00     0.009 C 
BRANCH   7   8
ATOM      8  C   UNL A   1      31.560  26.660  22.921  1.00  0.00    -0.017 C 
ATOM      9  C   UNL A   1      30.760  27.854  22.391  1.00  0.00     0.007 C 
ATOM     10  C   UNL A   1      33.055  26.966  22.790  1.00  0.00     0.007 C 
ENDBRANCH   7   8
ENDBRANCH   6   7
BRANCH   6  11
ATOM     11  C   UNL A   1      32.697  25.196  26.146  1.00  0.00     0.117 C 
BRANCH  11  12
ATOM     12  N   UNL A   1      33.025  24.060  25.288  1.00  0.00    -0.384 N 
ATOM     13  H   UNL A   1      32.316  23.493  24.908  1.00  0.00     0.160 HD
BRANCH  12  14
ATOM     14  C   UNL A   1      34.371  23.802  25.020  1.00  0.00     0.055 A 
ATOM     15  C   UNL A   1      35.263  23.820  26.105  1.00  0.00     0.027 A 
ATOM     16  C   UNL A   1      34.862  23.410  23.760  1.00  0.00     0.111 A 
ATOM     17  C   UNL A   1      36.604  23.462  25.950  1.00  0.00     0.005 A 
ATOM     18  C   UNL A   1      36.205  23.049  23.619  1.00  0.00     0.143 A 
ATOM     19  C   UNL A   1      37.076  23.072  24.702  1.00  0.00     0.041 A 
ATOM     20  F   UNL A   1      36.680  22.655  22.427  1.00  0.00    -0.205 F 
BRANCH  16  21
ATOM     21  C   UNL A   1      34.032  23.396  22.589  1.00  0.00     0.104 C 
ATOM     22  N   UNL A   1      33.381  23.360  21.633  1.00  0.00    -0.192 NA
ENDBRANCH  16  21
ENDBRANCH  12  14
ENDBRANCH  11  12
ENDBRANCH   6  11
ENDBRANCH   5   6
ENDBRANCH   1   5
BRANCH   3  23
ATOM     23  C   UNL A   1      31.355  30.615  25.717  1.00  0.00     0.117 C 
BRANCH  23  24
ATOM     24  C   UNL A   1      31.243  31.968  26.416  1.00  0.00     0.042 C 
BRANCH  24  25
ATOM     25  C   UNL A   1      32.469  32.367  27.217  1.00  0.00     0.118 C 
BRANCH  25  26
ATOM     26  N   UNL A   1      32.424  33.761  27.609  1.00  0.00    -0.352 N 
ATOM     27  C   UNL A   1      33.191  34.453  28.515  1.00  0.00     0.251 C 
ATOM     28  H   UNL A   1      31.734  34.297  27.156  1.00  0.00     0.163 HD
ATOM     29  O   UNL A   1      32.811  35.561  28.885  1.00  0.00    -0.269 OA
BRANCH  27  30
ATOM     30  C   UNL A   1      34.458  33.896  29.057  1.00  0.00     0.039 A 
ATOM     31  C   UNL A   1      35.663  34.274  28.453  1.00  0.00     0.014 A 
ATOM     32  C   UNL A   1      34.480  32.950  30.084  1.00  0.00     0.014 A 
ATOM     33  C   UNL A   1      36.874  33.734  28.899  1.00  0.00     0.010 A 
ATOM     34  C   UNL A   1      35.695  32.494  30.599  1.00  0.00     0.010 A 
ATOM     35  C   UNL A   1      36.905  32.857  29.994  1.00  0.00    -0.014 A 
BRANCH  35  36
ATOM     36  C   UNL A   1      38.187  32.278  30.484  1.00  0.00     0.031 A 
ATOM     37  C   UNL A   1      38.720  30.997  29.895  1.00  0.00     0.074 A 
ATOM     38  C   UNL A   1      38.857  32.883  31.484  1.00  0.00     0.049 A 
ATOM     39  N   UNL A   1      39.792  30.317  30.220  1.00  0.00    -0.248 NA
ATOM     40  C   UNL A   1      37.929  30.382  28.817  1.00  0.00     0.031 C 
ATOM     41  C   UNL A   1      38.432  34.102  32.171  1.00  0.00     0.029 A 
ATOM     42  N   UNL A   1      40.039  32.550  32.098  1.00  0.00    -0.354 N 
ATOM     43  C   UNL A   1      39.792  29.193  29.402  1.00  0.00     0.074 A 
ATOM     44  C   UNL A   1      38.586  29.251  28.607  1.00  0.00     0.031 C 
ATOM     45  C   UNL A   1      39.354  34.435  33.088  1.00  0.00     0.029 A 
ATOM     46  C   UNL A   1      40.412  33.430  33.086  1.00  0.00     0.049 A 
ATOM     47  H   UNL A   1      40.570  31.758  31.853  1.00  0.00     0.167 HD
ATOM     48  C   UNL A   1      40.724  28.214  29.300  1.00  0.00     0.037 A 
ATOM     49  C   UNL A   1      41.481  33.422  33.906  1.00  0.00     0.037 A 
ATOM     50  C   UNL A   1      41.939  28.172  30.073  1.00  0.00     0.049 A 
ATOM     51  C   UNL A   1      42.496  32.319  33.784  1.00  0.00     0.074 A 
ATOM     52  C   UNL A   1      42.973  27.254  30.002  1.00  0.00     0.029 A 
ATOM     53  N   UNL A   1      42.281  29.085  31.060  1.00  0.00    -0.354 N 
ATOM     54  N   UNL A   1      42.514  31.298  32.962  1.00  0.00    -0.248 NA
ATOM     55  C   UNL A   1      43.643  32.371  34.702  1.00  0.00     0.031 C 
ATOM     56  C   UNL A   1      43.915  27.580  30.983  1.00  0.00     0.029 A 
ATOM     57  C   UNL A   1      43.498  28.735  31.624  1.00  0.00     0.049 A 
ATOM     58  H   UNL A   1      41.741  29.865  31.320  1.00  0.00     0.167 HD
ATOM     59  C   UNL A   1      43.684  30.603  33.244  1.00  0.00     0.074 A 
ATOM     60  C   UNL A   1      44.356  31.327  34.303  1.00  0.00     0.031 C 
ATOM     61  C   UNL A   1      44.158  29.467  32.676  1.00  0.00     0.037 A 
BRANCH  48  62
ATOM     62  C   UNL A   1      40.464  27.106  28.320  1.00  0.00     0.057 A 
ATOM     63  C   UNL A   1      39.591  26.047  28.610  1.00  0.00     0.134 A 
ATOM     64  C   UNL A   1      41.069  27.111  27.056  1.00  0.00     0.134 A 
ATOM     65  F   UNL A   1      38.985  25.974  29.805  1.00  0.00    -0.206 F 
ATOM     66  C   UNL A   1      39.356  25.021  27.694  1.00  0.00     0.040 A 
ATOM     67  C   UNL A   1      40.817  26.107  26.120  1.00  0.00     0.040 A 
ATOM     68  F   UNL A   1      41.908  28.098  26.706  1.00  0.00    -0.206 F 
ATOM     69  C   UNL A   1      39.965  25.053  26.440  1.00  0.00     0.006 A 
ENDBRANCH  48  62
BRANCH  49  70
ATOM     70  C   UNL A   1      41.655  34.507  34.905  1.00  0.00     0.057 A 
ATOM     71  C   UNL A   1      42.350  35.680  34.585  1.00  0.00     0.134 A 
ATOM     72  C   UNL A   1      41.137  34.399  36.201  1.00  0.00     0.134 A 
ATOM     73  F   UNL A   1      42.889  35.835  33.368  1.00  0.00    -0.206 F 
ATOM     74  C   UNL A   1      42.539  36.697  35.523  1.00  0.00     0.040 A 
ATOM     75  C   UNL A   1      41.294  35.419  37.140  1.00  0.00     0.040 A 
ATOM     76  F   UNL A   1      40.458  33.302  36.570  1.00  0.00    -0.206 F 
ATOM     77  C   UNL A   1      42.004  36.570  36.803  1.00  0.00     0.006 A 
ENDBRANCH  49  70
BRANCH  61  78
ATOM     78  C   UNL A   1      45.483  28.954  33.163  1.00  0.00     0.057 A 
ATOM     79  C   UNL A   1      46.695  29.375  32.602  1.00  0.00     0.134 A 
ATOM     80  C   UNL A   1      45.547  28.053  34.234  1.00  0.00     0.134 A 
ATOM     81  F   UNL A   1      46.705  30.228  31.567  1.00  0.00    -0.206 F 
ATOM     82  C   UNL A   1      47.921  28.902  33.072  1.00  0.00     0.040 A 
ATOM     83  C   UNL A   1      46.767  27.595  34.733  1.00  0.00     0.040 A 
ATOM     84  F   UNL A   1      44.424  27.615  34.825  1.00  0.00    -0.206 F 
ATOM     85  C   UNL A   1      47.959  28.014  34.146  1.00  0.00     0.006 A 
ENDBRANCH  61  78
ENDBRANCH  35  36
ENDBRANCH  27  30
ENDBRANCH  25  26
ENDBRANCH  24  25
ENDBRANCH  23  24
ENDBRANCH   3  23
TORSDOF 17
ENDMDL
