MODEL 1
REMARK VINA RESULT:     -11.4      0.000      0.000
REMARK SMILES O=C(NCCCNC(=O)[C@@H]1CCC(=O)N1C(=O)/C=C/c1ccccc1)c1ccc(-c2c3nc(c(-c4c(F)cccc4F)c4ccc([nH]4)c(-c4c(F)cccc4F)c4nc(c(-c5c(F)cccc5F)c5ccc2[nH]5)C=C4)C=C3)cc1
REMARK SMILES IDX 5 1 4 2 3 3 1 4 2 5 26 7 27 8 79 9 28 10 78 11 29 12 30 13
REMARK SMILES IDX 31 14 72 15 32 16 77 17 71 18 73 19 33 20 76 21 70 22 69 23
REMARK SMILES IDX 34 25 60 26 43 27 59 28 44 29 47 30 58 31 74 32 45 33 46 34
REMARK SMILES IDX 57 36 75 37 48 38 35 39 36 40 41 41 37 42 38 43 40 44 42 45
REMARK SMILES IDX 39 46 61 47 62 48 67 49 63 50 64 51 66 52 68 53 65 54 49 55
REMARK SMILES IDX 50 56 55 57 51 58 52 59 54 60 56 61 53 62 6 63 7 64 8 65
REMARK SMILES IDX 9 67 10 68 11 69 15 70 12 71 13 72 14 73 16 74 17 75 18 76
REMARK SMILES IDX 19 77 20 78 21 79 25 80 22 81 24 82 23 83
REMARK H PARENT 3 6 73 24 47 35 7 66
REMARK Flexibility Score: inf
ROOT
ATOM      1  C   UNL A   1      35.614  32.883  27.947  1.00  0.00     0.042 C 
ENDROOT
BRANCH   1   2
ATOM      2  C   UNL A   1      35.762  31.378  28.148  1.00  0.00     0.118 C 
BRANCH   2   3
ATOM      3  N   UNL A   1      35.630  31.012  29.556  1.00  0.00    -0.352 N 
ATOM      4  O   UNL A   1      35.981  29.801  31.415  1.00  0.00    -0.269 OA
ATOM      5  C   UNL A   1      36.416  30.209  30.343  1.00  0.00     0.251 C 
ATOM      6  H   UNL A   1      34.852  31.405  30.015  1.00  0.00     0.163 HD
BRANCH   5   7
ATOM      7  C   UNL A   1      37.782  29.842  29.913  1.00  0.00     0.039 A 
ATOM      8  C   UNL A   1      38.762  29.534  30.857  1.00  0.00     0.014 A 
ATOM      9  C   UNL A   1      38.069  29.738  28.548  1.00  0.00     0.014 A 
ATOM     10  C   UNL A   1      40.059  29.265  30.447  1.00  0.00     0.010 A 
ATOM     11  C   UNL A   1      39.351  29.361  28.134  1.00  0.00     0.010 A 
ATOM     12  C   UNL A   1      40.360  29.140  29.082  1.00  0.00    -0.014 A 
BRANCH  12  13
ATOM     13  C   UNL A   1      41.717  28.683  28.692  1.00  0.00     0.031 A 
ATOM     14  C   UNL A   1      41.968  27.267  28.265  1.00  0.00     0.074 A 
ATOM     15  C   UNL A   1      42.717  29.586  28.693  1.00  0.00     0.049 A 
ATOM     16  N   UNL A   1      43.091  26.715  27.878  1.00  0.00    -0.248 NA
ATOM     17  C   UNL A   1      40.821  26.347  28.278  1.00  0.00     0.031 C 
ATOM     18  C   UNL A   1      42.585  30.988  29.104  1.00  0.00     0.029 A 
ATOM     19  N   UNL A   1      44.030  29.477  28.315  1.00  0.00    -0.354 N 
ATOM     20  C   UNL A   1      42.793  25.382  27.625  1.00  0.00     0.074 A 
ATOM     21  C   UNL A   1      41.387  25.202  27.921  1.00  0.00     0.031 C 
ATOM     22  C   UNL A   1      43.748  31.620  28.899  1.00  0.00     0.029 A 
ATOM     23  C   UNL A   1      44.727  30.656  28.416  1.00  0.00     0.049 A 
ATOM     24  H   UNL A   1      44.433  28.635  28.001  1.00  0.00     0.167 HD
ATOM     25  C   UNL A   1      43.619  24.406  27.181  1.00  0.00     0.037 A 
ATOM     26  C   UNL A   1      46.021  30.929  28.167  1.00  0.00     0.037 A 
ATOM     27  C   UNL A   1      45.012  24.603  26.871  1.00  0.00     0.049 A 
ATOM     28  C   UNL A   1      46.913  29.822  27.692  1.00  0.00     0.074 A 
ATOM     29  C   UNL A   1      45.927  23.684  26.387  1.00  0.00     0.029 A 
ATOM     30  N   UNL A   1      45.691  25.805  27.014  1.00  0.00    -0.354 N 
ATOM     31  N   UNL A   1      46.610  28.572  27.437  1.00  0.00    -0.248 NA
ATOM     32  C   UNL A   1      48.325  30.159  27.476  1.00  0.00     0.031 C 
ATOM     33  C   UNL A   1      47.169  24.319  26.276  1.00  0.00     0.029 A 
ATOM     34  C   UNL A   1      47.018  25.645  26.647  1.00  0.00     0.049 A 
ATOM     35  H   UNL A   1      45.290  26.646  27.329  1.00  0.00     0.167 HD
ATOM     36  C   UNL A   1      47.790  27.975  27.020  1.00  0.00     0.074 A 
ATOM     37  C   UNL A   1      48.808  29.006  27.034  1.00  0.00     0.031 C 
ATOM     38  C   UNL A   1      48.012  26.686  26.665  1.00  0.00     0.037 A 
BRANCH  25  39
ATOM     39  C   UNL A   1      43.048  23.026  27.022  1.00  0.00     0.057 A 
ATOM     40  C   UNL A   1      42.794  22.196  28.120  1.00  0.00     0.134 A 
ATOM     41  C   UNL A   1      42.695  22.545  25.754  1.00  0.00     0.134 A 
ATOM     42  F   UNL A   1      43.119  22.591  29.360  1.00  0.00    -0.206 F 
ATOM     43  C   UNL A   1      42.223  20.931  27.964  1.00  0.00     0.040 A 
ATOM     44  C   UNL A   1      42.102  21.292  25.586  1.00  0.00     0.040 A 
ATOM     45  F   UNL A   1      42.906  23.291  24.659  1.00  0.00    -0.206 F 
ATOM     46  C   UNL A   1      41.868  20.480  26.693  1.00  0.00     0.006 A 
ENDBRANCH  25  39
BRANCH  26  47
ATOM     47  C   UNL A   1      46.542  32.301  28.384  1.00  0.00     0.057 A 
ATOM     48  C   UNL A   1      47.091  32.684  29.613  1.00  0.00     0.134 A 
ATOM     49  C   UNL A   1      46.517  33.259  27.362  1.00  0.00     0.134 A 
ATOM     50  F   UNL A   1      47.130  31.817  30.635  1.00  0.00    -0.206 F 
ATOM     51  C   UNL A   1      47.582  33.974  29.822  1.00  0.00     0.040 A 
ATOM     52  C   UNL A   1      47.030  34.542  27.548  1.00  0.00     0.040 A 
ATOM     53  F   UNL A   1      46.014  32.950  26.158  1.00  0.00    -0.206 F 
ATOM     54  C   UNL A   1      47.558  34.905  28.785  1.00  0.00     0.006 A 
ENDBRANCH  26  47
BRANCH  38  55
ATOM     55  C   UNL A   1      49.405  26.336  26.237  1.00  0.00     0.057 A 
ATOM     56  C   UNL A   1      49.875  26.625  24.950  1.00  0.00     0.134 A 
ATOM     57  C   UNL A   1      50.291  25.719  27.129  1.00  0.00     0.134 A 
ATOM     58  F   UNL A   1      49.069  27.200  24.044  1.00  0.00    -0.206 F 
ATOM     59  C   UNL A   1      51.173  26.292  24.558  1.00  0.00     0.040 A 
ATOM     60  C   UNL A   1      51.598  25.405  26.756  1.00  0.00     0.040 A 
ATOM     61  F   UNL A   1      49.902  25.421  28.378  1.00  0.00    -0.206 F 
ATOM     62  C   UNL A   1      52.039  25.686  25.466  1.00  0.00     0.006 A 
ENDBRANCH  38  55
ENDBRANCH  12  13
ENDBRANCH   5   7
ENDBRANCH   2   3
ENDBRANCH   1   2
BRANCH   1  63
ATOM     63  C   UNL A   1      34.152  33.318  27.979  1.00  0.00     0.117 C 
BRANCH  63  64
ATOM     64  N   UNL A   1      34.036  34.755  28.055  1.00  0.00    -0.354 N 
ATOM     65  C   UNL A   1      33.667  35.602  29.044  1.00  0.00     0.243 C 
ATOM     66  H   UNL A   1      34.270  35.212  27.216  1.00  0.00     0.163 HD
ATOM     67  O   UNL A   1      33.545  36.784  28.689  1.00  0.00    -0.273 OA
BRANCH  65  68
ATOM     68  C   UNL A   1      33.307  35.210  30.502  1.00  0.00     0.183 C 
ATOM     69  C   UNL A   1      32.500  36.394  31.053  1.00  0.00     0.046 C 
ATOM     70  N   UNL A   1      34.351  34.979  31.496  1.00  0.00    -0.266 N 
ATOM     71  C   UNL A   1      32.800  36.408  32.529  1.00  0.00     0.103 C 
ATOM     72  C   UNL A   1      34.197  35.862  32.571  1.00  0.00     0.230 C 
ATOM     73  O   UNL A   1      35.009  36.174  33.423  1.00  0.00    -0.274 OA
BRANCH  70  74
ATOM     74  C   UNL A   1      34.869  33.700  31.640  1.00  0.00     0.253 C 
ATOM     75  O   UNL A   1      34.175  32.687  31.545  1.00  0.00    -0.269 OA
BRANCH  74  76
ATOM     76  C   UNL A   1      36.346  33.526  31.708  1.00  0.00     0.072 C 
ATOM     77  C   UNL A   1      37.237  34.020  30.838  1.00  0.00     0.014 C 
BRANCH  77  78
ATOM     78  C   UNL A   1      38.696  33.826  30.932  1.00  0.00    -0.025 A 
ATOM     79  C   UNL A   1      39.202  33.082  32.007  1.00  0.00     0.008 A 
ATOM     80  C   UNL A   1      39.610  34.409  30.040  1.00  0.00     0.008 A 
ATOM     81  C   UNL A   1      40.578  32.903  32.174  1.00  0.00     0.001 A 
ATOM     82  C   UNL A   1      40.987  34.227  30.204  1.00  0.00     0.001 A 
ATOM     83  C   UNL A   1      41.471  33.473  31.271  1.00  0.00     0.000 A 
ENDBRANCH  77  78
ENDBRANCH  74  76
ENDBRANCH  70  74
ENDBRANCH  65  68
ENDBRANCH  63  64
ENDBRANCH   1  63
TORSDOF 13
ENDMDL
MODEL 2
REMARK VINA RESULT:     -11.3      4.971     10.182
REMARK SMILES O=C(NCCCNC(=O)[C@@H]1CCC(=O)N1C(=O)/C=C/c1ccccc1)c1ccc(-c2c3nc(c(-c4c(F)cccc4F)c4ccc([nH]4)c(-c4c(F)cccc4F)c4nc(c(-c5c(F)cccc5F)c5ccc2[nH]5)C=C4)C=C3)cc1
REMARK SMILES IDX 5 1 4 2 3 3 1 4 2 5 26 7 27 8 79 9 28 10 78 11 29 12 30 13
REMARK SMILES IDX 31 14 72 15 32 16 77 17 71 18 73 19 33 20 76 21 70 22 69 23
REMARK SMILES IDX 34 25 60 26 43 27 59 28 44 29 47 30 58 31 74 32 45 33 46 34
REMARK SMILES IDX 57 36 75 37 48 38 35 39 36 40 41 41 37 42 38 43 40 44 42 45
REMARK SMILES IDX 39 46 61 47 62 48 67 49 63 50 64 51 66 52 68 53 65 54 49 55
REMARK SMILES IDX 50 56 55 57 51 58 52 59 54 60 56 61 53 62 6 63 7 64 8 65
REMARK SMILES IDX 9 67 10 68 11 69 15 70 12 71 13 72 14 73 16 74 17 75 18 76
REMARK SMILES IDX 19 77 20 78 21 79 25 80 22 81 24 82 23 83
REMARK H PARENT 3 6 73 24 47 35 7 66
REMARK Flexibility Score: inf
ROOT
ATOM      1  C   UNL A   1      37.400  19.601  24.982  1.00  0.00     0.042 C 
ENDROOT
BRANCH   1   2
ATOM      2  C   UNL A   1      38.656  20.289  25.506  1.00  0.00     0.118 C 
BRANCH   2   3
ATOM      3  N   UNL A   1      39.736  19.332  25.729  1.00  0.00    -0.352 N 
ATOM      4  O   UNL A   1      41.859  18.624  25.933  1.00  0.00    -0.269 OA
ATOM      5  C   UNL A   1      41.048  19.535  26.072  1.00  0.00     0.251 C 
ATOM      6  H   UNL A   1      39.482  18.387  25.613  1.00  0.00     0.163 HD
BRANCH   5   7
ATOM      7  C   UNL A   1      41.488  20.836  26.618  1.00  0.00     0.039 A 
ATOM      8  C   UNL A   1      41.826  21.885  25.762  1.00  0.00     0.014 A 
ATOM      9  C   UNL A   1      41.497  21.034  28.003  1.00  0.00     0.014 A 
ATOM     10  C   UNL A   1      42.309  23.076  26.283  1.00  0.00     0.010 A 
ATOM     11  C   UNL A   1      41.882  22.273  28.526  1.00  0.00     0.010 A 
ATOM     12  C   UNL A   1      42.308  23.297  27.668  1.00  0.00    -0.014 A 
BRANCH  12  13
ATOM     13  C   UNL A   1      42.670  24.645  28.174  1.00  0.00     0.031 A 
ATOM     14  C   UNL A   1      44.097  25.017  28.445  1.00  0.00     0.074 A 
ATOM     15  C   UNL A   1      41.682  25.544  28.348  1.00  0.00     0.049 A 
ATOM     16  N   UNL A   1      44.580  26.156  28.872  1.00  0.00    -0.248 NA
ATOM     17  C   UNL A   1      45.116  23.982  28.216  1.00  0.00     0.031 C 
ATOM     18  C   UNL A   1      40.255  25.283  28.127  1.00  0.00     0.029 A 
ATOM     19  N   UNL A   1      41.720  26.863  28.722  1.00  0.00    -0.354 N 
ATOM     20  C   UNL A   1      45.952  25.971  28.986  1.00  0.00     0.074 A 
ATOM     21  C   UNL A   1      46.225  24.601  28.602  1.00  0.00     0.031 C 
ATOM     22  C   UNL A   1      39.565  26.416  28.310  1.00  0.00     0.029 A 
ATOM     23  C   UNL A   1      40.485  27.463  28.734  1.00  0.00     0.049 A 
ATOM     24  H   UNL A   1      42.552  27.333  28.959  1.00  0.00     0.167 HD
ATOM     25  C   UNL A   1      46.892  26.865  29.372  1.00  0.00     0.037 A 
ATOM     26  C   UNL A   1      40.126  28.716  29.069  1.00  0.00     0.037 A 
ATOM     27  C   UNL A   1      46.610  28.231  29.733  1.00  0.00     0.049 A 
ATOM     28  C   UNL A   1      41.189  29.678  29.506  1.00  0.00     0.074 A 
ATOM     29  C   UNL A   1      47.497  29.225  30.108  1.00  0.00     0.029 A 
ATOM     30  N   UNL A   1      45.343  28.795  29.761  1.00  0.00    -0.354 N 
ATOM     31  N   UNL A   1      42.485  29.492  29.588  1.00  0.00    -0.248 NA
ATOM     32  C   UNL A   1      40.744  31.018  29.903  1.00  0.00     0.031 C 
ATOM     33  C   UNL A   1      46.763  30.379  30.404  1.00  0.00     0.029 A 
ATOM     34  C   UNL A   1      45.422  30.118  30.168  1.00  0.00     0.049 A 
ATOM     35  H   UNL A   1      44.510  28.326  29.527  1.00  0.00     0.167 HD
ATOM     36  C   UNL A   1      43.011  30.694  30.035  1.00  0.00     0.074 A 
ATOM     37  C   UNL A   1      41.897  31.609  30.184  1.00  0.00     0.031 C 
ATOM     38  C   UNL A   1      44.301  31.010  30.306  1.00  0.00     0.037 A 
BRANCH  25  39
ATOM     39  C   UNL A   1      48.316  26.395  29.444  1.00  0.00     0.057 A 
ATOM     40  C   UNL A   1      49.205  26.550  28.374  1.00  0.00     0.134 A 
ATOM     41  C   UNL A   1      48.819  25.830  30.624  1.00  0.00     0.134 A 
ATOM     42  F   UNL A   1      48.784  27.074  27.212  1.00  0.00    -0.206 F 
ATOM     43  C   UNL A   1      50.538  26.148  28.466  1.00  0.00     0.040 A 
ATOM     44  C   UNL A   1      50.157  25.445  30.738  1.00  0.00     0.040 A 
ATOM     45  F   UNL A   1      48.024  25.657  31.690  1.00  0.00    -0.206 F 
ATOM     46  C   UNL A   1      51.019  25.600  29.655  1.00  0.00     0.006 A 
ENDBRANCH  25  39
BRANCH  26  47
ATOM     47  C   UNL A   1      38.698  29.114  29.021  1.00  0.00     0.057 A 
ATOM     48  C   UNL A   1      38.116  29.590  27.841  1.00  0.00     0.134 A 
ATOM     49  C   UNL A   1      37.877  29.017  30.151  1.00  0.00     0.134 A 
ATOM     50  F   UNL A   1      38.853  29.720  26.729  1.00  0.00    -0.206 F 
ATOM     51  C   UNL A   1      36.773  29.968  27.790  1.00  0.00     0.040 A 
ATOM     52  C   UNL A   1      36.526  29.363  30.108  1.00  0.00     0.040 A 
ATOM     53  F   UNL A   1      38.372  28.558  31.310  1.00  0.00    -0.206 F 
ATOM     54  C   UNL A   1      35.973  29.848  28.926  1.00  0.00     0.006 A 
ENDBRANCH  26  47
BRANCH  38  55
ATOM     55  C   UNL A   1      44.570  32.413  30.761  1.00  0.00     0.057 A 
ATOM     56  C   UNL A   1      44.603  32.753  32.119  1.00  0.00     0.134 A 
ATOM     57  C   UNL A   1      44.818  33.429  29.830  1.00  0.00     0.134 A 
ATOM     58  F   UNL A   1      44.356  31.828  33.059  1.00  0.00    -0.206 F 
ATOM     59  C   UNL A   1      44.850  34.063  32.535  1.00  0.00     0.040 A 
ATOM     60  C   UNL A   1      45.091  34.735  30.235  1.00  0.00     0.040 A 
ATOM     61  F   UNL A   1      44.806  33.165  28.515  1.00  0.00    -0.206 F 
ATOM     62  C   UNL A   1      45.102  35.056  31.590  1.00  0.00     0.006 A 
ENDBRANCH  38  55
ENDBRANCH  12  13
ENDBRANCH   5   7
ENDBRANCH   2   3
ENDBRANCH   1   2
BRANCH   1  63
ATOM     63  C   UNL A   1      36.205  20.549  24.955  1.00  0.00     0.117 C 
BRANCH  63  64
ATOM     64  N   UNL A   1      34.976  19.850  25.247  1.00  0.00    -0.354 N 
ATOM     65  C   UNL A   1      33.674  20.218  25.218  1.00  0.00     0.243 C 
ATOM     66  H   UNL A   1      35.113  18.916  25.526  1.00  0.00     0.163 HD
ATOM     67  O   UNL A   1      32.892  19.376  25.685  1.00  0.00    -0.273 OA
BRANCH  65  68
ATOM     68  C   UNL A   1      33.118  21.591  24.757  1.00  0.00     0.183 C 
ATOM     69  C   UNL A   1      32.585  21.358  23.336  1.00  0.00     0.046 C 
ATOM     70  N   UNL A   1      33.994  22.753  24.637  1.00  0.00    -0.266 N 
ATOM     71  C   UNL A   1      32.764  22.679  22.637  1.00  0.00     0.103 C 
ATOM     72  C   UNL A   1      33.979  23.236  23.323  1.00  0.00     0.230 C 
ATOM     73  O   UNL A   1      34.774  23.976  22.773  1.00  0.00    -0.274 OA
BRANCH  70  74
ATOM     74  C   UNL A   1      34.170  23.577  25.740  1.00  0.00     0.253 C 
ATOM     75  O   UNL A   1      35.032  23.368  26.593  1.00  0.00    -0.269 OA
BRANCH  74  76
ATOM     76  C   UNL A   1      33.434  24.870  25.796  1.00  0.00     0.072 C 
ATOM     77  C   UNL A   1      33.981  26.090  25.703  1.00  0.00     0.014 C 
BRANCH  77  78
ATOM     78  C   UNL A   1      33.223  27.354  25.767  1.00  0.00    -0.025 A 
ATOM     79  C   UNL A   1      32.056  27.471  24.999  1.00  0.00     0.008 A 
ATOM     80  C   UNL A   1      33.650  28.471  26.500  1.00  0.00     0.008 A 
ATOM     81  C   UNL A   1      31.321  28.660  24.984  1.00  0.00     0.001 A 
ATOM     82  C   UNL A   1      32.914  29.661  26.489  1.00  0.00     0.001 A 
ATOM     83  C   UNL A   1      31.749  29.754  25.731  1.00  0.00     0.000 A 
ENDBRANCH  77  78
ENDBRANCH  74  76
ENDBRANCH  70  74
ENDBRANCH  65  68
ENDBRANCH  63  64
ENDBRANCH   1  63
TORSDOF 13
ENDMDL
MODEL 3
REMARK VINA RESULT:     -11.3      5.392     10.701
REMARK SMILES O=C(NCCCNC(=O)[C@@H]1CCC(=O)N1C(=O)/C=C/c1ccccc1)c1ccc(-c2c3nc(c(-c4c(F)cccc4F)c4ccc([nH]4)c(-c4c(F)cccc4F)c4nc(c(-c5c(F)cccc5F)c5ccc2[nH]5)C=C4)C=C3)cc1
REMARK SMILES IDX 5 1 4 2 3 3 1 4 2 5 26 7 27 8 79 9 28 10 78 11 29 12 30 13
REMARK SMILES IDX 31 14 72 15 32 16 77 17 71 18 73 19 33 20 76 21 70 22 69 23
REMARK SMILES IDX 34 25 60 26 43 27 59 28 44 29 47 30 58 31 74 32 45 33 46 34
REMARK SMILES IDX 57 36 75 37 48 38 35 39 36 40 41 41 37 42 38 43 40 44 42 45
REMARK SMILES IDX 39 46 61 47 62 48 67 49 63 50 64 51 66 52 68 53 65 54 49 55
REMARK SMILES IDX 50 56 55 57 51 58 52 59 54 60 56 61 53 62 6 63 7 64 8 65
REMARK SMILES IDX 9 67 10 68 11 69 15 70 12 71 13 72 14 73 16 74 17 75 18 76
REMARK SMILES IDX 19 77 20 78 21 79 25 80 22 81 24 82 23 83
REMARK H PARENT 3 6 73 24 47 35 7 66
REMARK Flexibility Score: inf
ROOT
ATOM      1  C   UNL A   1      37.453  19.577  25.002  1.00  0.00     0.042 C 
ENDROOT
BRANCH   1   2
ATOM      2  C   UNL A   1      38.708  20.293  25.493  1.00  0.00     0.118 C 
BRANCH   2   3
ATOM      3  N   UNL A   1      39.808  19.356  25.706  1.00  0.00    -0.352 N 
ATOM      4  O   UNL A   1      41.945  18.690  25.891  1.00  0.00    -0.269 OA
ATOM      5  C   UNL A   1      41.119  19.586  26.037  1.00  0.00     0.251 C 
ATOM      6  H   UNL A   1      39.570  18.407  25.594  1.00  0.00     0.163 HD
BRANCH   5   7
ATOM      7  C   UNL A   1      41.539  20.895  26.577  1.00  0.00     0.039 A 
ATOM      8  C   UNL A   1      41.992  21.901  25.723  1.00  0.00     0.014 A 
ATOM      9  C   UNL A   1      41.413  21.147  27.948  1.00  0.00     0.014 A 
ATOM     10  C   UNL A   1      42.454  23.099  26.246  1.00  0.00     0.010 A 
ATOM     11  C   UNL A   1      41.779  22.396  28.461  1.00  0.00     0.010 A 
ATOM     12  C   UNL A   1      42.319  23.374  27.615  1.00  0.00    -0.014 A 
BRANCH  12  13
ATOM     13  C   UNL A   1      42.667  24.731  28.106  1.00  0.00     0.031 A 
ATOM     14  C   UNL A   1      41.609  25.770  28.337  1.00  0.00     0.074 A 
ATOM     15  C   UNL A   1      43.959  24.997  28.379  1.00  0.00     0.049 A 
ATOM     16  N   UNL A   1      41.746  26.995  28.778  1.00  0.00    -0.248 NA
ATOM     17  C   UNL A   1      40.221  25.395  28.028  1.00  0.00     0.031 C 
ATOM     18  C   UNL A   1      45.072  24.062  28.179  1.00  0.00     0.029 A 
ATOM     19  N   UNL A   1      44.558  26.111  28.906  1.00  0.00    -0.354 N 
ATOM     20  C   UNL A   1      40.471  27.545  28.778  1.00  0.00     0.074 A 
ATOM     21  C   UNL A   1      39.573  26.527  28.273  1.00  0.00     0.031 C 
ATOM     22  C   UNL A   1      46.203  24.617  28.632  1.00  0.00     0.029 A 
ATOM     23  C   UNL A   1      45.912  25.971  29.084  1.00  0.00     0.049 A 
ATOM     24  H   UNL A   1      44.064  26.932  29.135  1.00  0.00     0.167 HD
ATOM     25  C   UNL A   1      40.090  28.784  29.169  1.00  0.00     0.037 A 
ATOM     26  C   UNL A   1      46.828  26.845  29.542  1.00  0.00     0.037 A 
ATOM     27  C   UNL A   1      40.991  29.781  29.689  1.00  0.00     0.049 A 
ATOM     28  C   UNL A   1      46.376  28.213  29.953  1.00  0.00     0.074 A 
ATOM     29  C   UNL A   1      40.698  31.056  30.141  1.00  0.00     0.029 A 
ATOM     30  N   UNL A   1      42.361  29.613  29.826  1.00  0.00    -0.354 N 
ATOM     31  N   UNL A   1      45.163  28.711  29.967  1.00  0.00    -0.248 NA
ATOM     32  C   UNL A   1      47.416  29.145  30.404  1.00  0.00     0.031 C 
ATOM     33  C   UNL A   1      41.897  31.675  30.513  1.00  0.00     0.029 A 
ATOM     34  C   UNL A   1      42.930  30.769  30.337  1.00  0.00     0.049 A 
ATOM     35  H   UNL A   1      42.856  28.795  29.596  1.00  0.00     0.167 HD
ATOM     36  C   UNL A   1      45.291  30.009  30.438  1.00  0.00     0.074 A 
ATOM     37  C   UNL A   1      46.698  30.213  30.721  1.00  0.00     0.031 C 
ATOM     38  C   UNL A   1      44.332  30.949  30.614  1.00  0.00     0.037 A 
BRANCH  25  39
ATOM     39  C   UNL A   1      38.638  29.144  29.034  1.00  0.00     0.057 A 
ATOM     40  C   UNL A   1      37.760  29.104  30.123  1.00  0.00     0.134 A 
ATOM     41  C   UNL A   1      38.128  29.591  27.808  1.00  0.00     0.134 A 
ATOM     42  F   UNL A   1      38.182  28.675  31.322  1.00  0.00    -0.206 F 
ATOM     43  C   UNL A   1      36.421  29.482  29.996  1.00  0.00     0.040 A 
ATOM     44  C   UNL A   1      36.798  29.994  27.673  1.00  0.00     0.040 A 
ATOM     45  F   UNL A   1      38.917  29.659  26.726  1.00  0.00    -0.206 F 
ATOM     46  C   UNL A   1      35.939  29.935  28.769  1.00  0.00     0.006 A 
ENDBRANCH  25  39
BRANCH  26  47
ATOM     47  C   UNL A   1      48.256  26.450  29.614  1.00  0.00     0.057 A 
ATOM     48  C   UNL A   1      49.139  26.722  28.562  1.00  0.00     0.134 A 
ATOM     49  C   UNL A   1      48.776  25.803  30.741  1.00  0.00     0.134 A 
ATOM     50  F   UNL A   1      48.698  27.326  27.450  1.00  0.00    -0.206 F 
ATOM     51  C   UNL A   1      50.483  26.352  28.624  1.00  0.00     0.040 A 
ATOM     52  C   UNL A   1      50.124  25.454  30.829  1.00  0.00     0.040 A 
ATOM     53  F   UNL A   1      47.984  25.524  31.787  1.00  0.00    -0.206 F 
ATOM     54  C   UNL A   1      50.980  25.721  29.764  1.00  0.00     0.006 A 
ENDBRANCH  26  47
BRANCH  38  55
ATOM     55  C   UNL A   1      44.777  32.271  31.163  1.00  0.00     0.057 A 
ATOM     56  C   UNL A   1      45.147  33.331  30.327  1.00  0.00     0.134 A 
ATOM     57  C   UNL A   1      44.815  32.490  32.546  1.00  0.00     0.134 A 
ATOM     58  F   UNL A   1      45.147  33.177  28.993  1.00  0.00    -0.206 F 
ATOM     59  C   UNL A   1      45.563  34.557  30.847  1.00  0.00     0.040 A 
ATOM     60  C   UNL A   1      45.206  33.720  33.077  1.00  0.00     0.040 A 
ATOM     61  F   UNL A   1      44.467  31.516  33.400  1.00  0.00    -0.206 F 
ATOM     62  C   UNL A   1      45.587  34.755  32.227  1.00  0.00     0.006 A 
ENDBRANCH  38  55
ENDBRANCH  12  13
ENDBRANCH   5   7
ENDBRANCH   2   3
ENDBRANCH   1   2
BRANCH   1  63
ATOM     63  C   UNL A   1      36.326  20.558  24.693  1.00  0.00     0.117 C 
BRANCH  63  64
ATOM     64  N   UNL A   1      35.692  21.025  25.903  1.00  0.00    -0.354 N 
ATOM     65  C   UNL A   1      34.871  22.065  26.174  1.00  0.00     0.243 C 
ATOM     66  H   UNL A   1      35.900  20.474  26.692  1.00  0.00     0.163 HD
ATOM     67  O   UNL A   1      34.641  22.238  27.380  1.00  0.00    -0.273 OA
BRANCH  65  68
ATOM     68  C   UNL A   1      34.299  23.076  25.144  1.00  0.00     0.183 C 
ATOM     69  C   UNL A   1      34.706  24.461  25.665  1.00  0.00     0.046 C 
ATOM     70  N   UNL A   1      32.861  23.177  24.912  1.00  0.00    -0.266 N 
ATOM     71  C   UNL A   1      33.610  25.383  25.200  1.00  0.00     0.103 C 
ATOM     72  C   UNL A   1      32.416  24.474  25.192  1.00  0.00     0.230 C 
ATOM     73  O   UNL A   1      31.281  24.862  25.400  1.00  0.00    -0.274 OA
BRANCH  70  74
ATOM     74  C   UNL A   1      32.282  22.375  23.937  1.00  0.00     0.253 C 
ATOM     75  O   UNL A   1      31.565  22.827  23.045  1.00  0.00    -0.269 OA
BRANCH  74  76
ATOM     76  C   UNL A   1      32.699  20.949  23.839  1.00  0.00     0.072 C 
ATOM     77  C   UNL A   1      32.408  19.983  24.720  1.00  0.00     0.014 C 
BRANCH  77  78
ATOM     78  C   UNL A   1      32.840  18.578  24.595  1.00  0.00    -0.025 A 
ATOM     79  C   UNL A   1      32.631  17.717  25.682  1.00  0.00     0.008 A 
ATOM     80  C   UNL A   1      33.516  18.076  23.473  1.00  0.00     0.008 A 
ATOM     81  C   UNL A   1      33.060  16.387  25.640  1.00  0.00     0.001 A 
ATOM     82  C   UNL A   1      33.943  16.745  23.428  1.00  0.00     0.001 A 
ATOM     83  C   UNL A   1      33.714  15.900  24.512  1.00  0.00     0.000 A 
ENDBRANCH  77  78
ENDBRANCH  74  76
ENDBRANCH  70  74
ENDBRANCH  65  68
ENDBRANCH  63  64
ENDBRANCH   1  63
TORSDOF 13
ENDMDL
