MODEL 1
REMARK VINA RESULT:     -11.7      0.000      0.000
REMARK SMILES COc1ncccc1NS(=O)(=O)c1ccc(C(=O)NCCCNC(=O)c2ccc(-c3c4nc(c(-c5c(F)cccc5F)c5ccc([nH]5)c(-c5c(F)cccc5F)c5nc(c(-c6c(F)cccc6F)c6ccc3[nH]6)C=C5)C=C4)cc2)cc1
REMARK SMILES IDX 20 1 19 2 17 3 18 4 16 6 13 7 14 8 81 9 15 10 80 11 10 12
REMARK SMILES IDX 11 13 12 14 9 15 8 17 3 18 4 19 5 20 7 21 6 22 2 23 1 24
REMARK SMILES IDX 21 25 22 26 23 27 24 28 25 30 26 31 27 32 79 33 28 34 78 35
REMARK SMILES IDX 29 36 30 37 31 38 72 39 32 40 77 41 71 42 73 43 33 44 76 45
REMARK SMILES IDX 70 46 69 47 34 49 60 50 43 51 59 52 44 53 47 54 58 55 74 56
REMARK SMILES IDX 45 57 46 58 57 60 75 61 48 62 35 63 36 64 41 65 37 66 38 67
REMARK SMILES IDX 40 68 42 69 39 70 61 71 62 72 67 73 63 74 64 75 66 76 68 77
REMARK SMILES IDX 65 78 49 79 50 80 55 81 51 82 52 83 54 84 56 85 53 86
REMARK H PARENT 19 5 9 16 23 29 73 48 47 59
REMARK Flexibility Score: inf
ROOT
ATOM      1  C   UNL A   1      36.982  20.672  24.882  1.00  0.00     0.118 C 
ENDROOT
BRANCH   1   2
ATOM      2  N   UNL A   1      37.192  21.729  23.910  1.00  0.00    -0.352 N 
ATOM      3  C   UNL A   1      36.346  22.715  23.479  1.00  0.00     0.251 C 
ATOM      4  O   UNL A   1      36.724  23.516  22.630  1.00  0.00    -0.269 OA
ATOM      5  H   UNL A   1      38.085  21.740  23.495  1.00  0.00     0.163 HD
BRANCH   3   6
ATOM      6  C   UNL A   1      35.012  22.882  24.093  1.00  0.00     0.039 A 
ATOM      7  C   UNL A   1      32.561  23.245  25.409  1.00  0.00     0.087 A 
ATOM      8  C   UNL A   1      33.718  23.858  25.897  1.00  0.00     0.023 A 
ATOM      9  C   UNL A   1      32.643  22.427  24.269  1.00  0.00     0.023 A 
ATOM     10  C   UNL A   1      34.928  23.715  25.213  1.00  0.00     0.015 A 
ATOM     11  C   UNL A   1      33.866  22.245  23.611  1.00  0.00     0.015 A 
BRANCH   7  12
ATOM     12  S   UNL A   1      30.998  23.330  26.271  1.00  0.00     0.262 S 
ATOM     13  O   UNL A   1      31.318  23.572  27.657  1.00  0.00    -0.201 OA
ATOM     14  O   UNL A   1      30.262  22.141  25.881  1.00  0.00    -0.201 OA
BRANCH  12  15
ATOM     15  N   UNL A   1      29.998  24.584  25.728  1.00  0.00    -0.274 N 
ATOM     16  H   UNL A   1      29.042  24.571  25.964  1.00  0.00     0.180 HD
BRANCH  15  17
ATOM     17  C   UNL A   1      30.503  25.657  24.941  1.00  0.00     0.111 A 
ATOM     18  C   UNL A   1      31.029  26.803  25.549  1.00  0.00     0.238 A 
ATOM     19  N   UNL A   1      31.497  27.867  24.866  1.00  0.00    -0.220 NA
ATOM     20  C   UNL A   1      31.460  27.778  23.517  1.00  0.00     0.115 A 
ATOM     21  C   UNL A   1      30.482  25.592  23.552  1.00  0.00     0.034 A 
ATOM     22  C   UNL A   1      30.982  26.672  22.824  1.00  0.00     0.023 A 
BRANCH  18  23
ATOM     23  O   UNL A   1      31.150  26.761  26.925  1.00  0.00    -0.480 OA
ATOM     24  C   UNL A   1      31.529  28.002  27.506  1.00  0.00     0.280 C 
ENDBRANCH  18  23
ENDBRANCH  15  17
ENDBRANCH  12  15
ENDBRANCH   7  12
ENDBRANCH   3   6
ENDBRANCH   1   2
BRANCH   1  25
ATOM     25  C   UNL A   1      38.179  19.727  24.907  1.00  0.00     0.042 C 
BRANCH  25  26
ATOM     26  C   UNL A   1      39.201  20.094  25.979  1.00  0.00     0.118 C 
BRANCH  26  27
ATOM     27  N   UNL A   1      40.390  19.261  25.892  1.00  0.00    -0.352 N 
ATOM     28  C   UNL A   1      41.711  19.616  25.962  1.00  0.00     0.251 C 
ATOM     29  H   UNL A   1      40.220  18.299  25.764  1.00  0.00     0.163 HD
ATOM     30  O   UNL A   1      42.572  18.829  25.582  1.00  0.00    -0.269 OA
BRANCH  28  31
ATOM     31  C   UNL A   1      42.103  20.933  26.504  1.00  0.00     0.039 A 
ATOM     32  C   UNL A   1      42.086  21.120  27.889  1.00  0.00     0.014 A 
ATOM     33  C   UNL A   1      42.407  22.001  25.655  1.00  0.00     0.014 A 
ATOM     34  C   UNL A   1      42.378  22.376  28.419  1.00  0.00     0.010 A 
ATOM     35  C   UNL A   1      42.784  23.229  26.188  1.00  0.00     0.010 A 
ATOM     36  C   UNL A   1      42.735  23.439  27.572  1.00  0.00    -0.014 A 
BRANCH  36  37
ATOM     37  C   UNL A   1      42.991  24.791  28.123  1.00  0.00     0.031 A 
ATOM     38  C   UNL A   1      44.399  25.215  28.448  1.00  0.00     0.074 A 
ATOM     39  C   UNL A   1      41.959  25.625  28.346  1.00  0.00     0.049 A 
ATOM     40  N   UNL A   1      44.831  26.354  28.925  1.00  0.00    -0.248 NA
ATOM     41  C   UNL A   1      45.460  24.217  28.234  1.00  0.00     0.031 C 
ATOM     42  C   UNL A   1      40.549  25.304  28.119  1.00  0.00     0.029 A 
ATOM     43  N   UNL A   1      41.938  26.915  28.807  1.00  0.00    -0.354 N 
ATOM     44  C   UNL A   1      46.204  26.204  29.079  1.00  0.00     0.074 A 
ATOM     45  C   UNL A   1      46.525  24.845  28.708  1.00  0.00     0.031 C 
ATOM     46  C   UNL A   1      39.802  26.382  28.408  1.00  0.00     0.029 A 
ATOM     47  C   UNL A   1      40.677  27.457  28.863  1.00  0.00     0.049 A 
ATOM     48  H   UNL A   1      42.748  27.407  29.072  1.00  0.00     0.167 HD
ATOM     49  C   UNL A   1      47.119  27.124  29.466  1.00  0.00     0.037 A 
ATOM     50  C   UNL A   1      40.277  28.688  29.232  1.00  0.00     0.037 A 
ATOM     51  C   UNL A   1      46.794  28.483  29.810  1.00  0.00     0.049 A 
ATOM     52  C   UNL A   1      41.314  29.700  29.634  1.00  0.00     0.074 A 
ATOM     53  C   UNL A   1      47.645  29.511  30.173  1.00  0.00     0.029 A 
ATOM     54  N   UNL A   1      45.507  29.003  29.829  1.00  0.00    -0.354 N 
ATOM     55  N   UNL A   1      42.617  29.564  29.712  1.00  0.00    -0.248 NA
ATOM     56  C   UNL A   1      40.827  31.041  29.979  1.00  0.00     0.031 C 
ATOM     57  C   UNL A   1      46.870  30.643  30.449  1.00  0.00     0.029 A 
ATOM     58  C   UNL A   1      45.541  30.335  30.207  1.00  0.00     0.049 A 
ATOM     59  H   UNL A   1      44.691  28.499  29.606  1.00  0.00     0.167 HD
ATOM     60  C   UNL A   1      43.108  30.810  30.080  1.00  0.00     0.074 A 
ATOM     61  C   UNL A   1      41.962  31.690  30.193  1.00  0.00     0.031 C 
ATOM     62  C   UNL A   1      44.388  31.194  30.303  1.00  0.00     0.037 A 
BRANCH  49  63
ATOM     63  C   UNL A   1      48.556  26.688  29.528  1.00  0.00     0.057 A 
ATOM     64  C   UNL A   1      49.119  26.159  30.698  1.00  0.00     0.134 A 
ATOM     65  C   UNL A   1      49.383  26.782  28.402  1.00  0.00     0.134 A 
ATOM     66  F   UNL A   1      48.387  26.055  31.818  1.00  0.00    -0.206 F 
ATOM     67  C   UNL A   1      50.458  25.768  30.754  1.00  0.00     0.040 A 
ATOM     68  C   UNL A   1      50.716  26.367  28.438  1.00  0.00     0.040 A 
ATOM     69  F   UNL A   1      48.911  27.275  27.247  1.00  0.00    -0.206 F 
ATOM     70  C   UNL A   1      51.259  25.866  29.619  1.00  0.00     0.006 A 
ENDBRANCH  49  63
BRANCH  50  71
ATOM     71  C   UNL A   1      38.837  29.047  29.191  1.00  0.00     0.057 A 
ATOM     72  C   UNL A   1      38.252  29.553  28.024  1.00  0.00     0.134 A 
ATOM     73  C   UNL A   1      38.014  28.897  30.312  1.00  0.00     0.134 A 
ATOM     74  F   UNL A   1      38.993  29.732  26.920  1.00  0.00    -0.206 F 
ATOM     75  C   UNL A   1      36.907  29.924  27.980  1.00  0.00     0.040 A 
ATOM     76  C   UNL A   1      36.660  29.238  30.275  1.00  0.00     0.040 A 
ATOM     77  F   UNL A   1      38.510  28.404  31.456  1.00  0.00    -0.206 F 
ATOM     78  C   UNL A   1      36.106  29.761  29.109  1.00  0.00     0.006 A 
ENDBRANCH  50  71
BRANCH  62  79
ATOM     79  C   UNL A   1      44.616  32.639  30.641  1.00  0.00     0.057 A 
ATOM     80  C   UNL A   1      44.645  33.099  31.964  1.00  0.00     0.134 A 
ATOM     81  C   UNL A   1      44.819  33.581  29.625  1.00  0.00     0.134 A 
ATOM     82  F   UNL A   1      44.447  32.249  32.984  1.00  0.00    -0.206 F 
ATOM     83  C   UNL A   1      44.828  34.450  32.262  1.00  0.00     0.040 A 
ATOM     84  C   UNL A   1      45.034  34.929  29.910  1.00  0.00     0.040 A 
ATOM     85  F   UNL A   1      44.816  33.206  28.337  1.00  0.00    -0.206 F 
ATOM     86  C   UNL A   1      45.028  35.368  31.233  1.00  0.00     0.006 A 
ENDBRANCH  62  79
ENDBRANCH  36  37
ENDBRANCH  28  31
ENDBRANCH  26  27
ENDBRANCH  25  26
ENDBRANCH   1  25
TORSDOF 14
ENDMDL
MODEL 2
REMARK VINA RESULT:     -11.6      0.966      1.928
REMARK SMILES COc1ncccc1NS(=O)(=O)c1ccc(C(=O)NCCCNC(=O)c2ccc(-c3c4nc(c(-c5c(F)cccc5F)c5ccc([nH]5)c(-c5c(F)cccc5F)c5nc(c(-c6c(F)cccc6F)c6ccc3[nH]6)C=C5)C=C4)cc2)cc1
REMARK SMILES IDX 20 1 19 2 17 3 18 4 16 6 13 7 14 8 81 9 15 10 80 11 10 12
REMARK SMILES IDX 11 13 12 14 9 15 8 17 3 18 4 19 5 20 7 21 6 22 2 23 1 24
REMARK SMILES IDX 21 25 22 26 23 27 24 28 25 30 26 31 27 32 79 33 28 34 78 35
REMARK SMILES IDX 29 36 30 37 31 38 72 39 32 40 77 41 71 42 73 43 33 44 76 45
REMARK SMILES IDX 70 46 69 47 34 49 60 50 43 51 59 52 44 53 47 54 58 55 74 56
REMARK SMILES IDX 45 57 46 58 57 60 75 61 48 62 35 63 36 64 41 65 37 66 38 67
REMARK SMILES IDX 40 68 42 69 39 70 61 71 62 72 67 73 63 74 64 75 66 76 68 77
REMARK SMILES IDX 65 78 49 79 50 80 55 81 51 82 52 83 54 84 56 85 53 86
REMARK H PARENT 19 5 9 16 23 29 73 48 47 59
REMARK Flexibility Score: inf
ROOT
ATOM      1  C   UNL A   1      37.406  21.210  24.444  1.00  0.00     0.118 C 
ENDROOT
BRANCH   1   2
ATOM      2  N   UNL A   1      37.979  22.359  25.121  1.00  0.00    -0.352 N 
ATOM      3  C   UNL A   1      37.371  23.466  25.651  1.00  0.00     0.251 C 
ATOM      4  O   UNL A   1      38.050  24.340  26.180  1.00  0.00    -0.269 OA
ATOM      5  H   UNL A   1      38.959  22.341  25.215  1.00  0.00     0.163 HD
BRANCH   3   6
ATOM      6  C   UNL A   1      35.898  23.577  25.674  1.00  0.00     0.039 A 
ATOM      7  C   UNL A   1      33.116  23.934  25.619  1.00  0.00     0.087 A 
ATOM      8  C   UNL A   1      33.920  24.525  24.641  1.00  0.00     0.023 A 
ATOM      9  C   UNL A   1      33.718  23.180  26.642  1.00  0.00     0.023 A 
ATOM     10  C   UNL A   1      35.300  24.307  24.642  1.00  0.00     0.015 A 
ATOM     11  C   UNL A   1      35.107  23.002  26.671  1.00  0.00     0.015 A 
BRANCH   7  12
ATOM     12  S   UNL A   1      31.356  24.228  25.716  1.00  0.00     0.262 S 
ATOM     13  O   UNL A   1      31.001  24.074  27.106  1.00  0.00    -0.201 OA
ATOM     14  O   UNL A   1      30.754  23.379  24.703  1.00  0.00    -0.201 OA
BRANCH  12  15
ATOM     15  N   UNL A   1      30.904  25.782  25.220  1.00  0.00    -0.274 N 
ATOM     16  H   UNL A   1      30.107  25.892  24.653  1.00  0.00     0.180 HD
BRANCH  15  17
ATOM     17  C   UNL A   1      31.646  26.935  25.604  1.00  0.00     0.111 A 
ATOM     18  C   UNL A   1      32.227  27.764  24.638  1.00  0.00     0.238 A 
ATOM     19  N   UNL A   1      32.965  28.854  24.930  1.00  0.00    -0.220 NA
ATOM     20  C   UNL A   1      33.115  29.143  26.243  1.00  0.00     0.115 A 
ATOM     21  C   UNL A   1      31.813  27.260  26.946  1.00  0.00     0.034 A 
ATOM     22  C   UNL A   1      32.555  28.395  27.272  1.00  0.00     0.023 A 
BRANCH  18  23
ATOM     23  O   UNL A   1      31.919  27.475  23.322  1.00  0.00    -0.480 OA
ATOM     24  C   UNL A   1      33.056  27.378  22.475  1.00  0.00     0.280 C 
ENDBRANCH  18  23
ENDBRANCH  15  17
ENDBRANCH  12  15
ENDBRANCH   7  12
ENDBRANCH   3   6
ENDBRANCH   1   2
BRANCH   1  25
ATOM     25  C   UNL A   1      38.083  19.926  24.914  1.00  0.00     0.042 C 
BRANCH  25  26
ATOM     26  C   UNL A   1      39.060  20.157  26.063  1.00  0.00     0.118 C 
BRANCH  26  27
ATOM     27  N   UNL A   1      40.253  19.335  25.924  1.00  0.00    -0.352 N 
ATOM     28  C   UNL A   1      41.572  19.701  25.953  1.00  0.00     0.251 C 
ATOM     29  H   UNL A   1      40.086  18.374  25.789  1.00  0.00     0.163 HD
ATOM     30  O   UNL A   1      42.426  18.926  25.534  1.00  0.00    -0.269 OA
BRANCH  28  31
ATOM     31  C   UNL A   1      41.971  21.015  26.499  1.00  0.00     0.039 A 
ATOM     32  C   UNL A   1      41.997  21.186  27.885  1.00  0.00     0.014 A 
ATOM     33  C   UNL A   1      42.240  22.095  25.653  1.00  0.00     0.014 A 
ATOM     34  C   UNL A   1      42.297  22.437  28.421  1.00  0.00     0.010 A 
ATOM     35  C   UNL A   1      42.625  23.320  26.189  1.00  0.00     0.010 A 
ATOM     36  C   UNL A   1      42.618  23.513  27.576  1.00  0.00    -0.014 A 
BRANCH  36  37
ATOM     37  C   UNL A   1      42.883  24.860  28.135  1.00  0.00     0.031 A 
ATOM     38  C   UNL A   1      44.291  25.270  28.473  1.00  0.00     0.074 A 
ATOM     39  C   UNL A   1      41.856  25.702  28.353  1.00  0.00     0.049 A 
ATOM     40  N   UNL A   1      44.729  26.403  28.959  1.00  0.00    -0.248 NA
ATOM     41  C   UNL A   1      45.345  24.263  28.264  1.00  0.00     0.031 C 
ATOM     42  C   UNL A   1      40.445  25.395  28.113  1.00  0.00     0.029 A 
ATOM     43  N   UNL A   1      41.842  26.991  28.819  1.00  0.00    -0.354 N 
ATOM     44  C   UNL A   1      46.100  26.240  29.123  1.00  0.00     0.074 A 
ATOM     45  C   UNL A   1      46.412  24.879  28.749  1.00  0.00     0.031 C 
ATOM     46  C   UNL A   1      39.705  26.479  28.400  1.00  0.00     0.029 A 
ATOM     47  C   UNL A   1      40.586  27.544  28.867  1.00  0.00     0.049 A 
ATOM     48  H   UNL A   1      42.655  27.474  29.093  1.00  0.00     0.167 HD
ATOM     49  C   UNL A   1      47.019  27.151  29.522  1.00  0.00     0.037 A 
ATOM     50  C   UNL A   1      40.194  28.777  29.238  1.00  0.00     0.037 A 
ATOM     51  C   UNL A   1      46.704  28.511  29.869  1.00  0.00     0.049 A 
ATOM     52  C   UNL A   1      41.237  29.777  29.653  1.00  0.00     0.074 A 
ATOM     53  C   UNL A   1      47.561  29.529  30.243  1.00  0.00     0.029 A 
ATOM     54  N   UNL A   1      45.422  29.042  29.879  1.00  0.00    -0.354 N 
ATOM     55  N   UNL A   1      42.538  29.630  29.741  1.00  0.00    -0.248 NA
ATOM     56  C   UNL A   1      40.759  31.121  29.999  1.00  0.00     0.031 C 
ATOM     57  C   UNL A   1      46.794  30.668  30.517  1.00  0.00     0.029 A 
ATOM     58  C   UNL A   1      45.465  30.372  30.263  1.00  0.00     0.049 A 
ATOM     59  H   UNL A   1      44.603  28.546  29.648  1.00  0.00     0.167 HD
ATOM     60  C   UNL A   1      43.037  30.870  30.119  1.00  0.00     0.074 A 
ATOM     61  C   UNL A   1      41.898  31.759  30.226  1.00  0.00     0.031 C 
ATOM     62  C   UNL A   1      44.319  31.242  30.353  1.00  0.00     0.037 A 
BRANCH  49  63
ATOM     63  C   UNL A   1      48.452  26.701  29.594  1.00  0.00     0.057 A 
ATOM     64  C   UNL A   1      48.990  26.128  30.755  1.00  0.00     0.134 A 
ATOM     65  C   UNL A   1      49.300  26.827  28.487  1.00  0.00     0.134 A 
ATOM     66  F   UNL A   1      48.237  25.991  31.857  1.00  0.00    -0.206 F 
ATOM     67  C   UNL A   1      50.325  25.725  30.821  1.00  0.00     0.040 A 
ATOM     68  C   UNL A   1      50.629  26.400  28.532  1.00  0.00     0.040 A 
ATOM     69  F   UNL A   1      48.851  27.363  27.341  1.00  0.00    -0.206 F 
ATOM     70  C   UNL A   1      51.147  25.855  29.704  1.00  0.00     0.006 A 
ENDBRANCH  49  63
BRANCH  50  71
ATOM     71  C   UNL A   1      38.758  29.149  29.186  1.00  0.00     0.057 A 
ATOM     72  C   UNL A   1      37.946  29.058  30.323  1.00  0.00     0.134 A 
ATOM     73  C   UNL A   1      38.162  29.599  28.003  1.00  0.00     0.134 A 
ATOM     74  F   UNL A   1      38.457  28.620  31.483  1.00  0.00    -0.206 F 
ATOM     75  C   UNL A   1      36.588  29.375  30.280  1.00  0.00     0.040 A 
ATOM     76  C   UNL A   1      36.811  29.945  27.951  1.00  0.00     0.040 A 
ATOM     77  F   UNL A   1      38.889  29.721  26.882  1.00  0.00    -0.206 F 
ATOM     78  C   UNL A   1      36.017  29.825  29.090  1.00  0.00     0.006 A 
ENDBRANCH  50  71
BRANCH  62  79
ATOM     79  C   UNL A   1      44.556  32.683  30.700  1.00  0.00     0.057 A 
ATOM     80  C   UNL A   1      44.771  33.659  29.718  1.00  0.00     0.134 A 
ATOM     81  C   UNL A   1      44.558  33.099  32.037  1.00  0.00     0.134 A 
ATOM     82  F   UNL A   1      44.792  33.324  28.418  1.00  0.00    -0.206 F 
ATOM     83  C   UNL A   1      45.020  34.990  30.056  1.00  0.00     0.040 A 
ATOM     84  C   UNL A   1      44.774  34.432  32.386  1.00  0.00     0.040 A 
ATOM     85  F   UNL A   1      44.346  32.218  33.026  1.00  0.00    -0.206 F 
ATOM     86  C   UNL A   1      45.017  35.379  31.394  1.00  0.00     0.006 A 
ENDBRANCH  62  79
ENDBRANCH  36  37
ENDBRANCH  28  31
ENDBRANCH  26  27
ENDBRANCH  25  26
ENDBRANCH   1  25
TORSDOF 14
ENDMDL
MODEL 3
REMARK VINA RESULT:     -11.5      1.513      2.234
REMARK SMILES COc1ncccc1NS(=O)(=O)c1ccc(C(=O)NCCCNC(=O)c2ccc(-c3c4nc(c(-c5c(F)cccc5F)c5ccc([nH]5)c(-c5c(F)cccc5F)c5nc(c(-c6c(F)cccc6F)c6ccc3[nH]6)C=C5)C=C4)cc2)cc1
REMARK SMILES IDX 20 1 19 2 17 3 18 4 16 6 13 7 14 8 81 9 15 10 80 11 10 12
REMARK SMILES IDX 11 13 12 14 9 15 8 17 3 18 4 19 5 20 7 21 6 22 2 23 1 24
REMARK SMILES IDX 21 25 22 26 23 27 24 28 25 30 26 31 27 32 79 33 28 34 78 35
REMARK SMILES IDX 29 36 30 37 31 38 72 39 32 40 77 41 71 42 73 43 33 44 76 45
REMARK SMILES IDX 70 46 69 47 34 49 60 50 43 51 59 52 44 53 47 54 58 55 74 56
REMARK SMILES IDX 45 57 46 58 57 60 75 61 48 62 35 63 36 64 41 65 37 66 38 67
REMARK SMILES IDX 40 68 42 69 39 70 61 71 62 72 67 73 63 74 64 75 66 76 68 77
REMARK SMILES IDX 65 78 49 79 50 80 55 81 51 82 52 83 54 84 56 85 53 86
REMARK H PARENT 19 5 9 16 23 29 73 48 47 59
REMARK Flexibility Score: inf
ROOT
ATOM      1  C   UNL A   1      36.766  20.754  24.624  1.00  0.00     0.118 C 
ENDROOT
BRANCH   1   2
ATOM      2  N   UNL A   1      35.547  20.445  25.349  1.00  0.00    -0.352 N 
ATOM      3  C   UNL A   1      34.320  21.049  25.311  1.00  0.00     0.251 C 
ATOM      4  O   UNL A   1      33.412  20.630  26.022  1.00  0.00    -0.269 OA
ATOM      5  H   UNL A   1      35.613  19.679  25.965  1.00  0.00     0.163 HD
BRANCH   3   6
ATOM      6  C   UNL A   1      34.049  22.143  24.356  1.00  0.00     0.039 A 
ATOM      7  C   UNL A   1      33.572  24.336  22.672  1.00  0.00     0.087 A 
ATOM      8  C   UNL A   1      34.356  24.488  23.818  1.00  0.00     0.023 A 
ATOM      9  C   UNL A   1      33.005  23.082  22.386  1.00  0.00     0.023 A 
ATOM     10  C   UNL A   1      34.632  23.384  24.630  1.00  0.00     0.015 A 
ATOM     11  C   UNL A   1      33.243  21.986  23.226  1.00  0.00     0.015 A 
BRANCH   7  12
ATOM     12  S   UNL A   1      33.124  25.717  21.630  1.00  0.00     0.262 S 
ATOM     13  O   UNL A   1      32.915  25.171  20.311  1.00  0.00    -0.201 OA
ATOM     14  O   UNL A   1      34.137  26.733  21.856  1.00  0.00    -0.201 OA
BRANCH  12  15
ATOM     15  N   UNL A   1      31.700  26.494  22.117  1.00  0.00    -0.274 N 
ATOM     16  H   UNL A   1      31.159  26.968  21.445  1.00  0.00     0.180 HD
BRANCH  15  17
ATOM     17  C   UNL A   1      31.265  26.478  23.472  1.00  0.00     0.111 A 
ATOM     18  C   UNL A   1      31.629  27.503  24.351  1.00  0.00     0.238 A 
ATOM     19  N   UNL A   1      31.277  27.537  25.652  1.00  0.00    -0.220 NA
ATOM     20  C   UNL A   1      30.510  26.514  26.093  1.00  0.00     0.115 A 
ATOM     21  C   UNL A   1      30.471  25.441  23.952  1.00  0.00     0.034 A 
ATOM     22  C   UNL A   1      30.076  25.466  25.290  1.00  0.00     0.023 A 
BRANCH  18  23
ATOM     23  O   UNL A   1      32.302  28.574  23.793  1.00  0.00    -0.480 OA
ATOM     24  C   UNL A   1      32.991  29.376  24.742  1.00  0.00     0.280 C 
ENDBRANCH  18  23
ENDBRANCH  15  17
ENDBRANCH  12  15
ENDBRANCH   7  12
ENDBRANCH   3   6
ENDBRANCH   1   2
BRANCH   1  25
ATOM     25  C   UNL A   1      37.832  19.699  24.903  1.00  0.00     0.042 C 
BRANCH  25  26
ATOM     26  C   UNL A   1      38.920  20.192  25.852  1.00  0.00     0.118 C 
BRANCH  26  27
ATOM     27  N   UNL A   1      40.020  19.245  25.944  1.00  0.00    -0.352 N 
ATOM     28  C   UNL A   1      41.363  19.478  26.079  1.00  0.00     0.251 C 
ATOM     29  H   UNL A   1      39.760  18.295  25.904  1.00  0.00     0.163 HD
ATOM     30  O   UNL A   1      42.162  18.574  25.851  1.00  0.00    -0.269 OA
BRANCH  28  31
ATOM     31  C   UNL A   1      41.851  20.803  26.511  1.00  0.00     0.039 A 
ATOM     32  C   UNL A   1      41.944  21.072  27.879  1.00  0.00     0.014 A 
ATOM     33  C   UNL A   1      42.141  21.804  25.578  1.00  0.00     0.014 A 
ATOM     34  C   UNL A   1      42.330  22.341  28.309  1.00  0.00     0.010 A 
ATOM     35  C   UNL A   1      42.610  23.041  26.007  1.00  0.00     0.010 A 
ATOM     36  C   UNL A   1      42.671  23.334  27.376  1.00  0.00    -0.014 A 
BRANCH  36  37
ATOM     37  C   UNL A   1      43.027  24.701  27.823  1.00  0.00     0.031 A 
ATOM     38  C   UNL A   1      44.470  25.129  27.853  1.00  0.00     0.074 A 
ATOM     39  C   UNL A   1      42.057  25.545  28.217  1.00  0.00     0.049 A 
ATOM     40  N   UNL A   1      44.985  26.281  28.201  1.00  0.00    -0.248 NA
ATOM     41  C   UNL A   1      45.471  24.121  27.467  1.00  0.00     0.031 C 
ATOM     42  C   UNL A   1      40.630  25.223  28.280  1.00  0.00     0.029 A 
ATOM     43  N   UNL A   1      42.123  26.850  28.632  1.00  0.00    -0.354 N 
ATOM     44  C   UNL A   1      46.361  26.131  28.088  1.00  0.00     0.074 A 
ATOM     45  C   UNL A   1      46.607  24.759  27.704  1.00  0.00     0.031 C 
ATOM     46  C   UNL A   1      39.951  26.312  28.675  1.00  0.00     0.029 A 
ATOM     47  C   UNL A   1      40.896  27.398  28.917  1.00  0.00     0.049 A 
ATOM     48  H   UNL A   1      42.968  27.346  28.719  1.00  0.00     0.167 HD
ATOM     49  C   UNL A   1      47.332  27.059  28.259  1.00  0.00     0.037 A 
ATOM     50  C   UNL A   1      40.573  28.641  29.318  1.00  0.00     0.037 A 
ATOM     51  C   UNL A   1      47.078  28.429  28.618  1.00  0.00     0.049 A 
ATOM     52  C   UNL A   1      41.667  29.661  29.477  1.00  0.00     0.074 A 
ATOM     53  C   UNL A   1      47.981  29.465  28.774  1.00  0.00     0.029 A 
ATOM     54  N   UNL A   1      45.818  28.955  28.871  1.00  0.00    -0.354 N 
ATOM     55  N   UNL A   1      42.960  29.523  29.303  1.00  0.00    -0.248 NA
ATOM     56  C   UNL A   1      41.253  31.014  29.869  1.00  0.00     0.031 C 
ATOM     57  C   UNL A   1      47.272  30.608  29.161  1.00  0.00     0.029 A 
ATOM     58  C   UNL A   1      45.922  30.298  29.193  1.00  0.00     0.049 A 
ATOM     59  H   UNL A   1      44.976  28.447  28.828  1.00  0.00     0.167 HD
ATOM     60  C   UNL A   1      43.510  30.778  29.530  1.00  0.00     0.074 A 
ATOM     61  C   UNL A   1      42.407  31.665  29.837  1.00  0.00     0.031 C 
ATOM     62  C   UNL A   1      44.809  31.164  29.485  1.00  0.00     0.037 A 
BRANCH  49  63
ATOM     63  C   UNL A   1      48.755  26.619  28.053  1.00  0.00     0.057 A 
ATOM     64  C   UNL A   1      49.548  26.158  29.113  1.00  0.00     0.134 A 
ATOM     65  C   UNL A   1      49.334  26.641  26.779  1.00  0.00     0.134 A 
ATOM     66  F   UNL A   1      49.060  26.126  30.363  1.00  0.00    -0.206 F 
ATOM     67  C   UNL A   1      50.873  25.764  28.918  1.00  0.00     0.040 A 
ATOM     68  C   UNL A   1      50.649  26.221  26.567  1.00  0.00     0.040 A 
ATOM     69  F   UNL A   1      48.633  27.066  25.717  1.00  0.00    -0.206 F 
ATOM     70  C   UNL A   1      51.425  25.789  27.640  1.00  0.00     0.006 A 
ENDBRANCH  49  63
BRANCH  50  71
ATOM     71  C   UNL A   1      39.152  29.004  29.547  1.00  0.00     0.057 A 
ATOM     72  C   UNL A   1      38.559  28.842  30.805  1.00  0.00     0.134 A 
ATOM     73  C   UNL A   1      38.354  29.517  28.519  1.00  0.00     0.134 A 
ATOM     74  F   UNL A   1      39.269  28.342  31.827  1.00  0.00    -0.206 F 
ATOM     75  C   UNL A   1      37.215  29.150  31.026  1.00  0.00     0.040 A 
ATOM     76  C   UNL A   1      37.016  29.855  28.732  1.00  0.00     0.040 A 
ATOM     77  F   UNL A   1      38.867  29.709  27.295  1.00  0.00    -0.206 F 
ATOM     78  C   UNL A   1      36.441  29.663  29.987  1.00  0.00     0.006 A 
ENDBRANCH  50  71
BRANCH  62  79
ATOM     79  C   UNL A   1      45.094  32.618  29.727  1.00  0.00     0.057 A 
ATOM     80  C   UNL A   1      45.371  33.120  31.005  1.00  0.00     0.134 A 
ATOM     81  C   UNL A   1      45.103  33.525  28.660  1.00  0.00     0.134 A 
ATOM     82  F   UNL A   1      45.368  32.305  32.072  1.00  0.00    -0.206 F 
ATOM     83  C   UNL A   1      45.606  34.479  31.218  1.00  0.00     0.040 A 
ATOM     84  C   UNL A   1      45.367  34.880  28.856  1.00  0.00     0.040 A 
ATOM     85  F   UNL A   1      44.859  33.108  27.408  1.00  0.00    -0.206 F 
ATOM     86  C   UNL A   1      45.609  35.362  30.141  1.00  0.00     0.006 A 
ENDBRANCH  62  79
ENDBRANCH  36  37
ENDBRANCH  28  31
ENDBRANCH  26  27
ENDBRANCH  25  26
ENDBRANCH   1  25
TORSDOF 14
ENDMDL
