MODEL 1
REMARK VINA RESULT:     -13.2      0.000      0.000
REMARK SMILES Cc1ccc(NC(=O)C[C@H]2C(=O)NCCN2C(=O)CCC(=O)NCCCNC(=O)c2ccc(-c3c4nc(c(-c5c(F)cccc5F)c5ccc([nH]5)c(-c5c(F)cccc5F)c5nc(c(-c6c(F)cccc6F)c6ccc3[nH]6)C=C5)C=C4)cc2)c(C)c1
REMARK SMILES IDX 21 1 22 2 23 3 20 5 19 6 17 7 18 8 16 9 10 10 11 11 12 12
REMARK SMILES IDX 13 13 15 14 14 15 9 17 7 18 6 19 8 21 5 22 1 23 2 24 3 25
REMARK SMILES IDX 86 26 4 27 84 28 85 29 24 30 25 31 26 32 27 33 28 34 29 36
REMARK SMILES IDX 30 37 31 38 83 39 32 40 82 41 33 42 34 43 35 44 76 45 36 46
REMARK SMILES IDX 81 47 75 48 77 49 37 50 80 51 74 52 73 53 38 55 64 56 47 57
REMARK SMILES IDX 63 58 48 59 51 60 62 61 78 62 49 63 50 64 61 66 79 67 52 68
REMARK SMILES IDX 39 69 40 70 45 71 41 72 42 73 44 74 46 75 43 76 65 77 66 78
REMARK SMILES IDX 71 79 67 80 68 81 70 82 72 83 69 84 53 85 54 86 59 87 55 88
REMARK SMILES IDX 56 89 58 90 60 91 57 92
REMARK H PARENT 23 4 13 16 6 20 27 35 77 54 51 65
REMARK Flexibility Score: inf
ROOT
ATOM      1  C   UNL A   1      29.549  29.957  22.482  1.00  0.00     0.220 C 
ATOM      2  O   UNL A   1      29.526  29.970  21.249  1.00  0.00    -0.275 OA
ATOM      3  N   UNL A   1      29.722  31.135  23.145  1.00  0.00    -0.356 N 
ATOM      4  H   UNL A   1      29.860  31.882  22.519  1.00  0.00     0.163 HD
ENDROOT
BRANCH   1   5
ATOM      5  C   UNL A   1      29.510  28.666  23.210  1.00  0.00     0.110 C 
BRANCH   5   6
ATOM      6  C   UNL A   1      30.623  27.799  22.669  1.00  0.00     0.110 C 
BRANCH   6   7
ATOM      7  C   UNL A   1      31.886  28.160  23.375  1.00  0.00     0.223 C 
ATOM      8  O   UNL A   1      32.661  28.914  22.766  1.00  0.00    -0.275 OA
BRANCH   7   9
ATOM      9  N   UNL A   1      32.233  27.608  24.621  1.00  0.00    -0.328 N 
ATOM     10  C   UNL A   1      31.313  27.056  25.749  1.00  0.00     0.183 C 
ATOM     11  C   UNL A   1      31.692  27.772  27.083  1.00  0.00     0.243 C 
ATOM     12  O   UNL A   1      30.932  27.813  28.048  1.00  0.00    -0.273 OA
ATOM     13  N   UNL A   1      32.935  28.321  27.229  1.00  0.00    -0.353 N 
ATOM     14  C   UNL A   1      33.648  27.912  24.882  1.00  0.00     0.141 C 
ATOM     15  C   UNL A   1      34.028  28.237  26.301  1.00  0.00     0.137 C 
ATOM     16  H   UNL A   1      33.098  28.827  28.057  1.00  0.00     0.163 HD
BRANCH  10  17
ATOM     17  C   UNL A   1      30.693  25.489  26.114  1.00  0.00     0.135 C 
BRANCH  17  18
ATOM     18  C   UNL A   1      30.974  23.896  26.545  1.00  0.00     0.227 C 
ATOM     19  N   UNL A   1      31.858  22.858  26.267  1.00  0.00    -0.326 N 
ATOM     20  H   UNL A   1      31.380  22.002  26.359  1.00  0.00     0.169 HD
ATOM     21  O   UNL A   1      30.068  23.424  27.278  1.00  0.00    -0.275 OA
BRANCH  19  22
ATOM     22  C   UNL A   1      33.222  22.584  25.892  1.00  0.00     0.044 A 
ATOM     23  C   UNL A   1      36.638  23.017  23.395  1.00  0.00     0.044 C 
ATOM     24  C   UNL A   1      35.694  22.686  24.524  1.00  0.00    -0.051 A 
ATOM     25  C   UNL A   1      35.404  23.625  25.515  1.00  0.00     0.005 A 
ATOM     26  C   UNL A   1      34.895  21.538  24.469  1.00  0.00     0.009 A 
ATOM     27  C   UNL A   1      34.203  23.527  26.247  1.00  0.00     0.026 A 
ATOM     28  C   UNL A   1      33.672  21.462  25.183  1.00  0.00    -0.027 A 
ATOM     29  C   UNL A   1      32.936  20.156  25.187  1.00  0.00     0.046 C 
ENDBRANCH  19  22
ENDBRANCH  17  18
ENDBRANCH  10  17
ENDBRANCH   7   9
ENDBRANCH   6   7
ENDBRANCH   5   6
ENDBRANCH   1   5
BRANCH   3  30
ATOM     30  C   UNL A   1      29.760  31.593  24.550  1.00  0.00     0.117 C 
BRANCH  30  31
ATOM     31  C   UNL A   1      30.751  31.025  25.671  1.00  0.00     0.042 C 
BRANCH  31  32
ATOM     32  C   UNL A   1      32.086  31.569  26.261  1.00  0.00     0.118 C 
BRANCH  32  33
ATOM     33  N   UNL A   1      32.009  32.871  26.937  1.00  0.00    -0.352 N 
ATOM     34  C   UNL A   1      32.911  33.506  27.779  1.00  0.00     0.251 C 
ATOM     35  H   UNL A   1      31.182  33.376  26.763  1.00  0.00     0.163 HD
ATOM     36  O   UNL A   1      32.663  34.592  28.256  1.00  0.00    -0.269 OA
BRANCH  34  37
ATOM     37  C   UNL A   1      34.174  32.827  28.149  1.00  0.00     0.039 A 
ATOM     38  C   UNL A   1      35.332  33.591  28.288  1.00  0.00     0.014 A 
ATOM     39  C   UNL A   1      34.221  31.451  28.350  1.00  0.00     0.014 A 
ATOM     40  C   UNL A   1      36.504  32.996  28.769  1.00  0.00     0.010 A 
ATOM     41  C   UNL A   1      35.375  30.870  28.890  1.00  0.00     0.010 A 
ATOM     42  C   UNL A   1      36.518  31.642  29.147  1.00  0.00    -0.014 A 
BRANCH  42  43
ATOM     43  C   UNL A   1      37.695  31.061  29.859  1.00  0.00     0.031 A 
ATOM     44  C   UNL A   1      37.979  31.385  31.302  1.00  0.00     0.074 A 
ATOM     45  C   UNL A   1      38.556  30.268  29.187  1.00  0.00     0.049 A 
ATOM     46  N   UNL A   1      38.945  30.946  32.071  1.00  0.00    -0.248 NA
ATOM     47  C   UNL A   1      37.083  32.346  31.957  1.00  0.00     0.031 C 
ATOM     48  C   UNL A   1      38.457  29.920  27.766  1.00  0.00     0.029 A 
ATOM     49  N   UNL A   1      39.681  29.600  29.609  1.00  0.00    -0.354 N 
ATOM     50  C   UNL A   1      38.777  31.581  33.294  1.00  0.00     0.074 A 
ATOM     51  C   UNL A   1      37.655  32.485  33.143  1.00  0.00     0.031 C 
ATOM     52  C   UNL A   1      39.438  29.059  27.454  1.00  0.00     0.029 A 
ATOM     53  C   UNL A   1      40.259  28.818  28.636  1.00  0.00     0.049 A 
ATOM     54  H   UNL A   1      40.041  29.675  30.523  1.00  0.00     0.167 HD
ATOM     55  C   UNL A   1      39.467  31.411  34.449  1.00  0.00     0.037 A 
ATOM     56  C   UNL A   1      41.315  27.983  28.689  1.00  0.00     0.037 A 
ATOM     57  C   UNL A   1      40.564  30.494  34.622  1.00  0.00     0.049 A 
ATOM     58  C   UNL A   1      42.065  27.808  29.981  1.00  0.00     0.074 A 
ATOM     59  C   UNL A   1      41.268  30.199  35.777  1.00  0.00     0.029 A 
ATOM     60  N   UNL A   1      41.119  29.727  33.610  1.00  0.00    -0.354 N 
ATOM     61  N   UNL A   1      41.833  28.348  31.151  1.00  0.00    -0.248 NA
ATOM     62  C   UNL A   1      43.223  26.900  29.956  1.00  0.00     0.031 C 
ATOM     63  C   UNL A   1      42.276  29.283  35.455  1.00  0.00     0.029 A 
ATOM     64  C   UNL A   1      42.175  28.978  34.108  1.00  0.00     0.049 A 
ATOM     65  H   UNL A   1      40.811  29.714  32.675  1.00  0.00     0.167 HD
ATOM     66  C   UNL A   1      42.793  27.825  32.008  1.00  0.00     0.074 A 
ATOM     67  C   UNL A   1      43.608  26.919  31.225  1.00  0.00     0.031 C 
ATOM     68  C   UNL A   1      42.979  28.074  33.327  1.00  0.00     0.037 A 
BRANCH  55  69
ATOM     69  C   UNL A   1      39.039  32.237  35.627  1.00  0.00     0.057 A 
ATOM     70  C   UNL A   1      39.431  33.575  35.770  1.00  0.00     0.134 A 
ATOM     71  C   UNL A   1      38.220  31.694  36.625  1.00  0.00     0.134 A 
ATOM     72  F   UNL A   1      40.221  34.153  34.854  1.00  0.00    -0.206 F 
ATOM     73  C   UNL A   1      39.057  34.331  36.883  1.00  0.00     0.040 A 
ATOM     74  C   UNL A   1      37.817  32.448  37.728  1.00  0.00     0.040 A 
ATOM     75  F   UNL A   1      37.800  30.422  36.545  1.00  0.00    -0.206 F 
ATOM     76  C   UNL A   1      38.245  33.767  37.865  1.00  0.00     0.006 A 
ENDBRANCH  55  69
BRANCH  56  77
ATOM     77  C   UNL A   1      41.698  27.193  27.493  1.00  0.00     0.057 A 
ATOM     78  C   UNL A   1      42.539  27.740  26.516  1.00  0.00     0.134 A 
ATOM     79  C   UNL A   1      41.237  25.888  27.291  1.00  0.00     0.134 A 
ATOM     80  F   UNL A   1      42.996  28.994  26.645  1.00  0.00    -0.206 F 
ATOM     81  C   UNL A   1      42.898  27.022  25.374  1.00  0.00     0.040 A 
ATOM     82  C   UNL A   1      41.605  25.151  26.163  1.00  0.00     0.040 A 
ATOM     83  F   UNL A   1      40.433  25.307  28.193  1.00  0.00    -0.206 F 
ATOM     84  C   UNL A   1      42.434  25.720  25.198  1.00  0.00     0.006 A 
ENDBRANCH  56  77
BRANCH  68  85
ATOM     85  C   UNL A   1      44.088  27.336  34.018  1.00  0.00     0.057 A 
ATOM     86  C   UNL A   1      43.881  26.092  34.627  1.00  0.00     0.134 A 
ATOM     87  C   UNL A   1      45.387  27.862  34.046  1.00  0.00     0.134 A 
ATOM     88  F   UNL A   1      42.659  25.540  34.649  1.00  0.00    -0.206 F 
ATOM     89  C   UNL A   1      44.922  25.404  35.254  1.00  0.00     0.040 A 
ATOM     90  C   UNL A   1      46.440  27.174  34.650  1.00  0.00     0.040 A 
ATOM     91  F   UNL A   1      45.653  29.047  33.478  1.00  0.00    -0.206 F 
ATOM     92  C   UNL A   1      46.208  25.942  35.261  1.00  0.00     0.006 A 
ENDBRANCH  68  85
ENDBRANCH  42  43
ENDBRANCH  34  37
ENDBRANCH  32  33
ENDBRANCH  31  32
ENDBRANCH  30  31
ENDBRANCH   3  30
TORSDOF 16
ENDMDL
MODEL 2
REMARK VINA RESULT:     -13.0      3.804      8.006
REMARK SMILES Cc1ccc(NC(=O)C[C@H]2C(=O)NCCN2C(=O)CCC(=O)NCCCNC(=O)c2ccc(-c3c4nc(c(-c5c(F)cccc5F)c5ccc([nH]5)c(-c5c(F)cccc5F)c5nc(c(-c6c(F)cccc6F)c6ccc3[nH]6)C=C5)C=C4)cc2)c(C)c1
REMARK SMILES IDX 21 1 22 2 23 3 20 5 19 6 17 7 18 8 16 9 10 10 11 11 12 12
REMARK SMILES IDX 13 13 15 14 14 15 9 17 7 18 6 19 8 21 5 22 1 23 2 24 3 25
REMARK SMILES IDX 86 26 4 27 84 28 85 29 24 30 25 31 26 32 27 33 28 34 29 36
REMARK SMILES IDX 30 37 31 38 83 39 32 40 82 41 33 42 34 43 35 44 76 45 36 46
REMARK SMILES IDX 81 47 75 48 77 49 37 50 80 51 74 52 73 53 38 55 64 56 47 57
REMARK SMILES IDX 63 58 48 59 51 60 62 61 78 62 49 63 50 64 61 66 79 67 52 68
REMARK SMILES IDX 39 69 40 70 45 71 41 72 42 73 44 74 46 75 43 76 65 77 66 78
REMARK SMILES IDX 71 79 67 80 68 81 70 82 72 83 69 84 53 85 54 86 59 87 55 88
REMARK SMILES IDX 56 89 58 90 60 91 57 92
REMARK H PARENT 23 4 13 16 6 20 27 35 77 54 51 65
REMARK Flexibility Score: inf
ROOT
ATOM      1  C   UNL A   1      30.900  24.417  26.503  1.00  0.00     0.220 C 
ATOM      2  O   UNL A   1      30.245  23.684  27.249  1.00  0.00    -0.275 OA
ATOM      3  N   UNL A   1      31.038  25.731  26.835  1.00  0.00    -0.356 N 
ATOM      4  H   UNL A   1      30.533  25.951  27.650  1.00  0.00     0.163 HD
ENDROOT
BRANCH   1   5
ATOM      5  C   UNL A   1      31.414  23.893  25.215  1.00  0.00     0.110 C 
BRANCH   5   6
ATOM      6  C   UNL A   1      31.789  22.444  25.425  1.00  0.00     0.110 C 
BRANCH   6   7
ATOM      7  C   UNL A   1      33.184  22.389  25.946  1.00  0.00     0.223 C 
ATOM      8  O   UNL A   1      33.367  21.694  26.958  1.00  0.00    -0.275 OA
BRANCH   7   9
ATOM      9  N   UNL A   1      34.225  23.152  25.388  1.00  0.00    -0.328 N 
ATOM     10  C   UNL A   1      34.486  23.530  23.900  1.00  0.00     0.183 C 
ATOM     11  C   UNL A   1      35.943  23.109  23.537  1.00  0.00     0.243 C 
ATOM     12  O   UNL A   1      36.314  22.953  22.376  1.00  0.00    -0.273 OA
ATOM     13  N   UNL A   1      36.875  22.969  24.526  1.00  0.00    -0.353 N 
ATOM     14  C   UNL A   1      35.279  23.308  26.402  1.00  0.00     0.141 C 
ATOM     15  C   UNL A   1      36.703  23.267  25.921  1.00  0.00     0.137 C 
ATOM     16  H   UNL A   1      37.758  22.627  24.255  1.00  0.00     0.163 HD
BRANCH  10  17
ATOM     17  C   UNL A   1      34.033  24.876  22.921  1.00  0.00     0.135 C 
BRANCH  17  18
ATOM     18  C   UNL A   1      32.951  25.577  21.853  1.00  0.00     0.227 C 
ATOM     19  N   UNL A   1      31.763  26.301  21.864  1.00  0.00    -0.326 N 
ATOM     20  H   UNL A   1      31.254  26.085  21.049  1.00  0.00     0.169 HD
ATOM     21  O   UNL A   1      33.209  25.307  20.653  1.00  0.00    -0.275 OA
BRANCH  19  22
ATOM     22  C   UNL A   1      31.009  27.255  22.637  1.00  0.00     0.044 A 
ATOM     23  C   UNL A   1      28.006  30.227  23.125  1.00  0.00     0.044 C 
ATOM     24  C   UNL A   1      29.073  29.186  23.355  1.00  0.00    -0.051 A 
ATOM     25  C   UNL A   1      28.753  27.828  23.392  1.00  0.00     0.005 A 
ATOM     26  C   UNL A   1      30.428  29.528  23.280  1.00  0.00     0.009 A 
ATOM     27  C   UNL A   1      29.741  26.864  23.107  1.00  0.00     0.026 A 
ATOM     28  C   UNL A   1      31.412  28.558  22.958  1.00  0.00    -0.027 A 
ATOM     29  C   UNL A   1      32.853  28.963  23.027  1.00  0.00     0.046 C 
ENDBRANCH  19  22
ENDBRANCH  17  18
ENDBRANCH  10  17
ENDBRANCH   7   9
ENDBRANCH   6   7
ENDBRANCH   5   6
ENDBRANCH   1   5
BRANCH   3  30
ATOM     30  C   UNL A   1      31.743  26.915  26.299  1.00  0.00     0.117 C 
BRANCH  30  31
ATOM     31  C   UNL A   1      32.390  28.076  27.192  1.00  0.00     0.042 C 
BRANCH  31  32
ATOM     32  C   UNL A   1      33.771  28.793  27.138  1.00  0.00     0.118 C 
BRANCH  32  33
ATOM     33  N   UNL A   1      33.856  30.083  27.834  1.00  0.00    -0.352 N 
ATOM     34  C   UNL A   1      34.930  30.708  28.452  1.00  0.00     0.251 C 
ATOM     35  H   UNL A   1      33.012  30.589  27.866  1.00  0.00     0.163 HD
ATOM     36  O   UNL A   1      34.802  31.785  28.992  1.00  0.00    -0.269 OA
BRANCH  34  37
ATOM     37  C   UNL A   1      36.244  30.026  28.505  1.00  0.00     0.039 A 
ATOM     38  C   UNL A   1      37.074  30.079  27.386  1.00  0.00     0.014 A 
ATOM     39  C   UNL A   1      36.653  29.336  29.642  1.00  0.00     0.014 A 
ATOM     40  C   UNL A   1      38.373  29.562  27.459  1.00  0.00     0.010 A 
ATOM     41  C   UNL A   1      37.973  28.875  29.734  1.00  0.00     0.010 A 
ATOM     42  C   UNL A   1      38.863  29.020  28.659  1.00  0.00    -0.014 A 
BRANCH  42  43
ATOM     43  C   UNL A   1      40.307  28.668  28.804  1.00  0.00     0.031 A 
ATOM     44  C   UNL A   1      40.831  27.318  28.392  1.00  0.00     0.074 A 
ATOM     45  C   UNL A   1      41.157  29.555  29.362  1.00  0.00     0.049 A 
ATOM     46  N   UNL A   1      42.060  26.863  28.431  1.00  0.00    -0.248 NA
ATOM     47  C   UNL A   1      39.847  26.344  27.901  1.00  0.00     0.031 C 
ATOM     48  C   UNL A   1      40.787  30.877  29.877  1.00  0.00     0.029 A 
ATOM     49  N   UNL A   1      42.513  29.486  29.582  1.00  0.00    -0.354 N 
ATOM     50  C   UNL A   1      41.995  25.552  27.978  1.00  0.00     0.074 A 
ATOM     51  C   UNL A   1      40.597  25.265  27.733  1.00  0.00     0.031 C 
ATOM     52  C   UNL A   1      41.893  31.513  30.294  1.00  0.00     0.029 A 
ATOM     53  C   UNL A   1      43.047  30.638  30.111  1.00  0.00     0.049 A 
ATOM     54  H   UNL A   1      43.051  28.687  29.381  1.00  0.00     0.167 HD
ATOM     55  C   UNL A   1      43.003  24.673  27.755  1.00  0.00     0.037 A 
ATOM     56  C   UNL A   1      44.322  30.967  30.398  1.00  0.00     0.037 A 
ATOM     57  C   UNL A   1      44.399  24.955  27.965  1.00  0.00     0.049 A 
ATOM     58  C   UNL A   1      45.425  29.978  30.141  1.00  0.00     0.074 A 
ATOM     59  C   UNL A   1      45.493  24.152  27.691  1.00  0.00     0.029 A 
ATOM     60  N   UNL A   1      44.895  26.130  28.507  1.00  0.00    -0.354 N 
ATOM     61  N   UNL A   1      45.353  28.776  29.626  1.00  0.00    -0.248 NA
ATOM     62  C   UNL A   1      46.788  30.397  30.503  1.00  0.00     0.031 C 
ATOM     63  C   UNL A   1      46.649  24.826  28.104  1.00  0.00     0.029 A 
ATOM     64  C   UNL A   1      46.277  26.065  28.599  1.00  0.00     0.049 A 
ATOM     65  H   UNL A   1      44.347  26.900  28.786  1.00  0.00     0.167 HD
ATOM     66  C   UNL A   1      46.660  28.307  29.573  1.00  0.00     0.074 A 
ATOM     67  C   UNL A   1      47.506  29.356  30.103  1.00  0.00     0.031 C 
ATOM     68  C   UNL A   1      47.115  27.113  29.122  1.00  0.00     0.037 A 
BRANCH  55  69
ATOM     69  C   UNL A   1      42.622  23.314  27.242  1.00  0.00     0.057 A 
ATOM     70  C   UNL A   1      42.238  22.281  28.107  1.00  0.00     0.134 A 
ATOM     71  C   UNL A   1      42.631  23.037  25.869  1.00  0.00     0.134 A 
ATOM     72  F   UNL A   1      42.217  22.478  29.433  1.00  0.00    -0.206 F 
ATOM     73  C   UNL A   1      41.915  21.009  27.629  1.00  0.00     0.040 A 
ATOM     74  C   UNL A   1      42.283  21.779  25.377  1.00  0.00     0.040 A 
ATOM     75  F   UNL A   1      42.978  23.985  24.985  1.00  0.00    -0.206 F 
ATOM     76  C   UNL A   1      41.935  20.757  26.259  1.00  0.00     0.006 A 
ENDBRANCH  55  69
BRANCH  56  77
ATOM     77  C   UNL A   1      44.642  32.323  30.908  1.00  0.00     0.057 A 
ATOM     78  C   UNL A   1      44.706  32.572  32.284  1.00  0.00     0.134 A 
ATOM     79  C   UNL A   1      44.886  33.398  30.046  1.00  0.00     0.134 A 
ATOM     80  F   UNL A   1      44.462  31.585  33.159  1.00  0.00    -0.206 F 
ATOM     81  C   UNL A   1      44.988  33.842  32.787  1.00  0.00     0.040 A 
ATOM     82  C   UNL A   1      45.189  34.671  30.535  1.00  0.00     0.040 A 
ATOM     83  F   UNL A   1      44.844  33.223  28.717  1.00  0.00    -0.206 F 
ATOM     84  C   UNL A   1      45.236  34.896  31.910  1.00  0.00     0.006 A 
ENDBRANCH  56  77
BRANCH  68  85
ATOM     85  C   UNL A   1      48.598  26.884  29.153  1.00  0.00     0.057 A 
ATOM     86  C   UNL A   1      49.227  26.254  30.235  1.00  0.00     0.134 A 
ATOM     87  C   UNL A   1      49.402  27.267  28.072  1.00  0.00     0.134 A 
ATOM     88  F   UNL A   1      48.515  25.875  31.307  1.00  0.00    -0.206 F 
ATOM     89  C   UNL A   1      50.605  26.029  30.249  1.00  0.00     0.040 A 
ATOM     90  C   UNL A   1      50.778  27.029  28.065  1.00  0.00     0.040 A 
ATOM     91  F   UNL A   1      48.863  27.871  27.003  1.00  0.00    -0.206 F 
ATOM     92  C   UNL A   1      51.383  26.411  29.158  1.00  0.00     0.006 A 
ENDBRANCH  68  85
ENDBRANCH  42  43
ENDBRANCH  34  37
ENDBRANCH  32  33
ENDBRANCH  31  32
ENDBRANCH  30  31
ENDBRANCH   3  30
TORSDOF 16
ENDMDL
MODEL 3
REMARK VINA RESULT:     -12.9      3.776      8.384
REMARK SMILES Cc1ccc(NC(=O)C[C@H]2C(=O)NCCN2C(=O)CCC(=O)NCCCNC(=O)c2ccc(-c3c4nc(c(-c5c(F)cccc5F)c5ccc([nH]5)c(-c5c(F)cccc5F)c5nc(c(-c6c(F)cccc6F)c6ccc3[nH]6)C=C5)C=C4)cc2)c(C)c1
REMARK SMILES IDX 21 1 22 2 23 3 20 5 19 6 17 7 18 8 16 9 10 10 11 11 12 12
REMARK SMILES IDX 13 13 15 14 14 15 9 17 7 18 6 19 8 21 5 22 1 23 2 24 3 25
REMARK SMILES IDX 86 26 4 27 84 28 85 29 24 30 25 31 26 32 27 33 28 34 29 36
REMARK SMILES IDX 30 37 31 38 83 39 32 40 82 41 33 42 34 43 35 44 76 45 36 46
REMARK SMILES IDX 81 47 75 48 77 49 37 50 80 51 74 52 73 53 38 55 64 56 47 57
REMARK SMILES IDX 63 58 48 59 51 60 62 61 78 62 49 63 50 64 61 66 79 67 52 68
REMARK SMILES IDX 39 69 40 70 45 71 41 72 42 73 44 74 46 75 43 76 65 77 66 78
REMARK SMILES IDX 71 79 67 80 68 81 70 82 72 83 69 84 53 85 54 86 59 87 55 88
REMARK SMILES IDX 56 89 58 90 60 91 57 92
REMARK H PARENT 23 4 13 16 6 20 27 35 77 54 51 65
REMARK Flexibility Score: inf
ROOT
ATOM      1  C   UNL A   1      34.382  23.593  22.704  1.00  0.00     0.220 C 
ATOM      2  O   UNL A   1      33.652  23.277  21.761  1.00  0.00    -0.275 OA
ATOM      3  N   UNL A   1      35.376  22.739  23.076  1.00  0.00    -0.356 N 
ATOM      4  H   UNL A   1      35.356  21.911  22.543  1.00  0.00     0.163 HD
ENDROOT
BRANCH   1   5
ATOM      5  C   UNL A   1      34.095  24.821  23.483  1.00  0.00     0.110 C 
BRANCH   5   6
ATOM      6  C   UNL A   1      33.480  25.830  22.542  1.00  0.00     0.110 C 
BRANCH   6   7
ATOM      7  C   UNL A   1      32.872  26.923  23.353  1.00  0.00     0.223 C 
ATOM      8  O   UNL A   1      32.335  27.846  22.721  1.00  0.00    -0.275 OA
BRANCH   7   9
ATOM      9  N   UNL A   1      32.977  26.964  24.755  1.00  0.00    -0.328 N 
ATOM     10  C   UNL A   1      32.009  26.399  25.836  1.00  0.00     0.183 C 
ATOM     11  C   UNL A   1      31.656  27.551  26.826  1.00  0.00     0.243 C 
ATOM     12  O   UNL A   1      30.666  27.514  27.554  1.00  0.00    -0.273 OA
ATOM     13  N   UNL A   1      32.498  28.619  26.953  1.00  0.00    -0.353 N 
ATOM     14  C   UNL A   1      34.023  27.935  25.112  1.00  0.00     0.141 C 
ATOM     15  C   UNL A   1      33.783  28.782  26.332  1.00  0.00     0.137 C 
ATOM     16  H   UNL A   1      32.193  29.355  27.532  1.00  0.00     0.163 HD
BRANCH  10  17
ATOM     17  C   UNL A   1      31.916  24.895  26.674  1.00  0.00     0.135 C 
BRANCH  17  18
ATOM     18  C   UNL A   1      31.335  23.326  26.752  1.00  0.00     0.227 C 
ATOM     19  N   UNL A   1      31.467  22.108  26.093  1.00  0.00    -0.326 N 
ATOM     20  H   UNL A   1      30.616  21.618  26.162  1.00  0.00     0.169 HD
ATOM     21  O   UNL A   1      30.420  23.189  27.603  1.00  0.00    -0.275 OA
BRANCH  19  22
ATOM     22  C   UNL A   1      32.401  21.305  25.345  1.00  0.00     0.044 A 
ATOM     23  C   UNL A   1      33.844  17.624  23.778  1.00  0.00     0.044 C 
ATOM     24  C   UNL A   1      33.608  19.082  24.083  1.00  0.00    -0.051 A 
ATOM     25  C   UNL A   1      32.603  19.797  23.430  1.00  0.00     0.005 A 
ATOM     26  C   UNL A   1      34.207  19.683  25.196  1.00  0.00     0.009 A 
ATOM     27  C   UNL A   1      32.055  20.949  24.029  1.00  0.00     0.026 A 
ATOM     28  C   UNL A   1      33.631  20.822  25.813  1.00  0.00    -0.027 A 
ATOM     29  C   UNL A   1      34.396  21.492  26.914  1.00  0.00     0.046 C 
ENDBRANCH  19  22
ENDBRANCH  17  18
ENDBRANCH  10  17
ENDBRANCH   7   9
ENDBRANCH   6   7
ENDBRANCH   5   6
ENDBRANCH   1   5
BRANCH   3  30
ATOM     30  C   UNL A   1      36.476  22.720  24.063  1.00  0.00     0.117 C 
BRANCH  30  31
ATOM     31  C   UNL A   1      37.351  21.432  24.435  1.00  0.00     0.042 C 
BRANCH  31  32
ATOM     32  C   UNL A   1      38.186  21.061  25.695  1.00  0.00     0.118 C 
BRANCH  32  33
ATOM     33  N   UNL A   1      39.156  19.971  25.529  1.00  0.00    -0.352 N 
ATOM     34  C   UNL A   1      40.491  19.885  25.895  1.00  0.00     0.251 C 
ATOM     35  H   UNL A   1      38.799  19.168  25.084  1.00  0.00     0.163 HD
ATOM     36  O   UNL A   1      41.142  18.891  25.660  1.00  0.00    -0.269 OA
BRANCH  34  37
ATOM     37  C   UNL A   1      41.153  21.047  26.533  1.00  0.00     0.039 A 
ATOM     38  C   UNL A   1      41.781  21.991  25.722  1.00  0.00     0.014 A 
ATOM     39  C   UNL A   1      41.162  21.202  27.916  1.00  0.00     0.014 A 
ATOM     40  C   UNL A   1      42.292  23.165  26.289  1.00  0.00     0.010 A 
ATOM     41  C   UNL A   1      41.617  22.404  28.474  1.00  0.00     0.010 A 
ATOM     42  C   UNL A   1      42.149  23.419  27.664  1.00  0.00    -0.014 A 
BRANCH  42  43
ATOM     43  C   UNL A   1      42.496  24.754  28.234  1.00  0.00     0.031 A 
ATOM     44  C   UNL A   1      43.911  25.103  28.611  1.00  0.00     0.074 A 
ATOM     45  C   UNL A   1      41.518  25.655  28.466  1.00  0.00     0.049 A 
ATOM     46  N   UNL A   1      44.382  26.226  29.097  1.00  0.00    -0.248 NA
ATOM     47  C   UNL A   1      44.921  24.049  28.453  1.00  0.00     0.031 C 
ATOM     48  C   UNL A   1      40.089  25.438  28.220  1.00  0.00     0.029 A 
ATOM     49  N   UNL A   1      41.575  26.941  28.951  1.00  0.00    -0.354 N 
ATOM     50  C   UNL A   1      45.738  26.011  29.307  1.00  0.00     0.074 A 
ATOM     51  C   UNL A   1      45.999  24.630  28.958  1.00  0.00     0.031 C 
ATOM     52  C   UNL A   1      39.418  26.567  28.496  1.00  0.00     0.029 A 
ATOM     53  C   UNL A   1      40.357  27.579  28.971  1.00  0.00     0.049 A 
ATOM     54  H   UNL A   1      42.410  27.364  29.255  1.00  0.00     0.167 HD
ATOM     55  C   UNL A   1      46.688  26.884  29.721  1.00  0.00     0.037 A 
ATOM     56  C   UNL A   1      40.030  28.841  29.312  1.00  0.00     0.037 A 
ATOM     57  C   UNL A   1      46.448  28.268  30.041  1.00  0.00     0.049 A 
ATOM     58  C   UNL A   1      41.100  29.794  29.767  1.00  0.00     0.074 A 
ATOM     59  C   UNL A   1      47.365  29.244  30.392  1.00  0.00     0.029 A 
ATOM     60  N   UNL A   1      45.201  28.871  30.055  1.00  0.00    -0.354 N 
ATOM     61  N   UNL A   1      42.391  29.598  29.872  1.00  0.00    -0.248 NA
ATOM     62  C   UNL A   1      40.664  31.146  30.148  1.00  0.00     0.031 C 
ATOM     63  C   UNL A   1      46.667  30.428  30.657  1.00  0.00     0.029 A 
ATOM     64  C   UNL A   1      45.320  30.199  30.433  1.00  0.00     0.049 A 
ATOM     65  H   UNL A   1      44.354  28.422  29.829  1.00  0.00     0.167 HD
ATOM     66  C   UNL A   1      42.925  30.807  30.299  1.00  0.00     0.074 A 
ATOM     67  C   UNL A   1      41.820  31.733  30.429  1.00  0.00     0.031 C 
ATOM     68  C   UNL A   1      44.218  31.119  30.557  1.00  0.00     0.037 A 
BRANCH  55  69
ATOM     69  C   UNL A   1      48.091  26.361  29.840  1.00  0.00     0.057 A 
ATOM     70  C   UNL A   1      48.984  26.394  28.761  1.00  0.00     0.134 A 
ATOM     71  C   UNL A   1      48.557  25.826  31.047  1.00  0.00     0.134 A 
ATOM     72  F   UNL A   1      48.597  26.886  27.574  1.00  0.00    -0.206 F 
ATOM     73  C   UNL A   1      50.277  25.877  28.865  1.00  0.00     0.040 A 
ATOM     74  C   UNL A   1      49.856  25.333  31.173  1.00  0.00     0.040 A 
ATOM     75  F   UNL A   1      47.757  25.774  32.124  1.00  0.00    -0.206 F 
ATOM     76  C   UNL A   1      50.716  25.347  30.076  1.00  0.00     0.006 A 
ENDBRANCH  55  69
BRANCH  56  77
ATOM     77  C   UNL A   1      38.626  29.306  29.180  1.00  0.00     0.057 A 
ATOM     78  C   UNL A   1      37.768  29.310  30.287  1.00  0.00     0.134 A 
ATOM     79  C   UNL A   1      38.107  29.749  27.959  1.00  0.00     0.134 A 
ATOM     80  F   UNL A   1      38.204  28.877  31.479  1.00  0.00    -0.206 F 
ATOM     81  C   UNL A   1      36.441  29.725  30.182  1.00  0.00     0.040 A 
ATOM     82  C   UNL A   1      36.786  30.187  27.844  1.00  0.00     0.040 A 
ATOM     83  F   UNL A   1      38.880  29.773  26.863  1.00  0.00    -0.206 F 
ATOM     84  C   UNL A   1      35.947  30.171  28.957  1.00  0.00     0.006 A 
ENDBRANCH  56  77
BRANCH  68  85
ATOM     85  C   UNL A   1      44.517  32.528  30.979  1.00  0.00     0.057 A 
ATOM     86  C   UNL A   1      44.771  33.541  30.046  1.00  0.00     0.134 A 
ATOM     87  C   UNL A   1      44.516  32.882  32.334  1.00  0.00     0.134 A 
ATOM     88  F   UNL A   1      44.801  33.265  28.734  1.00  0.00    -0.206 F 
ATOM     89  C   UNL A   1      45.032  34.853  30.447  1.00  0.00     0.040 A 
ATOM     90  C   UNL A   1      44.754  34.195  32.746  1.00  0.00     0.040 A 
ATOM     91  F   UNL A   1      44.276  31.961  33.279  1.00  0.00    -0.206 F 
ATOM     92  C   UNL A   1      45.017  35.184  31.800  1.00  0.00     0.006 A 
ENDBRANCH  68  85
ENDBRANCH  42  43
ENDBRANCH  34  37
ENDBRANCH  32  33
ENDBRANCH  31  32
ENDBRANCH  30  31
ENDBRANCH   3  30
TORSDOF 16
ENDMDL
