MODEL 1
REMARK VINA RESULT:     -14.3      0.000      0.000
REMARK SMILES Cc1cccc(C(=O)Nc2cc(C(=O)NCCCNC(=O)c3ccc(-c4c5nc(c(-c6c(F)cccc6F)c6ccc([nH]6)c(-c6c(F)cccc6F)c6nc(c(-c7c(F)cccc7F)c7ccc4[nH]7)C=C6)C=C5)cc3)ccc2N2CC[NH+](CC(=O)NC(C)(C)C)CC2)c1
REMARK SMILES IDX 16 1 15 2 13 3 14 4 12 6 10 7 11 8 78 9 77 10 76 11 9 12
REMARK SMILES IDX 7 13 8 14 6 16 1 17 2 18 3 19 93 20 4 21 5 22 79 23 80 24
REMARK SMILES IDX 92 25 81 26 91 27 82 28 83 30 84 31 85 32 86 33 87 35 88 36
REMARK SMILES IDX 89 37 90 38 17 39 18 40 19 41 20 42 21 44 22 45 23 46 75 47
REMARK SMILES IDX 24 48 74 49 25 50 26 51 27 52 68 53 28 54 73 55 67 56 69 57
REMARK SMILES IDX 29 58 72 59 66 60 65 61 30 63 56 64 39 65 55 66 40 67 43 68
REMARK SMILES IDX 54 69 70 70 41 71 42 72 53 74 71 75 44 76 31 77 32 78 37 79
REMARK SMILES IDX 33 80 34 81 36 82 38 83 35 84 57 85 58 86 63 87 59 88 60 89
REMARK SMILES IDX 62 90 64 91 61 92 45 93 46 94 51 95 47 96 48 97 50 98 52 99
REMARK SMILES IDX 49 100
REMARK H PARENT 15 5 9 15 82 29 86 34 19 43 69 62 43 73
REMARK Flexibility Score: inf
ROOT
ATOM      1  C   UNL A   1      34.077  31.491  27.987  1.00  0.00     0.118 C 
ENDROOT
BRANCH   1   2
ATOM      2  N   UNL A   1      32.912  31.863  27.178  1.00  0.00    -0.352 N 
ATOM      3  C   UNL A   1      31.895  31.166  26.551  1.00  0.00     0.251 C 
ATOM      4  O   UNL A   1      30.954  31.830  26.110  1.00  0.00    -0.269 OA
ATOM      5  H   UNL A   1      32.836  32.836  27.051  1.00  0.00     0.163 HD
BRANCH   3   6
ATOM      6  C   UNL A   1      31.857  29.685  26.360  1.00  0.00     0.042 A 
ATOM      7  C   UNL A   1      31.820  27.724  24.926  1.00  0.00     0.065 A 
ATOM      8  C   UNL A   1      31.819  29.098  25.114  1.00  0.00     0.042 A 
ATOM      9  C   UNL A   1      31.792  26.831  26.020  1.00  0.00     0.061 A 
ATOM     10  C   UNL A   1      31.806  27.414  27.294  1.00  0.00     0.029 A 
ATOM     11  C   UNL A   1      31.860  28.819  27.462  1.00  0.00     0.016 A 
BRANCH   7  12
ATOM     12  N   UNL A   1      31.848  27.235  23.606  1.00  0.00    -0.320 N 
ATOM     13  C   UNL A   1      31.008  27.472  22.531  1.00  0.00     0.255 C 
ATOM     14  O   UNL A   1      31.275  26.930  21.457  1.00  0.00    -0.269 OA
ATOM     15  H   UNL A   1      32.592  26.618  23.414  1.00  0.00     0.170 HD
BRANCH  13  16
ATOM     16  C   UNL A   1      29.826  28.395  22.578  1.00  0.00     0.040 A 
ATOM     17  C   UNL A   1      28.871  32.061  22.164  1.00  0.00     0.044 C 
ATOM     18  C   UNL A   1      28.751  30.579  22.388  1.00  0.00    -0.050 A 
ATOM     19  C   UNL A   1      27.598  30.060  22.983  1.00  0.00     0.003 A 
ATOM     20  C   UNL A   1      29.827  29.718  22.110  1.00  0.00     0.017 A 
ATOM     21  C   UNL A   1      27.535  28.712  23.331  1.00  0.00     0.001 A 
ATOM     22  C   UNL A   1      28.649  27.890  23.148  1.00  0.00     0.014 A 
ENDBRANCH  13  16
ENDBRANCH   7  12
BRANCH   9  23
ATOM     23  N   UNL A   1      31.857  25.462  25.812  1.00  0.00    -0.359 N 
ATOM     24  C   UNL A   1      30.767  24.501  26.073  1.00  0.00     0.178 C 
ATOM     25  C   UNL A   1      33.165  24.839  26.005  1.00  0.00     0.178 C 
ATOM     26  C   UNL A   1      31.015  23.148  25.302  1.00  0.00     0.284 C 
ATOM     27  C   UNL A   1      33.333  23.751  24.935  1.00  0.00     0.284 C 
ATOM     28  N   UNL A   1      32.399  22.642  25.118  1.00  0.00    -0.324 N 
ATOM     29  H   UNL A   1      32.352  22.094  24.258  1.00  0.00     0.348 HD
BRANCH  28  30
ATOM     30  C   UNL A   1      32.883  21.627  26.074  1.00  0.00     0.363 C 
BRANCH  30  31
ATOM     31  C   UNL A   1      34.192  20.939  25.707  1.00  0.00     0.275 C 
ATOM     32  O   UNL A   1      35.264  21.537  25.875  1.00  0.00    -0.268 OA
ATOM     33  N   UNL A   1      34.289  19.686  25.179  1.00  0.00    -0.347 N 
ATOM     34  H   UNL A   1      35.233  19.408  25.144  1.00  0.00     0.164 HD
BRANCH  33  35
ATOM     35  C   UNL A   1      33.418  18.603  24.635  1.00  0.00     0.032 C 
ATOM     36  C   UNL A   1      32.499  19.119  23.510  1.00  0.00     0.034 C 
ATOM     37  C   UNL A   1      34.368  17.581  23.970  1.00  0.00     0.034 C 
ATOM     38  C   UNL A   1      32.588  17.852  25.679  1.00  0.00     0.034 C 
ENDBRANCH  33  35
ENDBRANCH  30  31
ENDBRANCH  28  30
ENDBRANCH   9  23
ENDBRANCH   3   6
ENDBRANCH   1   2
BRANCH   1  39
ATOM     39  C   UNL A   1      34.955  32.671  28.425  1.00  0.00     0.042 C 
BRANCH  39  40
ATOM     40  C   UNL A   1      35.195  32.755  29.913  1.00  0.00     0.118 C 
BRANCH  40  41
ATOM     41  N   UNL A   1      34.153  33.451  30.668  1.00  0.00    -0.352 N 
ATOM     42  C   UNL A   1      34.236  33.910  31.982  1.00  0.00     0.251 C 
ATOM     43  H   UNL A   1      33.303  33.611  30.199  1.00  0.00     0.163 HD
ATOM     44  O   UNL A   1      33.326  34.492  32.519  1.00  0.00    -0.269 OA
BRANCH  42  45
ATOM     45  C   UNL A   1      35.557  33.763  32.646  1.00  0.00     0.039 A 
ATOM     46  C   UNL A   1      36.570  34.608  32.191  1.00  0.00     0.014 A 
ATOM     47  C   UNL A   1      35.848  32.565  33.296  1.00  0.00     0.014 A 
ATOM     48  C   UNL A   1      37.867  34.113  32.120  1.00  0.00     0.010 A 
ATOM     49  C   UNL A   1      37.112  32.034  33.122  1.00  0.00     0.010 A 
ATOM     50  C   UNL A   1      38.099  32.780  32.463  1.00  0.00    -0.014 A 
BRANCH  50  51
ATOM     51  C   UNL A   1      39.314  32.075  32.071  1.00  0.00     0.031 A 
ATOM     52  C   UNL A   1      39.212  30.890  31.198  1.00  0.00     0.074 A 
ATOM     53  C   UNL A   1      40.532  32.484  32.500  1.00  0.00     0.049 A 
ATOM     54  N   UNL A   1      40.042  29.903  31.213  1.00  0.00    -0.248 NA
ATOM     55  C   UNL A   1      38.113  30.707  30.259  1.00  0.00     0.031 C 
ATOM     56  C   UNL A   1      41.834  31.998  32.046  1.00  0.00     0.029 A 
ATOM     57  N   UNL A   1      40.829  33.288  33.608  1.00  0.00    -0.354 N 
ATOM     58  C   UNL A   1      39.756  29.101  30.133  1.00  0.00     0.074 A 
ATOM     59  C   UNL A   1      38.513  29.615  29.604  1.00  0.00     0.031 C 
ATOM     60  C   UNL A   1      42.746  32.247  32.999  1.00  0.00     0.029 A 
ATOM     61  C   UNL A   1      42.042  32.796  34.142  1.00  0.00     0.049 A 
ATOM     62  H   UNL A   1      40.299  34.044  33.947  1.00  0.00     0.167 HD
ATOM     63  C   UNL A   1      40.666  28.173  29.722  1.00  0.00     0.037 A 
ATOM     64  C   UNL A   1      42.126  32.329  35.421  1.00  0.00     0.037 A 
ATOM     65  C   UNL A   1      41.828  28.136  30.605  1.00  0.00     0.049 A 
ATOM     66  C   UNL A   1      42.536  30.877  35.516  1.00  0.00     0.074 A 
ATOM     67  C   UNL A   1      43.079  28.726  30.530  1.00  0.00     0.029 A 
ATOM     68  N   UNL A   1      41.686  27.687  31.914  1.00  0.00    -0.354 N 
ATOM     69  N   UNL A   1      42.542  30.058  34.501  1.00  0.00    -0.248 NA
ATOM     70  C   UNL A   1      42.924  30.220  36.762  1.00  0.00     0.031 C 
ATOM     71  C   UNL A   1      43.667  28.682  31.817  1.00  0.00     0.029 A 
ATOM     72  C   UNL A   1      42.782  28.050  32.672  1.00  0.00     0.049 A 
ATOM     73  H   UNL A   1      40.912  27.181  32.253  1.00  0.00     0.167 HD
ATOM     74  C   UNL A   1      42.861  28.796  34.933  1.00  0.00     0.074 A 
ATOM     75  C   UNL A   1      43.126  28.956  36.349  1.00  0.00     0.031 C 
ATOM     76  C   UNL A   1      42.856  27.723  34.088  1.00  0.00     0.037 A 
BRANCH  63  77
ATOM     77  C   UNL A   1      40.621  27.553  28.344  1.00  0.00     0.057 A 
ATOM     78  C   UNL A   1      40.003  26.307  28.125  1.00  0.00     0.134 A 
ATOM     79  C   UNL A   1      41.234  28.104  27.206  1.00  0.00     0.134 A 
ATOM     80  F   UNL A   1      39.269  25.707  29.070  1.00  0.00    -0.206 F 
ATOM     81  C   UNL A   1      40.114  25.605  26.918  1.00  0.00     0.040 A 
ATOM     82  C   UNL A   1      41.406  27.388  26.012  1.00  0.00     0.040 A 
ATOM     83  F   UNL A   1      41.654  29.376  27.188  1.00  0.00    -0.206 F 
ATOM     84  C   UNL A   1      40.858  26.123  25.871  1.00  0.00     0.006 A 
ENDBRANCH  63  77
BRANCH  64  85
ATOM     85  C   UNL A   1      41.198  33.029  36.346  1.00  0.00     0.057 A 
ATOM     86  C   UNL A   1      41.590  34.280  36.856  1.00  0.00     0.134 A 
ATOM     87  C   UNL A   1      39.837  32.719  36.387  1.00  0.00     0.134 A 
ATOM     88  F   UNL A   1      42.886  34.634  36.854  1.00  0.00    -0.206 F 
ATOM     89  C   UNL A   1      40.656  35.242  37.247  1.00  0.00     0.040 A 
ATOM     90  C   UNL A   1      38.895  33.670  36.795  1.00  0.00     0.040 A 
ATOM     91  F   UNL A   1      39.387  31.550  35.911  1.00  0.00    -0.206 F 
ATOM     92  C   UNL A   1      39.298  34.950  37.177  1.00  0.00     0.006 A 
ENDBRANCH  64  85
BRANCH  76  93
ATOM     93  C   UNL A   1      43.001  26.278  34.497  1.00  0.00     0.057 A 
ATOM     94  C   UNL A   1      42.015  25.548  35.176  1.00  0.00     0.134 A 
ATOM     95  C   UNL A   1      44.123  25.529  34.079  1.00  0.00     0.134 A 
ATOM     96  F   UNL A   1      40.850  26.106  35.530  1.00  0.00    -0.206 F 
ATOM     97  C   UNL A   1      42.163  24.186  35.475  1.00  0.00     0.040 A 
ATOM     98  C   UNL A   1      44.258  24.160  34.326  1.00  0.00     0.040 A 
ATOM     99  F   UNL A   1      45.129  26.092  33.395  1.00  0.00    -0.206 F 
ATOM    100  C   UNL A   1      43.281  23.486  35.042  1.00  0.00     0.006 A 
ENDBRANCH  76  93
ENDBRANCH  50  51
ENDBRANCH  42  45
ENDBRANCH  40  41
ENDBRANCH  39  40
ENDBRANCH   1  39
TORSDOF 16
ENDMDL
MODEL 2
REMARK VINA RESULT:     -13.5      4.166      8.006
REMARK SMILES Cc1cccc(C(=O)Nc2cc(C(=O)NCCCNC(=O)c3ccc(-c4c5nc(c(-c6c(F)cccc6F)c6ccc([nH]6)c(-c6c(F)cccc6F)c6nc(c(-c7c(F)cccc7F)c7ccc4[nH]7)C=C6)C=C5)cc3)ccc2N2CC[NH+](CC(=O)NC(C)(C)C)CC2)c1
REMARK SMILES IDX 16 1 15 2 13 3 14 4 12 6 10 7 11 8 78 9 77 10 76 11 9 12
REMARK SMILES IDX 7 13 8 14 6 16 1 17 2 18 3 19 93 20 4 21 5 22 79 23 80 24
REMARK SMILES IDX 92 25 81 26 91 27 82 28 83 30 84 31 85 32 86 33 87 35 88 36
REMARK SMILES IDX 89 37 90 38 17 39 18 40 19 41 20 42 21 44 22 45 23 46 75 47
REMARK SMILES IDX 24 48 74 49 25 50 26 51 27 52 68 53 28 54 73 55 67 56 69 57
REMARK SMILES IDX 29 58 72 59 66 60 65 61 30 63 56 64 39 65 55 66 40 67 43 68
REMARK SMILES IDX 54 69 70 70 41 71 42 72 53 74 71 75 44 76 31 77 32 78 37 79
REMARK SMILES IDX 33 80 34 81 36 82 38 83 35 84 57 85 58 86 63 87 59 88 60 89
REMARK SMILES IDX 62 90 64 91 61 92 45 93 46 94 51 95 47 96 48 97 50 98 52 99
REMARK SMILES IDX 49 100
REMARK H PARENT 15 5 9 15 82 29 86 34 19 43 69 62 43 73
REMARK Flexibility Score: inf
ROOT
ATOM      1  C   UNL A   1      34.342  31.312  27.867  1.00  0.00     0.118 C 
ENDROOT
BRANCH   1   2
ATOM      2  N   UNL A   1      33.108  31.779  27.227  1.00  0.00    -0.352 N 
ATOM      3  C   UNL A   1      31.984  31.164  26.705  1.00  0.00     0.251 C 
ATOM      4  O   UNL A   1      31.035  31.894  26.414  1.00  0.00    -0.269 OA
ATOM      5  H   UNL A   1      33.070  32.760  27.150  1.00  0.00     0.163 HD
BRANCH   3   6
ATOM      6  C   UNL A   1      31.842  29.697  26.459  1.00  0.00     0.042 A 
ATOM      7  C   UNL A   1      31.721  27.792  24.956  1.00  0.00     0.065 A 
ATOM      8  C   UNL A   1      31.817  29.155  25.193  1.00  0.00     0.042 A 
ATOM      9  C   UNL A   1      31.574  26.869  26.015  1.00  0.00     0.061 A 
ATOM     10  C   UNL A   1      31.575  27.408  27.308  1.00  0.00     0.029 A 
ATOM     11  C   UNL A   1      31.729  28.798  27.529  1.00  0.00     0.016 A 
BRANCH   7  12
ATOM     12  N   UNL A   1      31.772  27.346  23.622  1.00  0.00    -0.320 N 
ATOM     13  C   UNL A   1      30.940  27.602  22.545  1.00  0.00     0.255 C 
ATOM     14  O   UNL A   1      31.229  27.099  21.458  1.00  0.00    -0.269 OA
ATOM     15  H   UNL A   1      32.529  26.748  23.419  1.00  0.00     0.170 HD
BRANCH  13  16
ATOM     16  C   UNL A   1      29.743  28.503  22.607  1.00  0.00     0.040 A 
ATOM     17  C   UNL A   1      28.751  32.181  22.479  1.00  0.00     0.044 C 
ATOM     18  C   UNL A   1      28.644  30.684  22.557  1.00  0.00    -0.050 A 
ATOM     19  C   UNL A   1      27.466  30.097  23.031  1.00  0.00     0.003 A 
ATOM     20  C   UNL A   1      29.748  29.864  22.265  1.00  0.00     0.017 A 
ATOM     21  C   UNL A   1      27.406  28.722  23.248  1.00  0.00     0.001 A 
ATOM     22  C   UNL A   1      28.543  27.933  23.056  1.00  0.00     0.014 A 
ENDBRANCH  13  16
ENDBRANCH   7  12
BRANCH   9  23
ATOM     23  N   UNL A   1      31.544  25.506  25.761  1.00  0.00    -0.359 N 
ATOM     24  C   UNL A   1      30.536  24.559  26.277  1.00  0.00     0.178 C 
ATOM     25  C   UNL A   1      32.839  24.852  25.583  1.00  0.00     0.178 C 
ATOM     26  C   UNL A   1      30.533  23.228  25.433  1.00  0.00     0.284 C 
ATOM     27  C   UNL A   1      32.687  23.796  24.479  1.00  0.00     0.284 C 
ATOM     28  N   UNL A   1      31.804  22.701  24.874  1.00  0.00    -0.324 N 
ATOM     29  H   UNL A   1      31.516  22.183  24.044  1.00  0.00     0.348 HD
BRANCH  28  30
ATOM     30  C   UNL A   1      32.496  21.646  25.640  1.00  0.00     0.363 C 
BRANCH  30  31
ATOM     31  C   UNL A   1      33.321  20.661  24.820  1.00  0.00     0.275 C 
ATOM     32  O   UNL A   1      32.782  19.641  24.367  1.00  0.00    -0.268 OA
ATOM     33  N   UNL A   1      34.647  20.803  24.543  1.00  0.00    -0.347 N 
ATOM     34  H   UNL A   1      34.931  20.117  23.896  1.00  0.00     0.164 HD
BRANCH  33  35
ATOM     35  C   UNL A   1      35.807  21.668  24.909  1.00  0.00     0.032 C 
ATOM     36  C   UNL A   1      35.697  22.189  26.356  1.00  0.00     0.034 C 
ATOM     37  C   UNL A   1      37.051  20.752  24.884  1.00  0.00     0.034 C 
ATOM     38  C   UNL A   1      36.073  22.836  23.957  1.00  0.00     0.034 C 
ENDBRANCH  33  35
ENDBRANCH  30  31
ENDBRANCH  28  30
ENDBRANCH   9  23
ENDBRANCH   3   6
ENDBRANCH   1   2
BRANCH   1  39
ATOM     39  C   UNL A   1      34.934  30.032  27.259  1.00  0.00     0.042 C 
BRANCH  39  40
ATOM     40  C   UNL A   1      36.274  29.631  27.828  1.00  0.00     0.118 C 
BRANCH  40  41
ATOM     41  N   UNL A   1      37.027  30.715  28.458  1.00  0.00    -0.352 N 
ATOM     42  C   UNL A   1      38.290  30.628  29.044  1.00  0.00     0.251 C 
ATOM     43  H   UNL A   1      36.595  31.600  28.472  1.00  0.00     0.163 HD
ATOM     44  O   UNL A   1      38.842  31.585  29.527  1.00  0.00    -0.269 OA
BRANCH  42  45
ATOM     45  C   UNL A   1      38.979  29.317  28.922  1.00  0.00     0.039 A 
ATOM     46  C   UNL A   1      39.225  28.639  30.117  1.00  0.00     0.014 A 
ATOM     47  C   UNL A   1      39.728  29.062  27.775  1.00  0.00     0.014 A 
ATOM     48  C   UNL A   1      40.410  27.924  30.244  1.00  0.00     0.010 A 
ATOM     49  C   UNL A   1      40.955  28.446  27.936  1.00  0.00     0.010 A 
ATOM     50  C   UNL A   1      41.327  27.947  29.192  1.00  0.00    -0.014 A 
BRANCH  50  51
ATOM     51  C   UNL A   1      42.722  27.559  29.366  1.00  0.00     0.031 A 
ATOM     52  C   UNL A   1      43.759  28.607  29.445  1.00  0.00     0.074 A 
ATOM     53  C   UNL A   1      43.084  26.258  29.450  1.00  0.00     0.049 A 
ATOM     54  N   UNL A   1      44.980  28.450  29.062  1.00  0.00    -0.248 NA
ATOM     55  C   UNL A   1      43.472  29.952  29.925  1.00  0.00     0.031 C 
ATOM     56  C   UNL A   1      44.399  25.730  29.808  1.00  0.00     0.029 A 
ATOM     57  N   UNL A   1      42.368  25.136  29.012  1.00  0.00    -0.354 N 
ATOM     58  C   UNL A   1      45.692  29.549  29.481  1.00  0.00     0.074 A 
ATOM     59  C   UNL A   1      44.697  30.479  29.963  1.00  0.00     0.031 C 
ATOM     60  C   UNL A   1      44.516  24.486  29.317  1.00  0.00     0.029 A 
ATOM     61  C   UNL A   1      43.327  24.215  28.531  1.00  0.00     0.049 A 
ATOM     62  H   UNL A   1      41.392  25.014  29.033  1.00  0.00     0.167 HD
ATOM     63  C   UNL A   1      47.055  29.504  29.498  1.00  0.00     0.037 A 
ATOM     64  C   UNL A   1      43.316  23.776  27.240  1.00  0.00     0.037 A 
ATOM     65  C   UNL A   1      47.555  28.242  28.959  1.00  0.00     0.049 A 
ATOM     66  C   UNL A   1      44.571  24.115  26.469  1.00  0.00     0.074 A 
ATOM     67  C   UNL A   1      47.964  27.064  29.563  1.00  0.00     0.029 A 
ATOM     68  N   UNL A   1      47.378  27.949  27.611  1.00  0.00    -0.354 N 
ATOM     69  N   UNL A   1      45.463  24.975  26.877  1.00  0.00    -0.248 NA
ATOM     70  C   UNL A   1      44.900  23.555  25.159  1.00  0.00     0.031 C 
ATOM     71  C   UNL A   1      47.977  26.045  28.581  1.00  0.00     0.029 A 
ATOM     72  C   UNL A   1      47.592  26.605  27.375  1.00  0.00     0.049 A 
ATOM     73  H   UNL A   1      47.133  28.608  26.920  1.00  0.00     0.167 HD
ATOM     74  C   UNL A   1      46.423  25.134  25.911  1.00  0.00     0.074 A 
ATOM     75  C   UNL A   1      46.045  24.198  24.870  1.00  0.00     0.031 C 
ATOM     76  C   UNL A   1      47.434  26.043  26.042  1.00  0.00     0.037 A 
BRANCH  63  77
ATOM     77  C   UNL A   1      47.885  30.477  30.303  1.00  0.00     0.057 A 
ATOM     78  C   UNL A   1      48.012  30.344  31.699  1.00  0.00     0.134 A 
ATOM     79  C   UNL A   1      48.524  31.608  29.768  1.00  0.00     0.134 A 
ATOM     80  F   UNL A   1      47.571  29.261  32.349  1.00  0.00    -0.206 F 
ATOM     81  C   UNL A   1      48.597  31.328  32.507  1.00  0.00     0.040 A 
ATOM     82  C   UNL A   1      49.059  32.630  30.566  1.00  0.00     0.040 A 
ATOM     83  F   UNL A   1      48.697  31.750  28.447  1.00  0.00    -0.206 F 
ATOM     84  C   UNL A   1      49.080  32.500  31.946  1.00  0.00     0.006 A 
ENDBRANCH  63  77
BRANCH  64  85
ATOM     85  C   UNL A   1      41.945  23.703  26.673  1.00  0.00     0.057 A 
ATOM     86  C   UNL A   1      41.179  22.554  26.942  1.00  0.00     0.134 A 
ATOM     87  C   UNL A   1      41.259  24.850  26.272  1.00  0.00     0.134 A 
ATOM     88  F   UNL A   1      41.780  21.415  27.323  1.00  0.00    -0.206 F 
ATOM     89  C   UNL A   1      39.783  22.588  26.960  1.00  0.00     0.040 A 
ATOM     90  C   UNL A   1      39.860  24.889  26.268  1.00  0.00     0.040 A 
ATOM     91  F   UNL A   1      41.921  25.985  26.007  1.00  0.00    -0.206 F 
ATOM     92  C   UNL A   1      39.119  23.774  26.662  1.00  0.00     0.006 A 
ENDBRANCH  64  85
BRANCH  76  93
ATOM     93  C   UNL A   1      48.418  26.429  24.966  1.00  0.00     0.057 A 
ATOM     94  C   UNL A   1      48.093  27.202  23.841  1.00  0.00     0.134 A 
ATOM     95  C   UNL A   1      49.791  26.135  25.117  1.00  0.00     0.134 A 
ATOM     96  F   UNL A   1      46.847  27.648  23.635  1.00  0.00    -0.206 F 
ATOM     97  C   UNL A   1      49.054  27.598  22.901  1.00  0.00     0.040 A 
ATOM     98  C   UNL A   1      50.765  26.568  24.213  1.00  0.00     0.040 A 
ATOM     99  F   UNL A   1      50.248  25.429  26.161  1.00  0.00    -0.206 F 
ATOM    100  C   UNL A   1      50.396  27.290  23.089  1.00  0.00     0.006 A 
ENDBRANCH  76  93
ENDBRANCH  50  51
ENDBRANCH  42  45
ENDBRANCH  40  41
ENDBRANCH  39  40
ENDBRANCH   1  39
TORSDOF 16
ENDMDL
MODEL 3
REMARK VINA RESULT:     -13.0      2.486      3.835
REMARK SMILES Cc1cccc(C(=O)Nc2cc(C(=O)NCCCNC(=O)c3ccc(-c4c5nc(c(-c6c(F)cccc6F)c6ccc([nH]6)c(-c6c(F)cccc6F)c6nc(c(-c7c(F)cccc7F)c7ccc4[nH]7)C=C6)C=C5)cc3)ccc2N2CC[NH+](CC(=O)NC(C)(C)C)CC2)c1
REMARK SMILES IDX 16 1 15 2 13 3 14 4 12 6 10 7 11 8 78 9 77 10 76 11 9 12
REMARK SMILES IDX 7 13 8 14 6 16 1 17 2 18 3 19 93 20 4 21 5 22 79 23 80 24
REMARK SMILES IDX 92 25 81 26 91 27 82 28 83 30 84 31 85 32 86 33 87 35 88 36
REMARK SMILES IDX 89 37 90 38 17 39 18 40 19 41 20 42 21 44 22 45 23 46 75 47
REMARK SMILES IDX 24 48 74 49 25 50 26 51 27 52 68 53 28 54 73 55 67 56 69 57
REMARK SMILES IDX 29 58 72 59 66 60 65 61 30 63 56 64 39 65 55 66 40 67 43 68
REMARK SMILES IDX 54 69 70 70 41 71 42 72 53 74 71 75 44 76 31 77 32 78 37 79
REMARK SMILES IDX 33 80 34 81 36 82 38 83 35 84 57 85 58 86 63 87 59 88 60 89
REMARK SMILES IDX 62 90 64 91 61 92 45 93 46 94 51 95 47 96 48 97 50 98 52 99
REMARK SMILES IDX 49 100
REMARK H PARENT 15 5 9 15 82 29 86 34 19 43 69 62 43 73
REMARK Flexibility Score: inf
ROOT
ATOM      1  C   UNL A   1      34.502  31.391  28.057  1.00  0.00     0.118 C 
ENDROOT
BRANCH   1   2
ATOM      2  N   UNL A   1      33.230  31.639  27.371  1.00  0.00    -0.352 N 
ATOM      3  C   UNL A   1      32.290  30.846  26.738  1.00  0.00     0.251 C 
ATOM      4  O   UNL A   1      31.222  31.383  26.435  1.00  0.00    -0.269 OA
ATOM      5  H   UNL A   1      32.989  32.594  27.356  1.00  0.00     0.163 HD
BRANCH   3   6
ATOM      6  C   UNL A   1      32.474  29.405  26.388  1.00  0.00     0.042 A 
ATOM      7  C   UNL A   1      31.606  27.281  25.593  1.00  0.00     0.065 A 
ATOM      8  C   UNL A   1      31.438  28.609  25.953  1.00  0.00     0.042 A 
ATOM      9  C   UNL A   1      32.857  26.637  25.715  1.00  0.00     0.061 A 
ATOM     10  C   UNL A   1      33.916  27.429  26.179  1.00  0.00     0.029 A 
ATOM     11  C   UNL A   1      33.733  28.798  26.489  1.00  0.00     0.016 A 
BRANCH   7  12
ATOM     12  N   UNL A   1      30.488  26.581  25.098  1.00  0.00    -0.320 N 
ATOM     13  C   UNL A   1      29.549  26.928  24.143  1.00  0.00     0.255 C 
ATOM     14  O   UNL A   1      28.670  26.108  23.871  1.00  0.00    -0.269 OA
ATOM     15  H   UNL A   1      30.352  25.692  25.501  1.00  0.00     0.170 HD
BRANCH  13  16
ATOM     16  C   UNL A   1      29.569  28.218  23.377  1.00  0.00     0.040 A 
ATOM     17  C   UNL A   1      27.396  31.233  22.532  1.00  0.00     0.044 C 
ATOM     18  C   UNL A   1      28.582  30.311  22.598  1.00  0.00    -0.050 A 
ATOM     19  C   UNL A   1      29.622  30.454  21.674  1.00  0.00     0.003 A 
ATOM     20  C   UNL A   1      28.612  29.237  23.503  1.00  0.00     0.017 A 
ATOM     21  C   UNL A   1      30.653  29.517  21.630  1.00  0.00     0.001 A 
ATOM     22  C   UNL A   1      30.615  28.396  22.462  1.00  0.00     0.014 A 
ENDBRANCH  13  16
ENDBRANCH   7  12
BRANCH   9  23
ATOM     23  N   UNL A   1      33.019  25.328  25.290  1.00  0.00    -0.359 N 
ATOM     24  C   UNL A   1      32.432  24.137  25.934  1.00  0.00     0.178 C 
ATOM     25  C   UNL A   1      34.296  25.006  24.654  1.00  0.00     0.178 C 
ATOM     26  C   UNL A   1      32.428  22.909  24.946  1.00  0.00     0.284 C 
ATOM     27  C   UNL A   1      34.018  24.030  23.502  1.00  0.00     0.284 C 
ATOM     28  N   UNL A   1      33.538  22.733  23.975  1.00  0.00    -0.324 N 
ATOM     29  H   UNL A   1      33.113  22.226  23.199  1.00  0.00     0.348 HD
BRANCH  28  30
ATOM     30  C   UNL A   1      34.629  21.813  24.351  1.00  0.00     0.363 C 
BRANCH  30  31
ATOM     31  C   UNL A   1      34.414  21.017  25.633  1.00  0.00     0.275 C 
ATOM     32  O   UNL A   1      34.778  21.494  26.717  1.00  0.00    -0.268 OA
ATOM     33  N   UNL A   1      33.849  19.777  25.691  1.00  0.00    -0.347 N 
ATOM     34  H   UNL A   1      33.700  19.520  26.629  1.00  0.00     0.164 HD
BRANCH  33  35
ATOM     35  C   UNL A   1      33.388  18.687  24.783  1.00  0.00     0.032 C 
ATOM     36  C   UNL A   1      34.566  17.845  24.256  1.00  0.00     0.034 C 
ATOM     37  C   UNL A   1      32.542  17.731  25.655  1.00  0.00     0.034 C 
ATOM     38  C   UNL A   1      32.512  19.142  23.614  1.00  0.00     0.034 C 
ENDBRANCH  33  35
ENDBRANCH  30  31
ENDBRANCH  28  30
ENDBRANCH   9  23
ENDBRANCH   3   6
ENDBRANCH   1   2
BRANCH   1  39
ATOM     39  C   UNL A   1      35.510  32.545  27.975  1.00  0.00     0.042 C 
BRANCH  39  40
ATOM     40  C   UNL A   1      36.706  32.400  28.886  1.00  0.00     0.118 C 
BRANCH  40  41
ATOM     41  N   UNL A   1      36.386  32.074  30.275  1.00  0.00    -0.352 N 
ATOM     42  C   UNL A   1      36.567  30.845  30.911  1.00  0.00     0.251 C 
ATOM     43  H   UNL A   1      36.002  32.798  30.820  1.00  0.00     0.163 HD
ATOM     44  O   UNL A   1      36.288  30.674  32.072  1.00  0.00    -0.269 OA
BRANCH  42  45
ATOM     45  C   UNL A   1      37.248  29.790  30.116  1.00  0.00     0.039 A 
ATOM     46  C   UNL A   1      37.481  28.581  30.773  1.00  0.00     0.014 A 
ATOM     47  C   UNL A   1      38.001  30.172  29.008  1.00  0.00     0.014 A 
ATOM     48  C   UNL A   1      38.660  27.895  30.505  1.00  0.00     0.010 A 
ATOM     49  C   UNL A   1      39.222  29.553  28.821  1.00  0.00     0.010 A 
ATOM     50  C   UNL A   1      39.583  28.462  29.624  1.00  0.00    -0.014 A 
BRANCH  50  51
ATOM     51  C   UNL A   1      40.975  28.028  29.569  1.00  0.00     0.031 A 
ATOM     52  C   UNL A   1      41.304  26.739  28.929  1.00  0.00     0.074 A 
ATOM     53  C   UNL A   1      41.967  28.780  30.100  1.00  0.00     0.049 A 
ATOM     54  N   UNL A   1      42.306  25.999  29.260  1.00  0.00    -0.248 NA
ATOM     55  C   UNL A   1      40.478  26.157  27.879  1.00  0.00     0.031 C 
ATOM     56  C   UNL A   1      43.406  28.567  29.958  1.00  0.00     0.029 A 
ATOM     57  N   UNL A   1      41.859  29.785  31.070  1.00  0.00    -0.354 N 
ATOM     58  C   UNL A   1      42.418  25.003  28.319  1.00  0.00     0.074 A 
ATOM     59  C   UNL A   1      41.224  25.114  27.513  1.00  0.00     0.031 C 
ATOM     60  C   UNL A   1      44.037  29.168  30.979  1.00  0.00     0.029 A 
ATOM     61  C   UNL A   1      43.020  29.689  31.872  1.00  0.00     0.049 A 
ATOM     62  H   UNL A   1      41.123  30.429  31.173  1.00  0.00     0.167 HD
ATOM     63  C   UNL A   1      43.569  24.276  28.238  1.00  0.00     0.037 A 
ATOM     64  C   UNL A   1      42.948  29.449  33.213  1.00  0.00     0.037 A 
ATOM     65  C   UNL A   1      44.514  24.654  29.286  1.00  0.00     0.049 A 
ATOM     66  C   UNL A   1      43.633  28.171  33.642  1.00  0.00     0.074 A 
ATOM     67  C   UNL A   1      45.599  25.516  29.299  1.00  0.00     0.029 A 
ATOM     68  N   UNL A   1      44.216  24.380  30.616  1.00  0.00    -0.354 N 
ATOM     69  N   UNL A   1      44.014  27.239  32.814  1.00  0.00    -0.248 NA
ATOM     70  C   UNL A   1      43.899  27.818  35.036  1.00  0.00     0.031 C 
ATOM     71  C   UNL A   1      45.917  25.806  30.648  1.00  0.00     0.029 A 
ATOM     72  C   UNL A   1      45.037  25.107  31.456  1.00  0.00     0.049 A 
ATOM     73  H   UNL A   1      43.517  23.755  30.917  1.00  0.00     0.167 HD
ATOM     74  C   UNL A   1      44.505  26.171  33.520  1.00  0.00     0.074 A 
ATOM     75  C   UNL A   1      44.445  26.596  34.905  1.00  0.00     0.031 C 
ATOM     76  C   UNL A   1      44.898  25.018  32.902  1.00  0.00     0.037 A 
BRANCH  63  77
ATOM     77  C   UNL A   1      43.931  23.470  27.012  1.00  0.00     0.057 A 
ATOM     78  C   UNL A   1      43.338  22.218  26.762  1.00  0.00     0.134 A 
ATOM     79  C   UNL A   1      44.912  23.844  26.079  1.00  0.00     0.134 A 
ATOM     80  F   UNL A   1      42.303  21.770  27.481  1.00  0.00    -0.206 F 
ATOM     81  C   UNL A   1      43.787  21.351  25.757  1.00  0.00     0.040 A 
ATOM     82  C   UNL A   1      45.414  22.965  25.107  1.00  0.00     0.040 A 
ATOM     83  F   UNL A   1      45.397  25.093  26.039  1.00  0.00    -0.206 F 
ATOM     84  C   UNL A   1      44.862  21.703  24.956  1.00  0.00     0.006 A 
ENDBRANCH  63  77
BRANCH  64  85
ATOM     85  C   UNL A   1      41.727  30.026  33.832  1.00  0.00     0.057 A 
ATOM     86  C   UNL A   1      41.728  31.399  34.140  1.00  0.00     0.134 A 
ATOM     87  C   UNL A   1      40.486  29.395  33.726  1.00  0.00     0.134 A 
ATOM     88  F   UNL A   1      42.889  32.062  34.265  1.00  0.00    -0.206 F 
ATOM     89  C   UNL A   1      40.547  32.144  34.189  1.00  0.00     0.040 A 
ATOM     90  C   UNL A   1      39.297  30.130  33.792  1.00  0.00     0.040 A 
ATOM     91  F   UNL A   1      40.405  28.091  33.426  1.00  0.00    -0.206 F 
ATOM     92  C   UNL A   1      39.327  31.513  33.973  1.00  0.00     0.006 A 
ENDBRANCH  64  85
BRANCH  76  93
ATOM     93  C   UNL A   1      45.266  23.729  33.593  1.00  0.00     0.057 A 
ATOM     94  C   UNL A   1      46.551  23.426  34.065  1.00  0.00     0.134 A 
ATOM     95  C   UNL A   1      44.266  22.790  33.930  1.00  0.00     0.134 A 
ATOM     96  F   UNL A   1      47.571  24.282  33.915  1.00  0.00    -0.206 F 
ATOM     97  C   UNL A   1      46.834  22.245  34.765  1.00  0.00     0.040 A 
ATOM     98  C   UNL A   1      44.526  21.635  34.672  1.00  0.00     0.040 A 
ATOM     99  F   UNL A   1      42.986  22.966  33.569  1.00  0.00    -0.206 F 
ATOM    100  C   UNL A   1      45.820  21.350  35.079  1.00  0.00     0.006 A 
ENDBRANCH  76  93
ENDBRANCH  50  51
ENDBRANCH  42  45
ENDBRANCH  40  41
ENDBRANCH  39  40
ENDBRANCH   1  39
TORSDOF 16
ENDMDL
