MODEL 1
REMARK VINA RESULT:     -13.3      0.000      0.000
REMARK SMILES CCc1ccc(/C=C2\C(=O)N(c3ccc(Cl)c(C(=O)NCCCNC(=O)c4ccc(-c5c6nc(c(-c7c(F)cccc7F)c7ccc([nH]7)c(-c7c(F)cccc7F)c7nc(c(-c8c(F)cccc8F)c8ccc5[nH]8)C=C7)C=C6)cc4)c3)N=C2C)cc1
REMARK SMILES IDX 21 1 20 2 18 3 19 4 17 6 12 7 13 8 81 9 14 10 15 11 16 12
REMARK SMILES IDX 11 13 7 14 8 15 9 16 83 17 10 18 82 19 84 20 6 21 3 22 4 23
REMARK SMILES IDX 86 24 5 25 85 26 2 27 1 28 22 29 23 30 24 31 25 32 26 34
REMARK SMILES IDX 27 35 28 36 80 37 29 38 79 39 30 40 31 41 32 42 73 43 33 44
REMARK SMILES IDX 78 45 72 46 74 47 34 48 77 49 71 50 70 51 35 53 61 54 44 55
REMARK SMILES IDX 60 56 45 57 48 58 59 59 75 60 46 61 47 62 58 64 76 65 49 66
REMARK SMILES IDX 36 67 37 68 42 69 38 70 39 71 41 72 43 73 40 74 62 75 63 76
REMARK SMILES IDX 68 77 64 78 65 79 67 80 69 81 66 82 50 83 51 84 56 85 52 86
REMARK SMILES IDX 53 87 55 88 57 89 54 90
REMARK H PARENT 20 5 24 33 74 52 48 63
REMARK Flexibility Score: inf
ROOT
ATOM      1  C   UNL A   1      33.035  30.009  26.168  1.00  0.00     0.118 C 
ENDROOT
BRANCH   1   2
ATOM      2  N   UNL A   1      33.281  29.758  24.748  1.00  0.00    -0.352 N 
ATOM      3  C   UNL A   1      32.585  29.131  23.728  1.00  0.00     0.252 C 
ATOM      4  O   UNL A   1      33.092  29.196  22.609  1.00  0.00    -0.269 OA
ATOM      5  H   UNL A   1      34.146  30.119  24.445  1.00  0.00     0.163 HD
BRANCH   3   6
ATOM      6  C   UNL A   1      31.317  28.368  23.949  1.00  0.00     0.060 A 
ATOM      7  C   UNL A   1      30.344  26.360  24.933  1.00  0.00     0.070 A 
ATOM      8  C   UNL A   1      29.243  26.479  24.091  1.00  0.00     0.030 A 
ATOM      9  C   UNL A   1      31.273  27.406  24.954  1.00  0.00     0.044 A 
ATOM     10  C   UNL A   1      29.117  27.604  23.270  1.00  0.00     0.023 A 
ATOM     11  C   UNL A   1      30.172  28.524  23.156  1.00  0.00     0.053 A 
ATOM     12  Cl  UNL A   1      29.949  29.797  22.011  1.00  0.00    -0.083 Cl
BRANCH   7  13
ATOM     13  N   UNL A   1      30.596  25.177  25.666  1.00  0.00    -0.196 N 
ATOM     14  C   UNL A   1      32.047  22.056  26.590  1.00  0.00     0.024 C 
ATOM     15  C   UNL A   1      31.293  23.128  26.303  1.00  0.00     0.065 C 
ATOM     16  C   UNL A   1      31.637  24.269  25.422  1.00  0.00     0.280 C 
ATOM     17  C   UNL A   1      29.962  23.473  26.834  1.00  0.00     0.071 C 
ATOM     18  O   UNL A   1      32.575  24.339  24.656  1.00  0.00    -0.267 OA
ATOM     19  N   UNL A   1      29.595  24.686  26.507  1.00  0.00    -0.169 NA
ATOM     20  C   UNL A   1      29.119  22.529  27.626  1.00  0.00     0.069 C 
BRANCH  14  21
ATOM     21  C   UNL A   1      33.424  21.901  26.095  1.00  0.00    -0.025 A 
ATOM     22  C   UNL A   1      36.076  21.379  25.303  1.00  0.00    -0.048 A 
ATOM     23  C   UNL A   1      35.802  22.296  26.327  1.00  0.00     0.004 A 
ATOM     24  C   UNL A   1      35.008  20.765  24.642  1.00  0.00     0.004 A 
ATOM     25  C   UNL A   1      34.484  22.556  26.723  1.00  0.00     0.008 A 
ATOM     26  C   UNL A   1      33.695  21.044  25.018  1.00  0.00     0.008 A 
BRANCH  22  27
ATOM     27  C   UNL A   1      37.496  21.013  24.949  1.00  0.00     0.032 C 
ATOM     28  C   UNL A   1      38.508  21.820  25.750  1.00  0.00     0.009 C 
ENDBRANCH  22  27
ENDBRANCH  14  21
ENDBRANCH   7  13
ENDBRANCH   3   6
ENDBRANCH   1   2
BRANCH   1  29
ATOM     29  C   UNL A   1      33.690  29.010  27.107  1.00  0.00     0.042 C 
BRANCH  29  30
ATOM     30  C   UNL A   1      35.104  29.365  27.526  1.00  0.00     0.118 C 
BRANCH  30  31
ATOM     31  N   UNL A   1      35.155  30.131  28.767  1.00  0.00    -0.352 N 
ATOM     32  C   UNL A   1      36.179  30.341  29.658  1.00  0.00     0.251 C 
ATOM     33  H   UNL A   1      34.309  30.576  29.006  1.00  0.00     0.163 HD
ATOM     34  O   UNL A   1      35.940  30.870  30.741  1.00  0.00    -0.269 OA
BRANCH  32  35
ATOM     35  C   UNL A   1      37.564  29.930  29.340  1.00  0.00     0.039 A 
ATOM     36  C   UNL A   1      38.393  29.475  30.372  1.00  0.00     0.014 A 
ATOM     37  C   UNL A   1      38.070  30.030  28.044  1.00  0.00     0.014 A 
ATOM     38  C   UNL A   1      39.702  29.078  30.090  1.00  0.00     0.010 A 
ATOM     39  C   UNL A   1      39.325  29.518  27.743  1.00  0.00     0.010 A 
ATOM     40  C   UNL A   1      40.170  29.070  28.766  1.00  0.00    -0.014 A 
BRANCH  40  41
ATOM     41  C   UNL A   1      41.558  28.661  28.434  1.00  0.00     0.031 A 
ATOM     42  C   UNL A   1      41.851  27.230  28.066  1.00  0.00     0.074 A 
ATOM     43  C   UNL A   1      42.561  29.555  28.520  1.00  0.00     0.049 A 
ATOM     44  N   UNL A   1      42.999  26.660  27.797  1.00  0.00    -0.248 NA
ATOM     45  C   UNL A   1      40.705  26.306  28.037  1.00  0.00     0.031 C 
ATOM     46  C   UNL A   1      42.415  30.954  28.922  1.00  0.00     0.029 A 
ATOM     47  N   UNL A   1      43.905  29.415  28.281  1.00  0.00    -0.354 N 
ATOM     48  C   UNL A   1      42.713  25.315  27.590  1.00  0.00     0.074 A 
ATOM     49  C   UNL A   1      41.300  25.141  27.840  1.00  0.00     0.031 C 
ATOM     50  C   UNL A   1      43.616  31.553  28.868  1.00  0.00     0.029 A 
ATOM     51  C   UNL A   1      44.619  30.572  28.470  1.00  0.00     0.049 A 
ATOM     52  H   UNL A   1      44.316  28.566  28.000  1.00  0.00     0.167 HD
ATOM     53  C   UNL A   1      43.543  24.322  27.195  1.00  0.00     0.037 A 
ATOM     54  C   UNL A   1      45.937  30.813  28.337  1.00  0.00     0.037 A 
ATOM     55  C   UNL A   1      44.944  24.507  26.927  1.00  0.00     0.049 A 
ATOM     56  C   UNL A   1      46.842  29.698  27.890  1.00  0.00     0.074 A 
ATOM     57  C   UNL A   1      45.867  23.584  26.467  1.00  0.00     0.029 A 
ATOM     58  N   UNL A   1      45.628  25.702  27.105  1.00  0.00    -0.354 N 
ATOM     59  N   UNL A   1      46.549  28.448  27.626  1.00  0.00    -0.248 NA
ATOM     60  C   UNL A   1      48.260  30.034  27.707  1.00  0.00     0.031 C 
ATOM     61  C   UNL A   1      47.120  24.205  26.422  1.00  0.00     0.029 A 
ATOM     62  C   UNL A   1      46.966  25.534  26.785  1.00  0.00     0.049 A 
ATOM     63  H   UNL A   1      45.222  26.545  27.413  1.00  0.00     0.167 HD
ATOM     64  C   UNL A   1      47.735  27.856  27.211  1.00  0.00     0.074 A 
ATOM     65  C   UNL A   1      48.749  28.890  27.250  1.00  0.00     0.031 C 
ATOM     66  C   UNL A   1      47.963  26.575  26.827  1.00  0.00     0.037 A 
BRANCH  53  67
ATOM     67  C   UNL A   1      42.947  22.948  27.042  1.00  0.00     0.057 A 
ATOM     68  C   UNL A   1      42.613  22.152  28.147  1.00  0.00     0.134 A 
ATOM     69  C   UNL A   1      42.714  22.409  25.770  1.00  0.00     0.134 A 
ATOM     70  F   UNL A   1      42.821  22.598  29.395  1.00  0.00    -0.206 F 
ATOM     71  C   UNL A   1      42.117  20.855  27.994  1.00  0.00     0.040 A 
ATOM     72  C   UNL A   1      42.183  21.128  25.605  1.00  0.00     0.040 A 
ATOM     73  F   UNL A   1      43.001  23.114  24.666  1.00  0.00    -0.206 F 
ATOM     74  C   UNL A   1      41.897  20.342  26.718  1.00  0.00     0.006 A 
ENDBRANCH  53  67
BRANCH  54  75
ATOM     75  C   UNL A   1      46.466  32.176  28.592  1.00  0.00     0.057 A 
ATOM     76  C   UNL A   1      46.513  33.137  27.574  1.00  0.00     0.134 A 
ATOM     77  C   UNL A   1      46.919  32.560  29.860  1.00  0.00     0.134 A 
ATOM     78  F   UNL A   1      46.106  32.826  26.334  1.00  0.00    -0.206 F 
ATOM     79  C   UNL A   1      47.006  34.422  27.802  1.00  0.00     0.040 A 
ATOM     80  C   UNL A   1      47.389  33.850  30.108  1.00  0.00     0.040 A 
ATOM     81  F   UNL A   1      46.888  31.691  30.881  1.00  0.00    -0.206 F 
ATOM     82  C   UNL A   1      47.440  34.783  29.075  1.00  0.00     0.006 A 
ENDBRANCH  54  75
BRANCH  66  83
ATOM     83  C   UNL A   1      49.352  26.234  26.367  1.00  0.00     0.057 A 
ATOM     84  C   UNL A   1      50.273  25.573  27.189  1.00  0.00     0.134 A 
ATOM     85  C   UNL A   1      49.765  26.555  25.066  1.00  0.00     0.134 A 
ATOM     86  F   UNL A   1      49.947  25.245  28.449  1.00  0.00    -0.206 F 
ATOM     87  C   UNL A   1      51.565  25.278  26.749  1.00  0.00     0.040 A 
ATOM     88  C   UNL A   1      51.041  26.235  24.603  1.00  0.00     0.040 A 
ATOM     89  F   UNL A   1      48.930  27.178  24.220  1.00  0.00    -0.206 F 
ATOM     90  C   UNL A   1      51.950  25.604  25.450  1.00  0.00     0.006 A 
ENDBRANCH  66  83
ENDBRANCH  40  41
ENDBRANCH  32  35
ENDBRANCH  30  31
ENDBRANCH  29  30
ENDBRANCH   1  29
TORSDOF 13
ENDMDL
MODEL 2
REMARK VINA RESULT:     -13.2      4.450      8.014
REMARK SMILES CCc1ccc(/C=C2\C(=O)N(c3ccc(Cl)c(C(=O)NCCCNC(=O)c4ccc(-c5c6nc(c(-c7c(F)cccc7F)c7ccc([nH]7)c(-c7c(F)cccc7F)c7nc(c(-c8c(F)cccc8F)c8ccc5[nH]8)C=C7)C=C6)cc4)c3)N=C2C)cc1
REMARK SMILES IDX 21 1 20 2 18 3 19 4 17 6 12 7 13 8 81 9 14 10 15 11 16 12
REMARK SMILES IDX 11 13 7 14 8 15 9 16 83 17 10 18 82 19 84 20 6 21 3 22 4 23
REMARK SMILES IDX 86 24 5 25 85 26 2 27 1 28 22 29 23 30 24 31 25 32 26 34
REMARK SMILES IDX 27 35 28 36 80 37 29 38 79 39 30 40 31 41 32 42 73 43 33 44
REMARK SMILES IDX 78 45 72 46 74 47 34 48 77 49 71 50 70 51 35 53 61 54 44 55
REMARK SMILES IDX 60 56 45 57 48 58 59 59 75 60 46 61 47 62 58 64 76 65 49 66
REMARK SMILES IDX 36 67 37 68 42 69 38 70 39 71 41 72 43 73 40 74 62 75 63 76
REMARK SMILES IDX 68 77 64 78 65 79 67 80 69 81 66 82 50 83 51 84 56 85 52 86
REMARK SMILES IDX 53 87 55 88 57 89 54 90
REMARK H PARENT 20 5 24 33 74 52 48 63
REMARK Flexibility Score: inf
ROOT
ATOM      1  C   UNL A   1      31.773  30.659  26.750  1.00  0.00     0.118 C 
ENDROOT
BRANCH   1   2
ATOM      2  N   UNL A   1      32.543  30.261  25.571  1.00  0.00    -0.352 N 
ATOM      3  C   UNL A   1      32.333  29.401  24.507  1.00  0.00     0.252 C 
ATOM      4  O   UNL A   1      33.203  29.393  23.638  1.00  0.00    -0.269 OA
ATOM      5  H   UNL A   1      33.418  30.711  25.523  1.00  0.00     0.163 HD
BRANCH   3   6
ATOM      6  C   UNL A   1      31.155  28.483  24.414  1.00  0.00     0.060 A 
ATOM      7  C   UNL A   1      30.273  26.300  25.053  1.00  0.00     0.070 A 
ATOM      8  C   UNL A   1      29.353  26.365  24.011  1.00  0.00     0.030 A 
ATOM      9  C   UNL A   1      31.038  27.438  25.329  1.00  0.00     0.044 A 
ATOM     10  C   UNL A   1      29.249  27.535  23.251  1.00  0.00     0.023 A 
ATOM     11  C   UNL A   1      30.178  28.575  23.414  1.00  0.00     0.053 A 
ATOM     12  Cl  UNL A   1      30.024  29.908  22.328  1.00  0.00    -0.083 Cl
BRANCH   7  13
ATOM     13  N   UNL A   1      30.526  25.094  25.748  1.00  0.00    -0.196 N 
ATOM     14  C   UNL A   1      31.985  21.951  26.579  1.00  0.00     0.024 C 
ATOM     15  C   UNL A   1      31.228  23.029  26.323  1.00  0.00     0.065 C 
ATOM     16  C   UNL A   1      31.573  24.199  25.482  1.00  0.00     0.280 C 
ATOM     17  C   UNL A   1      29.893  23.350  26.855  1.00  0.00     0.071 C 
ATOM     18  O   UNL A   1      32.515  24.299  24.724  1.00  0.00    -0.267 OA
ATOM     19  N   UNL A   1      29.522  24.572  26.566  1.00  0.00    -0.169 NA
ATOM     20  C   UNL A   1      29.048  22.378  27.611  1.00  0.00     0.069 C 
BRANCH  14  21
ATOM     21  C   UNL A   1      33.365  21.818  26.088  1.00  0.00    -0.025 A 
ATOM     22  C   UNL A   1      36.028  21.338  25.303  1.00  0.00    -0.048 A 
ATOM     23  C   UNL A   1      35.737  22.246  26.331  1.00  0.00     0.004 A 
ATOM     24  C   UNL A   1      34.971  20.712  24.635  1.00  0.00     0.004 A 
ATOM     25  C   UNL A   1      34.414  22.485  26.723  1.00  0.00     0.008 A 
ATOM     26  C   UNL A   1      33.652  20.971  25.008  1.00  0.00     0.008 A 
BRANCH  22  27
ATOM     27  C   UNL A   1      37.454  20.994  24.952  1.00  0.00     0.032 C 
ATOM     28  C   UNL A   1      38.451  21.844  25.727  1.00  0.00     0.009 C 
ENDBRANCH  22  27
ENDBRANCH  14  21
ENDBRANCH   7  13
ENDBRANCH   3   6
ENDBRANCH   1   2
BRANCH   1  29
ATOM     29  C   UNL A   1      31.500  32.150  26.850  1.00  0.00     0.042 C 
BRANCH  29  30
ATOM     30  C   UNL A   1      32.740  33.021  26.902  1.00  0.00     0.118 C 
BRANCH  30  31
ATOM     31  N   UNL A   1      32.565  34.213  27.724  1.00  0.00    -0.352 N 
ATOM     32  C   UNL A   1      33.184  34.611  28.883  1.00  0.00     0.251 C 
ATOM     33  H   UNL A   1      31.884  34.842  27.388  1.00  0.00     0.163 HD
ATOM     34  O   UNL A   1      32.740  35.571  29.509  1.00  0.00    -0.269 OA
BRANCH  32  35
ATOM     35  C   UNL A   1      34.372  33.896  29.398  1.00  0.00     0.039 A 
ATOM     36  C   UNL A   1      35.646  34.322  29.008  1.00  0.00     0.014 A 
ATOM     37  C   UNL A   1      34.243  32.780  30.226  1.00  0.00     0.014 A 
ATOM     38  C   UNL A   1      36.780  33.661  29.489  1.00  0.00     0.010 A 
ATOM     39  C   UNL A   1      35.368  32.204  30.803  1.00  0.00     0.010 A 
ATOM     40  C   UNL A   1      36.649  32.613  30.414  1.00  0.00    -0.014 A 
BRANCH  40  41
ATOM     41  C   UNL A   1      37.833  31.886  30.938  1.00  0.00     0.031 A 
ATOM     42  C   UNL A   1      38.390  32.237  32.292  1.00  0.00     0.074 A 
ATOM     43  C   UNL A   1      38.442  30.957  30.177  1.00  0.00     0.049 A 
ATOM     44  N   UNL A   1      39.445  31.761  32.904  1.00  0.00    -0.248 NA
ATOM     45  C   UNL A   1      37.691  33.294  33.042  1.00  0.00     0.031 C 
ATOM     46  C   UNL A   1      38.034  30.569  28.826  1.00  0.00     0.029 A 
ATOM     47  N   UNL A   1      39.539  30.174  30.431  1.00  0.00    -0.354 N 
ATOM     48  C   UNL A   1      39.544  32.474  34.094  1.00  0.00     0.074 A 
ATOM     49  C   UNL A   1      38.492  33.465  34.081  1.00  0.00     0.031 C 
ATOM     50  C   UNL A   1      38.849  29.599  28.383  1.00  0.00     0.029 A 
ATOM     51  C   UNL A   1      39.860  29.326  29.401  1.00  0.00     0.049 A 
ATOM     52  H   UNL A   1      40.047  30.217  31.273  1.00  0.00     0.167 HD
ATOM     53  C   UNL A   1      40.411  32.299  35.119  1.00  0.00     0.037 A 
ATOM     54  C   UNL A   1      40.857  28.428  29.289  1.00  0.00     0.037 A 
ATOM     55  C   UNL A   1      41.443  31.297  35.133  1.00  0.00     0.049 A 
ATOM     56  C   UNL A   1      41.805  28.243  30.442  1.00  0.00     0.074 A 
ATOM     57  C   UNL A   1      42.340  30.994  36.143  1.00  0.00     0.029 A 
ATOM     58  N   UNL A   1      41.720  30.437  34.080  1.00  0.00    -0.354 N 
ATOM     59  N   UNL A   1      41.845  28.872  31.591  1.00  0.00    -0.248 NA
ATOM     60  C   UNL A   1      42.837  27.211  30.286  1.00  0.00     0.031 C 
ATOM     61  C   UNL A   1      43.196  29.990  35.678  1.00  0.00     0.029 A 
ATOM     62  C   UNL A   1      42.789  29.618  34.407  1.00  0.00     0.049 A 
ATOM     63  H   UNL A   1      41.229  30.412  33.227  1.00  0.00     0.167 HD
ATOM     64  C   UNL A   1      42.880  28.290  32.310  1.00  0.00     0.074 A 
ATOM     65  C   UNL A   1      43.434  27.249  31.469  1.00  0.00     0.031 C 
ATOM     66  C   UNL A   1      43.327  28.584  33.557  1.00  0.00     0.037 A 
BRANCH  53  67
ATOM     67  C   UNL A   1      40.276  33.224  36.298  1.00  0.00     0.057 A 
ATOM     68  C   UNL A   1      39.364  32.983  37.336  1.00  0.00     0.134 A 
ATOM     69  C   UNL A   1      41.063  34.379  36.394  1.00  0.00     0.134 A 
ATOM     70  F   UNL A   1      38.568  31.902  37.305  1.00  0.00    -0.206 F 
ATOM     71  C   UNL A   1      39.203  33.877  38.396  1.00  0.00     0.040 A 
ATOM     72  C   UNL A   1      40.939  35.262  37.469  1.00  0.00     0.040 A 
ATOM     73  F   UNL A   1      41.963  34.672  35.444  1.00  0.00    -0.206 F 
ATOM     74  C   UNL A   1      39.997  35.020  38.465  1.00  0.00     0.006 A 
ENDBRANCH  53  67
BRANCH  54  75
ATOM     75  C   UNL A   1      40.979  27.611  28.055  1.00  0.00     0.057 A 
ATOM     76  C   UNL A   1      40.352  26.364  27.948  1.00  0.00     0.134 A 
ATOM     77  C   UNL A   1      41.706  28.064  26.948  1.00  0.00     0.134 A 
ATOM     78  F   UNL A   1      39.652  25.869  28.980  1.00  0.00    -0.206 F 
ATOM     79  C   UNL A   1      40.458  25.588  26.792  1.00  0.00     0.040 A 
ATOM     80  C   UNL A   1      41.797  27.311  25.776  1.00  0.00     0.040 A 
ATOM     81  F   UNL A   1      42.318  29.256  26.981  1.00  0.00    -0.206 F 
ATOM     82  C   UNL A   1      41.178  26.066  25.699  1.00  0.00     0.006 A 
ENDBRANCH  54  75
BRANCH  66  83
ATOM     83  C   UNL A   1      44.439  27.734  34.106  1.00  0.00     0.057 A 
ATOM     84  C   UNL A   1      45.787  28.096  33.990  1.00  0.00     0.134 A 
ATOM     85  C   UNL A   1      44.148  26.541  34.783  1.00  0.00     0.134 A 
ATOM     86  F   UNL A   1      46.136  29.219  33.345  1.00  0.00    -0.206 F 
ATOM     87  C   UNL A   1      46.806  27.285  34.493  1.00  0.00     0.040 A 
ATOM     88  C   UNL A   1      45.156  25.740  35.320  1.00  0.00     0.040 A 
ATOM     89  F   UNL A   1      42.877  26.140  34.942  1.00  0.00    -0.206 F 
ATOM     90  C   UNL A   1      46.491  26.106  35.166  1.00  0.00     0.006 A 
ENDBRANCH  66  83
ENDBRANCH  40  41
ENDBRANCH  32  35
ENDBRANCH  30  31
ENDBRANCH  29  30
ENDBRANCH   1  29
TORSDOF 13
ENDMDL
MODEL 3
REMARK VINA RESULT:     -12.9      4.145      7.504
REMARK SMILES CCc1ccc(/C=C2\C(=O)N(c3ccc(Cl)c(C(=O)NCCCNC(=O)c4ccc(-c5c6nc(c(-c7c(F)cccc7F)c7ccc([nH]7)c(-c7c(F)cccc7F)c7nc(c(-c8c(F)cccc8F)c8ccc5[nH]8)C=C7)C=C6)cc4)c3)N=C2C)cc1
REMARK SMILES IDX 21 1 20 2 18 3 19 4 17 6 12 7 13 8 81 9 14 10 15 11 16 12
REMARK SMILES IDX 11 13 7 14 8 15 9 16 83 17 10 18 82 19 84 20 6 21 3 22 4 23
REMARK SMILES IDX 86 24 5 25 85 26 2 27 1 28 22 29 23 30 24 31 25 32 26 34
REMARK SMILES IDX 27 35 28 36 80 37 29 38 79 39 30 40 31 41 32 42 73 43 33 44
REMARK SMILES IDX 78 45 72 46 74 47 34 48 77 49 71 50 70 51 35 53 61 54 44 55
REMARK SMILES IDX 60 56 45 57 48 58 59 59 75 60 46 61 47 62 58 64 76 65 49 66
REMARK SMILES IDX 36 67 37 68 42 69 38 70 39 71 41 72 43 73 40 74 62 75 63 76
REMARK SMILES IDX 68 77 64 78 65 79 67 80 69 81 66 82 50 83 51 84 56 85 52 86
REMARK SMILES IDX 53 87 55 88 57 89 54 90
REMARK H PARENT 20 5 24 33 74 52 48 63
REMARK Flexibility Score: inf
ROOT
ATOM      1  C   UNL A   1      33.451  26.972  23.700  1.00  0.00     0.118 C 
ENDROOT
BRANCH   1   2
ATOM      2  N   UNL A   1      32.923  26.155  24.794  1.00  0.00    -0.352 N 
ATOM      3  C   UNL A   1      33.291  24.964  25.394  1.00  0.00     0.252 C 
ATOM      4  O   UNL A   1      32.627  24.624  26.372  1.00  0.00    -0.269 OA
ATOM      5  H   UNL A   1      32.113  26.545  25.198  1.00  0.00     0.163 HD
BRANCH   3   6
ATOM      6  C   UNL A   1      34.391  24.091  24.878  1.00  0.00     0.060 A 
ATOM      7  C   UNL A   1      36.726  23.447  25.166  1.00  0.00     0.070 A 
ATOM      8  C   UNL A   1      36.761  22.983  23.854  1.00  0.00     0.030 A 
ATOM      9  C   UNL A   1      35.491  23.835  25.695  1.00  0.00     0.044 A 
ATOM     10  C   UNL A   1      35.586  22.957  23.097  1.00  0.00     0.023 A 
ATOM     11  C   UNL A   1      34.412  23.555  23.584  1.00  0.00     0.053 A 
ATOM     12  Cl  UNL A   1      33.066  23.576  22.503  1.00  0.00    -0.083 Cl
BRANCH   7  13
ATOM     13  N   UNL A   1      37.908  23.638  25.920  1.00  0.00    -0.196 N 
ATOM     14  C   UNL A   1      40.967  22.904  27.593  1.00  0.00     0.024 C 
ATOM     15  C   UNL A   1      39.767  23.315  27.156  1.00  0.00     0.065 C 
ATOM     16  C   UNL A   1      38.912  22.681  26.126  1.00  0.00     0.280 C 
ATOM     17  C   UNL A   1      39.024  24.526  27.543  1.00  0.00     0.071 C 
ATOM     18  O   UNL A   1      39.055  21.579  25.639  1.00  0.00    -0.267 OA
ATOM     19  N   UNL A   1      37.980  24.736  26.780  1.00  0.00    -0.169 NA
ATOM     20  C   UNL A   1      39.403  25.396  28.696  1.00  0.00     0.069 C 
BRANCH  14  21
ATOM     21  C   UNL A   1      41.663  21.742  27.020  1.00  0.00    -0.025 A 
ATOM     22  C   UNL A   1      43.183  19.546  26.122  1.00  0.00    -0.048 A 
ATOM     23  C   UNL A   1      43.331  20.810  25.532  1.00  0.00     0.004 A 
ATOM     24  C   UNL A   1      42.228  19.379  27.129  1.00  0.00     0.004 A 
ATOM     25  C   UNL A   1      42.577  21.902  25.978  1.00  0.00     0.008 A 
ATOM     26  C   UNL A   1      41.459  20.462  27.555  1.00  0.00     0.008 A 
BRANCH  22  27
ATOM     27  C   UNL A   1      44.069  18.394  25.721  1.00  0.00     0.032 C 
ATOM     28  C   UNL A   1      45.156  18.825  24.746  1.00  0.00     0.009 C 
ENDBRANCH  22  27
ENDBRANCH  14  21
ENDBRANCH   7  13
ENDBRANCH   3   6
ENDBRANCH   1   2
BRANCH   1  29
ATOM     29  C   UNL A   1      33.558  28.454  24.016  1.00  0.00     0.042 C 
BRANCH  29  30
ATOM     30  C   UNL A   1      33.754  28.779  25.485  1.00  0.00     0.118 C 
BRANCH  30  31
ATOM     31  N   UNL A   1      33.127  30.035  25.879  1.00  0.00    -0.352 N 
ATOM     32  C   UNL A   1      33.435  30.923  26.880  1.00  0.00     0.251 C 
ATOM     33  H   UNL A   1      32.349  30.291  25.331  1.00  0.00     0.163 HD
ATOM     34  O   UNL A   1      32.648  31.828  27.150  1.00  0.00    -0.269 OA
BRANCH  32  35
ATOM     35  C   UNL A   1      34.693  30.802  27.649  1.00  0.00     0.039 A 
ATOM     36  C   UNL A   1      35.530  31.917  27.764  1.00  0.00     0.014 A 
ATOM     37  C   UNL A   1      35.079  29.589  28.219  1.00  0.00     0.014 A 
ATOM     38  C   UNL A   1      36.721  31.822  28.491  1.00  0.00     0.010 A 
ATOM     39  C   UNL A   1      36.195  29.529  29.044  1.00  0.00     0.010 A 
ATOM     40  C   UNL A   1      37.048  30.633  29.161  1.00  0.00    -0.014 A 
BRANCH  40  41
ATOM     41  C   UNL A   1      38.308  30.497  29.934  1.00  0.00     0.031 A 
ATOM     42  C   UNL A   1      39.487  29.782  29.329  1.00  0.00     0.074 A 
ATOM     43  C   UNL A   1      38.375  30.961  31.196  1.00  0.00     0.049 A 
ATOM     44  N   UNL A   1      40.654  29.510  29.858  1.00  0.00    -0.248 NA
ATOM     45  C   UNL A   1      39.318  29.267  27.960  1.00  0.00     0.031 C 
ATOM     46  C   UNL A   1      37.283  31.620  31.915  1.00  0.00     0.029 A 
ATOM     47  N   UNL A   1      39.406  30.943  32.101  1.00  0.00    -0.354 N 
ATOM     48  C   UNL A   1      41.342  28.778  28.896  1.00  0.00     0.074 A 
ATOM     49  C   UNL A   1      40.437  28.582  27.787  1.00  0.00     0.031 C 
ATOM     50  C   UNL A   1      37.713  31.973  33.137  1.00  0.00     0.029 A 
ATOM     51  C   UNL A   1      39.093  31.530  33.302  1.00  0.00     0.049 A 
ATOM     52  H   UNL A   1      40.286  30.547  31.906  1.00  0.00     0.167 HD
ATOM     53  C   UNL A   1      42.622  28.338  28.919  1.00  0.00     0.037 A 
ATOM     54  C   UNL A   1      39.838  31.692  34.412  1.00  0.00     0.037 A 
ATOM     55  C   UNL A   1      43.524  28.555  30.019  1.00  0.00     0.049 A 
ATOM     56  C   UNL A   1      41.259  31.202  34.416  1.00  0.00     0.074 A 
ATOM     57  C   UNL A   1      44.858  28.202  30.126  1.00  0.00     0.029 A 
ATOM     58  N   UNL A   1      43.178  29.178  31.210  1.00  0.00    -0.354 N 
ATOM     59  N   UNL A   1      41.923  30.576  33.474  1.00  0.00    -0.248 NA
ATOM     60  C   UNL A   1      42.040  31.457  35.633  1.00  0.00     0.031 C 
ATOM     61  C   UNL A   1      45.302  28.561  31.403  1.00  0.00     0.029 A 
ATOM     62  C   UNL A   1      44.267  29.200  32.066  1.00  0.00     0.049 A 
ATOM     63  H   UNL A   1      42.290  29.550  31.416  1.00  0.00     0.167 HD
ATOM     64  C   UNL A   1      43.208  30.393  33.969  1.00  0.00     0.074 A 
ATOM     65  C   UNL A   1      43.231  30.986  35.290  1.00  0.00     0.031 C 
ATOM     66  C   UNL A   1      44.274  29.796  33.379  1.00  0.00     0.037 A 
BRANCH  53  67
ATOM     67  C   UNL A   1      43.107  27.570  27.720  1.00  0.00     0.057 A 
ATOM     68  C   UNL A   1      43.578  28.210  26.564  1.00  0.00     0.134 A 
ATOM     69  C   UNL A   1      43.092  26.169  27.715  1.00  0.00     0.134 A 
ATOM     70  F   UNL A   1      43.608  29.550  26.492  1.00  0.00    -0.206 F 
ATOM     71  C   UNL A   1      43.969  27.490  25.433  1.00  0.00     0.040 A 
ATOM     72  C   UNL A   1      43.517  25.437  26.603  1.00  0.00     0.040 A 
ATOM     73  F   UNL A   1      42.662  25.487  28.786  1.00  0.00    -0.206 F 
ATOM     74  C   UNL A   1      43.943  26.097  25.454  1.00  0.00     0.006 A 
ENDBRANCH  53  67
BRANCH  54  75
ATOM     75  C   UNL A   1      39.260  32.383  35.592  1.00  0.00     0.057 A 
ATOM     76  C   UNL A   1      39.470  33.752  35.804  1.00  0.00     0.134 A 
ATOM     77  C   UNL A   1      38.469  31.702  36.525  1.00  0.00     0.134 A 
ATOM     78  F   UNL A   1      40.231  34.457  34.953  1.00  0.00    -0.206 F 
ATOM     79  C   UNL A   1      38.931  34.413  36.908  1.00  0.00     0.040 A 
ATOM     80  C   UNL A   1      37.901  32.356  37.618  1.00  0.00     0.040 A 
ATOM     81  F   UNL A   1      38.218  30.393  36.372  1.00  0.00    -0.206 F 
ATOM     82  C   UNL A   1      38.137  33.715  37.816  1.00  0.00     0.006 A 
ENDBRANCH  54  75
BRANCH  66  83
ATOM     83  C   UNL A   1      45.570  29.801  34.140  1.00  0.00     0.057 A 
ATOM     84  C   UNL A   1      45.953  28.744  34.975  1.00  0.00     0.134 A 
ATOM     85  C   UNL A   1      46.460  30.878  34.015  1.00  0.00     0.134 A 
ATOM     86  F   UNL A   1      45.145  27.687  35.148  1.00  0.00    -0.206 F 
ATOM     87  C   UNL A   1      47.155  28.774  35.686  1.00  0.00     0.040 A 
ATOM     88  C   UNL A   1      47.678  30.903  34.693  1.00  0.00     0.040 A 
ATOM     89  F   UNL A   1      46.162  31.919  33.222  1.00  0.00    -0.206 F 
ATOM     90  C   UNL A   1      48.024  29.853  35.541  1.00  0.00     0.006 A 
ENDBRANCH  66  83
ENDBRANCH  40  41
ENDBRANCH  32  35
ENDBRANCH  30  31
ENDBRANCH  29  30
ENDBRANCH   1  29
TORSDOF 13
ENDMDL
