MODEL 1
REMARK VINA RESULT:     -12.2      0.000      0.000
REMARK SMILES N#CCCn1cc(C(=O)NCCCNC(=O)c2ccc(-c3c4nc(c(-c5c(F)cccc5F)c5ccc([nH]5)c(-c5c(F)cccc5F)c5nc(c(-c6c(F)cccc6F)c6ccc3[nH]6)C=C5)C=C4)cc2)c(-c2cccc([N+](=O)[O-])c2)n1
REMARK SMILES IDX 11 1 10 2 8 3 9 4 7 6 5 7 6 8 81 9 71 10 4 11 3 12 2 13 1 14
REMARK SMILES IDX 72 15 73 16 80 17 74 18 76 19 75 20 77 21 78 22 79 23 12 24
REMARK SMILES IDX 13 25 14 26 15 27 16 29 17 30 18 31 70 32 19 33 69 34 20 35
REMARK SMILES IDX 21 36 22 37 63 38 23 39 68 40 62 41 64 42 24 43 67 44 61 45
REMARK SMILES IDX 60 46 25 48 51 49 34 50 50 51 35 52 38 53 49 54 65 55 36 56
REMARK SMILES IDX 37 57 48 59 66 60 39 61 26 62 27 63 32 64 28 65 29 66 31 67
REMARK SMILES IDX 33 68 30 69 52 70 53 71 58 72 54 73 55 74 57 75 59 76 56 77
REMARK SMILES IDX 40 78 41 79 46 80 42 81 43 82 45 83 47 84 44 85
REMARK H PARENT 10 5 14 28 64 47 38 58
REMARK Flexibility Score: inf
ROOT
ATOM      1  C   UNL A   1      33.162  27.939  26.063  1.00  0.00     0.118 C 
ENDROOT
BRANCH   1   2
ATOM      2  N   UNL A   1      33.600  28.047  24.682  1.00  0.00    -0.352 N 
ATOM      3  C   UNL A   1      32.907  28.226  23.509  1.00  0.00     0.255 C 
ATOM      4  O   UNL A   1      33.585  28.372  22.495  1.00  0.00    -0.269 OA
ATOM      5  H   UNL A   1      34.576  27.980  24.566  1.00  0.00     0.163 HD
BRANCH   3   6
ATOM      6  C   UNL A   1      31.450  28.283  23.491  1.00  0.00     0.085 A 
ATOM      7  N   UNL A   1      29.366  28.917  23.210  1.00  0.00    -0.270 N 
ATOM      8  C   UNL A   1      30.632  29.383  23.343  1.00  0.00     0.123 A 
ATOM      9  N   UNL A   1      29.250  27.604  23.429  1.00  0.00    -0.172 NA
ATOM     10  C   UNL A   1      30.516  27.197  23.651  1.00  0.00     0.105 A 
BRANCH   7  11
ATOM     11  C   UNL A   1      28.214  29.719  22.861  1.00  0.00     0.159 C 
BRANCH  11  12
ATOM     12  C   UNL A   1      28.503  30.699  21.752  1.00  0.00     0.144 C 
BRANCH  12  13
ATOM     13  C   UNL A   1      28.433  32.146  22.212  1.00  0.00     0.064 C 
ATOM     14  N   UNL A   1      28.376  33.346  22.595  1.00  0.00    -0.198 NA
ENDBRANCH  12  13
ENDBRANCH  11  12
ENDBRANCH   7  11
BRANCH  10  15
ATOM     15  C   UNL A   1      30.788  25.796  23.965  1.00  0.00     0.010 A 
ATOM     16  C   UNL A   1      31.197  24.908  22.956  1.00  0.00     0.011 A 
ATOM     17  C   UNL A   1      30.638  25.325  25.274  1.00  0.00     0.096 A 
ATOM     18  C   UNL A   1      31.399  23.554  23.234  1.00  0.00     0.008 A 
ATOM     19  C   UNL A   1      30.839  23.965  25.545  1.00  0.00     0.270 A 
ATOM     20  C   UNL A   1      31.211  23.074  24.528  1.00  0.00     0.085 A 
BRANCH  19  21
ATOM     21  N   UNL A   1      30.638  23.460  26.908  1.00  0.00     0.062 N 
ATOM     22  O   UNL A   1      31.611  22.951  27.484  1.00  0.00    -0.258 OA
ATOM     23  O   UNL A   1      29.508  23.567  27.404  1.00  0.00    -0.258 OA
ENDBRANCH  19  21
ENDBRANCH  10  15
ENDBRANCH   3   6
ENDBRANCH   1   2
BRANCH   1  24
ATOM     24  C   UNL A   1      33.534  29.176  26.890  1.00  0.00     0.042 C 
BRANCH  24  25
ATOM     25  C   UNL A   1      34.978  29.139  27.368  1.00  0.00     0.118 C 
BRANCH  25  26
ATOM     26  N   UNL A   1      35.188  29.999  28.535  1.00  0.00    -0.352 N 
ATOM     27  C   UNL A   1      36.249  30.031  29.417  1.00  0.00     0.251 C 
ATOM     28  H   UNL A   1      34.470  30.648  28.717  1.00  0.00     0.163 HD
ATOM     29  O   UNL A   1      36.142  30.581  30.505  1.00  0.00    -0.269 OA
BRANCH  27  30
ATOM     30  C   UNL A   1      37.508  29.376  29.034  1.00  0.00     0.039 A 
ATOM     31  C   UNL A   1      38.170  29.723  27.854  1.00  0.00     0.014 A 
ATOM     32  C   UNL A   1      38.056  28.452  29.916  1.00  0.00     0.014 A 
ATOM     33  C   UNL A   1      39.442  29.207  27.621  1.00  0.00     0.010 A 
ATOM     34  C   UNL A   1      39.369  28.083  29.769  1.00  0.00     0.010 A 
ATOM     35  C   UNL A   1      40.052  28.409  28.600  1.00  0.00    -0.014 A 
BRANCH  35  36
ATOM     36  C   UNL A   1      41.444  27.984  28.465  1.00  0.00     0.031 A 
ATOM     37  C   UNL A   1      41.654  26.703  27.736  1.00  0.00     0.074 A 
ATOM     38  C   UNL A   1      42.484  28.793  28.763  1.00  0.00     0.049 A 
ATOM     39  N   UNL A   1      42.122  25.591  28.200  1.00  0.00    -0.248 NA
ATOM     40  C   UNL A   1      41.192  26.612  26.341  1.00  0.00     0.031 C 
ATOM     41  C   UNL A   1      42.443  30.197  29.195  1.00  0.00     0.029 A 
ATOM     42  N   UNL A   1      43.822  28.556  28.641  1.00  0.00    -0.354 N 
ATOM     43  C   UNL A   1      42.201  24.718  27.115  1.00  0.00     0.074 A 
ATOM     44  C   UNL A   1      41.464  25.338  26.047  1.00  0.00     0.031 C 
ATOM     45  C   UNL A   1      43.669  30.749  29.073  1.00  0.00     0.029 A 
ATOM     46  C   UNL A   1      44.610  29.694  28.756  1.00  0.00     0.049 A 
ATOM     47  H   UNL A   1      44.195  27.659  28.485  1.00  0.00     0.167 HD
ATOM     48  C   UNL A   1      43.082  23.677  27.115  1.00  0.00     0.037 A 
ATOM     49  C   UNL A   1      45.953  29.775  28.627  1.00  0.00     0.037 A 
ATOM     50  C   UNL A   1      43.623  23.466  28.434  1.00  0.00     0.049 A 
ATOM     51  C   UNL A   1      46.500  28.422  28.845  1.00  0.00     0.074 A 
ATOM     52  C   UNL A   1      43.169  22.979  29.639  1.00  0.00     0.029 A 
ATOM     53  N   UNL A   1      44.782  24.152  28.683  1.00  0.00    -0.354 N 
ATOM     54  N   UNL A   1      46.469  27.807  29.993  1.00  0.00    -0.248 NA
ATOM     55  C   UNL A   1      46.799  27.580  27.694  1.00  0.00     0.031 C 
ATOM     56  C   UNL A   1      43.942  23.640  30.639  1.00  0.00     0.029 A 
ATOM     57  C   UNL A   1      44.856  24.484  30.008  1.00  0.00     0.049 A 
ATOM     58  H   UNL A   1      45.463  24.374  28.007  1.00  0.00     0.167 HD
ATOM     59  C   UNL A   1      46.314  26.474  29.666  1.00  0.00     0.074 A 
ATOM     60  C   UNL A   1      46.711  26.376  28.267  1.00  0.00     0.031 C 
ATOM     61  C   UNL A   1      45.586  25.644  30.468  1.00  0.00     0.037 A 
BRANCH  48  62
ATOM     62  C   UNL A   1      43.814  23.141  25.899  1.00  0.00     0.057 A 
ATOM     63  C   UNL A   1      43.846  21.746  25.685  1.00  0.00     0.134 A 
ATOM     64  C   UNL A   1      44.741  23.877  25.135  1.00  0.00     0.134 A 
ATOM     65  F   UNL A   1      43.018  20.926  26.350  1.00  0.00    -0.206 F 
ATOM     66  C   UNL A   1      44.788  21.131  24.849  1.00  0.00     0.040 A 
ATOM     67  C   UNL A   1      45.652  23.275  24.259  1.00  0.00     0.040 A 
ATOM     68  F   UNL A   1      44.892  25.198  25.267  1.00  0.00    -0.206 F 
ATOM     69  C   UNL A   1      45.703  21.896  24.140  1.00  0.00     0.006 A 
ENDBRANCH  48  62
BRANCH  49  70
ATOM     70  C   UNL A   1      46.789  30.908  28.193  1.00  0.00     0.057 A 
ATOM     71  C   UNL A   1      46.666  31.454  26.909  1.00  0.00     0.134 A 
ATOM     72  C   UNL A   1      47.528  31.657  29.123  1.00  0.00     0.134 A 
ATOM     73  F   UNL A   1      45.959  30.818  25.964  1.00  0.00    -0.206 F 
ATOM     74  C   UNL A   1      47.213  32.699  26.578  1.00  0.00     0.040 A 
ATOM     75  C   UNL A   1      48.082  32.900  28.805  1.00  0.00     0.040 A 
ATOM     76  F   UNL A   1      47.656  31.244  30.393  1.00  0.00    -0.206 F 
ATOM     77  C   UNL A   1      47.909  33.434  27.534  1.00  0.00     0.006 A 
ENDBRANCH  49  70
BRANCH  61  78
ATOM     78  C   UNL A   1      45.362  26.088  31.882  1.00  0.00     0.057 A 
ATOM     79  C   UNL A   1      44.200  26.727  32.336  1.00  0.00     0.134 A 
ATOM     80  C   UNL A   1      46.329  25.770  32.840  1.00  0.00     0.134 A 
ATOM     81  F   UNL A   1      43.188  26.998  31.505  1.00  0.00    -0.206 F 
ATOM     82  C   UNL A   1      44.027  27.070  33.680  1.00  0.00     0.040 A 
ATOM     83  C   UNL A   1      46.155  26.077  34.190  1.00  0.00     0.040 A 
ATOM     84  F   UNL A   1      47.445  25.115  32.481  1.00  0.00    -0.206 F 
ATOM     85  C   UNL A   1      45.006  26.740  34.613  1.00  0.00     0.006 A 
ENDBRANCH  61  78
ENDBRANCH  35  36
ENDBRANCH  27  30
ENDBRANCH  25  26
ENDBRANCH  24  25
ENDBRANCH   1  24
TORSDOF 15
ENDMDL
MODEL 2
REMARK VINA RESULT:     -12.2      1.822      5.987
REMARK SMILES N#CCCn1cc(C(=O)NCCCNC(=O)c2ccc(-c3c4nc(c(-c5c(F)cccc5F)c5ccc([nH]5)c(-c5c(F)cccc5F)c5nc(c(-c6c(F)cccc6F)c6ccc3[nH]6)C=C5)C=C4)cc2)c(-c2cccc([N+](=O)[O-])c2)n1
REMARK SMILES IDX 11 1 10 2 8 3 9 4 7 6 5 7 6 8 81 9 71 10 4 11 3 12 2 13 1 14
REMARK SMILES IDX 72 15 73 16 80 17 74 18 76 19 75 20 77 21 78 22 79 23 12 24
REMARK SMILES IDX 13 25 14 26 15 27 16 29 17 30 18 31 70 32 19 33 69 34 20 35
REMARK SMILES IDX 21 36 22 37 63 38 23 39 68 40 62 41 64 42 24 43 67 44 61 45
REMARK SMILES IDX 60 46 25 48 51 49 34 50 50 51 35 52 38 53 49 54 65 55 36 56
REMARK SMILES IDX 37 57 48 59 66 60 39 61 26 62 27 63 32 64 28 65 29 66 31 67
REMARK SMILES IDX 33 68 30 69 52 70 53 71 58 72 54 73 55 74 57 75 59 76 56 77
REMARK SMILES IDX 40 78 41 79 46 80 42 81 43 82 45 83 47 84 44 85
REMARK H PARENT 10 5 14 28 64 47 38 58
REMARK Flexibility Score: inf
ROOT
ATOM      1  C   UNL A   1      32.401  29.005  26.516  1.00  0.00     0.118 C 
ENDROOT
BRANCH   1   2
ATOM      2  N   UNL A   1      33.036  28.814  25.224  1.00  0.00    -0.352 N 
ATOM      3  C   UNL A   1      32.519  28.663  23.959  1.00  0.00     0.255 C 
ATOM      4  O   UNL A   1      33.335  28.611  23.042  1.00  0.00    -0.269 OA
ATOM      5  H   UNL A   1      34.020  28.787  25.261  1.00  0.00     0.163 HD
BRANCH   3   6
ATOM      6  C   UNL A   1      31.080  28.616  23.730  1.00  0.00     0.085 A 
ATOM      7  N   UNL A   1      29.015  29.113  23.172  1.00  0.00    -0.270 N 
ATOM      8  C   UNL A   1      30.207  29.661  23.511  1.00  0.00     0.123 A 
ATOM      9  N   UNL A   1      28.972  27.786  23.315  1.00  0.00    -0.172 NA
ATOM     10  C   UNL A   1      30.221  27.460  23.702  1.00  0.00     0.105 A 
BRANCH   7  11
ATOM     11  C   UNL A   1      27.865  29.849  22.693  1.00  0.00     0.159 C 
BRANCH  11  12
ATOM     12  C   UNL A   1      28.215  30.825  21.597  1.00  0.00     0.144 C 
BRANCH  12  13
ATOM     13  C   UNL A   1      28.229  32.267  22.077  1.00  0.00     0.064 C 
ATOM     14  N   UNL A   1      28.241  33.463  22.475  1.00  0.00    -0.198 NA
ENDBRANCH  12  13
ENDBRANCH  11  12
ENDBRANCH   7  11
BRANCH  10  15
ATOM     15  C   UNL A   1      30.555  26.066  23.992  1.00  0.00     0.010 A 
ATOM     16  C   UNL A   1      30.916  25.192  22.954  1.00  0.00     0.011 A 
ATOM     17  C   UNL A   1      30.512  25.590  25.307  1.00  0.00     0.096 A 
ATOM     18  C   UNL A   1      31.176  23.844  23.212  1.00  0.00     0.008 A 
ATOM     19  C   UNL A   1      30.772  24.236  25.559  1.00  0.00     0.270 A 
ATOM     20  C   UNL A   1      31.095  23.357  24.515  1.00  0.00     0.085 A 
BRANCH  19  21
ATOM     21  N   UNL A   1      30.683  23.724  26.931  1.00  0.00     0.062 N 
ATOM     22  O   UNL A   1      31.727  23.677  27.598  1.00  0.00    -0.258 OA
ATOM     23  O   UNL A   1      29.571  23.365  27.345  1.00  0.00    -0.258 OA
ENDBRANCH  19  21
ENDBRANCH  10  15
ENDBRANCH   3   6
ENDBRANCH   1   2
BRANCH   1  24
ATOM     24  C   UNL A   1      32.516  30.452  27.012  1.00  0.00     0.042 C 
BRANCH  24  25
ATOM     25  C   UNL A   1      33.950  30.835  27.349  1.00  0.00     0.118 C 
BRANCH  25  26
ATOM     26  N   UNL A   1      34.018  31.730  28.507  1.00  0.00    -0.352 N 
ATOM     27  C   UNL A   1      34.951  31.775  29.523  1.00  0.00     0.251 C 
ATOM     28  H   UNL A   1      33.294  32.395  28.569  1.00  0.00     0.163 HD
ATOM     29  O   UNL A   1      34.708  32.364  30.568  1.00  0.00    -0.269 OA
BRANCH  27  30
ATOM     30  C   UNL A   1      36.237  31.089  29.335  1.00  0.00     0.039 A 
ATOM     31  C   UNL A   1      37.408  31.811  29.093  1.00  0.00     0.014 A 
ATOM     32  C   UNL A   1      36.264  29.707  29.474  1.00  0.00     0.014 A 
ATOM     33  C   UNL A   1      38.626  31.135  29.098  1.00  0.00     0.010 A 
ATOM     34  C   UNL A   1      37.469  29.075  29.646  1.00  0.00     0.010 A 
ATOM     35  C   UNL A   1      38.653  29.767  29.407  1.00  0.00    -0.014 A 
BRANCH  35  36
ATOM     36  C   UNL A   1      39.921  29.060  29.581  1.00  0.00     0.031 A 
ATOM     37  C   UNL A   1      40.396  28.934  30.987  1.00  0.00     0.074 A 
ATOM     38  C   UNL A   1      40.510  28.366  28.583  1.00  0.00     0.049 A 
ATOM     39  N   UNL A   1      41.452  29.457  31.519  1.00  0.00    -0.248 NA
ATOM     40  C   UNL A   1      39.540  28.222  31.949  1.00  0.00     0.031 C 
ATOM     41  C   UNL A   1      40.004  28.134  27.222  1.00  0.00     0.029 A 
ATOM     42  N   UNL A   1      41.653  27.624  28.608  1.00  0.00    -0.354 N 
ATOM     43  C   UNL A   1      41.503  28.981  32.829  1.00  0.00     0.074 A 
ATOM     44  C   UNL A   1      40.226  28.372  33.085  1.00  0.00     0.031 C 
ATOM     45  C   UNL A   1      40.701  27.135  26.641  1.00  0.00     0.029 A 
ATOM     46  C   UNL A   1      41.820  26.805  27.499  1.00  0.00     0.049 A 
ATOM     47  H   UNL A   1      42.302  27.664  29.347  1.00  0.00     0.167 HD
ATOM     48  C   UNL A   1      42.686  28.908  33.503  1.00  0.00     0.037 A 
ATOM     49  C   UNL A   1      42.823  25.926  27.274  1.00  0.00     0.037 A 
ATOM     50  C   UNL A   1      43.714  29.643  32.811  1.00  0.00     0.049 A 
ATOM     51  C   UNL A   1      43.958  26.323  28.128  1.00  0.00     0.074 A 
ATOM     52  C   UNL A   1      44.019  30.965  32.578  1.00  0.00     0.029 A 
ATOM     53  N   UNL A   1      44.436  28.896  31.918  1.00  0.00    -0.354 N 
ATOM     54  N   UNL A   1      44.641  27.419  27.956  1.00  0.00    -0.248 NA
ATOM     55  C   UNL A   1      44.149  25.664  29.414  1.00  0.00     0.031 C 
ATOM     56  C   UNL A   1      44.722  30.987  31.337  1.00  0.00     0.029 A 
ATOM     57  C   UNL A   1      44.843  29.678  30.872  1.00  0.00     0.049 A 
ATOM     58  H   UNL A   1      44.634  27.936  32.015  1.00  0.00     0.167 HD
ATOM     59  C   UNL A   1      44.996  27.809  29.233  1.00  0.00     0.074 A 
ATOM     60  C   UNL A   1      44.836  26.615  30.053  1.00  0.00     0.031 C 
ATOM     61  C   UNL A   1      45.083  29.131  29.555  1.00  0.00     0.037 A 
BRANCH  48  62
ATOM     62  C   UNL A   1      43.065  27.835  34.507  1.00  0.00     0.057 A 
ATOM     63  C   UNL A   1      43.257  26.513  34.051  1.00  0.00     0.134 A 
ATOM     64  C   UNL A   1      42.931  27.964  35.903  1.00  0.00     0.134 A 
ATOM     65  F   UNL A   1      43.397  26.248  32.742  1.00  0.00    -0.206 F 
ATOM     66  C   UNL A   1      43.221  25.405  34.908  1.00  0.00     0.040 A 
ATOM     67  C   UNL A   1      42.946  26.867  36.772  1.00  0.00     0.040 A 
ATOM     68  F   UNL A   1      42.674  29.134  36.495  1.00  0.00    -0.206 F 
ATOM     69  C   UNL A   1      43.055  25.579  36.274  1.00  0.00     0.006 A 
ENDBRANCH  48  62
BRANCH  49  70
ATOM     70  C   UNL A   1      42.824  24.686  26.479  1.00  0.00     0.057 A 
ATOM     71  C   UNL A   1      43.608  24.561  25.325  1.00  0.00     0.134 A 
ATOM     72  C   UNL A   1      42.270  23.501  26.989  1.00  0.00     0.134 A 
ATOM     73  F   UNL A   1      44.195  25.637  24.782  1.00  0.00    -0.206 F 
ATOM     74  C   UNL A   1      43.863  23.319  24.734  1.00  0.00     0.040 A 
ATOM     75  C   UNL A   1      42.513  22.253  26.407  1.00  0.00     0.040 A 
ATOM     76  F   UNL A   1      41.548  23.510  28.121  1.00  0.00    -0.206 F 
ATOM     77  C   UNL A   1      43.329  22.157  25.286  1.00  0.00     0.006 A 
ENDBRANCH  49  70
BRANCH  61  78
ATOM     78  C   UNL A   1      45.231  30.100  28.420  1.00  0.00     0.057 A 
ATOM     79  C   UNL A   1      44.166  30.788  27.822  1.00  0.00     0.134 A 
ATOM     80  C   UNL A   1      46.519  30.414  27.979  1.00  0.00     0.134 A 
ATOM     81  F   UNL A   1      42.907  30.611  28.236  1.00  0.00    -0.206 F 
ATOM     82  C   UNL A   1      44.374  31.719  26.802  1.00  0.00     0.040 A 
ATOM     83  C   UNL A   1      46.744  31.365  26.983  1.00  0.00     0.040 A 
ATOM     84  F   UNL A   1      47.588  29.826  28.541  1.00  0.00    -0.206 F 
ATOM     85  C   UNL A   1      45.668  32.015  26.382  1.00  0.00     0.006 A 
ENDBRANCH  61  78
ENDBRANCH  35  36
ENDBRANCH  27  30
ENDBRANCH  25  26
ENDBRANCH  24  25
ENDBRANCH   1  24
TORSDOF 15
ENDMDL
MODEL 3
REMARK VINA RESULT:     -11.8      3.929      8.413
REMARK SMILES N#CCCn1cc(C(=O)NCCCNC(=O)c2ccc(-c3c4nc(c(-c5c(F)cccc5F)c5ccc([nH]5)c(-c5c(F)cccc5F)c5nc(c(-c6c(F)cccc6F)c6ccc3[nH]6)C=C5)C=C4)cc2)c(-c2cccc([N+](=O)[O-])c2)n1
REMARK SMILES IDX 11 1 10 2 8 3 9 4 7 6 5 7 6 8 81 9 71 10 4 11 3 12 2 13 1 14
REMARK SMILES IDX 72 15 73 16 80 17 74 18 76 19 75 20 77 21 78 22 79 23 12 24
REMARK SMILES IDX 13 25 14 26 15 27 16 29 17 30 18 31 70 32 19 33 69 34 20 35
REMARK SMILES IDX 21 36 22 37 63 38 23 39 68 40 62 41 64 42 24 43 67 44 61 45
REMARK SMILES IDX 60 46 25 48 51 49 34 50 50 51 35 52 38 53 49 54 65 55 36 56
REMARK SMILES IDX 37 57 48 59 66 60 39 61 26 62 27 63 32 64 28 65 29 66 31 67
REMARK SMILES IDX 33 68 30 69 52 70 53 71 58 72 54 73 55 74 57 75 59 76 56 77
REMARK SMILES IDX 40 78 41 79 46 80 42 81 43 82 45 83 47 84 44 85
REMARK H PARENT 10 5 14 28 64 47 38 58
REMARK Flexibility Score: inf
ROOT
ATOM      1  C   UNL A   1      36.499  22.088  25.504  1.00  0.00     0.118 C 
ENDROOT
BRANCH   1   2
ATOM      2  N   UNL A   1      35.360  22.244  26.392  1.00  0.00    -0.352 N 
ATOM      3  C   UNL A   1      34.082  21.741  26.344  1.00  0.00     0.255 C 
ATOM      4  O   UNL A   1      33.365  21.987  27.311  1.00  0.00    -0.269 OA
ATOM      5  H   UNL A   1      35.536  22.818  27.173  1.00  0.00     0.163 HD
BRANCH   3   6
ATOM      6  C   UNL A   1      33.632  20.922  25.224  1.00  0.00     0.085 A 
ATOM      7  N   UNL A   1      33.120  19.234  23.915  1.00  0.00    -0.270 N 
ATOM      8  C   UNL A   1      33.900  19.595  24.964  1.00  0.00     0.123 A 
ATOM      9  N   UNL A   1      32.479  20.258  23.344  1.00  0.00    -0.172 NA
ATOM     10  C   UNL A   1      32.815  21.318  24.105  1.00  0.00     0.105 A 
BRANCH   7  11
ATOM     11  C   UNL A   1      32.957  17.884  23.423  1.00  0.00     0.159 C 
BRANCH  11  12
ATOM     12  C   UNL A   1      34.166  17.021  23.682  1.00  0.00     0.144 C 
BRANCH  12  13
ATOM     13  C   UNL A   1      33.860  15.840  24.590  1.00  0.00     0.064 C 
ATOM     14  N   UNL A   1      33.607  14.860  25.342  1.00  0.00    -0.198 NA
ENDBRANCH  12  13
ENDBRANCH  11  12
ENDBRANCH   7  11
BRANCH  10  15
ATOM     15  C   UNL A   1      32.318  22.650  23.762  1.00  0.00     0.010 A 
ATOM     16  C   UNL A   1      31.137  23.139  24.343  1.00  0.00     0.011 A 
ATOM     17  C   UNL A   1      33.013  23.447  22.846  1.00  0.00     0.096 A 
ATOM     18  C   UNL A   1      30.621  24.383  23.975  1.00  0.00     0.008 A 
ATOM     19  C   UNL A   1      32.489  24.694  22.479  1.00  0.00     0.270 A 
ATOM     20  C   UNL A   1      31.289  25.162  23.034  1.00  0.00     0.085 A 
BRANCH  19  21
ATOM     21  N   UNL A   1      33.193  25.512  21.485  1.00  0.00     0.062 N 
ATOM     22  O   UNL A   1      34.036  26.322  21.897  1.00  0.00    -0.258 OA
ATOM     23  O   UNL A   1      32.901  25.351  20.292  1.00  0.00    -0.258 OA
ENDBRANCH  19  21
ENDBRANCH  10  15
ENDBRANCH   3   6
ENDBRANCH   1   2
BRANCH   1  24
ATOM     24  C   UNL A   1      37.254  23.406  25.291  1.00  0.00     0.042 C 
BRANCH  24  25
ATOM     25  C   UNL A   1      38.220  23.710  26.428  1.00  0.00     0.118 C 
BRANCH  25  26
ATOM     26  N   UNL A   1      39.429  22.887  26.351  1.00  0.00    -0.352 N 
ATOM     27  C   UNL A   1      40.753  23.279  26.342  1.00  0.00     0.251 C 
ATOM     28  H   UNL A   1      39.277  21.916  26.297  1.00  0.00     0.163 HD
ATOM     29  O   UNL A   1      41.629  22.511  25.967  1.00  0.00    -0.269 OA
BRANCH  27  30
ATOM     30  C   UNL A   1      41.091  24.642  26.776  1.00  0.00     0.039 A 
ATOM     31  C   UNL A   1      40.762  25.749  25.991  1.00  0.00     0.014 A 
ATOM     32  C   UNL A   1      41.684  24.800  28.023  1.00  0.00     0.014 A 
ATOM     33  C   UNL A   1      40.942  27.025  26.521  1.00  0.00     0.010 A 
ATOM     34  C   UNL A   1      41.701  26.042  28.604  1.00  0.00     0.010 A 
ATOM     35  C   UNL A   1      41.384  27.165  27.844  1.00  0.00    -0.014 A 
BRANCH  35  36
ATOM     36  C   UNL A   1      41.429  28.477  28.487  1.00  0.00     0.031 A 
ATOM     37  C   UNL A   1      42.633  29.299  28.179  1.00  0.00     0.074 A 
ATOM     38  C   UNL A   1      40.366  29.013  29.124  1.00  0.00     0.049 A 
ATOM     39  N   UNL A   1      43.565  29.678  28.989  1.00  0.00    -0.248 NA
ATOM     40  C   UNL A   1      42.887  29.661  26.775  1.00  0.00     0.031 C 
ATOM     41  C   UNL A   1      39.009  28.460  29.241  1.00  0.00     0.029 A 
ATOM     42  N   UNL A   1      40.244  30.234  29.720  1.00  0.00    -0.354 N 
ATOM     43  C   UNL A   1      44.420  30.491  28.246  1.00  0.00     0.074 A 
ATOM     44  C   UNL A   1      44.053  30.306  26.868  1.00  0.00     0.031 C 
ATOM     45  C   UNL A   1      38.157  29.423  29.653  1.00  0.00     0.029 A 
ATOM     46  C   UNL A   1      38.935  30.588  30.021  1.00  0.00     0.049 A 
ATOM     47  H   UNL A   1      41.015  30.812  29.918  1.00  0.00     0.167 HD
ATOM     48  C   UNL A   1      45.191  31.439  28.852  1.00  0.00     0.037 A 
ATOM     49  C   UNL A   1      38.506  31.750  30.563  1.00  0.00     0.037 A 
ATOM     50  C   UNL A   1      45.209  31.245  30.280  1.00  0.00     0.049 A 
ATOM     51  C   UNL A   1      39.659  32.373  31.241  1.00  0.00     0.074 A 
ATOM     52  C   UNL A   1      45.760  30.345  31.164  1.00  0.00     0.029 A 
ATOM     53  N   UNL A   1      44.234  31.931  30.953  1.00  0.00    -0.354 N 
ATOM     54  N   UNL A   1      40.222  31.879  32.306  1.00  0.00    -0.248 NA
ATOM     55  C   UNL A   1      40.428  33.396  30.545  1.00  0.00     0.031 C 
ATOM     56  C   UNL A   1      44.887  30.326  32.292  1.00  0.00     0.029 A 
ATOM     57  C   UNL A   1      43.852  31.233  32.067  1.00  0.00     0.049 A 
ATOM     58  H   UNL A   1      43.862  32.800  30.678  1.00  0.00     0.167 HD
ATOM     59  C   UNL A   1      41.559  32.200  32.169  1.00  0.00     0.074 A 
ATOM     60  C   UNL A   1      41.593  33.277  31.188  1.00  0.00     0.031 C 
ATOM     61  C   UNL A   1      42.526  31.355  32.630  1.00  0.00     0.037 A 
BRANCH  48  62
ATOM     62  C   UNL A   1      45.553  32.790  28.265  1.00  0.00     0.057 A 
ATOM     63  C   UNL A   1      44.515  33.681  27.916  1.00  0.00     0.134 A 
ATOM     64  C   UNL A   1      46.815  33.119  27.734  1.00  0.00     0.134 A 
ATOM     65  F   UNL A   1      43.261  33.484  28.353  1.00  0.00    -0.206 F 
ATOM     66  C   UNL A   1      44.703  34.754  27.035  1.00  0.00     0.040 A 
ATOM     67  C   UNL A   1      47.023  34.218  26.893  1.00  0.00     0.040 A 
ATOM     68  F   UNL A   1      47.891  32.345  27.907  1.00  0.00    -0.206 F 
ATOM     69  C   UNL A   1      45.960  35.020  26.511  1.00  0.00     0.006 A 
ENDBRANCH  48  62
BRANCH  49  70
ATOM     70  C   UNL A   1      37.207  32.430  30.420  1.00  0.00     0.057 A 
ATOM     71  C   UNL A   1      36.913  33.209  29.294  1.00  0.00     0.134 A 
ATOM     72  C   UNL A   1      36.125  32.101  31.252  1.00  0.00     0.134 A 
ATOM     73  F   UNL A   1      37.880  33.551  28.432  1.00  0.00    -0.206 F 
ATOM     74  C   UNL A   1      35.606  33.606  28.989  1.00  0.00     0.040 A 
ATOM     75  C   UNL A   1      34.815  32.493  30.962  1.00  0.00     0.040 A 
ATOM     76  F   UNL A   1      36.297  31.313  32.325  1.00  0.00    -0.206 F 
ATOM     77  C   UNL A   1      34.549  33.232  29.815  1.00  0.00     0.006 A 
ENDBRANCH  49  70
BRANCH  61  78
ATOM     78  C   UNL A   1      42.111  30.341  33.653  1.00  0.00     0.057 A 
ATOM     79  C   UNL A   1      41.728  29.026  33.354  1.00  0.00     0.134 A 
ATOM     80  C   UNL A   1      42.195  30.687  35.004  1.00  0.00     0.134 A 
ATOM     81  F   UNL A   1      41.699  28.582  32.092  1.00  0.00    -0.206 F 
ATOM     82  C   UNL A   1      41.403  28.109  34.357  1.00  0.00     0.040 A 
ATOM     83  C   UNL A   1      41.905  29.772  36.017  1.00  0.00     0.040 A 
ATOM     84  F   UNL A   1      42.602  31.916  35.362  1.00  0.00    -0.206 F 
ATOM     85  C   UNL A   1      41.497  28.481  35.695  1.00  0.00     0.006 A 
ENDBRANCH  61  78
ENDBRANCH  35  36
ENDBRANCH  27  30
ENDBRANCH  25  26
ENDBRANCH  24  25
ENDBRANCH   1  24
TORSDOF 15
ENDMDL
