MODEL 1
REMARK VINA RESULT:     -12.5      0.000      0.000
REMARK SMILES N#Cc1ccc2c(c1)C=C(C(=O)NCCCNC(=O)c1ccc(-c3c4nc(c(-c5c(F)cccc5F)c5ccc([nH]5)c(-c5c(F)cccc5F)c5nc(c(-c6c(F)cccc6F)c6ccc3[nH]6)C=C5)C=C4)cc1)[C@@H](C(F)(F)F)O2
REMARK SMILES IDX 15 1 14 2 13 3 11 4 12 5 10 7 3 8 4 9 8 10 5 11 7 12 6 13
REMARK SMILES IDX 9 14 79 15 74 16 2 17 1 18 75 19 76 20 77 21 78 22 16 23
REMARK SMILES IDX 17 24 18 25 19 27 20 28 21 29 73 30 22 31 72 32 23 33 24 34
REMARK SMILES IDX 25 35 66 36 26 37 71 38 65 39 67 40 27 41 70 42 64 43 63 44
REMARK SMILES IDX 28 46 54 47 37 48 53 49 38 50 41 51 52 52 68 53 39 54 40 55
REMARK SMILES IDX 51 57 69 58 42 59 29 60 30 61 35 62 31 63 32 64 34 65 36 66
REMARK SMILES IDX 33 67 55 68 56 69 61 70 57 71 58 72 60 73 62 74 59 75 43 76
REMARK SMILES IDX 44 77 49 78 45 79 46 80 48 81 50 82 47 83
REMARK H PARENT 13 6 17 26 67 45 41 56
REMARK Flexibility Score: inf
ROOT
ATOM      1  C   UNL A   1      31.658  31.918  26.780  1.00  0.00     0.042 C 
ENDROOT
BRANCH   1   2
ATOM      2  C   UNL A   1      31.955  30.437  26.654  1.00  0.00     0.118 C 
BRANCH   2   3
ATOM      3  N   UNL A   1      32.378  30.080  25.308  1.00  0.00    -0.352 N 
ATOM      4  C   UNL A   1      32.561  28.944  24.595  1.00  0.00     0.251 C 
ATOM      5  O   UNL A   1      32.924  29.104  23.426  1.00  0.00    -0.270 OA
ATOM      6  H   UNL A   1      32.586  30.879  24.772  1.00  0.00     0.163 HD
BRANCH   4   7
ATOM      7  C   UNL A   1      32.360  27.566  25.128  1.00  0.00     0.067 C 
ATOM      8  C   UNL A   1      34.174  23.199  26.134  1.00  0.00     0.053 A 
ATOM      9  C   UNL A   1      32.980  22.855  26.779  1.00  0.00     0.023 A 
ATOM     10  C   UNL A   1      34.334  24.479  25.585  1.00  0.00     0.031 A 
ATOM     11  C   UNL A   1      31.952  23.788  26.876  1.00  0.00     0.048 A 
ATOM     12  C   UNL A   1      33.299  25.413  25.677  1.00  0.00     0.018 A 
ATOM     13  C   UNL A   1      32.114  25.053  26.321  1.00  0.00     0.128 A 
ATOM     14  C   UNL A   1      33.444  26.769  25.159  1.00  0.00     0.025 C 
ATOM     15  O   UNL A   1      31.071  25.914  26.490  1.00  0.00    -0.475 OA
ATOM     16  C   UNL A   1      31.029  27.052  25.594  1.00  0.00     0.314 C 
BRANCH   8  17
ATOM     17  C   UNL A   1      35.234  22.239  26.051  1.00  0.00     0.099 C 
ATOM     18  N   UNL A   1      36.088  21.452  25.992  1.00  0.00    -0.192 NA
ENDBRANCH   8  17
BRANCH  16  19
ATOM     19  C   UNL A   1      30.076  26.738  24.421  1.00  0.00     0.429 C 
ATOM     20  F   UNL A   1      29.039  25.975  24.851  1.00  0.00    -0.167 F 
ATOM     21  F   UNL A   1      29.529  27.850  23.876  1.00  0.00    -0.167 F 
ATOM     22  F   UNL A   1      30.686  26.072  23.418  1.00  0.00    -0.167 F 
ENDBRANCH  16  19
ENDBRANCH   4   7
ENDBRANCH   2   3
ENDBRANCH   1   2
BRANCH   1  23
ATOM     23  C   UNL A   1      32.829  32.668  27.388  1.00  0.00     0.118 C 
BRANCH  23  24
ATOM     24  N   UNL A   1      32.519  34.080  27.627  1.00  0.00    -0.352 N 
ATOM     25  C   UNL A   1      33.012  34.958  28.563  1.00  0.00     0.251 C 
ATOM     26  H   UNL A   1      31.847  34.463  27.017  1.00  0.00     0.163 HD
ATOM     27  O   UNL A   1      32.461  36.037  28.750  1.00  0.00    -0.269 OA
BRANCH  25  28
ATOM     28  C   UNL A   1      34.190  34.571  29.358  1.00  0.00     0.039 A 
ATOM     29  C   UNL A   1      35.456  34.648  28.785  1.00  0.00     0.014 A 
ATOM     30  C   UNL A   1      34.028  34.066  30.649  1.00  0.00     0.014 A 
ATOM     31  C   UNL A   1      36.505  33.969  29.376  1.00  0.00     0.010 A 
ATOM     32  C   UNL A   1      35.131  33.525  31.315  1.00  0.00     0.010 A 
ATOM     33  C   UNL A   1      36.362  33.404  30.653  1.00  0.00    -0.014 A 
BRANCH  33  34
ATOM     34  C   UNL A   1      37.519  32.690  31.247  1.00  0.00     0.031 A 
ATOM     35  C   UNL A   1      38.031  33.045  32.618  1.00  0.00     0.074 A 
ATOM     36  C   UNL A   1      38.057  31.654  30.574  1.00  0.00     0.049 A 
ATOM     37  N   UNL A   1      39.008  32.500  33.300  1.00  0.00    -0.248 NA
ATOM     38  C   UNL A   1      37.369  34.159  33.314  1.00  0.00     0.031 C 
ATOM     39  C   UNL A   1      37.633  31.198  29.246  1.00  0.00     0.029 A 
ATOM     40  N   UNL A   1      39.048  30.775  30.922  1.00  0.00    -0.354 N 
ATOM     41  C   UNL A   1      39.091  33.217  34.489  1.00  0.00     0.074 A 
ATOM     42  C   UNL A   1      38.093  34.261  34.419  1.00  0.00     0.031 C 
ATOM     43  C   UNL A   1      38.309  30.087  28.925  1.00  0.00     0.029 A 
ATOM     44  C   UNL A   1      39.278  29.809  29.974  1.00  0.00     0.049 A 
ATOM     45  H   UNL A   1      39.544  30.830  31.771  1.00  0.00     0.167 HD
ATOM     46  C   UNL A   1      39.916  33.016  35.545  1.00  0.00     0.037 A 
ATOM     47  C   UNL A   1      40.192  28.824  29.937  1.00  0.00     0.037 A 
ATOM     48  C   UNL A   1      40.909  31.972  35.607  1.00  0.00     0.049 A 
ATOM     49  C   UNL A   1      41.145  28.678  31.086  1.00  0.00     0.074 A 
ATOM     50  C   UNL A   1      41.786  31.677  36.636  1.00  0.00     0.029 A 
ATOM     51  N   UNL A   1      41.167  31.063  34.591  1.00  0.00    -0.354 N 
ATOM     52  N   UNL A   1      41.203  29.354  32.208  1.00  0.00    -0.248 NA
ATOM     53  C   UNL A   1      42.166  27.632  30.958  1.00  0.00     0.031 C 
ATOM     54  C   UNL A   1      42.621  30.636  36.215  1.00  0.00     0.029 A 
ATOM     55  C   UNL A   1      42.213  30.228  34.956  1.00  0.00     0.049 A 
ATOM     56  H   UNL A   1      40.679  31.016  33.737  1.00  0.00     0.167 HD
ATOM     57  C   UNL A   1      42.249  28.798  32.932  1.00  0.00     0.074 A 
ATOM     58  C   UNL A   1      42.775  27.711  32.132  1.00  0.00     0.031 C 
ATOM     59  C   UNL A   1      42.734  29.156  34.146  1.00  0.00     0.037 A 
BRANCH  46  60
ATOM     60  C   UNL A   1      39.806  33.970  36.702  1.00  0.00     0.057 A 
ATOM     61  C   UNL A   1      40.520  35.177  36.698  1.00  0.00     0.134 A 
ATOM     62  C   UNL A   1      39.013  33.699  37.825  1.00  0.00     0.134 A 
ATOM     63  F   UNL A   1      41.309  35.499  35.661  1.00  0.00    -0.206 F 
ATOM     64  C   UNL A   1      40.446  36.076  37.762  1.00  0.00     0.040 A 
ATOM     65  C   UNL A   1      38.903  34.607  38.881  1.00  0.00     0.040 A 
ATOM     66  F   UNL A   1      38.293  32.568  37.893  1.00  0.00    -0.206 F 
ATOM     67  C   UNL A   1      39.625  35.798  38.853  1.00  0.00     0.006 A 
ENDBRANCH  46  60
BRANCH  47  68
ATOM     68  C   UNL A   1      40.273  27.923  28.759  1.00  0.00     0.057 A 
ATOM     69  C   UNL A   1      41.024  28.269  27.629  1.00  0.00     0.134 A 
ATOM     70  C   UNL A   1      39.627  26.682  28.748  1.00  0.00     0.134 A 
ATOM     71  F   UNL A   1      41.657  29.449  27.569  1.00  0.00    -0.206 F 
ATOM     72  C   UNL A   1      41.131  27.414  26.531  1.00  0.00     0.040 A 
ATOM     73  C   UNL A   1      39.756  25.802  27.674  1.00  0.00     0.040 A 
ATOM     74  F   UNL A   1      38.903  26.288  29.807  1.00  0.00    -0.206 F 
ATOM     75  C   UNL A   1      40.507  26.170  26.559  1.00  0.00     0.006 A 
ENDBRANCH  47  68
BRANCH  59  76
ATOM     76  C   UNL A   1      43.863  28.328  34.694  1.00  0.00     0.057 A 
ATOM     77  C   UNL A   1      45.194  28.704  34.470  1.00  0.00     0.134 A 
ATOM     78  C   UNL A   1      43.640  27.173  35.458  1.00  0.00     0.134 A 
ATOM     79  F   UNL A   1      45.483  29.790  33.738  1.00  0.00    -0.206 F 
ATOM     80  C   UNL A   1      46.260  27.972  34.996  1.00  0.00     0.040 A 
ATOM     81  C   UNL A   1      44.697  26.456  36.022  1.00  0.00     0.040 A 
ATOM     82  F   UNL A   1      42.391  26.761  35.720  1.00  0.00    -0.206 F 
ATOM     83  C   UNL A   1      46.012  26.853  35.788  1.00  0.00     0.006 A 
ENDBRANCH  59  76
ENDBRANCH  33  34
ENDBRANCH  25  28
ENDBRANCH  23  24
ENDBRANCH   1  23
TORSDOF 12
ENDMDL
MODEL 2
REMARK VINA RESULT:     -12.5      2.297      7.785
REMARK SMILES N#Cc1ccc2c(c1)C=C(C(=O)NCCCNC(=O)c1ccc(-c3c4nc(c(-c5c(F)cccc5F)c5ccc([nH]5)c(-c5c(F)cccc5F)c5nc(c(-c6c(F)cccc6F)c6ccc3[nH]6)C=C5)C=C4)cc1)[C@@H](C(F)(F)F)O2
REMARK SMILES IDX 15 1 14 2 13 3 11 4 12 5 10 7 3 8 4 9 8 10 5 11 7 12 6 13
REMARK SMILES IDX 9 14 79 15 74 16 2 17 1 18 75 19 76 20 77 21 78 22 16 23
REMARK SMILES IDX 17 24 18 25 19 27 20 28 21 29 73 30 22 31 72 32 23 33 24 34
REMARK SMILES IDX 25 35 66 36 26 37 71 38 65 39 67 40 27 41 70 42 64 43 63 44
REMARK SMILES IDX 28 46 54 47 37 48 53 49 38 50 41 51 52 52 68 53 39 54 40 55
REMARK SMILES IDX 51 57 69 58 42 59 29 60 30 61 35 62 31 63 32 64 34 65 36 66
REMARK SMILES IDX 33 67 55 68 56 69 61 70 57 71 58 72 60 73 62 74 59 75 43 76
REMARK SMILES IDX 44 77 49 78 45 79 46 80 48 81 50 82 47 83
REMARK H PARENT 13 6 17 26 67 45 41 56
REMARK Flexibility Score: inf
ROOT
ATOM      1  C   UNL A   1      37.681  22.599  25.396  1.00  0.00     0.042 C 
ENDROOT
BRANCH   1   2
ATOM      2  C   UNL A   1      36.175  22.644  25.567  1.00  0.00     0.118 C 
BRANCH   2   3
ATOM      3  N   UNL A   1      35.492  22.864  24.300  1.00  0.00    -0.352 N 
ATOM      4  C   UNL A   1      34.468  23.624  23.846  1.00  0.00     0.251 C 
ATOM      5  O   UNL A   1      34.219  23.513  22.642  1.00  0.00    -0.270 OA
ATOM      6  H   UNL A   1      35.878  22.312  23.582  1.00  0.00     0.163 HD
BRANCH   4   7
ATOM      7  C   UNL A   1      33.655  24.546  24.690  1.00  0.00     0.067 C 
ATOM      8  C   UNL A   1      33.177  28.829  26.881  1.00  0.00     0.053 A 
ATOM      9  C   UNL A   1      31.856  28.508  27.212  1.00  0.00     0.023 A 
ATOM     10  C   UNL A   1      33.953  27.931  26.136  1.00  0.00     0.031 A 
ATOM     11  C   UNL A   1      31.312  27.296  26.799  1.00  0.00     0.048 A 
ATOM     12  C   UNL A   1      33.410  26.710  25.725  1.00  0.00     0.018 A 
ATOM     13  C   UNL A   1      32.091  26.405  26.068  1.00  0.00     0.128 A 
ATOM     14  C   UNL A   1      34.170  25.770  24.910  1.00  0.00     0.025 C 
ATOM     15  O   UNL A   1      31.471  25.256  25.676  1.00  0.00    -0.475 OA
ATOM     16  C   UNL A   1      32.337  24.159  25.295  1.00  0.00     0.314 C 
BRANCH   8  17
ATOM     17  C   UNL A   1      33.725  30.085  27.298  1.00  0.00     0.099 C 
ATOM     18  N   UNL A   1      34.180  31.102  27.630  1.00  0.00    -0.192 NA
ENDBRANCH   8  17
BRANCH  16  19
ATOM     19  C   UNL A   1      32.499  23.203  26.496  1.00  0.00     0.429 C 
ATOM     20  F   UNL A   1      32.735  21.939  26.061  1.00  0.00    -0.167 F 
ATOM     21  F   UNL A   1      33.543  23.533  27.293  1.00  0.00    -0.167 F 
ATOM     22  F   UNL A   1      31.404  23.168  27.285  1.00  0.00    -0.167 F 
ENDBRANCH  16  19
ENDBRANCH   4   7
ENDBRANCH   2   3
ENDBRANCH   1   2
BRANCH   1  23
ATOM     23  C   UNL A   1      38.367  23.649  26.251  1.00  0.00     0.118 C 
BRANCH  23  24
ATOM     24  N   UNL A   1      39.825  23.611  26.111  1.00  0.00    -0.352 N 
ATOM     25  C   UNL A   1      40.782  24.524  26.485  1.00  0.00     0.251 C 
ATOM     26  H   UNL A   1      40.176  22.798  25.680  1.00  0.00     0.163 HD
ATOM     27  O   UNL A   1      41.934  24.415  26.077  1.00  0.00    -0.269 OA
BRANCH  25  28
ATOM     28  C   UNL A   1      40.400  25.650  27.354  1.00  0.00     0.039 A 
ATOM     29  C   UNL A   1      40.966  26.903  27.139  1.00  0.00     0.014 A 
ATOM     30  C   UNL A   1      39.531  25.442  28.426  1.00  0.00     0.014 A 
ATOM     31  C   UNL A   1      40.895  27.855  28.137  1.00  0.00     0.010 A 
ATOM     32  C   UNL A   1      39.329  26.469  29.352  1.00  0.00     0.010 A 
ATOM     33  C   UNL A   1      40.069  27.657  29.256  1.00  0.00    -0.014 A 
BRANCH  33  34
ATOM     34  C   UNL A   1      40.023  28.712  30.299  1.00  0.00     0.031 A 
ATOM     35  C   UNL A   1      39.003  29.817  30.240  1.00  0.00     0.074 A 
ATOM     36  C   UNL A   1      40.856  28.618  31.353  1.00  0.00     0.049 A 
ATOM     37  N   UNL A   1      38.800  30.798  31.085  1.00  0.00    -0.248 NA
ATOM     38  C   UNL A   1      38.096  29.833  29.082  1.00  0.00     0.031 C 
ATOM     39  C   UNL A   1      41.875  27.579  31.536  1.00  0.00     0.029 A 
ATOM     40  N   UNL A   1      40.960  29.382  32.486  1.00  0.00    -0.354 N 
ATOM     41  C   UNL A   1      37.763  31.555  30.551  1.00  0.00     0.074 A 
ATOM     42  C   UNL A   1      37.405  30.945  29.290  1.00  0.00     0.031 C 
ATOM     43  C   UNL A   1      42.448  27.729  32.736  1.00  0.00     0.029 A 
ATOM     44  C   UNL A   1      41.912  28.928  33.365  1.00  0.00     0.049 A 
ATOM     45  H   UNL A   1      40.404  30.178  32.652  1.00  0.00     0.167 HD
ATOM     46  C   UNL A   1      37.158  32.652  31.070  1.00  0.00     0.037 A 
ATOM     47  C   UNL A   1      42.330  29.437  34.536  1.00  0.00     0.037 A 
ATOM     48  C   UNL A   1      37.521  33.254  32.329  1.00  0.00     0.049 A 
ATOM     49  C   UNL A   1      41.697  30.698  35.044  1.00  0.00     0.074 A 
ATOM     50  C   UNL A   1      36.963  34.359  32.948  1.00  0.00     0.029 A 
ATOM     51  N   UNL A   1      38.546  32.812  33.153  1.00  0.00    -0.354 N 
ATOM     52  N   UNL A   1      40.709  31.395  34.536  1.00  0.00    -0.248 NA
ATOM     53  C   UNL A   1      42.243  31.246  36.291  1.00  0.00     0.031 C 
ATOM     54  C   UNL A   1      37.696  34.627  34.110  1.00  0.00     0.029 A 
ATOM     55  C   UNL A   1      38.658  33.642  34.258  1.00  0.00     0.049 A 
ATOM     56  H   UNL A   1      39.110  32.024  32.979  1.00  0.00     0.167 HD
ATOM     57  C   UNL A   1      40.499  32.450  35.413  1.00  0.00     0.074 A 
ATOM     58  C   UNL A   1      41.442  32.280  36.500  1.00  0.00     0.031 C 
ATOM     59  C   UNL A   1      39.609  33.469  35.328  1.00  0.00     0.037 A 
BRANCH  46  60
ATOM     60  C   UNL A   1      36.070  33.293  30.256  1.00  0.00     0.057 A 
ATOM     61  C   UNL A   1      34.725  33.145  30.625  1.00  0.00     0.134 A 
ATOM     62  C   UNL A   1      36.338  34.043  29.102  1.00  0.00     0.134 A 
ATOM     63  F   UNL A   1      34.390  32.432  31.710  1.00  0.00    -0.206 F 
ATOM     64  C   UNL A   1      33.693  33.721  29.882  1.00  0.00     0.040 A 
ATOM     65  C   UNL A   1      35.317  34.653  28.371  1.00  0.00     0.040 A 
ATOM     66  F   UNL A   1      37.602  34.236  28.696  1.00  0.00    -0.206 F 
ATOM     67  C   UNL A   1      33.989  34.488  28.757  1.00  0.00     0.006 A 
ENDBRANCH  46  60
BRANCH  47  68
ATOM     68  C   UNL A   1      43.426  28.776  35.289  1.00  0.00     0.057 A 
ATOM     69  C   UNL A   1      43.158  27.815  36.272  1.00  0.00     0.134 A 
ATOM     70  C   UNL A   1      44.769  29.066  35.022  1.00  0.00     0.134 A 
ATOM     71  F   UNL A   1      41.893  27.500  36.586  1.00  0.00    -0.206 F 
ATOM     72  C   UNL A   1      44.183  27.168  36.962  1.00  0.00     0.040 A 
ATOM     73  C   UNL A   1      45.804  28.399  35.677  1.00  0.00     0.040 A 
ATOM     74  F   UNL A   1      45.090  29.969  34.083  1.00  0.00    -0.206 F 
ATOM     75  C   UNL A   1      45.512  27.449  36.654  1.00  0.00     0.006 A 
ENDBRANCH  47  68
BRANCH  59  76
ATOM     76  C   UNL A   1      39.590  34.448  36.468  1.00  0.00     0.057 A 
ATOM     77  C   UNL A   1      38.879  34.161  37.640  1.00  0.00     0.134 A 
ATOM     78  C   UNL A   1      40.287  35.664  36.420  1.00  0.00     0.134 A 
ATOM     79  F   UNL A   1      38.179  33.022  37.753  1.00  0.00    -0.206 F 
ATOM     80  C   UNL A   1      38.873  35.038  38.726  1.00  0.00     0.040 A 
ATOM     81  C   UNL A   1      40.321  36.530  37.514  1.00  0.00     0.040 A 
ATOM     82  F   UNL A   1      40.998  35.998  35.332  1.00  0.00    -0.206 F 
ATOM     83  C   UNL A   1      39.609  36.219  38.670  1.00  0.00     0.006 A 
ENDBRANCH  59  76
ENDBRANCH  33  34
ENDBRANCH  25  28
ENDBRANCH  23  24
ENDBRANCH   1  23
TORSDOF 12
ENDMDL
MODEL 3
REMARK VINA RESULT:     -12.4      5.338     10.585
REMARK SMILES N#Cc1ccc2c(c1)C=C(C(=O)NCCCNC(=O)c1ccc(-c3c4nc(c(-c5c(F)cccc5F)c5ccc([nH]5)c(-c5c(F)cccc5F)c5nc(c(-c6c(F)cccc6F)c6ccc3[nH]6)C=C5)C=C4)cc1)[C@@H](C(F)(F)F)O2
REMARK SMILES IDX 15 1 14 2 13 3 11 4 12 5 10 7 3 8 4 9 8 10 5 11 7 12 6 13
REMARK SMILES IDX 9 14 79 15 74 16 2 17 1 18 75 19 76 20 77 21 78 22 16 23
REMARK SMILES IDX 17 24 18 25 19 27 20 28 21 29 73 30 22 31 72 32 23 33 24 34
REMARK SMILES IDX 25 35 66 36 26 37 71 38 65 39 67 40 27 41 70 42 64 43 63 44
REMARK SMILES IDX 28 46 54 47 37 48 53 49 38 50 41 51 52 52 68 53 39 54 40 55
REMARK SMILES IDX 51 57 69 58 42 59 29 60 30 61 35 62 31 63 32 64 34 65 36 66
REMARK SMILES IDX 33 67 55 68 56 69 61 70 57 71 58 72 60 73 62 74 59 75 43 76
REMARK SMILES IDX 44 77 49 78 45 79 46 80 48 81 50 82 47 83
REMARK H PARENT 13 6 17 26 67 45 41 56
REMARK Flexibility Score: inf
ROOT
ATOM      1  C   UNL A   1      38.134  19.934  25.019  1.00  0.00     0.042 C 
ENDROOT
BRANCH   1   2
ATOM      2  C   UNL A   1      37.263  21.160  24.830  1.00  0.00     0.118 C 
BRANCH   2   3
ATOM      3  N   UNL A   1      36.158  21.192  25.777  1.00  0.00    -0.352 N 
ATOM      4  C   UNL A   1      35.005  21.884  25.931  1.00  0.00     0.251 C 
ATOM      5  O   UNL A   1      34.320  21.564  26.907  1.00  0.00    -0.270 OA
ATOM      6  H   UNL A   1      36.283  20.535  26.499  1.00  0.00     0.163 HD
BRANCH   4   7
ATOM      7  C   UNL A   1      34.539  22.971  25.022  1.00  0.00     0.067 C 
ATOM      8  C   UNL A   1      33.294  27.600  24.386  1.00  0.00     0.053 A 
ATOM      9  C   UNL A   1      33.217  27.385  23.005  1.00  0.00     0.023 A 
ATOM     10  C   UNL A   1      33.677  26.556  25.239  1.00  0.00     0.031 A 
ATOM     11  C   UNL A   1      33.523  26.133  22.479  1.00  0.00     0.048 A 
ATOM     12  C   UNL A   1      33.980  25.297  24.713  1.00  0.00     0.018 A 
ATOM     13  C   UNL A   1      33.894  25.099  23.333  1.00  0.00     0.128 A 
ATOM     14  C   UNL A   1      34.426  24.199  25.563  1.00  0.00     0.025 C 
ATOM     15  O   UNL A   1      34.208  23.917  22.733  1.00  0.00    -0.475 OA
ATOM     16  C   UNL A   1      34.186  22.742  23.582  1.00  0.00     0.314 C 
BRANCH   8  17
ATOM     17  C   UNL A   1      32.992  28.894  24.918  1.00  0.00     0.099 C 
ATOM     18  N   UNL A   1      32.739  29.940  25.359  1.00  0.00    -0.192 NA
ENDBRANCH   8  17
BRANCH  16  19
ATOM     19  C   UNL A   1      32.832  22.023  23.414  1.00  0.00     0.429 C 
ATOM     20  F   UNL A   1      32.432  22.071  22.118  1.00  0.00    -0.167 F 
ATOM     21  F   UNL A   1      32.889  20.712  23.747  1.00  0.00    -0.167 F 
ATOM     22  F   UNL A   1      31.853  22.573  24.165  1.00  0.00    -0.167 F 
ENDBRANCH  16  19
ENDBRANCH   4   7
ENDBRANCH   2   3
ENDBRANCH   1   2
BRANCH   1  23
ATOM     23  C   UNL A   1      39.411  20.271  25.766  1.00  0.00     0.118 C 
BRANCH  23  24
ATOM     24  N   UNL A   1      40.317  19.124  25.860  1.00  0.00    -0.352 N 
ATOM     25  C   UNL A   1      41.680  19.073  26.035  1.00  0.00     0.251 C 
ATOM     26  H   UNL A   1      39.879  18.245  25.787  1.00  0.00     0.163 HD
ATOM     27  O   UNL A   1      42.288  18.023  25.860  1.00  0.00    -0.269 OA
BRANCH  25  28
ATOM     28  C   UNL A   1      42.402  20.303  26.405  1.00  0.00     0.039 A 
ATOM     29  C   UNL A   1      42.354  20.755  27.720  1.00  0.00     0.014 A 
ATOM     30  C   UNL A   1      43.068  21.044  25.427  1.00  0.00     0.014 A 
ATOM     31  C   UNL A   1      42.715  22.058  27.998  1.00  0.00     0.010 A 
ATOM     32  C   UNL A   1      43.582  22.301  25.754  1.00  0.00     0.010 A 
ATOM     33  C   UNL A   1      43.342  22.850  27.023  1.00  0.00    -0.014 A 
BRANCH  33  34
ATOM     34  C   UNL A   1      43.717  24.243  27.372  1.00  0.00     0.031 A 
ATOM     35  C   UNL A   1      45.132  24.730  27.214  1.00  0.00     0.074 A 
ATOM     36  C   UNL A   1      42.748  25.098  27.753  1.00  0.00     0.049 A 
ATOM     37  N   UNL A   1      45.624  25.923  27.440  1.00  0.00    -0.248 NA
ATOM     38  C   UNL A   1      46.131  23.753  26.752  1.00  0.00     0.031 C 
ATOM     39  C   UNL A   1      41.333  24.752  27.922  1.00  0.00     0.029 A 
ATOM     40  N   UNL A   1      42.793  26.438  28.035  1.00  0.00    -0.354 N 
ATOM     41  C   UNL A   1      46.985  25.834  27.169  1.00  0.00     0.074 A 
ATOM     42  C   UNL A   1      47.250  24.461  26.802  1.00  0.00     0.031 C 
ATOM     43  C   UNL A   1      40.638  25.860  28.208  1.00  0.00     0.029 A 
ATOM     44  C   UNL A   1      41.566  26.974  28.340  1.00  0.00     0.049 A 
ATOM     45  H   UNL A   1      43.625  26.965  28.019  1.00  0.00     0.167 HD
ATOM     46  C   UNL A   1      47.925  26.810  27.212  1.00  0.00     0.037 A 
ATOM     47  C   UNL A   1      41.227  28.219  28.716  1.00  0.00     0.037 A 
ATOM     48  C   UNL A   1      47.653  28.177  27.580  1.00  0.00     0.049 A 
ATOM     49  C   UNL A   1      42.304  29.257  28.834  1.00  0.00     0.074 A 
ATOM     50  C   UNL A   1      48.532  29.244  27.643  1.00  0.00     0.029 A 
ATOM     51  N   UNL A   1      46.410  28.663  27.960  1.00  0.00    -0.354 N 
ATOM     52  N   UNL A   1      43.583  29.161  28.562  1.00  0.00    -0.248 NA
ATOM     53  C   UNL A   1      41.887  30.578  29.316  1.00  0.00     0.031 C 
ATOM     54  C   UNL A   1      47.837  30.356  28.130  1.00  0.00     0.029 A 
ATOM     55  C   UNL A   1      46.507  30.006  28.293  1.00  0.00     0.049 A 
ATOM     56  H   UNL A   1      45.581  28.133  27.989  1.00  0.00     0.167 HD
ATOM     57  C   UNL A   1      44.119  30.416  28.816  1.00  0.00     0.074 A 
ATOM     58  C   UNL A   1      43.018  31.261  29.234  1.00  0.00     0.031 C 
ATOM     59  C   UNL A   1      45.405  30.833  28.717  1.00  0.00     0.037 A 
BRANCH  46  60
ATOM     60  C   UNL A   1      49.342  26.422  26.894  1.00  0.00     0.057 A 
ATOM     61  C   UNL A   1      49.826  26.515  25.581  1.00  0.00     0.134 A 
ATOM     62  C   UNL A   1      50.227  25.943  27.870  1.00  0.00     0.134 A 
ATOM     63  F   UNL A   1      49.034  26.955  24.591  1.00  0.00    -0.206 F 
ATOM     64  C   UNL A   1      51.134  26.152  25.254  1.00  0.00     0.040 A 
ATOM     65  C   UNL A   1      51.547  25.610  27.562  1.00  0.00     0.040 A 
ATOM     66  F   UNL A   1      49.835  25.837  29.149  1.00  0.00    -0.206 F 
ATOM     67  C   UNL A   1      52.003  25.709  26.249  1.00  0.00     0.006 A 
ENDBRANCH  46  60
BRANCH  47  68
ATOM     68  C   UNL A   1      39.816  28.543  29.042  1.00  0.00     0.057 A 
ATOM     69  C   UNL A   1      39.299  28.332  30.326  1.00  0.00     0.134 A 
ATOM     70  C   UNL A   1      38.959  29.101  28.087  1.00  0.00     0.134 A 
ATOM     71  F   UNL A   1      40.063  27.788  31.285  1.00  0.00    -0.206 F 
ATOM     72  C   UNL A   1      37.982  28.663  30.649  1.00  0.00     0.040 A 
ATOM     73  C   UNL A   1      37.653  29.472  28.406  1.00  0.00     0.040 A 
ATOM     74  F   UNL A   1      39.400  29.339  26.842  1.00  0.00    -0.206 F 
ATOM     75  C   UNL A   1      37.160  29.249  29.690  1.00  0.00     0.006 A 
ENDBRANCH  47  68
BRANCH  59  76
ATOM     76  C   UNL A   1      45.673  32.280  29.025  1.00  0.00     0.057 A 
ATOM     77  C   UNL A   1      45.560  33.252  28.023  1.00  0.00     0.134 A 
ATOM     78  C   UNL A   1      46.024  32.718  30.310  1.00  0.00     0.134 A 
ATOM     79  F   UNL A   1      45.240  32.905  26.768  1.00  0.00    -0.206 F 
ATOM     80  C   UNL A   1      45.771  34.606  28.290  1.00  0.00     0.040 A 
ATOM     81  C   UNL A   1      46.198  34.073  30.598  1.00  0.00     0.040 A 
ATOM     82  F   UNL A   1      46.140  31.842  31.320  1.00  0.00    -0.206 F 
ATOM     83  C   UNL A   1      46.075  35.021  29.584  1.00  0.00     0.006 A 
ENDBRANCH  59  76
ENDBRANCH  33  34
ENDBRANCH  25  28
ENDBRANCH  23  24
ENDBRANCH   1  23
TORSDOF 12
ENDMDL
