MODEL 1
REMARK VINA RESULT:     -11.2      0.000      0.000
REMARK SMILES Cc1nc(C[NH2+][C@@H](C(=O)NCCCNC(=O)c2ccc(-c3c4nc(c(-c5c(F)cccc5F)c5ccc([nH]5)c(-c5c(F)cccc5F)c5nc(c(-c6c(F)cccc6F)c6ccc3[nH]6)C=C5)C=C4)cc2)c2ccccc2)sc1C
REMARK SMILES IDX 11 1 10 2 8 3 9 4 7 6 6 7 5 10 4 11 1 12 2 13 3 14 78 15
REMARK SMILES IDX 77 16 79 17 71 18 72 19 76 20 73 21 75 22 74 23 12 24 13 25
REMARK SMILES IDX 14 26 15 27 16 29 17 30 18 31 70 32 19 33 69 34 20 35 21 36
REMARK SMILES IDX 22 37 63 38 23 39 68 40 62 41 64 42 24 43 67 44 61 45 60 46
REMARK SMILES IDX 25 48 51 49 34 50 50 51 35 52 38 53 49 54 65 55 36 56 37 57
REMARK SMILES IDX 48 59 66 60 39 61 26 62 27 63 32 64 28 65 29 66 31 67 33 68
REMARK SMILES IDX 30 69 52 70 53 71 58 72 54 73 55 74 57 75 59 76 56 77 40 78
REMARK SMILES IDX 41 79 46 80 42 81 43 82 45 83 47 84 44 85
REMARK H PARENT 10 5 6 8 6 9 14 28 64 47 38 58
REMARK Flexibility Score: inf
ROOT
ATOM      1  C   UNL A   1      37.244  20.743  24.604  1.00  0.00     0.118 C 
ENDROOT
BRANCH   1   2
ATOM      2  N   UNL A   1      36.303  20.951  25.698  1.00  0.00    -0.351 N 
ATOM      3  C   UNL A   1      34.939  20.902  25.788  1.00  0.00     0.283 C 
ATOM      4  O   UNL A   1      34.469  21.370  26.832  1.00  0.00    -0.268 OA
ATOM      5  H   UNL A   1      36.741  21.174  26.551  1.00  0.00     0.163 HD
BRANCH   3   6
ATOM      6  C   UNL A   1      34.035  20.343  24.634  1.00  0.00     0.304 C 
BRANCH   6   7
ATOM      7  N   UNL A   1      32.707  21.020  24.600  1.00  0.00    -0.326 N 
ATOM      8  H   UNL A   1      31.972  20.313  24.584  1.00  0.00     0.347 HD
ATOM      9  H   UNL A   1      32.622  21.608  25.429  1.00  0.00     0.347 HD
BRANCH   7  10
ATOM     10  C   UNL A   1      32.581  21.864  23.419  1.00  0.00     0.330 C 
BRANCH  10  11
ATOM     11  C   UNL A   1      33.090  23.273  23.533  1.00  0.00     0.148 A 
ATOM     12  C   UNL A   1      33.866  26.119  25.586  1.00  0.00     0.068 C 
ATOM     13  C   UNL A   1      33.550  25.252  24.421  1.00  0.00     0.052 A 
ATOM     14  N   UNL A   1      33.388  23.893  24.654  1.00  0.00    -0.240 NA
ATOM     15  C   UNL A   1      33.346  25.648  23.109  1.00  0.00     0.025 A 
ATOM     16  S   UNL A   1      33.078  24.273  22.128  1.00  0.00    -0.118 S 
ATOM     17  C   UNL A   1      33.331  27.011  22.513  1.00  0.00     0.058 C 
ENDBRANCH  10  11
ENDBRANCH   7  10
ENDBRANCH   6   7
BRANCH   6  18
ATOM     18  C   UNL A   1      33.819  18.832  24.784  1.00  0.00     0.019 A 
ATOM     19  C   UNL A   1      32.673  18.318  25.423  1.00  0.00     0.010 A 
ATOM     20  C   UNL A   1      34.753  17.918  24.271  1.00  0.00     0.010 A 
ATOM     21  C   UNL A   1      32.475  16.943  25.558  1.00  0.00     0.001 A 
ATOM     22  C   UNL A   1      34.551  16.539  24.405  1.00  0.00     0.001 A 
ATOM     23  C   UNL A   1      33.414  16.053  25.049  1.00  0.00     0.000 A 
ENDBRANCH   6  18
ENDBRANCH   3   6
ENDBRANCH   1   2
BRANCH   1  24
ATOM     24  C   UNL A   1      38.226  19.588  24.877  1.00  0.00     0.042 C 
BRANCH  24  25
ATOM     25  C   UNL A   1      39.155  19.788  26.075  1.00  0.00     0.118 C 
BRANCH  25  26
ATOM     26  N   UNL A   1      40.417  19.093  25.906  1.00  0.00    -0.352 N 
ATOM     27  C   UNL A   1      41.706  19.567  25.964  1.00  0.00     0.251 C 
ATOM     28  H   UNL A   1      40.338  18.129  25.720  1.00  0.00     0.163 HD
ATOM     29  O   UNL A   1      42.619  18.847  25.569  1.00  0.00    -0.269 OA
BRANCH  27  30
ATOM     30  C   UNL A   1      42.023  20.926  26.477  1.00  0.00     0.039 A 
ATOM     31  C   UNL A   1      41.920  21.154  27.855  1.00  0.00     0.014 A 
ATOM     32  C   UNL A   1      42.331  21.993  25.630  1.00  0.00     0.014 A 
ATOM     33  C   UNL A   1      42.159  22.428  28.381  1.00  0.00     0.010 A 
ATOM     34  C   UNL A   1      42.636  23.251  26.162  1.00  0.00     0.010 A 
ATOM     35  C   UNL A   1      42.541  23.487  27.541  1.00  0.00    -0.014 A 
BRANCH  35  36
ATOM     36  C   UNL A   1      42.815  24.842  28.097  1.00  0.00     0.031 A 
ATOM     37  C   UNL A   1      44.212  25.240  28.495  1.00  0.00     0.074 A 
ATOM     38  C   UNL A   1      41.802  25.712  28.276  1.00  0.00     0.049 A 
ATOM     39  N   UNL A   1      44.635  26.362  29.023  1.00  0.00    -0.248 NA
ATOM     40  C   UNL A   1      45.270  24.237  28.294  1.00  0.00     0.031 C 
ATOM     41  C   UNL A   1      40.395  25.448  27.971  1.00  0.00     0.029 A 
ATOM     42  N   UNL A   1      41.801  26.997  28.761  1.00  0.00    -0.354 N 
ATOM     43  C   UNL A   1      45.998  26.194  29.233  1.00  0.00     0.074 A 
ATOM     44  C   UNL A   1      46.325  24.848  28.814  1.00  0.00     0.031 C 
ATOM     45  C   UNL A   1      39.671  26.543  28.253  1.00  0.00     0.029 A 
ATOM     46  C   UNL A   1      40.555  27.576  28.785  1.00  0.00     0.049 A 
ATOM     47  H   UNL A   1      42.616  27.460  29.063  1.00  0.00     0.167 HD
ATOM     48  C   UNL A   1      46.902  27.083  29.711  1.00  0.00     0.037 A 
ATOM     49  C   UNL A   1      40.166  28.801  29.190  1.00  0.00     0.037 A 
ATOM     50  C   UNL A   1      46.592  28.436  30.094  1.00  0.00     0.049 A 
ATOM     51  C   UNL A   1      41.189  29.776  29.702  1.00  0.00     0.074 A 
ATOM     52  C   UNL A   1      47.456  29.429  30.527  1.00  0.00     0.029 A 
ATOM     53  N   UNL A   1      45.321  28.988  30.086  1.00  0.00    -0.354 N 
ATOM     54  N   UNL A   1      42.483  29.620  29.837  1.00  0.00    -0.248 NA
ATOM     55  C   UNL A   1      40.697  31.099  30.112  1.00  0.00     0.031 C 
ATOM     56  C   UNL A   1      46.701  30.573  30.812  1.00  0.00     0.029 A 
ATOM     57  C   UNL A   1      45.374  30.302  30.523  1.00  0.00     0.049 A 
ATOM     58  H   UNL A   1      44.502  28.516  29.811  1.00  0.00     0.167 HD
ATOM     59  C   UNL A   1      42.962  30.829  30.324  1.00  0.00     0.074 A 
ATOM     60  C   UNL A   1      41.823  31.713  30.449  1.00  0.00     0.031 C 
ATOM     61  C   UNL A   1      44.235  31.174  30.638  1.00  0.00     0.037 A 
BRANCH  48  62
ATOM     62  C   UNL A   1      48.323  26.622  29.842  1.00  0.00     0.057 A 
ATOM     63  C   UNL A   1      49.262  26.829  28.824  1.00  0.00     0.134 A 
ATOM     64  C   UNL A   1      48.769  26.000  31.015  1.00  0.00     0.134 A 
ATOM     65  F   UNL A   1      48.897  27.410  27.672  1.00  0.00    -0.206 F 
ATOM     66  C   UNL A   1      50.588  26.412  28.957  1.00  0.00     0.040 A 
ATOM     67  C   UNL A   1      50.098  25.599  31.170  1.00  0.00     0.040 A 
ATOM     68  F   UNL A   1      47.923  25.779  32.033  1.00  0.00    -0.206 F 
ATOM     69  C   UNL A   1      51.010  25.801  30.136  1.00  0.00     0.006 A 
ENDBRANCH  48  62
BRANCH  49  70
ATOM     70  C   UNL A   1      38.736  29.188  29.098  1.00  0.00     0.057 A 
ATOM     71  C   UNL A   1      37.895  29.095  30.212  1.00  0.00     0.134 A 
ATOM     72  C   UNL A   1      38.179  29.654  27.902  1.00  0.00     0.134 A 
ATOM     73  F   UNL A   1      38.369  28.636  31.380  1.00  0.00    -0.206 F 
ATOM     74  C   UNL A   1      36.544  29.439  30.138  1.00  0.00     0.040 A 
ATOM     75  C   UNL A   1      36.834  30.020  27.819  1.00  0.00     0.040 A 
ATOM     76  F   UNL A   1      38.936  29.773  26.802  1.00  0.00    -0.206 F 
ATOM     77  C   UNL A   1      36.012  29.907  28.938  1.00  0.00     0.006 A 
ENDBRANCH  49  70
BRANCH  61  78
ATOM     78  C   UNL A   1      44.467  32.574  31.121  1.00  0.00     0.057 A 
ATOM     79  C   UNL A   1      44.477  32.890  32.485  1.00  0.00     0.134 A 
ATOM     80  C   UNL A   1      44.725  33.609  30.213  1.00  0.00     0.134 A 
ATOM     81  F   UNL A   1      44.224  31.945  33.403  1.00  0.00    -0.206 F 
ATOM     82  C   UNL A   1      44.717  34.192  32.929  1.00  0.00     0.040 A 
ATOM     83  C   UNL A   1      44.987  34.910  30.646  1.00  0.00     0.040 A 
ATOM     84  F   UNL A   1      44.737  33.371  28.894  1.00  0.00    -0.206 F 
ATOM     85  C   UNL A   1      44.979  35.205  32.008  1.00  0.00     0.006 A 
ENDBRANCH  61  78
ENDBRANCH  35  36
ENDBRANCH  27  30
ENDBRANCH  25  26
ENDBRANCH  24  25
ENDBRANCH   1  24
TORSDOF 14
ENDMDL
MODEL 2
REMARK VINA RESULT:     -11.2      0.719      6.336
REMARK SMILES Cc1nc(C[NH2+][C@@H](C(=O)NCCCNC(=O)c2ccc(-c3c4nc(c(-c5c(F)cccc5F)c5ccc([nH]5)c(-c5c(F)cccc5F)c5nc(c(-c6c(F)cccc6F)c6ccc3[nH]6)C=C5)C=C4)cc2)c2ccccc2)sc1C
REMARK SMILES IDX 11 1 10 2 8 3 9 4 7 6 6 7 5 10 4 11 1 12 2 13 3 14 78 15
REMARK SMILES IDX 77 16 79 17 71 18 72 19 76 20 73 21 75 22 74 23 12 24 13 25
REMARK SMILES IDX 14 26 15 27 16 29 17 30 18 31 70 32 19 33 69 34 20 35 21 36
REMARK SMILES IDX 22 37 63 38 23 39 68 40 62 41 64 42 24 43 67 44 61 45 60 46
REMARK SMILES IDX 25 48 51 49 34 50 50 51 35 52 38 53 49 54 65 55 36 56 37 57
REMARK SMILES IDX 48 59 66 60 39 61 26 62 27 63 32 64 28 65 29 66 31 67 33 68
REMARK SMILES IDX 30 69 52 70 53 71 58 72 54 73 55 74 57 75 59 76 56 77 40 78
REMARK SMILES IDX 41 79 46 80 42 81 43 82 45 83 47 84 44 85
REMARK H PARENT 10 5 6 8 6 9 14 28 64 47 38 58
REMARK Flexibility Score: inf
ROOT
ATOM      1  C   UNL A   1      36.953  20.945  24.606  1.00  0.00     0.118 C 
ENDROOT
BRANCH   1   2
ATOM      2  N   UNL A   1      35.951  21.029  25.662  1.00  0.00    -0.351 N 
ATOM      3  C   UNL A   1      34.604  20.797  25.702  1.00  0.00     0.283 C 
ATOM      4  O   UNL A   1      34.036  21.202  26.724  1.00  0.00    -0.268 OA
ATOM      5  H   UNL A   1      36.323  21.312  26.529  1.00  0.00     0.163 HD
BRANCH   3   6
ATOM      6  C   UNL A   1      33.828  20.116  24.520  1.00  0.00     0.304 C 
BRANCH   6   7
ATOM      7  N   UNL A   1      32.460  20.688  24.360  1.00  0.00    -0.326 N 
ATOM      8  H   UNL A   1      31.812  19.939  24.116  1.00  0.00     0.347 HD
ATOM      9  H   UNL A   1      32.188  21.126  25.239  1.00  0.00     0.347 HD
BRANCH   7  10
ATOM     10  C   UNL A   1      32.436  21.699  23.310  1.00  0.00     0.330 C 
BRANCH  10  11
ATOM     11  C   UNL A   1      32.305  23.130  23.749  1.00  0.00     0.148 A 
ATOM     12  C   UNL A   1      33.495  25.869  25.748  1.00  0.00     0.068 C 
ATOM     13  C   UNL A   1      32.639  24.986  24.914  1.00  0.00     0.052 A 
ATOM     14  N   UNL A   1      33.195  23.805  24.444  1.00  0.00    -0.240 NA
ATOM     15  C   UNL A   1      31.308  25.179  24.580  1.00  0.00     0.025 A 
ATOM     16  S   UNL A   1      30.786  23.920  23.546  1.00  0.00    -0.118 S 
ATOM     17  C   UNL A   1      30.367  26.258  24.984  1.00  0.00     0.058 C 
ENDBRANCH  10  11
ENDBRANCH   7  10
ENDBRANCH   6   7
BRANCH   6  18
ATOM     18  C   UNL A   1      33.712  18.602  24.735  1.00  0.00     0.019 A 
ATOM     19  C   UNL A   1      32.598  18.041  25.391  1.00  0.00     0.010 A 
ATOM     20  C   UNL A   1      34.708  17.731  24.266  1.00  0.00     0.010 A 
ATOM     21  C   UNL A   1      32.491  16.662  25.585  1.00  0.00     0.001 A 
ATOM     22  C   UNL A   1      34.597  16.349  24.459  1.00  0.00     0.001 A 
ATOM     23  C   UNL A   1      33.491  15.816  25.119  1.00  0.00     0.000 A 
ENDBRANCH   6  18
ENDBRANCH   3   6
ENDBRANCH   1   2
BRANCH   1  24
ATOM     24  C   UNL A   1      37.979  19.823  24.849  1.00  0.00     0.042 C 
BRANCH  24  25
ATOM     25  C   UNL A   1      38.918  20.038  26.036  1.00  0.00     0.118 C 
BRANCH  25  26
ATOM     26  N   UNL A   1      40.115  19.225  25.938  1.00  0.00    -0.352 N 
ATOM     27  C   UNL A   1      41.439  19.580  26.031  1.00  0.00     0.251 C 
ATOM     28  H   UNL A   1      39.953  18.266  25.780  1.00  0.00     0.163 HD
ATOM     29  O   UNL A   1      42.295  18.766  25.694  1.00  0.00    -0.269 OA
BRANCH  27  30
ATOM     30  C   UNL A   1      41.863  20.922  26.511  1.00  0.00     0.039 A 
ATOM     31  C   UNL A   1      41.862  21.161  27.891  1.00  0.00     0.014 A 
ATOM     32  C   UNL A   1      42.175  21.967  25.638  1.00  0.00     0.014 A 
ATOM     33  C   UNL A   1      42.205  22.422  28.390  1.00  0.00     0.010 A 
ATOM     34  C   UNL A   1      42.583  23.207  26.139  1.00  0.00     0.010 A 
ATOM     35  C   UNL A   1      42.590  23.454  27.520  1.00  0.00    -0.014 A 
BRANCH  35  36
ATOM     36  C   UNL A   1      42.973  24.794  28.046  1.00  0.00     0.031 A 
ATOM     37  C   UNL A   1      41.925  25.842  28.314  1.00  0.00     0.074 A 
ATOM     38  C   UNL A   1      44.271  25.088  28.255  1.00  0.00     0.049 A 
ATOM     39  N   UNL A   1      42.073  27.072  28.742  1.00  0.00    -0.248 NA
ATOM     40  C   UNL A   1      40.527  25.467  28.046  1.00  0.00     0.031 C 
ATOM     41  C   UNL A   1      45.395  24.184  28.002  1.00  0.00     0.029 A 
ATOM     42  N   UNL A   1      44.866  26.232  28.727  1.00  0.00    -0.354 N 
ATOM     43  C   UNL A   1      40.796  27.619  28.776  1.00  0.00     0.074 A 
ATOM     44  C   UNL A   1      39.890  26.603  28.287  1.00  0.00     0.031 C 
ATOM     45  C   UNL A   1      46.539  24.799  28.344  1.00  0.00     0.029 A 
ATOM     46  C   UNL A   1      46.235  26.148  28.812  1.00  0.00     0.049 A 
ATOM     47  H   UNL A   1      44.359  27.037  28.981  1.00  0.00     0.167 HD
ATOM     48  C   UNL A   1      40.408  28.848  29.196  1.00  0.00     0.037 A 
ATOM     49  C   UNL A   1      47.144  27.054  29.220  1.00  0.00     0.037 A 
ATOM     50  C   UNL A   1      41.299  29.851  29.720  1.00  0.00     0.049 A 
ATOM     51  C   UNL A   1      46.688  28.406  29.695  1.00  0.00     0.074 A 
ATOM     52  C   UNL A   1      40.985  31.100  30.230  1.00  0.00     0.029 A 
ATOM     53  N   UNL A   1      42.675  29.719  29.805  1.00  0.00    -0.354 N 
ATOM     54  N   UNL A   1      45.472  28.884  29.778  1.00  0.00    -0.248 NA
ATOM     55  C   UNL A   1      47.733  29.339  30.141  1.00  0.00     0.031 C 
ATOM     56  C   UNL A   1      42.178  31.737  30.594  1.00  0.00     0.029 A 
ATOM     57  C   UNL A   1      43.228  30.869  30.343  1.00  0.00     0.049 A 
ATOM     58  H   UNL A   1      43.184  28.924  29.524  1.00  0.00     0.167 HD
ATOM     59  C   UNL A   1      45.601  30.163  30.304  1.00  0.00     0.074 A 
ATOM     60  C   UNL A   1      47.013  30.382  30.534  1.00  0.00     0.031 C 
ATOM     61  C   UNL A   1      44.634  31.073  30.573  1.00  0.00     0.037 A 
BRANCH  48  62
ATOM     62  C   UNL A   1      38.947  29.178  29.111  1.00  0.00     0.057 A 
ATOM     63  C   UNL A   1      38.348  29.567  27.907  1.00  0.00     0.134 A 
ATOM     64  C   UNL A   1      38.121  29.067  30.237  1.00  0.00     0.134 A 
ATOM     65  F   UNL A   1      39.086  29.701  26.794  1.00  0.00    -0.206 F 
ATOM     66  C   UNL A   1      36.985  29.857  27.829  1.00  0.00     0.040 A 
ATOM     67  C   UNL A   1      36.753  29.333  30.167  1.00  0.00     0.040 A 
ATOM     68  F   UNL A   1      38.630  28.692  31.420  1.00  0.00    -0.206 F 
ATOM     69  C   UNL A   1      36.182  29.734  28.961  1.00  0.00     0.006 A 
ENDBRANCH  48  62
BRANCH  49  70
ATOM     70  C   UNL A   1      48.586  26.701  29.226  1.00  0.00     0.057 A 
ATOM     71  C   UNL A   1      49.399  26.985  28.123  1.00  0.00     0.134 A 
ATOM     72  C   UNL A   1      49.181  26.072  30.325  1.00  0.00     0.134 A 
ATOM     73  F   UNL A   1      48.879  27.569  27.034  1.00  0.00    -0.206 F 
ATOM     74  C   UNL A   1      50.752  26.643  28.106  1.00  0.00     0.040 A 
ATOM     75  C   UNL A   1      50.537  25.742  30.329  1.00  0.00     0.040 A 
ATOM     76  F   UNL A   1      48.456  25.781  31.414  1.00  0.00    -0.206 F 
ATOM     77  C   UNL A   1      51.325  26.023  29.215  1.00  0.00     0.006 A 
ENDBRANCH  49  70
BRANCH  61  78
ATOM     78  C   UNL A   1      45.067  32.378  31.172  1.00  0.00     0.057 A 
ATOM     79  C   UNL A   1      45.376  33.487  30.375  1.00  0.00     0.134 A 
ATOM     80  C   UNL A   1      45.135  32.537  32.562  1.00  0.00     0.134 A 
ATOM     81  F   UNL A   1      45.342  33.393  29.037  1.00  0.00    -0.206 F 
ATOM     82  C   UNL A   1      45.755  34.706  30.940  1.00  0.00     0.040 A 
ATOM     83  C   UNL A   1      45.493  33.757  33.139  1.00  0.00     0.040 A 
ATOM     84  F   UNL A   1      44.845  31.516  33.380  1.00  0.00    -0.206 F 
ATOM     85  C   UNL A   1      45.809  34.845  32.326  1.00  0.00     0.006 A 
ENDBRANCH  61  78
ENDBRANCH  35  36
ENDBRANCH  27  30
ENDBRANCH  25  26
ENDBRANCH  24  25
ENDBRANCH   1  24
TORSDOF 14
ENDMDL
MODEL 3
REMARK VINA RESULT:     -11.1      3.770      8.439
REMARK SMILES Cc1nc(C[NH2+][C@@H](C(=O)NCCCNC(=O)c2ccc(-c3c4nc(c(-c5c(F)cccc5F)c5ccc([nH]5)c(-c5c(F)cccc5F)c5nc(c(-c6c(F)cccc6F)c6ccc3[nH]6)C=C5)C=C4)cc2)c2ccccc2)sc1C
REMARK SMILES IDX 11 1 10 2 8 3 9 4 7 6 6 7 5 10 4 11 1 12 2 13 3 14 78 15
REMARK SMILES IDX 77 16 79 17 71 18 72 19 76 20 73 21 75 22 74 23 12 24 13 25
REMARK SMILES IDX 14 26 15 27 16 29 17 30 18 31 70 32 19 33 69 34 20 35 21 36
REMARK SMILES IDX 22 37 63 38 23 39 68 40 62 41 64 42 24 43 67 44 61 45 60 46
REMARK SMILES IDX 25 48 51 49 34 50 50 51 35 52 38 53 49 54 65 55 36 56 37 57
REMARK SMILES IDX 48 59 66 60 39 61 26 62 27 63 32 64 28 65 29 66 31 67 33 68
REMARK SMILES IDX 30 69 52 70 53 71 58 72 54 73 55 74 57 75 59 76 56 77 40 78
REMARK SMILES IDX 41 79 46 80 42 81 43 82 45 83 47 84 44 85
REMARK H PARENT 10 5 6 8 6 9 14 28 64 47 38 58
REMARK Flexibility Score: inf
ROOT
ATOM      1  C   UNL A   1      31.631  28.058  26.360  1.00  0.00     0.118 C 
ENDROOT
BRANCH   1   2
ATOM      2  N   UNL A   1      30.938  26.803  26.624  1.00  0.00    -0.351 N 
ATOM      3  C   UNL A   1      30.297  25.896  25.825  1.00  0.00     0.283 C 
ATOM      4  O   UNL A   1      29.615  25.060  26.431  1.00  0.00    -0.268 OA
ATOM      5  H   UNL A   1      30.930  26.556  27.577  1.00  0.00     0.163 HD
BRANCH   3   6
ATOM      6  C   UNL A   1      30.375  25.944  24.259  1.00  0.00     0.304 C 
BRANCH   6   7
ATOM      7  N   UNL A   1      31.782  26.089  23.784  1.00  0.00    -0.326 N 
ATOM      8  H   UNL A   1      31.804  26.743  23.002  1.00  0.00     0.347 HD
ATOM      9  H   UNL A   1      32.350  26.435  24.557  1.00  0.00     0.347 HD
BRANCH   7  10
ATOM     10  C   UNL A   1      32.321  24.807  23.349  1.00  0.00     0.330 C 
BRANCH  10  11
ATOM     11  C   UNL A   1      33.756  24.523  23.689  1.00  0.00     0.148 A 
ATOM     12  C   UNL A   1      36.789  22.713  23.021  1.00  0.00     0.068 C 
ATOM     13  C   UNL A   1      35.735  23.523  23.687  1.00  0.00     0.052 A 
ATOM     14  N   UNL A   1      34.597  23.828  22.954  1.00  0.00    -0.240 NA
ATOM     15  C   UNL A   1      35.728  23.980  24.995  1.00  0.00     0.025 A 
ATOM     16  S   UNL A   1      34.327  24.923  25.266  1.00  0.00    -0.118 S 
ATOM     17  C   UNL A   1      36.710  23.760  26.090  1.00  0.00     0.058 C 
ENDBRANCH  10  11
ENDBRANCH   7  10
ENDBRANCH   6   7
BRANCH   6  18
ATOM     18  C   UNL A   1      29.540  27.103  23.699  1.00  0.00     0.019 A 
ATOM     19  C   UNL A   1      28.136  27.115  23.819  1.00  0.00     0.010 A 
ATOM     20  C   UNL A   1      30.157  28.193  23.067  1.00  0.00     0.010 A 
ATOM     21  C   UNL A   1      27.376  28.170  23.312  1.00  0.00     0.001 A 
ATOM     22  C   UNL A   1      29.393  29.252  22.562  1.00  0.00     0.001 A 
ATOM     23  C   UNL A   1      28.004  29.239  22.683  1.00  0.00     0.000 A 
ENDBRANCH   6  18
ENDBRANCH   3   6
ENDBRANCH   1   2
BRANCH   1  24
ATOM     24  C   UNL A   1      33.087  28.049  26.861  1.00  0.00     0.042 C 
BRANCH  24  25
ATOM     25  C   UNL A   1      34.019  29.058  26.189  1.00  0.00     0.118 C 
BRANCH  25  26
ATOM     26  N   UNL A   1      33.853  30.395  26.726  1.00  0.00    -0.352 N 
ATOM     27  C   UNL A   1      34.531  31.037  27.734  1.00  0.00     0.251 C 
ATOM     28  H   UNL A   1      33.140  30.927  26.302  1.00  0.00     0.163 HD
ATOM     29  O   UNL A   1      34.077  32.089  28.176  1.00  0.00    -0.269 OA
BRANCH  27  30
ATOM     30  C   UNL A   1      35.787  30.490  28.311  1.00  0.00     0.039 A 
ATOM     31  C   UNL A   1      36.988  30.736  27.635  1.00  0.00     0.014 A 
ATOM     32  C   UNL A   1      35.797  29.673  29.445  1.00  0.00     0.014 A 
ATOM     33  C   UNL A   1      38.190  30.200  28.111  1.00  0.00     0.010 A 
ATOM     34  C   UNL A   1      37.007  29.193  29.959  1.00  0.00     0.010 A 
ATOM     35  C   UNL A   1      38.216  29.440  29.291  1.00  0.00    -0.014 A 
BRANCH  35  36
ATOM     36  C   UNL A   1      39.494  28.881  29.813  1.00  0.00     0.031 A 
ATOM     37  C   UNL A   1      40.145  29.470  31.038  1.00  0.00     0.074 A 
ATOM     38  C   UNL A   1      40.095  27.862  29.169  1.00  0.00     0.049 A 
ATOM     39  N   UNL A   1      41.271  29.136  31.618  1.00  0.00    -0.248 NA
ATOM     40  C   UNL A   1      39.450  30.595  31.683  1.00  0.00     0.031 C 
ATOM     41  C   UNL A   1      39.599  27.220  27.951  1.00  0.00     0.029 A 
ATOM     42  N   UNL A   1      41.257  27.186  29.450  1.00  0.00    -0.354 N 
ATOM     43  C   UNL A   1      41.428  30.018  32.681  1.00  0.00     0.074 A 
ATOM     44  C   UNL A   1      40.303  30.928  32.641  1.00  0.00     0.031 C 
ATOM     45  C   UNL A   1      40.437  26.230  27.603  1.00  0.00     0.029 A 
ATOM     46  C   UNL A   1      41.543  26.184  28.554  1.00  0.00     0.049 A 
ATOM     47  H   UNL A   1      41.832  27.399  30.221  1.00  0.00     0.167 HD
ATOM     48  C   UNL A   1      42.406  30.057  33.618  1.00  0.00     0.037 A 
ATOM     49  C   UNL A   1      42.579  25.325  28.503  1.00  0.00     0.037 A 
ATOM     50  C   UNL A   1      43.507  29.132  33.687  1.00  0.00     0.049 A 
ATOM     51  C   UNL A   1      43.644  25.377  29.562  1.00  0.00     0.074 A 
ATOM     52  C   UNL A   1      44.509  29.056  34.640  1.00  0.00     0.029 A 
ATOM     53  N   UNL A   1      43.750  28.122  32.771  1.00  0.00    -0.354 N 
ATOM     54  N   UNL A   1      43.744  26.178  30.593  1.00  0.00    -0.248 NA
ATOM     55  C   UNL A   1      44.737  24.400  29.453  1.00  0.00     0.031 C 
ATOM     56  C   UNL A   1      45.377  28.018  34.282  1.00  0.00     0.029 A 
ATOM     57  C   UNL A   1      44.895  27.427  33.125  1.00  0.00     0.049 A 
ATOM     58  H   UNL A   1      43.191  27.928  31.984  1.00  0.00     0.167 HD
ATOM     59  C   UNL A   1      44.893  25.789  31.268  1.00  0.00     0.074 A 
ATOM     60  C   UNL A   1      45.452  24.672  30.537  1.00  0.00     0.031 C 
ATOM     61  C   UNL A   1      45.437  26.313  32.393  1.00  0.00     0.037 A 
BRANCH  48  62
ATOM     62  C   UNL A   1      42.327  31.138  34.656  1.00  0.00     0.057 A 
ATOM     63  C   UNL A   1      42.945  32.381  34.473  1.00  0.00     0.134 A 
ATOM     64  C   UNL A   1      41.591  30.948  35.832  1.00  0.00     0.134 A 
ATOM     65  F   UNL A   1      43.673  32.623  33.373  1.00  0.00    -0.206 F 
ATOM     66  C   UNL A   1      42.855  33.389  35.434  1.00  0.00     0.040 A 
ATOM     67  C   UNL A   1      41.474  31.957  36.790  1.00  0.00     0.040 A 
ATOM     68  F   UNL A   1      40.967  29.784  36.065  1.00  0.00    -0.206 F 
ATOM     69  C   UNL A   1      42.112  33.180  36.595  1.00  0.00     0.006 A 
ENDBRANCH  48  62
BRANCH  49  70
ATOM     70  C   UNL A   1      42.645  24.313  27.418  1.00  0.00     0.057 A 
ATOM     71  C   UNL A   1      43.225  24.622  26.183  1.00  0.00     0.134 A 
ATOM     72  C   UNL A   1      42.129  23.023  27.587  1.00  0.00     0.134 A 
ATOM     73  F   UNL A   1      43.718  25.848  25.957  1.00  0.00    -0.206 F 
ATOM     74  C   UNL A   1      43.279  23.688  25.148  1.00  0.00     0.040 A 
ATOM     75  C   UNL A   1      42.194  22.073  26.567  1.00  0.00     0.040 A 
ATOM     76  F   UNL A   1      41.567  22.665  28.751  1.00  0.00    -0.206 F 
ATOM     77  C   UNL A   1      42.766  22.407  25.341  1.00  0.00     0.006 A 
ENDBRANCH  49  70
BRANCH  61  78
ATOM     78  C   UNL A   1      46.683  25.666  32.919  1.00  0.00     0.057 A 
ATOM     79  C   UNL A   1      46.634  24.635  33.866  1.00  0.00     0.134 A 
ATOM     80  C   UNL A   1      47.943  26.050  32.443  1.00  0.00     0.134 A 
ATOM     81  F   UNL A   1      45.458  24.231  34.371  1.00  0.00    -0.206 F 
ATOM     82  C   UNL A   1      47.797  24.021  34.335  1.00  0.00     0.040 A 
ATOM     83  C   UNL A   1      49.111  25.429  32.888  1.00  0.00     0.040 A 
ATOM     84  F   UNL A   1      48.057  27.025  31.531  1.00  0.00    -0.206 F 
ATOM     85  C   UNL A   1      49.039  24.414  33.841  1.00  0.00     0.006 A 
ENDBRANCH  61  78
ENDBRANCH  35  36
ENDBRANCH  27  30
ENDBRANCH  25  26
ENDBRANCH  24  25
ENDBRANCH   1  24
TORSDOF 14
ENDMDL
