MODEL 1
REMARK VINA RESULT:     -11.7      0.000      0.000
REMARK SMILES COc1ccc([C@H](C)[N@H+]2CC[C@H](C(=O)NCCCNC(=O)c3ccc(-c4c5nc(c(-c6c(F)cccc6F)c6ccc([nH]6)c(-c6c(F)cccc6F)c6nc(c(-c7c(F)cccc7F)c7ccc4[nH]7)C=C6)C=C5)cc3)[C@@H]2C)cc1
REMARK SMILES IDX 16 1 15 2 13 3 14 4 12 6 9 7 10 8 76 9 11 11 77 12 7 13 8 14
REMARK SMILES IDX 6 15 3 16 4 17 79 18 5 19 78 20 2 21 1 22 17 23 18 24 19 25
REMARK SMILES IDX 20 26 21 28 22 29 23 30 75 31 24 32 74 33 25 34 26 35 27 36
REMARK SMILES IDX 68 37 28 38 73 39 67 40 69 41 29 42 72 43 66 44 65 45 30 47
REMARK SMILES IDX 56 48 39 49 55 50 40 51 43 52 54 53 70 54 41 55 42 56 53 58
REMARK SMILES IDX 71 59 44 60 31 61 32 62 37 63 33 64 34 65 36 66 38 67 35 68
REMARK SMILES IDX 57 69 58 70 63 71 59 72 60 73 62 74 64 75 61 76 45 77 46 78
REMARK SMILES IDX 51 79 47 80 48 81 50 82 52 83 49 84
REMARK H PARENT 15 5 9 10 19 27 69 46 43 57
REMARK Flexibility Score: inf
ROOT
ATOM      1  C   UNL A   1      36.593  20.697  24.981  1.00  0.00     0.117 C 
ENDROOT
BRANCH   1   2
ATOM      2  N   UNL A   1      35.361  19.974  25.243  1.00  0.00    -0.356 N 
ATOM      3  C   UNL A   1      34.062  20.351  25.037  1.00  0.00     0.229 C 
ATOM      4  O   UNL A   1      33.195  19.566  25.409  1.00  0.00    -0.275 OA
ATOM      5  H   UNL A   1      35.479  19.077  25.629  1.00  0.00     0.163 HD
BRANCH   3   6
ATOM      6  C   UNL A   1      33.802  21.698  24.372  1.00  0.00     0.142 C 
ATOM      7  N   UNL A   1      32.320  23.536  24.923  1.00  0.00    -0.326 N 
ATOM      8  C   UNL A   1      31.528  22.447  24.359  1.00  0.00     0.264 C 
ATOM      9  C   UNL A   1      33.645  22.967  25.249  1.00  0.00     0.194 C 
ATOM     10  H   UNL A   1      31.876  23.874  25.778  1.00  0.00     0.348 HD
ATOM     11  C   UNL A   1      32.504  21.626  23.562  1.00  0.00     0.081 C 
ATOM     12  C   UNL A   1      33.747  22.825  26.765  1.00  0.00     0.076 C 
BRANCH   7  13
ATOM     13  C   UNL A   1      32.305  24.823  24.193  1.00  0.00     0.212 C 
ATOM     14  C   UNL A   1      31.154  25.027  23.188  1.00  0.00     0.081 C 
BRANCH  13  15
ATOM     15  C   UNL A   1      32.495  26.010  25.149  1.00  0.00     0.009 A 
ATOM     16  C   UNL A   1      32.697  28.303  26.796  1.00  0.00     0.118 A 
ATOM     17  C   UNL A   1      31.504  27.582  26.726  1.00  0.00     0.047 A 
ATOM     18  C   UNL A   1      33.795  27.868  26.058  1.00  0.00     0.047 A 
ATOM     19  C   UNL A   1      31.401  26.450  25.913  1.00  0.00     0.013 A 
ATOM     20  C   UNL A   1      33.693  26.735  25.239  1.00  0.00     0.013 A 
BRANCH  16  21
ATOM     21  O   UNL A   1      32.671  29.391  27.623  1.00  0.00    -0.497 OA
ATOM     22  C   UNL A   1      33.014  30.639  27.034  1.00  0.00     0.278 C 
ENDBRANCH  16  21
ENDBRANCH  13  15
ENDBRANCH   7  13
ENDBRANCH   3   6
ENDBRANCH   1   2
BRANCH   1  23
ATOM     23  C   UNL A   1      37.794  19.770  24.917  1.00  0.00     0.042 C 
BRANCH  23  24
ATOM     24  C   UNL A   1      38.997  20.263  25.708  1.00  0.00     0.118 C 
BRANCH  24  25
ATOM     25  N   UNL A   1      40.082  19.292  25.760  1.00  0.00    -0.352 N 
ATOM     26  C   UNL A   1      41.406  19.473  26.076  1.00  0.00     0.251 C 
ATOM     27  H   UNL A   1      39.828  18.367  25.535  1.00  0.00     0.163 HD
ATOM     28  O   UNL A   1      42.208  18.560  25.907  1.00  0.00    -0.269 OA
BRANCH  26  29
ATOM     29  C   UNL A   1      41.868  20.779  26.589  1.00  0.00     0.039 A 
ATOM     30  C   UNL A   1      42.326  21.736  25.682  1.00  0.00     0.014 A 
ATOM     31  C   UNL A   1      41.836  21.064  27.957  1.00  0.00     0.014 A 
ATOM     32  C   UNL A   1      42.678  23.007  26.139  1.00  0.00     0.010 A 
ATOM     33  C   UNL A   1      42.097  22.356  28.399  1.00  0.00     0.010 A 
ATOM     34  C   UNL A   1      42.525  23.341  27.495  1.00  0.00    -0.014 A 
BRANCH  34  35
ATOM     35  C   UNL A   1      42.803  24.713  27.989  1.00  0.00     0.031 A 
ATOM     36  C   UNL A   1      44.205  25.112  28.360  1.00  0.00     0.074 A 
ATOM     37  C   UNL A   1      41.784  25.577  28.166  1.00  0.00     0.049 A 
ATOM     38  N   UNL A   1      44.636  26.239  28.867  1.00  0.00    -0.248 NA
ATOM     39  C   UNL A   1      45.258  24.103  28.160  1.00  0.00     0.031 C 
ATOM     40  C   UNL A   1      40.374  25.295  27.888  1.00  0.00     0.029 A 
ATOM     41  N   UNL A   1      41.777  26.869  28.631  1.00  0.00    -0.354 N 
ATOM     42  C   UNL A   1      46.000  26.066  29.066  1.00  0.00     0.074 A 
ATOM     43  C   UNL A   1      46.319  24.712  28.671  1.00  0.00     0.031 C 
ATOM     44  C   UNL A   1      39.644  26.390  28.158  1.00  0.00     0.029 A 
ATOM     45  C   UNL A   1      40.524  27.435  28.670  1.00  0.00     0.049 A 
ATOM     46  H   UNL A   1      42.591  27.345  28.911  1.00  0.00     0.167 HD
ATOM     47  C   UNL A   1      46.910  26.963  29.516  1.00  0.00     0.037 A 
ATOM     48  C   UNL A   1      40.131  28.655  29.080  1.00  0.00     0.037 A 
ATOM     49  C   UNL A   1      46.595  28.320  29.877  1.00  0.00     0.049 A 
ATOM     50  C   UNL A   1      41.163  29.626  29.588  1.00  0.00     0.074 A 
ATOM     51  C   UNL A   1      47.459  29.328  30.269  1.00  0.00     0.029 A 
ATOM     52  N   UNL A   1      45.317  28.857  29.895  1.00  0.00    -0.354 N 
ATOM     53  N   UNL A   1      42.461  29.476  29.690  1.00  0.00    -0.248 NA
ATOM     54  C   UNL A   1      40.672  30.937  30.036  1.00  0.00     0.031 C 
ATOM     55  C   UNL A   1      46.697  30.458  30.580  1.00  0.00     0.029 A 
ATOM     56  C   UNL A   1      45.366  30.173  30.324  1.00  0.00     0.049 A 
ATOM     57  H   UNL A   1      44.497  28.375  29.641  1.00  0.00     0.167 HD
ATOM     58  C   UNL A   1      42.945  30.684  30.177  1.00  0.00     0.074 A 
ATOM     59  C   UNL A   1      41.803  31.559  30.337  1.00  0.00     0.031 C 
ATOM     60  C   UNL A   1      44.222  31.037  30.463  1.00  0.00     0.037 A 
BRANCH  47  61
ATOM     61  C   UNL A   1      48.335  26.507  29.648  1.00  0.00     0.057 A 
ATOM     62  C   UNL A   1      48.801  25.853  30.795  1.00  0.00     0.134 A 
ATOM     63  C   UNL A   1      49.238  26.680  28.591  1.00  0.00     0.134 A 
ATOM     64  F   UNL A   1      47.992  25.665  31.849  1.00  0.00    -0.206 F 
ATOM     65  C   UNL A   1      50.121  25.406  30.896  1.00  0.00     0.040 A 
ATOM     66  C   UNL A   1      50.550  26.211  28.668  1.00  0.00     0.040 A 
ATOM     67  F   UNL A   1      48.855  27.293  27.461  1.00  0.00    -0.206 F 
ATOM     68  C   UNL A   1      50.996  25.577  29.825  1.00  0.00     0.006 A 
ENDBRANCH  47  61
BRANCH  48  69
ATOM     69  C   UNL A   1      38.698  29.046  29.015  1.00  0.00     0.057 A 
ATOM     70  C   UNL A   1      38.147  29.566  27.837  1.00  0.00     0.134 A 
ATOM     71  C   UNL A   1      37.856  28.943  30.128  1.00  0.00     0.134 A 
ATOM     72  F   UNL A   1      38.908  29.706  26.741  1.00  0.00    -0.206 F 
ATOM     73  C   UNL A   1      36.822  29.998  27.776  1.00  0.00     0.040 A 
ATOM     74  C   UNL A   1      36.520  29.343  30.074  1.00  0.00     0.040 A 
ATOM     75  F   UNL A   1      38.319  28.445  31.284  1.00  0.00    -0.206 F 
ATOM     76  C   UNL A   1      36.002  29.884  28.899  1.00  0.00     0.006 A 
ENDBRANCH  48  69
BRANCH  60  77
ATOM     77  C   UNL A   1      44.458  32.443  30.933  1.00  0.00     0.057 A 
ATOM     78  C   UNL A   1      44.505  32.776  32.293  1.00  0.00     0.134 A 
ATOM     79  C   UNL A   1      44.681  33.472  30.008  1.00  0.00     0.134 A 
ATOM     80  F   UNL A   1      44.287  31.840  33.230  1.00  0.00    -0.206 F 
ATOM     81  C   UNL A   1      44.739  34.085  32.716  1.00  0.00     0.040 A 
ATOM     82  C   UNL A   1      44.947  34.779  30.419  1.00  0.00     0.040 A 
ATOM     83  F   UNL A   1      44.661  33.221  28.691  1.00  0.00    -0.206 F 
ATOM     84  C   UNL A   1      44.969  35.089  31.777  1.00  0.00     0.006 A 
ENDBRANCH  60  77
ENDBRANCH  34  35
ENDBRANCH  26  29
ENDBRANCH  24  25
ENDBRANCH  23  24
ENDBRANCH   1  23
TORSDOF 13
ENDMDL
MODEL 2
REMARK VINA RESULT:     -11.5      3.409      8.982
REMARK SMILES COc1ccc([C@H](C)[N@H+]2CC[C@H](C(=O)NCCCNC(=O)c3ccc(-c4c5nc(c(-c6c(F)cccc6F)c6ccc([nH]6)c(-c6c(F)cccc6F)c6nc(c(-c7c(F)cccc7F)c7ccc4[nH]7)C=C6)C=C5)cc3)[C@@H]2C)cc1
REMARK SMILES IDX 16 1 15 2 13 3 14 4 12 6 9 7 10 8 76 9 11 11 77 12 7 13 8 14
REMARK SMILES IDX 6 15 3 16 4 17 79 18 5 19 78 20 2 21 1 22 17 23 18 24 19 25
REMARK SMILES IDX 20 26 21 28 22 29 23 30 75 31 24 32 74 33 25 34 26 35 27 36
REMARK SMILES IDX 68 37 28 38 73 39 67 40 69 41 29 42 72 43 66 44 65 45 30 47
REMARK SMILES IDX 56 48 39 49 55 50 40 51 43 52 54 53 70 54 41 55 42 56 53 58
REMARK SMILES IDX 71 59 44 60 31 61 32 62 37 63 33 64 34 65 36 66 38 67 35 68
REMARK SMILES IDX 57 69 58 70 63 71 59 72 60 73 62 74 64 75 61 76 45 77 46 78
REMARK SMILES IDX 51 79 47 80 48 81 50 82 52 83 49 84
REMARK H PARENT 15 5 9 10 19 27 69 46 43 57
REMARK Flexibility Score: inf
ROOT
ATOM      1  C   UNL A   1      31.669  30.427  25.959  1.00  0.00     0.117 C 
ENDROOT
BRANCH   1   2
ATOM      2  N   UNL A   1      31.093  30.293  24.633  1.00  0.00    -0.356 N 
ATOM      3  C   UNL A   1      30.767  29.168  23.927  1.00  0.00     0.229 C 
ATOM      4  O   UNL A   1      30.348  29.335  22.786  1.00  0.00    -0.275 OA
ATOM      5  H   UNL A   1      30.911  31.143  24.171  1.00  0.00     0.163 HD
BRANCH   3   6
ATOM      6  C   UNL A   1      30.952  27.815  24.606  1.00  0.00     0.142 C 
ATOM      7  N   UNL A   1      31.932  25.728  23.859  1.00  0.00    -0.326 N 
ATOM      8  C   UNL A   1      30.626  25.887  23.226  1.00  0.00     0.264 C 
ATOM      9  C   UNL A   1      32.285  27.046  24.430  1.00  0.00     0.194 C 
ATOM     10  H   UNL A   1      32.623  25.467  23.155  1.00  0.00     0.348 HD
ATOM     11  C   UNL A   1      29.876  26.844  24.111  1.00  0.00     0.081 C 
ATOM     12  C   UNL A   1      33.378  27.666  23.565  1.00  0.00     0.076 C 
BRANCH   7  13
ATOM     13  C   UNL A   1      32.112  24.549  24.734  1.00  0.00     0.212 C 
ATOM     14  C   UNL A   1      31.071  23.420  24.587  1.00  0.00     0.081 C 
BRANCH  13  15
ATOM     15  C   UNL A   1      33.563  24.045  24.700  1.00  0.00     0.009 A 
ATOM     16  C   UNL A   1      36.296  23.312  24.703  1.00  0.00     0.118 A 
ATOM     17  C   UNL A   1      35.658  23.674  25.890  1.00  0.00     0.047 A 
ATOM     18  C   UNL A   1      35.565  23.297  23.518  1.00  0.00     0.047 A 
ATOM     19  C   UNL A   1      34.309  24.038  25.891  1.00  0.00     0.013 A 
ATOM     20  C   UNL A   1      34.213  23.664  23.516  1.00  0.00     0.013 A 
BRANCH  16  21
ATOM     21  O   UNL A   1      37.617  22.981  24.831  1.00  0.00    -0.497 OA
ATOM     22  C   UNL A   1      37.896  21.699  25.380  1.00  0.00     0.278 C 
ENDBRANCH  16  21
ENDBRANCH  13  15
ENDBRANCH   7  13
ENDBRANCH   3   6
ENDBRANCH   1   2
BRANCH   1  23
ATOM     23  C   UNL A   1      31.422  31.804  26.551  1.00  0.00     0.042 C 
BRANCH  23  24
ATOM     24  C   UNL A   1      32.672  32.467  27.114  1.00  0.00     0.118 C 
BRANCH  24  25
ATOM     25  N   UNL A   1      32.431  33.820  27.595  1.00  0.00    -0.352 N 
ATOM     26  C   UNL A   1      33.129  34.560  28.516  1.00  0.00     0.251 C 
ATOM     27  H   UNL A   1      31.650  34.273  27.199  1.00  0.00     0.163 HD
ATOM     28  O   UNL A   1      32.679  35.630  28.915  1.00  0.00    -0.269 OA
BRANCH  26  29
ATOM     29  C   UNL A   1      34.408  34.050  29.053  1.00  0.00     0.039 A 
ATOM     30  C   UNL A   1      34.398  33.320  30.242  1.00  0.00     0.014 A 
ATOM     31  C   UNL A   1      35.610  34.279  28.377  1.00  0.00     0.014 A 
ATOM     32  C   UNL A   1      35.583  32.752  30.712  1.00  0.00     0.010 A 
ATOM     33  C   UNL A   1      36.770  33.635  28.795  1.00  0.00     0.010 A 
ATOM     34  C   UNL A   1      36.770  32.869  29.970  1.00  0.00    -0.014 A 
BRANCH  34  35
ATOM     35  C   UNL A   1      38.020  32.195  30.402  1.00  0.00     0.031 A 
ATOM     36  C   UNL A   1      38.907  32.837  31.435  1.00  0.00     0.074 A 
ATOM     37  C   UNL A   1      38.392  31.039  29.816  1.00  0.00     0.049 A 
ATOM     38  N   UNL A   1      40.065  32.436  31.893  1.00  0.00    -0.248 NA
ATOM     39  C   UNL A   1      38.443  34.110  32.009  1.00  0.00     0.031 C 
ATOM     40  C   UNL A   1      37.644  30.340  28.769  1.00  0.00     0.029 A 
ATOM     41  N   UNL A   1      39.498  30.251  30.013  1.00  0.00    -0.354 N 
ATOM     42  C   UNL A   1      40.475  33.415  32.788  1.00  0.00     0.074 A 
ATOM     43  C   UNL A   1      39.468  34.453  32.775  1.00  0.00     0.031 C 
ATOM     44  C   UNL A   1      38.296  29.213  28.438  1.00  0.00     0.029 A 
ATOM     45  C   UNL A   1      39.529  29.132  29.214  1.00  0.00     0.049 A 
ATOM     46  H   UNL A   1      40.204  30.467  30.664  1.00  0.00     0.167 HD
ATOM     47  C   UNL A   1      41.582  33.437  33.569  1.00  0.00     0.037 A 
ATOM     48  C   UNL A   1      40.450  28.155  29.116  1.00  0.00     0.037 A 
ATOM     49  C   UNL A   1      42.565  32.388  33.605  1.00  0.00     0.049 A 
ATOM     50  C   UNL A   1      41.676  28.214  29.987  1.00  0.00     0.074 A 
ATOM     51  C   UNL A   1      43.680  32.280  34.419  1.00  0.00     0.029 A 
ATOM     52  N   UNL A   1      42.556  31.267  32.788  1.00  0.00    -0.354 N 
ATOM     53  N   UNL A   1      42.009  29.104  30.890  1.00  0.00    -0.248 NA
ATOM     54  C   UNL A   1      42.654  27.129  29.825  1.00  0.00     0.031 C 
ATOM     55  C   UNL A   1      44.376  31.124  34.055  1.00  0.00     0.029 A 
ATOM     56  C   UNL A   1      43.664  30.480  33.057  1.00  0.00     0.049 A 
ATOM     57  H   UNL A   1      41.865  31.062  32.118  1.00  0.00     0.167 HD
ATOM     58  C   UNL A   1      43.212  28.666  31.429  1.00  0.00     0.074 A 
ATOM     59  C   UNL A   1      43.544  27.426  30.760  1.00  0.00     0.031 C 
ATOM     60  C   UNL A   1      43.973  29.239  32.393  1.00  0.00     0.037 A 
BRANCH  47  61
ATOM     61  C   UNL A   1      41.793  34.635  34.450  1.00  0.00     0.057 A 
ATOM     62  C   UNL A   1      41.382  34.654  35.789  1.00  0.00     0.134 A 
ATOM     63  C   UNL A   1      42.463  35.766  33.965  1.00  0.00     0.134 A 
ATOM     64  F   UNL A   1      40.724  33.609  36.314  1.00  0.00    -0.206 F 
ATOM     65  C   UNL A   1      41.610  35.762  36.608  1.00  0.00     0.040 A 
ATOM     66  C   UNL A   1      42.724  36.866  34.782  1.00  0.00     0.040 A 
ATOM     67  F   UNL A   1      42.889  35.811  32.694  1.00  0.00    -0.206 F 
ATOM     68  C   UNL A   1      42.292  36.869  36.106  1.00  0.00     0.006 A 
ENDBRANCH  47  61
BRANCH  48  69
ATOM     69  C   UNL A   1      40.250  27.025  28.172  1.00  0.00     0.057 A 
ATOM     70  C   UNL A   1      39.492  25.906  28.539  1.00  0.00     0.134 A 
ATOM     71  C   UNL A   1      40.836  27.015  26.901  1.00  0.00     0.134 A 
ATOM     72  F   UNL A   1      38.920  25.847  29.751  1.00  0.00    -0.206 F 
ATOM     73  C   UNL A   1      39.348  24.807  27.691  1.00  0.00     0.040 A 
ATOM     74  C   UNL A   1      40.676  25.937  26.030  1.00  0.00     0.040 A 
ATOM     75  F   UNL A   1      41.568  28.060  26.484  1.00  0.00    -0.206 F 
ATOM     76  C   UNL A   1      39.940  24.823  26.428  1.00  0.00     0.006 A 
ENDBRANCH  48  69
BRANCH  60  77
ATOM     77  C   UNL A   1      45.214  28.508  32.816  1.00  0.00     0.057 A 
ATOM     78  C   UNL A   1      45.197  27.535  33.823  1.00  0.00     0.134 A 
ATOM     79  C   UNL A   1      46.436  28.756  32.177  1.00  0.00     0.134 A 
ATOM     80  F   UNL A   1      44.062  27.259  34.484  1.00  0.00    -0.206 F 
ATOM     81  C   UNL A   1      46.356  26.852  34.198  1.00  0.00     0.040 A 
ATOM     82  C   UNL A   1      47.595  28.058  32.521  1.00  0.00     0.040 A 
ATOM     83  F   UNL A   1      46.520  29.667  31.197  1.00  0.00    -0.206 F 
ATOM     84  C   UNL A   1      47.558  27.109  33.540  1.00  0.00     0.006 A 
ENDBRANCH  60  77
ENDBRANCH  34  35
ENDBRANCH  26  29
ENDBRANCH  24  25
ENDBRANCH  23  24
ENDBRANCH   1  23
TORSDOF 13
ENDMDL
MODEL 3
REMARK VINA RESULT:     -11.5      4.145      9.452
REMARK SMILES COc1ccc([C@H](C)[N@H+]2CC[C@H](C(=O)NCCCNC(=O)c3ccc(-c4c5nc(c(-c6c(F)cccc6F)c6ccc([nH]6)c(-c6c(F)cccc6F)c6nc(c(-c7c(F)cccc7F)c7ccc4[nH]7)C=C6)C=C5)cc3)[C@@H]2C)cc1
REMARK SMILES IDX 16 1 15 2 13 3 14 4 12 6 9 7 10 8 76 9 11 11 77 12 7 13 8 14
REMARK SMILES IDX 6 15 3 16 4 17 79 18 5 19 78 20 2 21 1 22 17 23 18 24 19 25
REMARK SMILES IDX 20 26 21 28 22 29 23 30 75 31 24 32 74 33 25 34 26 35 27 36
REMARK SMILES IDX 68 37 28 38 73 39 67 40 69 41 29 42 72 43 66 44 65 45 30 47
REMARK SMILES IDX 56 48 39 49 55 50 40 51 43 52 54 53 70 54 41 55 42 56 53 58
REMARK SMILES IDX 71 59 44 60 31 61 32 62 37 63 33 64 34 65 36 66 38 67 35 68
REMARK SMILES IDX 57 69 58 70 63 71 59 72 60 73 62 74 64 75 61 76 45 77 46 78
REMARK SMILES IDX 51 79 47 80 48 81 50 82 52 83 49 84
REMARK H PARENT 15 5 9 10 19 27 69 46 43 57
REMARK Flexibility Score: inf
ROOT
ATOM      1  C   UNL A   1      31.554  30.434  26.016  1.00  0.00     0.117 C 
ENDROOT
BRANCH   1   2
ATOM      2  N   UNL A   1      31.123  30.317  24.634  1.00  0.00    -0.356 N 
ATOM      3  C   UNL A   1      30.894  29.201  23.877  1.00  0.00     0.229 C 
ATOM      4  O   UNL A   1      30.595  29.384  22.701  1.00  0.00    -0.275 OA
ATOM      5  H   UNL A   1      30.975  31.173  24.170  1.00  0.00     0.163 HD
BRANCH   3   6
ATOM      6  C   UNL A   1      31.032  27.838  24.547  1.00  0.00     0.142 C 
ATOM      7  N   UNL A   1      32.153  25.793  23.884  1.00  0.00    -0.326 N 
ATOM      8  C   UNL A   1      30.930  25.935  23.099  1.00  0.00     0.264 C 
ATOM      9  C   UNL A   1      32.398  27.106  24.520  1.00  0.00     0.194 C 
ATOM     10  H   UNL A   1      32.932  25.565  23.266  1.00  0.00     0.348 HD
ATOM     11  C   UNL A   1      30.052  26.852  23.905  1.00  0.00     0.081 C 
ATOM     12  C   UNL A   1      33.570  27.773  23.808  1.00  0.00     0.076 C 
BRANCH   7  13
ATOM     13  C   UNL A   1      32.257  24.599  24.752  1.00  0.00     0.212 C 
ATOM     14  C   UNL A   1      31.191  23.505  24.543  1.00  0.00     0.081 C 
BRANCH  13  15
ATOM     15  C   UNL A   1      33.692  24.052  24.778  1.00  0.00     0.009 A 
ATOM     16  C   UNL A   1      36.256  22.854  24.764  1.00  0.00     0.118 A 
ATOM     17  C   UNL A   1      35.526  22.981  23.581  1.00  0.00     0.047 A 
ATOM     18  C   UNL A   1      35.715  23.343  25.950  1.00  0.00     0.047 A 
ATOM     19  C   UNL A   1      34.259  23.571  23.586  1.00  0.00     0.013 A 
ATOM     20  C   UNL A   1      34.443  23.931  25.958  1.00  0.00     0.013 A 
BRANCH  16  21
ATOM     21  O   UNL A   1      37.479  22.257  24.630  1.00  0.00    -0.497 OA
ATOM     22  C   UNL A   1      38.309  22.254  25.785  1.00  0.00     0.278 C 
ENDBRANCH  16  21
ENDBRANCH  13  15
ENDBRANCH   7  13
ENDBRANCH   3   6
ENDBRANCH   1   2
BRANCH   1  23
ATOM     23  C   UNL A   1      31.380  31.845  26.549  1.00  0.00     0.042 C 
BRANCH  23  24
ATOM     24  C   UNL A   1      32.665  32.469  27.073  1.00  0.00     0.118 C 
BRANCH  24  25
ATOM     25  N   UNL A   1      32.491  33.847  27.513  1.00  0.00    -0.352 N 
ATOM     26  C   UNL A   1      33.143  34.540  28.503  1.00  0.00     0.251 C 
ATOM     27  H   UNL A   1      31.802  34.358  27.029  1.00  0.00     0.163 HD
ATOM     28  O   UNL A   1      32.746  35.651  28.840  1.00  0.00    -0.269 OA
BRANCH  26  29
ATOM     29  C   UNL A   1      34.305  33.932  29.184  1.00  0.00     0.039 A 
ATOM     30  C   UNL A   1      34.081  33.024  30.220  1.00  0.00     0.014 A 
ATOM     31  C   UNL A   1      35.610  34.243  28.791  1.00  0.00     0.014 A 
ATOM     32  C   UNL A   1      35.164  32.370  30.811  1.00  0.00     0.010 A 
ATOM     33  C   UNL A   1      36.679  33.524  29.314  1.00  0.00     0.010 A 
ATOM     34  C   UNL A   1      36.468  32.583  30.333  1.00  0.00    -0.014 A 
BRANCH  34  35
ATOM     35  C   UNL A   1      37.623  31.829  30.881  1.00  0.00     0.031 A 
ATOM     36  C   UNL A   1      38.146  32.145  32.256  1.00  0.00     0.074 A 
ATOM     37  C   UNL A   1      38.243  30.908  30.117  1.00  0.00     0.049 A 
ATOM     38  N   UNL A   1      39.180  31.642  32.881  1.00  0.00    -0.248 NA
ATOM     39  C   UNL A   1      37.429  33.180  33.019  1.00  0.00     0.031 C 
ATOM     40  C   UNL A   1      37.861  30.545  28.750  1.00  0.00     0.029 A 
ATOM     41  N   UNL A   1      39.331  30.114  30.377  1.00  0.00    -0.354 N 
ATOM     42  C   UNL A   1      39.249  32.314  34.096  1.00  0.00     0.074 A 
ATOM     43  C   UNL A   1      38.185  33.292  34.102  1.00  0.00     0.031 C 
ATOM     44  C   UNL A   1      38.682  29.579  28.305  1.00  0.00     0.029 A 
ATOM     45  C   UNL A   1      39.675  29.287  29.334  1.00  0.00     0.049 A 
ATOM     46  H   UNL A   1      39.821  30.135  31.231  1.00  0.00     0.167 HD
ATOM     47  C   UNL A   1      40.109  32.117  35.123  1.00  0.00     0.037 A 
ATOM     48  C   UNL A   1      40.680  28.399  29.219  1.00  0.00     0.037 A 
ATOM     49  C   UNL A   1      41.147  31.120  35.128  1.00  0.00     0.049 A 
ATOM     50  C   UNL A   1      41.628  28.212  30.372  1.00  0.00     0.074 A 
ATOM     51  C   UNL A   1      42.018  30.790  36.152  1.00  0.00     0.029 A 
ATOM     52  N   UNL A   1      41.457  30.297  34.057  1.00  0.00    -0.354 N 
ATOM     53  N   UNL A   1      41.629  28.794  31.547  1.00  0.00    -0.248 NA
ATOM     54  C   UNL A   1      42.715  27.240  30.184  1.00  0.00     0.031 C 
ATOM     55  C   UNL A   1      42.893  29.807  35.680  1.00  0.00     0.029 A 
ATOM     56  C   UNL A   1      42.528  29.482  34.383  1.00  0.00     0.049 A 
ATOM     57  H   UNL A   1      40.985  30.292  33.192  1.00  0.00     0.167 HD
ATOM     58  C   UNL A   1      42.689  28.233  32.248  1.00  0.00     0.074 A 
ATOM     59  C   UNL A   1      43.300  27.257  31.372  1.00  0.00     0.031 C 
ATOM     60  C   UNL A   1      43.117  28.502  33.506  1.00  0.00     0.037 A 
BRANCH  47  61
ATOM     61  C   UNL A   1      39.969  32.998  36.331  1.00  0.00     0.057 A 
ATOM     62  C   UNL A   1      40.715  34.175  36.481  1.00  0.00     0.134 A 
ATOM     63  C   UNL A   1      39.039  32.692  37.332  1.00  0.00     0.134 A 
ATOM     64  F   UNL A   1      41.632  34.522  35.565  1.00  0.00    -0.206 F 
ATOM     65  C   UNL A   1      40.555  35.004  37.594  1.00  0.00     0.040 A 
ATOM     66  C   UNL A   1      38.848  33.528  38.433  1.00  0.00     0.040 A 
ATOM     67  F   UNL A   1      38.288  31.584  37.248  1.00  0.00    -0.206 F 
ATOM     68  C   UNL A   1      39.612  34.686  38.569  1.00  0.00     0.006 A 
ENDBRANCH  47  61
BRANCH  48  69
ATOM     69  C   UNL A   1      40.841  27.601  27.975  1.00  0.00     0.057 A 
ATOM     70  C   UNL A   1      40.256  26.334  27.852  1.00  0.00     0.134 A 
ATOM     71  C   UNL A   1      41.605  28.063  26.898  1.00  0.00     0.134 A 
ATOM     72  F   UNL A   1      39.526  25.828  28.858  1.00  0.00    -0.206 F 
ATOM     73  C   UNL A   1      40.450  25.544  26.719  1.00  0.00     0.040 A 
ATOM     74  C   UNL A   1      41.784  27.297  25.746  1.00  0.00     0.040 A 
ATOM     75  F   UNL A   1      42.186  29.272  26.948  1.00  0.00    -0.206 F 
ATOM     76  C   UNL A   1      41.215  26.028  25.658  1.00  0.00     0.006 A 
ENDBRANCH  48  69
BRANCH  60  77
ATOM     77  C   UNL A   1      44.270  27.696  34.028  1.00  0.00     0.057 A 
ATOM     78  C   UNL A   1      45.596  28.131  33.908  1.00  0.00     0.134 A 
ATOM     79  C   UNL A   1      44.045  26.485  34.695  1.00  0.00     0.134 A 
ATOM     80  F   UNL A   1      45.882  29.276  33.269  1.00  0.00    -0.206 F 
ATOM     81  C   UNL A   1      46.659  27.378  34.411  1.00  0.00     0.040 A 
ATOM     82  C   UNL A   1      45.097  25.738  35.229  1.00  0.00     0.040 A 
ATOM     83  F   UNL A   1      42.799  26.016  34.854  1.00  0.00    -0.206 F 
ATOM     84  C   UNL A   1      46.409  26.181  35.079  1.00  0.00     0.006 A 
ENDBRANCH  60  77
ENDBRANCH  34  35
ENDBRANCH  26  29
ENDBRANCH  24  25
ENDBRANCH  23  24
ENDBRANCH   1  23
TORSDOF 13
ENDMDL
