MODEL 1
REMARK VINA RESULT:     -12.0      0.000      0.000
REMARK SMILES COc1cccc(CC2(CO)CCN(c3nc(C)ccc3C(=O)NCCCNC(=O)c3ccc(-c4c5nc(c(-c6c(F)cccc6F)c6ccc([nH]6)c(-c6c(F)cccc6F)c6nc(c(-c7c(F)cccc7F)c7ccc4[nH]7)C=C6)C=C5)cc3)CC2)c1
REMARK SMILES IDX 25 1 24 2 22 3 23 4 21 6 15 7 16 8 17 9 20 10 18 11 19 12
REMARK SMILES IDX 14 13 9 14 12 15 86 16 13 17 85 18 8 19 7 20 3 21 4 22 87 23
REMARK SMILES IDX 5 24 6 25 2 26 1 27 10 28 11 29 26 31 27 32 28 33 29 34
REMARK SMILES IDX 30 36 31 37 32 38 84 39 33 40 83 41 34 42 35 43 36 44 77 45
REMARK SMILES IDX 37 46 82 47 76 48 78 49 38 50 81 51 75 52 74 53 39 55 65 56
REMARK SMILES IDX 48 57 64 58 49 59 52 60 63 61 79 62 50 63 51 64 62 66 80 67
REMARK SMILES IDX 53 68 40 69 41 70 46 71 42 72 43 73 45 74 47 75 44 76 66 77
REMARK SMILES IDX 67 78 72 79 68 80 69 81 71 82 73 83 70 84 54 85 55 86 60 87
REMARK SMILES IDX 56 88 57 89 59 90 61 91 58 92
REMARK H PARENT 24 5 11 30 28 35 78 54 52 65
REMARK Flexibility Score: inf
ROOT
ATOM      1  C   UNL A   1      33.998  27.396  25.183  1.00  0.00     0.118 C 
ENDROOT
BRANCH   1   2
ATOM      2  N   UNL A   1      33.980  27.434  23.734  1.00  0.00    -0.352 N 
ATOM      3  C   UNL A   1      33.023  27.502  22.749  1.00  0.00     0.255 C 
ATOM      4  O   UNL A   1      33.476  27.173  21.656  1.00  0.00    -0.269 OA
ATOM      5  H   UNL A   1      34.889  27.401  23.357  1.00  0.00     0.163 HD
BRANCH   3   6
ATOM      6  C   UNL A   1      31.594  27.931  22.950  1.00  0.00     0.082 A 
ATOM      7  C   UNL A   1      30.640  27.200  23.697  1.00  0.00     0.141 A 
ATOM      8  N   UNL A   1      29.316  27.545  23.636  1.00  0.00    -0.235 NA
ATOM      9  C   UNL A   1      28.898  28.610  22.925  1.00  0.00     0.040 A 
ATOM     10  C   UNL A   1      31.137  29.095  22.309  1.00  0.00     0.019 A 
ATOM     11  C   UNL A   1      27.425  28.874  22.913  1.00  0.00     0.067 C 
ATOM     12  C   UNL A   1      29.788  29.436  22.278  1.00  0.00     0.024 A 
BRANCH   7  13
ATOM     13  N   UNL A   1      30.841  26.136  24.555  1.00  0.00    -0.356 N 
ATOM     14  C   UNL A   1      30.907  23.664  26.176  1.00  0.00     0.001 C 
ATOM     15  C   UNL A   1      31.078  23.669  24.635  1.00  0.00     0.031 C 
ATOM     16  C   UNL A   1      30.182  24.959  26.608  1.00  0.00     0.031 C 
ATOM     17  C   UNL A   1      31.535  24.983  23.998  1.00  0.00     0.119 C 
ATOM     18  C   UNL A   1      30.746  26.236  25.999  1.00  0.00     0.119 C 
BRANCH  14  19
ATOM     19  C   UNL A   1      32.247  23.396  26.955  1.00  0.00     0.045 C 
BRANCH  19  20
ATOM     20  C   UNL A   1      33.452  22.838  26.235  1.00  0.00    -0.044 A 
ATOM     21  C   UNL A   1      35.686  23.121  25.316  1.00  0.00     0.119 A 
ATOM     22  C   UNL A   1      35.611  21.861  24.730  1.00  0.00     0.046 A 
ATOM     23  C   UNL A   1      34.607  23.618  26.055  1.00  0.00     0.050 A 
ATOM     24  C   UNL A   1      34.501  21.054  24.960  1.00  0.00     0.004 A 
ATOM     25  C   UNL A   1      33.443  21.529  25.736  1.00  0.00     0.004 A 
BRANCH  21  26
ATOM     26  O   UNL A   1      36.816  23.850  25.060  1.00  0.00    -0.497 OA
ATOM     27  C   UNL A   1      37.887  23.524  25.942  1.00  0.00     0.278 C 
ENDBRANCH  21  26
ENDBRANCH  19  20
ENDBRANCH  14  19
BRANCH  14  28
ATOM     28  C   UNL A   1      29.952  22.490  26.555  1.00  0.00     0.163 C 
BRANCH  28  29
ATOM     29  O   UNL A   1      29.417  22.633  27.866  1.00  0.00    -0.396 OA
ATOM     30  H   UNL A   1      29.319  23.575  28.075  1.00  0.00     0.210 HD
ENDBRANCH  28  29
ENDBRANCH  14  28
ENDBRANCH   7  13
ENDBRANCH   3   6
ENDBRANCH   1   2
BRANCH   1  31
ATOM     31  C   UNL A   1      33.733  28.793  25.754  1.00  0.00     0.042 C 
BRANCH  31  32
ATOM     32  C   UNL A   1      33.819  28.852  27.283  1.00  0.00     0.118 C 
BRANCH  32  33
ATOM     33  N   UNL A   1      33.849  30.223  27.777  1.00  0.00    -0.352 N 
ATOM     34  C   UNL A   1      34.799  30.874  28.525  1.00  0.00     0.251 C 
ATOM     35  H   UNL A   1      33.066  30.768  27.536  1.00  0.00     0.163 HD
ATOM     36  O   UNL A   1      34.527  31.941  29.063  1.00  0.00    -0.269 OA
BRANCH  34  37
ATOM     37  C   UNL A   1      36.147  30.291  28.692  1.00  0.00     0.039 A 
ATOM     38  C   UNL A   1      37.039  30.320  27.615  1.00  0.00     0.014 A 
ATOM     39  C   UNL A   1      36.519  29.679  29.893  1.00  0.00     0.014 A 
ATOM     40  C   UNL A   1      38.328  29.802  27.767  1.00  0.00     0.010 A 
ATOM     41  C   UNL A   1      37.823  29.221  30.063  1.00  0.00     0.010 A 
ATOM     42  C   UNL A   1      38.742  29.286  29.005  1.00  0.00    -0.014 A 
BRANCH  42  43
ATOM     43  C   UNL A   1      40.140  28.843  29.230  1.00  0.00     0.031 A 
ATOM     44  C   UNL A   1      41.162  29.795  29.784  1.00  0.00     0.074 A 
ATOM     45  C   UNL A   1      40.510  27.607  28.840  1.00  0.00     0.049 A 
ATOM     46  N   UNL A   1      42.451  29.627  29.937  1.00  0.00    -0.248 NA
ATOM     47  C   UNL A   1      40.674  31.120  30.194  1.00  0.00     0.031 C 
ATOM     48  C   UNL A   1      39.621  26.608  28.242  1.00  0.00     0.029 A 
ATOM     49  N   UNL A   1      41.736  26.991  28.861  1.00  0.00    -0.354 N 
ATOM     50  C   UNL A   1      42.930  30.829  30.442  1.00  0.00     0.074 A 
ATOM     51  C   UNL A   1      41.802  31.730  30.530  1.00  0.00     0.031 C 
ATOM     52  C   UNL A   1      40.329  25.504  27.958  1.00  0.00     0.029 A 
ATOM     53  C   UNL A   1      41.726  25.730  28.314  1.00  0.00     0.049 A 
ATOM     54  H   UNL A   1      42.544  27.410  29.234  1.00  0.00     0.167 HD
ATOM     55  C   UNL A   1      44.194  31.145  30.814  1.00  0.00     0.037 A 
ATOM     56  C   UNL A   1      42.732  24.862  28.100  1.00  0.00     0.037 A 
ATOM     57  C   UNL A   1      45.310  30.237  30.743  1.00  0.00     0.049 A 
ATOM     58  C   UNL A   1      44.128  25.239  28.511  1.00  0.00     0.074 A 
ATOM     59  C   UNL A   1      46.612  30.437  31.165  1.00  0.00     0.029 A 
ATOM     60  N   UNL A   1      45.255  28.960  30.204  1.00  0.00    -0.354 N 
ATOM     61  N   UNL A   1      44.553  26.350  29.060  1.00  0.00    -0.248 NA
ATOM     62  C   UNL A   1      45.181  24.242  28.275  1.00  0.00     0.031 C 
ATOM     63  C   UNL A   1      47.357  29.298  30.839  1.00  0.00     0.029 A 
ATOM     64  C   UNL A   1      46.508  28.371  30.256  1.00  0.00     0.049 A 
ATOM     65  H   UNL A   1      44.445  28.535  29.839  1.00  0.00     0.167 HD
ATOM     66  C   UNL A   1      45.918  26.181  29.253  1.00  0.00     0.074 A 
ATOM     67  C   UNL A   1      46.246  24.852  28.777  1.00  0.00     0.031 C 
ATOM     68  C   UNL A   1      46.818  27.049  29.776  1.00  0.00     0.037 A 
BRANCH  55  69
ATOM     69  C   UNL A   1      44.438  32.535  31.327  1.00  0.00     0.057 A 
ATOM     70  C   UNL A   1      44.322  32.853  32.687  1.00  0.00     0.134 A 
ATOM     71  C   UNL A   1      44.822  33.562  30.456  1.00  0.00     0.134 A 
ATOM     72  F   UNL A   1      43.949  31.919  33.574  1.00  0.00    -0.206 F 
ATOM     73  C   UNL A   1      44.549  34.148  33.157  1.00  0.00     0.040 A 
ATOM     74  C   UNL A   1      45.078  34.854  30.918  1.00  0.00     0.040 A 
ATOM     75  F   UNL A   1      44.960  33.326  29.143  1.00  0.00    -0.206 F 
ATOM     76  C   UNL A   1      44.934  35.152  32.272  1.00  0.00     0.006 A 
ENDBRANCH  55  69
BRANCH  56  77
ATOM     77  C   UNL A   1      42.452  23.550  27.467  1.00  0.00     0.057 A 
ATOM     78  C   UNL A   1      42.131  22.428  28.240  1.00  0.00     0.134 A 
ATOM     79  C   UNL A   1      42.485  23.387  26.076  1.00  0.00     0.134 A 
ATOM     80  F   UNL A   1      42.100  22.518  29.577  1.00  0.00    -0.206 F 
ATOM     81  C   UNL A   1      41.866  21.189  27.655  1.00  0.00     0.040 A 
ATOM     82  C   UNL A   1      42.199  22.160  25.477  1.00  0.00     0.040 A 
ATOM     83  F   UNL A   1      42.777  24.426  25.279  1.00  0.00    -0.206 F 
ATOM     84  C   UNL A   1      41.894  21.054  26.268  1.00  0.00     0.006 A 
ENDBRANCH  56  77
BRANCH  68  85
ATOM     85  C   UNL A   1      48.241  26.583  29.879  1.00  0.00     0.057 A 
ATOM     86  C   UNL A   1      49.177  26.845  28.870  1.00  0.00     0.134 A 
ATOM     87  C   UNL A   1      48.690  25.908  31.021  1.00  0.00     0.134 A 
ATOM     88  F   UNL A   1      48.805  27.473  27.745  1.00  0.00    -0.206 F 
ATOM     89  C   UNL A   1      50.506  26.438  28.987  1.00  0.00     0.040 A 
ATOM     90  C   UNL A   1      50.023  25.519  31.160  1.00  0.00     0.040 A 
ATOM     91  F   UNL A   1      47.846  25.632  32.026  1.00  0.00    -0.206 F 
ATOM     92  C   UNL A   1      50.935  25.780  30.140  1.00  0.00     0.006 A 
ENDBRANCH  68  85
ENDBRANCH  42  43
ENDBRANCH  34  37
ENDBRANCH  32  33
ENDBRANCH  31  32
ENDBRANCH   1  31
TORSDOF 16
ENDMDL
MODEL 2
REMARK VINA RESULT:     -11.7      4.293      9.357
REMARK SMILES COc1cccc(CC2(CO)CCN(c3nc(C)ccc3C(=O)NCCCNC(=O)c3ccc(-c4c5nc(c(-c6c(F)cccc6F)c6ccc([nH]6)c(-c6c(F)cccc6F)c6nc(c(-c7c(F)cccc7F)c7ccc4[nH]7)C=C6)C=C5)cc3)CC2)c1
REMARK SMILES IDX 25 1 24 2 22 3 23 4 21 6 15 7 16 8 17 9 20 10 18 11 19 12
REMARK SMILES IDX 14 13 9 14 12 15 86 16 13 17 85 18 8 19 7 20 3 21 4 22 87 23
REMARK SMILES IDX 5 24 6 25 2 26 1 27 10 28 11 29 26 31 27 32 28 33 29 34
REMARK SMILES IDX 30 36 31 37 32 38 84 39 33 40 83 41 34 42 35 43 36 44 77 45
REMARK SMILES IDX 37 46 82 47 76 48 78 49 38 50 81 51 75 52 74 53 39 55 65 56
REMARK SMILES IDX 48 57 64 58 49 59 52 60 63 61 79 62 50 63 51 64 62 66 80 67
REMARK SMILES IDX 53 68 40 69 41 70 46 71 42 72 43 73 45 74 47 75 44 76 66 77
REMARK SMILES IDX 67 78 72 79 68 80 69 81 71 82 73 83 70 84 54 85 55 86 60 87
REMARK SMILES IDX 56 88 57 89 59 90 61 91 58 92
REMARK H PARENT 24 5 11 30 28 35 78 54 52 65
REMARK Flexibility Score: inf
ROOT
ATOM      1  C   UNL A   1      38.931  21.333  26.055  1.00  0.00     0.118 C 
ENDROOT
BRANCH   1   2
ATOM      2  N   UNL A   1      38.173  22.354  25.360  1.00  0.00    -0.352 N 
ATOM      3  C   UNL A   1      37.029  22.404  24.599  1.00  0.00     0.255 C 
ATOM      4  O   UNL A   1      36.964  23.444  23.949  1.00  0.00    -0.269 OA
ATOM      5  H   UNL A   1      38.585  23.243  25.457  1.00  0.00     0.163 HD
BRANCH   3   6
ATOM      6  C   UNL A   1      35.965  21.340  24.553  1.00  0.00     0.082 A 
ATOM      7  C   UNL A   1      34.579  21.603  24.424  1.00  0.00     0.141 A 
ATOM      8  N   UNL A   1      33.674  20.595  24.619  1.00  0.00    -0.235 NA
ATOM      9  C   UNL A   1      34.069  19.333  24.873  1.00  0.00     0.040 A 
ATOM     10  C   UNL A   1      36.341  19.996  24.711  1.00  0.00     0.019 A 
ATOM     11  C   UNL A   1      32.987  18.322  25.094  1.00  0.00     0.067 C 
ATOM     12  C   UNL A   1      35.399  18.986  24.887  1.00  0.00     0.024 A 
BRANCH   7  13
ATOM     13  N   UNL A   1      33.950  22.786  24.088  1.00  0.00    -0.356 N 
ATOM     14  C   UNL A   1      32.948  25.371  23.060  1.00  0.00     0.001 C 
ATOM     15  C   UNL A   1      33.116  24.114  22.168  1.00  0.00     0.031 C 
ATOM     16  C   UNL A   1      33.854  25.232  24.304  1.00  0.00     0.031 C 
ATOM     17  C   UNL A   1      33.134  22.761  22.882  1.00  0.00     0.119 C 
ATOM     18  C   UNL A   1      33.757  23.888  25.013  1.00  0.00     0.119 C 
BRANCH  14  19
ATOM     19  C   UNL A   1      31.449  25.704  23.399  1.00  0.00     0.045 C 
BRANCH  19  20
ATOM     20  C   UNL A   1      30.987  27.139  23.497  1.00  0.00    -0.044 A 
ATOM     21  C   UNL A   1      29.866  29.071  22.536  1.00  0.00     0.119 A 
ATOM     22  C   UNL A   1      30.298  29.858  23.599  1.00  0.00     0.046 A 
ATOM     23  C   UNL A   1      30.219  27.719  22.474  1.00  0.00     0.050 A 
ATOM     24  C   UNL A   1      31.000  29.278  24.651  1.00  0.00     0.004 A 
ATOM     25  C   UNL A   1      31.312  27.918  24.615  1.00  0.00     0.004 A 
BRANCH  21  26
ATOM     26  O   UNL A   1      29.166  29.708  21.546  1.00  0.00    -0.497 OA
ATOM     27  C   UNL A   1      29.026  31.105  21.790  1.00  0.00     0.278 C 
ENDBRANCH  21  26
ENDBRANCH  19  20
ENDBRANCH  14  19
BRANCH  14  28
ATOM     28  C   UNL A   1      33.490  26.603  22.270  1.00  0.00     0.163 C 
BRANCH  28  29
ATOM     29  O   UNL A   1      33.377  26.432  20.862  1.00  0.00    -0.396 OA
ATOM     30  H   UNL A   1      33.568  27.273  20.418  1.00  0.00     0.210 HD
ENDBRANCH  28  29
ENDBRANCH  14  28
ENDBRANCH   7  13
ENDBRANCH   3   6
ENDBRANCH   1   2
BRANCH   1  31
ATOM     31  C   UNL A   1      40.163  21.950  26.726  1.00  0.00     0.042 C 
BRANCH  31  32
ATOM     32  C   UNL A   1      40.090  23.476  26.846  1.00  0.00     0.118 C 
BRANCH  32  33
ATOM     33  N   UNL A   1      41.059  24.140  25.983  1.00  0.00    -0.352 N 
ATOM     34  C   UNL A   1      41.444  25.458  25.933  1.00  0.00     0.251 C 
ATOM     35  H   UNL A   1      41.509  23.552  25.334  1.00  0.00     0.163 HD
ATOM     36  O   UNL A   1      42.075  25.873  24.968  1.00  0.00    -0.269 OA
BRANCH  34  37
ATOM     37  C   UNL A   1      41.092  26.381  27.032  1.00  0.00     0.039 A 
ATOM     38  C   UNL A   1      40.138  25.984  27.974  1.00  0.00     0.014 A 
ATOM     39  C   UNL A   1      41.669  27.652  27.112  1.00  0.00     0.014 A 
ATOM     40  C   UNL A   1      39.818  26.831  29.038  1.00  0.00     0.010 A 
ATOM     41  C   UNL A   1      41.396  28.469  28.206  1.00  0.00     0.010 A 
ATOM     42  C   UNL A   1      40.475  28.063  29.184  1.00  0.00    -0.014 A 
BRANCH  42  43
ATOM     43  C   UNL A   1      40.245  28.928  30.368  1.00  0.00     0.031 A 
ATOM     44  C   UNL A   1      39.187  29.993  30.339  1.00  0.00     0.074 A 
ATOM     45  C   UNL A   1      41.061  28.815  31.434  1.00  0.00     0.049 A 
ATOM     46  N   UNL A   1      38.920  30.919  31.226  1.00  0.00    -0.248 NA
ATOM     47  C   UNL A   1      38.333  30.043  29.142  1.00  0.00     0.031 C 
ATOM     48  C   UNL A   1      42.158  27.853  31.562  1.00  0.00     0.029 A 
ATOM     49  N   UNL A   1      41.113  29.534  32.602  1.00  0.00    -0.354 N 
ATOM     50  C   UNL A   1      37.884  31.670  30.687  1.00  0.00     0.074 A 
ATOM     51  C   UNL A   1      37.598  31.119  29.380  1.00  0.00     0.031 C 
ATOM     52  C   UNL A   1      42.771  28.038  32.741  1.00  0.00     0.029 A 
ATOM     53  C   UNL A   1      42.139  29.156  33.435  1.00  0.00     0.049 A 
ATOM     54  H   UNL A   1      40.476  30.251  32.823  1.00  0.00     0.167 HD
ATOM     55  C   UNL A   1      37.220  32.714  31.241  1.00  0.00     0.037 A 
ATOM     56  C   UNL A   1      42.542  29.666  34.613  1.00  0.00     0.037 A 
ATOM     57  C   UNL A   1      37.496  33.245  32.551  1.00  0.00     0.049 A 
ATOM     58  C   UNL A   1      41.797  30.830  35.203  1.00  0.00     0.074 A 
ATOM     59  C   UNL A   1      36.831  34.250  33.231  1.00  0.00     0.029 A 
ATOM     60  N   UNL A   1      38.529  32.818  33.374  1.00  0.00    -0.354 N 
ATOM     61  N   UNL A   1      40.769  31.482  34.718  1.00  0.00    -0.248 NA
ATOM     62  C   UNL A   1      42.268  31.329  36.503  1.00  0.00     0.031 C 
ATOM     63  C   UNL A   1      37.491  34.465  34.447  1.00  0.00     0.029 A 
ATOM     64  C   UNL A   1      38.537  33.561  34.544  1.00  0.00     0.049 A 
ATOM     65  H   UNL A   1      39.161  32.096  33.159  1.00  0.00     0.167 HD
ATOM     66  C   UNL A   1      40.456  32.454  35.658  1.00  0.00     0.074 A 
ATOM     67  C   UNL A   1      41.394  32.295  36.752  1.00  0.00     0.031 C 
ATOM     68  C   UNL A   1      39.480  33.394  35.620  1.00  0.00     0.037 A 
BRANCH  55  69
ATOM     69  C   UNL A   1      36.133  33.354  30.427  1.00  0.00     0.057 A 
ATOM     70  C   UNL A   1      36.419  34.205  29.351  1.00  0.00     0.134 A 
ATOM     71  C   UNL A   1      34.785  33.093  30.702  1.00  0.00     0.134 A 
ATOM     72  F   UNL A   1      37.689  34.504  29.039  1.00  0.00    -0.206 F 
ATOM     73  C   UNL A   1      35.403  34.798  28.599  1.00  0.00     0.040 A 
ATOM     74  C   UNL A   1      33.761  33.659  29.940  1.00  0.00     0.040 A 
ATOM     75  F   UNL A   1      34.440  32.281  31.712  1.00  0.00    -0.206 F 
ATOM     76  C   UNL A   1      34.069  34.521  28.889  1.00  0.00     0.006 A 
ENDBRANCH  55  69
BRANCH  56  77
ATOM     77  C   UNL A   1      43.709  29.073  35.313  1.00  0.00     0.057 A 
ATOM     78  C   UNL A   1      45.010  29.514  35.048  1.00  0.00     0.134 A 
ATOM     79  C   UNL A   1      43.551  28.063  36.269  1.00  0.00     0.134 A 
ATOM     80  F   UNL A   1      45.226  30.467  34.131  1.00  0.00    -0.206 F 
ATOM     81  C   UNL A   1      46.115  28.964  35.700  1.00  0.00     0.040 A 
ATOM     82  C   UNL A   1      44.644  27.520  36.945  1.00  0.00     0.040 A 
ATOM     83  F   UNL A   1      42.329  27.602  36.574  1.00  0.00    -0.206 F 
ATOM     84  C   UNL A   1      45.932  27.966  36.657  1.00  0.00     0.006 A 
ENDBRANCH  56  77
BRANCH  68  85
ATOM     85  C   UNL A   1      39.365  34.312  36.801  1.00  0.00     0.057 A 
ATOM     86  C   UNL A   1      38.718  33.919  37.980  1.00  0.00     0.134 A 
ATOM     87  C   UNL A   1      39.949  35.585  36.776  1.00  0.00     0.134 A 
ATOM     88  F   UNL A   1      38.126  32.718  38.061  1.00  0.00    -0.206 F 
ATOM     89  C   UNL A   1      38.644  34.765  39.086  1.00  0.00     0.040 A 
ATOM     90  C   UNL A   1      39.903  36.430  37.885  1.00  0.00     0.040 A 
ATOM     91  F   UNL A   1      40.588  36.019  35.680  1.00  0.00    -0.206 F 
ATOM     92  C   UNL A   1      39.245  36.023  39.044  1.00  0.00     0.006 A 
ENDBRANCH  68  85
ENDBRANCH  42  43
ENDBRANCH  34  37
ENDBRANCH  32  33
ENDBRANCH  31  32
ENDBRANCH   1  31
TORSDOF 16
ENDMDL
MODEL 3
REMARK VINA RESULT:     -11.6      2.434      3.425
REMARK SMILES COc1cccc(CC2(CO)CCN(c3nc(C)ccc3C(=O)NCCCNC(=O)c3ccc(-c4c5nc(c(-c6c(F)cccc6F)c6ccc([nH]6)c(-c6c(F)cccc6F)c6nc(c(-c7c(F)cccc7F)c7ccc4[nH]7)C=C6)C=C5)cc3)CC2)c1
REMARK SMILES IDX 25 1 24 2 22 3 23 4 21 6 15 7 16 8 17 9 20 10 18 11 19 12
REMARK SMILES IDX 14 13 9 14 12 15 86 16 13 17 85 18 8 19 7 20 3 21 4 22 87 23
REMARK SMILES IDX 5 24 6 25 2 26 1 27 10 28 11 29 26 31 27 32 28 33 29 34
REMARK SMILES IDX 30 36 31 37 32 38 84 39 33 40 83 41 34 42 35 43 36 44 77 45
REMARK SMILES IDX 37 46 82 47 76 48 78 49 38 50 81 51 75 52 74 53 39 55 65 56
REMARK SMILES IDX 48 57 64 58 49 59 52 60 63 61 79 62 50 63 51 64 62 66 80 67
REMARK SMILES IDX 53 68 40 69 41 70 46 71 42 72 43 73 45 74 47 75 44 76 66 77
REMARK SMILES IDX 67 78 72 79 68 80 69 81 71 82 73 83 70 84 54 85 55 86 60 87
REMARK SMILES IDX 56 88 57 89 59 90 61 91 58 92
REMARK H PARENT 24 5 11 30 28 35 78 54 52 65
REMARK Flexibility Score: inf
ROOT
ATOM      1  C   UNL A   1      34.177  28.593  24.642  1.00  0.00     0.118 C 
ENDROOT
BRANCH   1   2
ATOM      2  N   UNL A   1      34.001  27.886  23.389  1.00  0.00    -0.352 N 
ATOM      3  C   UNL A   1      33.029  27.103  22.813  1.00  0.00     0.255 C 
ATOM      4  O   UNL A   1      33.473  26.454  21.870  1.00  0.00    -0.269 OA
ATOM      5  H   UNL A   1      34.781  27.993  22.798  1.00  0.00     0.163 HD
BRANCH   3   6
ATOM      6  C   UNL A   1      31.591  27.034  23.251  1.00  0.00     0.082 A 
ATOM      7  C   UNL A   1      30.941  25.847  23.668  1.00  0.00     0.141 A 
ATOM      8  N   UNL A   1      29.581  25.836  23.829  1.00  0.00    -0.235 NA
ATOM      9  C   UNL A   1      28.842  26.949  23.660  1.00  0.00     0.040 A 
ATOM     10  C   UNL A   1      30.804  28.197  23.189  1.00  0.00     0.019 A 
ATOM     11  C   UNL A   1      27.363  26.808  23.839  1.00  0.00     0.067 C 
ATOM     12  C   UNL A   1      29.426  28.162  23.378  1.00  0.00     0.024 A 
BRANCH   7  13
ATOM     13  N   UNL A   1      31.494  24.621  23.982  1.00  0.00    -0.356 N 
ATOM     14  C   UNL A   1      33.085  22.226  24.669  1.00  0.00     0.001 C 
ATOM     15  C   UNL A   1      33.005  23.478  25.580  1.00  0.00     0.031 C 
ATOM     16  C   UNL A   1      32.715  22.628  23.224  1.00  0.00     0.031 C 
ATOM     17  C   UNL A   1      31.794  24.393  25.388  1.00  0.00     0.119 C 
ATOM     18  C   UNL A   1      31.450  23.468  23.102  1.00  0.00     0.119 C 
BRANCH  14  19
ATOM     19  C   UNL A   1      32.267  20.999  25.216  1.00  0.00     0.045 C 
BRANCH  19  20
ATOM     20  C   UNL A   1      32.490  19.616  24.649  1.00  0.00    -0.044 A 
ATOM     21  C   UNL A   1      33.148  17.293  24.935  1.00  0.00     0.119 A 
ATOM     22  C   UNL A   1      33.088  17.100  23.559  1.00  0.00     0.046 A 
ATOM     23  C   UNL A   1      32.864  18.549  25.482  1.00  0.00     0.050 A 
ATOM     24  C   UNL A   1      32.652  18.131  22.732  1.00  0.00     0.004 A 
ATOM     25  C   UNL A   1      32.322  19.371  23.280  1.00  0.00     0.004 A 
BRANCH  21  26
ATOM     26  O   UNL A   1      33.570  16.228  25.686  1.00  0.00    -0.497 OA
ATOM     27  C   UNL A   1      32.782  15.061  25.468  1.00  0.00     0.278 C 
ENDBRANCH  21  26
ENDBRANCH  19  20
ENDBRANCH  14  19
BRANCH  14  28
ATOM     28  C   UNL A   1      34.572  21.757  24.617  1.00  0.00     0.163 C 
BRANCH  28  29
ATOM     29  O   UNL A   1      35.105  21.507  25.913  1.00  0.00    -0.396 OA
ATOM     30  H   UNL A   1      35.570  20.656  25.913  1.00  0.00     0.210 HD
ENDBRANCH  28  29
ENDBRANCH  14  28
ENDBRANCH   7  13
ENDBRANCH   3   6
ENDBRANCH   1   2
BRANCH   1  31
ATOM     31  C   UNL A   1      34.055  27.622  25.822  1.00  0.00     0.042 C 
BRANCH  31  32
ATOM     32  C   UNL A   1      33.621  28.300  27.126  1.00  0.00     0.118 C 
BRANCH  32  33
ATOM     33  N   UNL A   1      33.623  29.752  27.015  1.00  0.00    -0.352 N 
ATOM     34  C   UNL A   1      34.461  30.683  27.580  1.00  0.00     0.251 C 
ATOM     35  H   UNL A   1      32.912  30.126  26.447  1.00  0.00     0.163 HD
ATOM     36  O   UNL A   1      34.146  31.867  27.583  1.00  0.00    -0.269 OA
BRANCH  34  37
ATOM     37  C   UNL A   1      35.739  30.263  28.193  1.00  0.00     0.039 A 
ATOM     38  C   UNL A   1      35.739  29.796  29.511  1.00  0.00     0.014 A 
ATOM     39  C   UNL A   1      36.940  30.367  27.487  1.00  0.00     0.014 A 
ATOM     40  C   UNL A   1      36.932  29.365  30.095  1.00  0.00     0.010 A 
ATOM     41  C   UNL A   1      38.118  29.878  28.046  1.00  0.00     0.010 A 
ATOM     42  C   UNL A   1      38.124  29.364  29.352  1.00  0.00    -0.014 A 
BRANCH  42  43
ATOM     43  C   UNL A   1      39.380  28.799  29.904  1.00  0.00     0.031 A 
ATOM     44  C   UNL A   1      40.054  29.446  31.081  1.00  0.00     0.074 A 
ATOM     45  C   UNL A   1      39.965  27.759  29.278  1.00  0.00     0.049 A 
ATOM     46  N   UNL A   1      41.212  29.169  31.625  1.00  0.00    -0.248 NA
ATOM     47  C   UNL A   1      39.345  30.569  31.712  1.00  0.00     0.031 C 
ATOM     48  C   UNL A   1      39.434  27.077  28.096  1.00  0.00     0.029 A 
ATOM     49  N   UNL A   1      41.148  27.111  29.532  1.00  0.00    -0.354 N 
ATOM     50  C   UNL A   1      41.379  30.094  32.647  1.00  0.00     0.074 A 
ATOM     51  C   UNL A   1      40.224  30.965  32.621  1.00  0.00     0.031 C 
ATOM     52  C   UNL A   1      40.284  26.105  27.730  1.00  0.00     0.029 A 
ATOM     53  C   UNL A   1      41.438  26.122  28.623  1.00  0.00     0.049 A 
ATOM     54  H   UNL A   1      41.732  27.333  30.293  1.00  0.00     0.167 HD
ATOM     55  C   UNL A   1      42.395  30.196  33.538  1.00  0.00     0.037 A 
ATOM     56  C   UNL A   1      42.521  25.332  28.508  1.00  0.00     0.037 A 
ATOM     57  C   UNL A   1      43.533  29.313  33.571  1.00  0.00     0.049 A 
ATOM     58  C   UNL A   1      43.641  25.469  29.500  1.00  0.00     0.074 A 
ATOM     59  C   UNL A   1      44.577  29.287  34.479  1.00  0.00     0.029 A 
ATOM     60  N   UNL A   1      43.779  28.307  32.648  1.00  0.00    -0.354 N 
ATOM     61  N   UNL A   1      43.750  26.298  30.510  1.00  0.00    -0.248 NA
ATOM     62  C   UNL A   1      44.787  24.564  29.337  1.00  0.00     0.031 C 
ATOM     63  C   UNL A   1      45.480  28.296  34.078  1.00  0.00     0.029 A 
ATOM     64  C   UNL A   1      44.975  27.674  32.947  1.00  0.00     0.049 A 
ATOM     65  H   UNL A   1      43.192  28.078  31.892  1.00  0.00     0.167 HD
ATOM     66  C   UNL A   1      44.964  26.002  31.115  1.00  0.00     0.074 A 
ATOM     67  C   UNL A   1      45.548  24.906  30.368  1.00  0.00     0.031 C 
ATOM     68  C   UNL A   1      45.543  26.586  32.192  1.00  0.00     0.037 A 
BRANCH  55  69
ATOM     69  C   UNL A   1      42.325  31.307  34.546  1.00  0.00     0.057 A 
ATOM     70  C   UNL A   1      42.857  32.576  34.286  1.00  0.00     0.134 A 
ATOM     71  C   UNL A   1      41.691  31.114  35.779  1.00  0.00     0.134 A 
ATOM     72  F   UNL A   1      43.486  32.826  33.127  1.00  0.00    -0.206 F 
ATOM     73  C   UNL A   1      42.789  33.604  35.229  1.00  0.00     0.040 A 
ATOM     74  C   UNL A   1      41.593  32.142  36.719  1.00  0.00     0.040 A 
ATOM     75  F   UNL A   1      41.152  29.925  36.090  1.00  0.00    -0.206 F 
ATOM     76  C   UNL A   1      42.151  33.390  36.448  1.00  0.00     0.006 A 
ENDBRANCH  55  69
BRANCH  56  77
ATOM     77  C   UNL A   1      42.594  24.337  27.408  1.00  0.00     0.057 A 
ATOM     78  C   UNL A   1      42.126  23.030  27.584  1.00  0.00     0.134 A 
ATOM     79  C   UNL A   1      43.121  24.671  26.155  1.00  0.00     0.134 A 
ATOM     80  F   UNL A   1      41.626  22.647  28.767  1.00  0.00    -0.206 F 
ATOM     81  C   UNL A   1      42.190  22.087  26.557  1.00  0.00     0.040 A 
ATOM     82  C   UNL A   1      43.169  23.745  25.112  1.00  0.00     0.040 A 
ATOM     83  F   UNL A   1      43.579  25.910  25.919  1.00  0.00    -0.206 F 
ATOM     84  C   UNL A   1      42.708  22.446  25.314  1.00  0.00     0.006 A 
ENDBRANCH  56  77
BRANCH  68  85
ATOM     85  C   UNL A   1      46.868  26.042  32.639  1.00  0.00     0.057 A 
ATOM     86  C   UNL A   1      46.960  25.015  33.588  1.00  0.00     0.134 A 
ATOM     87  C   UNL A   1      48.061  26.515  32.078  1.00  0.00     0.134 A 
ATOM     88  F   UNL A   1      45.855  24.531  34.174  1.00  0.00    -0.206 F 
ATOM     89  C   UNL A   1      48.193  24.490  33.975  1.00  0.00     0.040 A 
ATOM     90  C   UNL A   1      49.298  25.979  32.438  1.00  0.00     0.040 A 
ATOM     91  F   UNL A   1      48.042  27.491  31.159  1.00  0.00    -0.206 F 
ATOM     92  C   UNL A   1      49.367  24.966  33.393  1.00  0.00     0.006 A 
ENDBRANCH  68  85
ENDBRANCH  42  43
ENDBRANCH  34  37
ENDBRANCH  32  33
ENDBRANCH  31  32
ENDBRANCH   1  31
TORSDOF 16
ENDMDL
