MODEL 1
REMARK VINA RESULT:     -12.1      0.000      0.000
REMARK SMILES CCc1ccc(C[NH+]2CCC(Oc3ccccc3OC)(C(=O)NCCCNC(=O)c3ccc(-c4c5nc(c(-c6c(F)cccc6F)c6ccc([nH]6)c(-c6c(F)cccc6F)c6nc(c(-c7c(F)cccc7F)c7ccc4[nH]7)C=C6)C=C5)cc3)CC2)nc1
REMARK SMILES IDX 24 1 23 2 21 3 22 4 11 6 8 7 9 8 85 9 10 11 84 12 7 13 6 14
REMARK SMILES IDX 3 15 4 16 87 17 5 18 86 19 2 20 1 21 12 22 13 23 14 24 18 25
REMARK SMILES IDX 15 26 17 27 16 28 19 29 20 30 25 31 26 32 27 33 28 34 29 36
REMARK SMILES IDX 30 37 31 38 83 39 32 40 82 41 33 42 34 43 35 44 76 45 36 46
REMARK SMILES IDX 81 47 75 48 77 49 37 50 80 51 74 52 73 53 38 55 64 56 47 57
REMARK SMILES IDX 63 58 48 59 51 60 62 61 78 62 49 63 50 64 61 66 79 67 52 68
REMARK SMILES IDX 39 69 40 70 45 71 41 72 42 73 44 74 46 75 43 76 65 77 66 78
REMARK SMILES IDX 71 79 67 80 68 81 70 82 72 83 69 84 53 85 54 86 59 87 55 88
REMARK SMILES IDX 56 89 58 90 60 91 57 92
REMARK H PARENT 23 5 8 10 27 35 77 54 51 65
REMARK Flexibility Score: inf
ROOT
ATOM      1  C   UNL A   1      31.419  30.002  25.531  1.00  0.00     0.118 C 
ENDROOT
BRANCH   1   2
ATOM      2  N   UNL A   1      32.609  29.781  24.720  1.00  0.00    -0.353 N 
ATOM      3  C   UNL A   1      32.862  28.914  23.691  1.00  0.00     0.264 C 
ATOM      4  O   UNL A   1      33.898  29.142  23.056  1.00  0.00    -0.270 OA
ATOM      5  H   UNL A   1      33.368  30.362  24.953  1.00  0.00     0.163 HD
BRANCH   3   6
ATOM      6  C   UNL A   1      31.938  27.698  23.364  1.00  0.00     0.197 C 
ATOM      7  N   UNL A   1      32.893  25.367  24.913  1.00  0.00    -0.330 N 
ATOM      8  C   UNL A   1      32.268  26.503  25.590  1.00  0.00     0.267 C 
ATOM      9  C   UNL A   1      33.676  25.830  23.759  1.00  0.00     0.267 C 
ATOM     10  H   UNL A   1      32.151  24.759  24.568  1.00  0.00     0.348 HD
ATOM     11  C   UNL A   1      31.287  27.180  24.650  1.00  0.00     0.120 C 
ATOM     12  C   UNL A   1      32.773  26.552  22.743  1.00  0.00     0.120 C 
BRANCH   7  13
ATOM     13  C   UNL A   1      33.701  24.535  25.843  1.00  0.00     0.319 C 
BRANCH  13  14
ATOM     14  C   UNL A   1      33.475  23.034  25.763  1.00  0.00     0.095 A 
ATOM     15  C   UNL A   1      33.057  20.374  25.132  1.00  0.00    -0.030 A 
ATOM     16  C   UNL A   1      34.353  20.832  25.363  1.00  0.00     0.007 A 
ATOM     17  C   UNL A   1      32.027  21.300  25.283  1.00  0.00     0.115 A 
ATOM     18  C   UNL A   1      34.568  22.170  25.689  1.00  0.00     0.030 A 
ATOM     19  N   UNL A   1      32.204  22.600  25.602  1.00  0.00    -0.255 NA
BRANCH  15  20
ATOM     20  C   UNL A   1      32.734  18.990  24.636  1.00  0.00     0.034 C 
ATOM     21  C   UNL A   1      32.706  17.893  25.691  1.00  0.00     0.009 C 
ENDBRANCH  15  20
ENDBRANCH  13  14
ENDBRANCH   7  13
BRANCH   6  22
ATOM     22  O   UNL A   1      30.930  28.298  22.508  1.00  0.00    -0.473 OA
BRANCH  22  23
ATOM     23  C   UNL A   1      29.649  28.482  22.924  1.00  0.00     0.162 A 
ATOM     24  C   UNL A   1      28.911  27.365  23.324  1.00  0.00     0.050 A 
ATOM     25  C   UNL A   1      28.977  29.690  22.693  1.00  0.00     0.160 A 
ATOM     26  C   UNL A   1      27.549  27.473  23.608  1.00  0.00     0.004 A 
ATOM     27  C   UNL A   1      27.618  29.805  23.001  1.00  0.00     0.050 A 
ATOM     28  C   UNL A   1      26.908  28.701  23.474  1.00  0.00     0.004 A 
BRANCH  25  29
ATOM     29  O   UNL A   1      29.501  30.713  21.943  1.00  0.00    -0.493 OA
ATOM     30  C   UNL A   1      28.572  31.737  21.629  1.00  0.00     0.278 C 
ENDBRANCH  25  29
ENDBRANCH  22  23
ENDBRANCH   6  22
ENDBRANCH   3   6
ENDBRANCH   1   2
BRANCH   1  31
ATOM     31  C   UNL A   1      31.278  31.442  26.006  1.00  0.00     0.042 C 
BRANCH  31  32
ATOM     32  C   UNL A   1      32.390  31.900  26.936  1.00  0.00     0.118 C 
BRANCH  32  33
ATOM     33  N   UNL A   1      32.235  33.286  27.352  1.00  0.00    -0.352 N 
ATOM     34  C   UNL A   1      32.996  34.058  28.194  1.00  0.00     0.251 C 
ATOM     35  H   UNL A   1      31.454  33.746  26.966  1.00  0.00     0.163 HD
ATOM     36  O   UNL A   1      32.569  35.147  28.565  1.00  0.00    -0.269 OA
BRANCH  34  37
ATOM     37  C   UNL A   1      34.318  33.593  28.673  1.00  0.00     0.039 A 
ATOM     38  C   UNL A   1      34.377  32.828  29.844  1.00  0.00     0.014 A 
ATOM     39  C   UNL A   1      35.501  33.943  28.016  1.00  0.00     0.014 A 
ATOM     40  C   UNL A   1      35.608  32.369  30.318  1.00  0.00     0.010 A 
ATOM     41  C   UNL A   1      36.718  33.416  28.441  1.00  0.00     0.010 A 
ATOM     42  C   UNL A   1      36.786  32.632  29.602  1.00  0.00    -0.014 A 
BRANCH  42  43
ATOM     43  C   UNL A   1      38.099  32.106  30.057  1.00  0.00     0.031 A 
ATOM     44  C   UNL A   1      38.611  30.791  29.537  1.00  0.00     0.074 A 
ATOM     45  C   UNL A   1      38.802  32.782  30.988  1.00  0.00     0.049 A 
ATOM     46  N   UNL A   1      39.693  30.134  29.871  1.00  0.00    -0.248 NA
ATOM     47  C   UNL A   1      37.786  30.112  28.525  1.00  0.00     0.031 C 
ATOM     48  C   UNL A   1      38.395  34.047  31.604  1.00  0.00     0.029 A 
ATOM     49  N   UNL A   1      40.004  32.494  31.584  1.00  0.00    -0.354 N 
ATOM     50  C   UNL A   1      39.669  28.962  29.126  1.00  0.00     0.074 A 
ATOM     51  C   UNL A   1      38.442  28.974  28.359  1.00  0.00     0.031 C 
ATOM     52  C   UNL A   1      39.340  34.435  32.475  1.00  0.00     0.029 A 
ATOM     53  C   UNL A   1      40.399  33.432  32.507  1.00  0.00     0.049 A 
ATOM     54  H   UNL A   1      40.533  31.692  31.371  1.00  0.00     0.167 HD
ATOM     55  C   UNL A   1      40.596  27.976  29.067  1.00  0.00     0.037 A 
ATOM     56  C   UNL A   1      41.488  33.473  33.298  1.00  0.00     0.037 A 
ATOM     57  C   UNL A   1      41.831  27.979  29.807  1.00  0.00     0.049 A 
ATOM     58  C   UNL A   1      42.499  32.364  33.218  1.00  0.00     0.074 A 
ATOM     59  C   UNL A   1      42.862  27.057  29.768  1.00  0.00     0.029 A 
ATOM     60  N   UNL A   1      42.200  28.954  30.720  1.00  0.00    -0.354 N 
ATOM     61  N   UNL A   1      42.492  31.292  32.463  1.00  0.00    -0.248 NA
ATOM     62  C   UNL A   1      43.670  32.471  34.099  1.00  0.00     0.031 C 
ATOM     63  C   UNL A   1      43.838  27.452  30.688  1.00  0.00     0.029 A 
ATOM     64  C   UNL A   1      43.435  28.644  31.268  1.00  0.00     0.049 A 
ATOM     65  H   UNL A   1      41.665  29.749  30.947  1.00  0.00     0.167 HD
ATOM     66  C   UNL A   1      43.667  30.612  32.758  1.00  0.00     0.074 A 
ATOM     67  C   UNL A   1      44.368  31.399  33.750  1.00  0.00     0.031 C 
ATOM     68  C   UNL A   1      44.122  29.439  32.253  1.00  0.00     0.037 A 
BRANCH  55  69
ATOM     69  C   UNL A   1      40.312  26.811  28.164  1.00  0.00     0.057 A 
ATOM     70  C   UNL A   1      39.479  25.756  28.559  1.00  0.00     0.134 A 
ATOM     71  C   UNL A   1      40.849  26.760  26.871  1.00  0.00     0.134 A 
ATOM     72  F   UNL A   1      38.942  25.737  29.789  1.00  0.00    -0.206 F 
ATOM     73  C   UNL A   1      39.208  24.681  27.710  1.00  0.00     0.040 A 
ATOM     74  C   UNL A   1      40.565  25.704  26.004  1.00  0.00     0.040 A 
ATOM     75  F   UNL A   1      41.651  27.739  26.426  1.00  0.00    -0.206 F 
ATOM     76  C   UNL A   1      39.747  24.657  26.425  1.00  0.00     0.006 A 
ENDBRANCH  55  69
BRANCH  56  77
ATOM     77  C   UNL A   1      41.690  34.615  34.224  1.00  0.00     0.057 A 
ATOM     78  C   UNL A   1      41.198  34.576  35.534  1.00  0.00     0.134 A 
ATOM     79  C   UNL A   1      42.365  35.774  33.824  1.00  0.00     0.134 A 
ATOM     80  F   UNL A   1      40.525  33.499  35.969  1.00  0.00    -0.206 F 
ATOM     81  C   UNL A   1      41.353  35.654  36.406  1.00  0.00     0.040 A 
ATOM     82  C   UNL A   1      42.549  36.850  34.694  1.00  0.00     0.040 A 
ATOM     83  F   UNL A   1      42.866  35.872  32.584  1.00  0.00    -0.206 F 
ATOM     84  C   UNL A   1      42.035  36.794  35.988  1.00  0.00     0.006 A 
ENDBRANCH  56  77
BRANCH  68  85
ATOM     85  C   UNL A   1      45.452  28.952  32.745  1.00  0.00     0.057 A 
ATOM     86  C   UNL A   1      45.561  28.092  33.845  1.00  0.00     0.134 A 
ATOM     87  C   UNL A   1      46.634  29.319  32.088  1.00  0.00     0.134 A 
ATOM     88  F   UNL A   1      44.469  27.715  34.524  1.00  0.00    -0.206 F 
ATOM     89  C   UNL A   1      46.802  27.630  34.288  1.00  0.00     0.040 A 
ATOM     90  C   UNL A   1      47.877  28.843  32.506  1.00  0.00     0.040 A 
ATOM     91  F   UNL A   1      46.597  30.134  31.023  1.00  0.00    -0.206 F 
ATOM     92  C   UNL A   1      47.964  28.001  33.612  1.00  0.00     0.006 A 
ENDBRANCH  68  85
ENDBRANCH  42  43
ENDBRANCH  34  37
ENDBRANCH  32  33
ENDBRANCH  31  32
ENDBRANCH   1  31
TORSDOF 16
ENDMDL
MODEL 2
REMARK VINA RESULT:     -12.1      1.573      2.385
REMARK SMILES CCc1ccc(C[NH+]2CCC(Oc3ccccc3OC)(C(=O)NCCCNC(=O)c3ccc(-c4c5nc(c(-c6c(F)cccc6F)c6ccc([nH]6)c(-c6c(F)cccc6F)c6nc(c(-c7c(F)cccc7F)c7ccc4[nH]7)C=C6)C=C5)cc3)CC2)nc1
REMARK SMILES IDX 24 1 23 2 21 3 22 4 11 6 8 7 9 8 85 9 10 11 84 12 7 13 6 14
REMARK SMILES IDX 3 15 4 16 87 17 5 18 86 19 2 20 1 21 12 22 13 23 14 24 18 25
REMARK SMILES IDX 15 26 17 27 16 28 19 29 20 30 25 31 26 32 27 33 28 34 29 36
REMARK SMILES IDX 30 37 31 38 83 39 32 40 82 41 33 42 34 43 35 44 76 45 36 46
REMARK SMILES IDX 81 47 75 48 77 49 37 50 80 51 74 52 73 53 38 55 64 56 47 57
REMARK SMILES IDX 63 58 48 59 51 60 62 61 78 62 49 63 50 64 61 66 79 67 52 68
REMARK SMILES IDX 39 69 40 70 45 71 41 72 42 73 44 74 46 75 43 76 65 77 66 78
REMARK SMILES IDX 71 79 67 80 68 81 70 82 72 83 69 84 53 85 54 86 59 87 55 88
REMARK SMILES IDX 56 89 58 90 60 91 57 92
REMARK H PARENT 23 5 8 10 27 35 77 54 51 65
REMARK Flexibility Score: inf
ROOT
ATOM      1  C   UNL A   1      31.365  30.271  25.794  1.00  0.00     0.118 C 
ENDROOT
BRANCH   1   2
ATOM      2  N   UNL A   1      32.614  30.022  25.088  1.00  0.00    -0.353 N 
ATOM      3  C   UNL A   1      32.926  29.167  24.064  1.00  0.00     0.264 C 
ATOM      4  O   UNL A   1      34.023  29.368  23.530  1.00  0.00    -0.270 OA
ATOM      5  H   UNL A   1      33.370  30.567  25.402  1.00  0.00     0.163 HD
BRANCH   3   6
ATOM      6  C   UNL A   1      31.991  27.996  23.626  1.00  0.00     0.197 C 
ATOM      7  N   UNL A   1      32.929  25.520  24.943  1.00  0.00    -0.330 N 
ATOM      8  C   UNL A   1      32.316  26.592  25.727  1.00  0.00     0.267 C 
ATOM      9  C   UNL A   1      33.714  26.084  23.836  1.00  0.00     0.267 C 
ATOM     10  H   UNL A   1      32.182  24.954  24.544  1.00  0.00     0.348 HD
ATOM     11  C   UNL A   1      31.338  27.363  24.858  1.00  0.00     0.120 C 
ATOM     12  C   UNL A   1      32.815  26.907  22.896  1.00  0.00     0.120 C 
BRANCH   7  13
ATOM     13  C   UNL A   1      33.732  24.597  25.788  1.00  0.00     0.319 C 
BRANCH  13  14
ATOM     14  C   UNL A   1      33.878  23.175  25.269  1.00  0.00     0.095 A 
ATOM     15  C   UNL A   1      33.908  20.461  24.737  1.00  0.00    -0.030 A 
ATOM     16  C   UNL A   1      32.901  21.259  24.196  1.00  0.00     0.007 A 
ATOM     17  C   UNL A   1      34.884  21.108  25.493  1.00  0.00     0.115 A 
ATOM     18  C   UNL A   1      32.886  22.628  24.455  1.00  0.00     0.030 A 
ATOM     19  N   UNL A   1      34.899  22.433  25.757  1.00  0.00    -0.255 NA
BRANCH  15  20
ATOM     20  C   UNL A   1      33.933  18.959  24.637  1.00  0.00     0.034 C 
ATOM     21  C   UNL A   1      32.694  18.237  25.148  1.00  0.00     0.009 C 
ENDBRANCH  15  20
ENDBRANCH  13  14
ENDBRANCH   7  13
BRANCH   6  22
ATOM     22  O   UNL A   1      30.987  28.683  22.834  1.00  0.00    -0.473 OA
BRANCH  22  23
ATOM     23  C   UNL A   1      29.665  28.627  23.141  1.00  0.00     0.162 A 
ATOM     24  C   UNL A   1      29.102  27.384  23.442  1.00  0.00     0.050 A 
ATOM     25  C   UNL A   1      28.813  29.712  22.889  1.00  0.00     0.160 A 
ATOM     26  C   UNL A   1      27.724  27.244  23.610  1.00  0.00     0.004 A 
ATOM     27  C   UNL A   1      27.434  29.578  23.080  1.00  0.00     0.050 A 
ATOM     28  C   UNL A   1      26.891  28.349  23.457  1.00  0.00     0.004 A 
BRANCH  25  29
ATOM     29  O   UNL A   1      29.210  30.841  22.218  1.00  0.00    -0.493 OA
ATOM     30  C   UNL A   1      28.339  31.228  21.168  1.00  0.00     0.278 C 
ENDBRANCH  25  29
ENDBRANCH  22  23
ENDBRANCH   6  22
ENDBRANCH   3   6
ENDBRANCH   1   2
BRANCH   1  31
ATOM     31  C   UNL A   1      31.271  31.680  26.365  1.00  0.00     0.042 C 
BRANCH  31  32
ATOM     32  C   UNL A   1      32.596  32.238  26.860  1.00  0.00     0.118 C 
BRANCH  32  33
ATOM     33  N   UNL A   1      32.491  33.623  27.295  1.00  0.00    -0.352 N 
ATOM     34  C   UNL A   1      33.165  34.306  28.276  1.00  0.00     0.251 C 
ATOM     35  H   UNL A   1      31.827  34.159  26.804  1.00  0.00     0.163 HD
ATOM     36  O   UNL A   1      32.775  35.420  28.612  1.00  0.00    -0.269 OA
BRANCH  34  37
ATOM     37  C   UNL A   1      34.345  33.715  28.947  1.00  0.00     0.039 A 
ATOM     38  C   UNL A   1      34.142  32.722  29.912  1.00  0.00     0.014 A 
ATOM     39  C   UNL A   1      35.642  34.161  28.678  1.00  0.00     0.014 A 
ATOM     40  C   UNL A   1      35.235  32.141  30.559  1.00  0.00     0.010 A 
ATOM     41  C   UNL A   1      36.736  33.524  29.260  1.00  0.00     0.010 A 
ATOM     42  C   UNL A   1      36.544  32.514  30.214  1.00  0.00    -0.014 A 
BRANCH  42  43
ATOM     43  C   UNL A   1      37.723  31.869  30.847  1.00  0.00     0.031 A 
ATOM     44  C   UNL A   1      38.493  30.807  30.111  1.00  0.00     0.074 A 
ATOM     45  C   UNL A   1      38.063  32.195  32.110  1.00  0.00     0.049 A 
ATOM     46  N   UNL A   1      39.499  30.078  30.525  1.00  0.00    -0.248 NA
ATOM     47  C   UNL A   1      38.060  30.507  28.737  1.00  0.00     0.031 C 
ATOM     48  C   UNL A   1      37.371  33.177  32.948  1.00  0.00     0.029 A 
ATOM     49  N   UNL A   1      39.072  31.726  32.913  1.00  0.00    -0.354 N 
ATOM     50  C   UNL A   1      39.806  29.226  29.472  1.00  0.00     0.074 A 
ATOM     51  C   UNL A   1      38.850  29.492  28.420  1.00  0.00     0.031 C 
ATOM     52  C   UNL A   1      37.988  33.251  34.137  1.00  0.00     0.029 A 
ATOM     53  C   UNL A   1      39.093  32.299  34.162  1.00  0.00     0.049 A 
ATOM     54  H   UNL A   1      39.719  31.043  32.623  1.00  0.00     0.167 HD
ATOM     55  C   UNL A   1      40.808  28.319  29.381  1.00  0.00     0.037 A 
ATOM     56  C   UNL A   1      39.906  32.074  35.212  1.00  0.00     0.037 A 
ATOM     57  C   UNL A   1      41.779  28.076  30.416  1.00  0.00     0.049 A 
ATOM     58  C   UNL A   1      41.006  31.059  35.087  1.00  0.00     0.074 A 
ATOM     59  C   UNL A   1      42.868  27.224  30.394  1.00  0.00     0.029 A 
ATOM     60  N   UNL A   1      41.774  28.688  31.660  1.00  0.00    -0.354 N 
ATOM     61  N   UNL A   1      41.322  30.304  34.063  1.00  0.00    -0.248 NA
ATOM     62  C   UNL A   1      41.866  30.866  36.264  1.00  0.00     0.031 C 
ATOM     63  C   UNL A   1      43.500  27.289  31.640  1.00  0.00     0.029 A 
ATOM     64  C   UNL A   1      42.830  28.215  32.423  1.00  0.00     0.049 A 
ATOM     65  H   UNL A   1      41.118  29.359  31.959  1.00  0.00     0.167 HD
ATOM     66  C   UNL A   1      42.430  29.567  34.462  1.00  0.00     0.074 A 
ATOM     67  C   UNL A   1      42.740  29.976  35.815  1.00  0.00     0.031 C 
ATOM     68  C   UNL A   1      43.127  28.634  33.768  1.00  0.00     0.037 A 
BRANCH  55  69
ATOM     69  C   UNL A   1      40.912  27.525  28.111  1.00  0.00     0.057 A 
ATOM     70  C   UNL A   1      41.678  27.965  27.025  1.00  0.00     0.134 A 
ATOM     71  C   UNL A   1      40.268  26.287  27.987  1.00  0.00     0.134 A 
ATOM     72  F   UNL A   1      42.311  29.148  27.073  1.00  0.00    -0.206 F 
ATOM     73  C   UNL A   1      41.782  27.216  25.851  1.00  0.00     0.040 A 
ATOM     74  C   UNL A   1      40.385  25.516  26.830  1.00  0.00     0.040 A 
ATOM     75  F   UNL A   1      39.522  25.802  28.992  1.00  0.00    -0.206 F 
ATOM     76  C   UNL A   1      41.139  25.983  25.754  1.00  0.00     0.006 A 
ENDBRANCH  55  69
BRANCH  56  77
ATOM     77  C   UNL A   1      39.720  32.839  36.471  1.00  0.00     0.057 A 
ATOM     78  C   UNL A   1      40.500  33.966  36.751  1.00  0.00     0.134 A 
ATOM     79  C   UNL A   1      38.771  32.458  37.427  1.00  0.00     0.134 A 
ATOM     80  F   UNL A   1      41.440  34.369  35.882  1.00  0.00    -0.206 F 
ATOM     81  C   UNL A   1      40.358  34.676  37.943  1.00  0.00     0.040 A 
ATOM     82  C   UNL A   1      38.600  33.173  38.613  1.00  0.00     0.040 A 
ATOM     83  F   UNL A   1      37.987  31.390  37.215  1.00  0.00    -0.206 F 
ATOM     84  C   UNL A   1      39.401  34.283  38.876  1.00  0.00     0.006 A 
ENDBRANCH  56  77
BRANCH  68  85
ATOM     85  C   UNL A   1      44.309  28.013  34.452  1.00  0.00     0.057 A 
ATOM     86  C   UNL A   1      45.583  28.592  34.394  1.00  0.00     0.134 A 
ATOM     87  C   UNL A   1      44.162  26.843  35.208  1.00  0.00     0.134 A 
ATOM     88  F   UNL A   1      45.792  29.705  33.676  1.00  0.00    -0.206 F 
ATOM     89  C   UNL A   1      46.675  28.016  35.046  1.00  0.00     0.040 A 
ATOM     90  C   UNL A   1      45.240  26.273  35.885  1.00  0.00     0.040 A 
ATOM     91  F   UNL A   1      42.966  26.243  35.311  1.00  0.00    -0.206 F 
ATOM     92  C   UNL A   1      46.502  26.856  35.800  1.00  0.00     0.006 A 
ENDBRANCH  68  85
ENDBRANCH  42  43
ENDBRANCH  34  37
ENDBRANCH  32  33
ENDBRANCH  31  32
ENDBRANCH   1  31
TORSDOF 16
ENDMDL
MODEL 3
REMARK VINA RESULT:     -11.7      1.558      6.135
REMARK SMILES CCc1ccc(C[NH+]2CCC(Oc3ccccc3OC)(C(=O)NCCCNC(=O)c3ccc(-c4c5nc(c(-c6c(F)cccc6F)c6ccc([nH]6)c(-c6c(F)cccc6F)c6nc(c(-c7c(F)cccc7F)c7ccc4[nH]7)C=C6)C=C5)cc3)CC2)nc1
REMARK SMILES IDX 24 1 23 2 21 3 22 4 11 6 8 7 9 8 85 9 10 11 84 12 7 13 6 14
REMARK SMILES IDX 3 15 4 16 87 17 5 18 86 19 2 20 1 21 12 22 13 23 14 24 18 25
REMARK SMILES IDX 15 26 17 27 16 28 19 29 20 30 25 31 26 32 27 33 28 34 29 36
REMARK SMILES IDX 30 37 31 38 83 39 32 40 82 41 33 42 34 43 35 44 76 45 36 46
REMARK SMILES IDX 81 47 75 48 77 49 37 50 80 51 74 52 73 53 38 55 64 56 47 57
REMARK SMILES IDX 63 58 48 59 51 60 62 61 78 62 49 63 50 64 61 66 79 67 52 68
REMARK SMILES IDX 39 69 40 70 45 71 41 72 42 73 44 74 46 75 43 76 65 77 66 78
REMARK SMILES IDX 71 79 67 80 68 81 70 82 72 83 69 84 53 85 54 86 59 87 55 88
REMARK SMILES IDX 56 89 58 90 60 91 57 92
REMARK H PARENT 23 5 8 10 27 35 77 54 51 65
REMARK Flexibility Score: inf
ROOT
ATOM      1  C   UNL A   1      31.699  30.237  26.642  1.00  0.00     0.118 C 
ENDROOT
BRANCH   1   2
ATOM      2  N   UNL A   1      32.674  29.939  25.602  1.00  0.00    -0.353 N 
ATOM      3  C   UNL A   1      32.569  29.243  24.427  1.00  0.00     0.264 C 
ATOM      4  O   UNL A   1      33.523  29.375  23.652  1.00  0.00    -0.270 OA
ATOM      5  H   UNL A   1      33.571  30.305  25.774  1.00  0.00     0.163 HD
BRANCH   3   6
ATOM      6  C   UNL A   1      31.356  28.315  24.100  1.00  0.00     0.197 C 
ATOM      7  N   UNL A   1      32.404  25.662  23.320  1.00  0.00    -0.330 N 
ATOM      8  C   UNL A   1      32.519  26.130  24.701  1.00  0.00     0.267 C 
ATOM      9  C   UNL A   1      32.542  26.790  22.387  1.00  0.00     0.267 C 
ATOM     10  H   UNL A   1      31.473  25.264  23.198  1.00  0.00     0.348 HD
ATOM     11  C   UNL A   1      31.382  27.086  25.013  1.00  0.00     0.120 C 
ATOM     12  C   UNL A   1      31.439  27.836  22.630  1.00  0.00     0.120 C 
BRANCH   7  13
ATOM     13  C   UNL A   1      33.358  24.563  23.018  1.00  0.00     0.319 C 
BRANCH  13  14
ATOM     14  C   UNL A   1      32.908  23.164  23.407  1.00  0.00     0.095 A 
ATOM     15  C   UNL A   1      32.526  20.477  23.940  1.00  0.00    -0.030 A 
ATOM     16  C   UNL A   1      32.998  21.319  24.946  1.00  0.00     0.007 A 
ATOM     17  C   UNL A   1      32.228  21.068  22.714  1.00  0.00     0.115 A 
ATOM     18  C   UNL A   1      33.184  22.675  24.684  1.00  0.00     0.030 A 
ATOM     19  N   UNL A   1      32.394  22.379  22.432  1.00  0.00    -0.255 NA
BRANCH  15  20
ATOM     20  C   UNL A   1      32.429  18.981  24.077  1.00  0.00     0.034 C 
ATOM     21  C   UNL A   1      32.391  18.193  22.775  1.00  0.00     0.009 C 
ENDBRANCH  15  20
ENDBRANCH  13  14
ENDBRANCH   7  13
BRANCH   6  22
ATOM     22  O   UNL A   1      30.224  29.158  24.440  1.00  0.00    -0.473 OA
BRANCH  22  23
ATOM     23  C   UNL A   1      29.526  29.843  23.496  1.00  0.00     0.162 A 
ATOM     24  C   UNL A   1      29.710  31.225  23.402  1.00  0.00     0.050 A 
ATOM     25  C   UNL A   1      28.442  29.257  22.826  1.00  0.00     0.160 A 
ATOM     26  C   UNL A   1      28.908  31.997  22.561  1.00  0.00     0.004 A 
ATOM     27  C   UNL A   1      27.653  30.027  21.965  1.00  0.00     0.050 A 
ATOM     28  C   UNL A   1      27.896  31.393  21.820  1.00  0.00     0.004 A 
BRANCH  25  29
ATOM     29  O   UNL A   1      27.936  28.023  23.148  1.00  0.00    -0.493 OA
ATOM     30  C   UNL A   1      26.590  28.047  23.593  1.00  0.00     0.278 C 
ENDBRANCH  25  29
ENDBRANCH  22  23
ENDBRANCH   6  22
ENDBRANCH   3   6
ENDBRANCH   1   2
BRANCH   1  31
ATOM     31  C   UNL A   1      31.454  31.729  26.822  1.00  0.00     0.042 C 
BRANCH  31  32
ATOM     32  C   UNL A   1      32.717  32.575  26.777  1.00  0.00     0.118 C 
BRANCH  32  33
ATOM     33  N   UNL A   1      32.549  33.864  27.432  1.00  0.00    -0.352 N 
ATOM     34  C   UNL A   1      33.174  34.397  28.531  1.00  0.00     0.251 C 
ATOM     35  H   UNL A   1      31.874  34.450  27.019  1.00  0.00     0.163 HD
ATOM     36  O   UNL A   1      32.734  35.426  29.036  1.00  0.00    -0.269 OA
BRANCH  34  37
ATOM     37  C   UNL A   1      34.363  33.745  29.127  1.00  0.00     0.039 A 
ATOM     38  C   UNL A   1      34.169  32.708  30.046  1.00  0.00     0.014 A 
ATOM     39  C   UNL A   1      35.660  34.175  28.833  1.00  0.00     0.014 A 
ATOM     40  C   UNL A   1      35.270  32.068  30.621  1.00  0.00     0.010 A 
ATOM     41  C   UNL A   1      36.757  33.483  29.341  1.00  0.00     0.010 A 
ATOM     42  C   UNL A   1      36.574  32.428  30.248  1.00  0.00    -0.014 A 
BRANCH  42  43
ATOM     43  C   UNL A   1      37.758  31.724  30.803  1.00  0.00     0.031 A 
ATOM     44  C   UNL A   1      38.296  32.096  32.158  1.00  0.00     0.074 A 
ATOM     45  C   UNL A   1      38.388  30.791  30.061  1.00  0.00     0.049 A 
ATOM     46  N   UNL A   1      39.359  31.649  32.777  1.00  0.00    -0.248 NA
ATOM     47  C   UNL A   1      37.553  33.123  32.906  1.00  0.00     0.031 C 
ATOM     48  C   UNL A   1      37.993  30.370  28.716  1.00  0.00     0.029 A 
ATOM     49  N   UNL A   1      39.501  30.036  30.332  1.00  0.00    -0.354 N 
ATOM     50  C   UNL A   1      39.423  32.350  33.974  1.00  0.00     0.074 A 
ATOM     51  C   UNL A   1      38.319  33.287  33.974  1.00  0.00     0.031 C 
ATOM     52  C   UNL A   1      38.838  29.419  28.288  1.00  0.00     0.029 A 
ATOM     53  C   UNL A   1      39.853  29.188  29.309  1.00  0.00     0.049 A 
ATOM     54  H   UNL A   1      40.000  30.094  31.179  1.00  0.00     0.167 HD
ATOM     55  C   UNL A   1      40.305  32.212  34.993  1.00  0.00     0.037 A 
ATOM     56  C   UNL A   1      40.885  28.329  29.203  1.00  0.00     0.037 A 
ATOM     57  C   UNL A   1      41.384  31.258  35.006  1.00  0.00     0.049 A 
ATOM     58  C   UNL A   1      41.854  28.198  30.345  1.00  0.00     0.074 A 
ATOM     59  C   UNL A   1      42.293  30.998  36.016  1.00  0.00     0.029 A 
ATOM     60  N   UNL A   1      41.698  30.409  33.957  1.00  0.00    -0.354 N 
ATOM     61  N   UNL A   1      41.865  28.825  31.496  1.00  0.00    -0.248 NA
ATOM     62  C   UNL A   1      42.953  27.238  30.173  1.00  0.00     0.031 C 
ATOM     63  C   UNL A   1      43.183  30.020  35.563  1.00  0.00     0.029 A 
ATOM     64  C   UNL A   1      42.802  29.638  34.287  1.00  0.00     0.049 A 
ATOM     65  H   UNL A   1      41.210  30.359  33.103  1.00  0.00     0.167 HD
ATOM     66  C   UNL A   1      42.953  28.317  32.195  1.00  0.00     0.074 A 
ATOM     67  C   UNL A   1      43.569  27.321  31.344  1.00  0.00     0.031 C 
ATOM     68  C   UNL A   1      43.401  28.648  33.430  1.00  0.00     0.037 A 
BRANCH  55  69
ATOM     69  C   UNL A   1      40.136  33.109  36.184  1.00  0.00     0.057 A 
ATOM     70  C   UNL A   1      40.818  34.328  36.293  1.00  0.00     0.134 A 
ATOM     71  C   UNL A   1      39.254  32.769  37.217  1.00  0.00     0.134 A 
ATOM     72  F   UNL A   1      41.687  34.708  35.344  1.00  0.00    -0.206 F 
ATOM     73  C   UNL A   1      40.648  35.165  37.397  1.00  0.00     0.040 A 
ATOM     74  C   UNL A   1      39.055  33.609  38.314  1.00  0.00     0.040 A 
ATOM     75  F   UNL A   1      38.564  31.619  37.174  1.00  0.00    -0.206 F 
ATOM     76  C   UNL A   1      39.758  34.809  38.409  1.00  0.00     0.006 A 
ENDBRANCH  55  69
BRANCH  56  77
ATOM     77  C   UNL A   1      41.047  27.512  27.975  1.00  0.00     0.057 A 
ATOM     78  C   UNL A   1      40.487  26.233  27.882  1.00  0.00     0.134 A 
ATOM     79  C   UNL A   1      41.772  27.981  26.873  1.00  0.00     0.134 A 
ATOM     80  F   UNL A   1      39.799  25.722  28.914  1.00  0.00    -0.206 F 
ATOM     81  C   UNL A   1      40.657  25.441  26.746  1.00  0.00     0.040 A 
ATOM     82  C   UNL A   1      41.929  27.210  25.720  1.00  0.00     0.040 A 
ATOM     83  F   UNL A   1      42.328  29.201  26.897  1.00  0.00    -0.206 F 
ATOM     84  C   UNL A   1      41.376  25.932  25.658  1.00  0.00     0.006 A 
ENDBRANCH  56  77
BRANCH  68  85
ATOM     85  C   UNL A   1      44.600  27.907  33.945  1.00  0.00     0.057 A 
ATOM     86  C   UNL A   1      45.898  28.409  33.793  1.00  0.00     0.134 A 
ATOM     87  C   UNL A   1      44.449  26.696  34.633  1.00  0.00     0.134 A 
ATOM     88  F   UNL A   1      46.111  29.557  33.133  1.00  0.00    -0.206 F 
ATOM     89  C   UNL A   1      47.007  27.722  34.288  1.00  0.00     0.040 A 
ATOM     90  C   UNL A   1      45.548  26.013  35.155  1.00  0.00     0.040 A 
ATOM     91  F   UNL A   1      43.231  26.166  34.820  1.00  0.00    -0.206 F 
ATOM     92  C   UNL A   1      46.832  26.523  34.978  1.00  0.00     0.006 A 
ENDBRANCH  68  85
ENDBRANCH  42  43
ENDBRANCH  34  37
ENDBRANCH  32  33
ENDBRANCH  31  32
ENDBRANCH   1  31
TORSDOF 16
ENDMDL
