MODEL 1
REMARK VINA RESULT:     -12.8      0.000      0.000
REMARK SMILES O=C(NCCCNC(=O)c1cn(C2CN(C(=O)[C@@H]3CC=CCC3)C2)nn1)c1ccc(-c2c3nc(c(-c4c(F)cccc4F)c4ccc([nH]4)c(-c4c(F)cccc4F)c4nc(c(-c5c(F)cccc5F)c5ccc2[nH]5)C=C4)C=C3)cc1
REMARK SMILES IDX 5 1 4 2 3 3 1 4 2 5 27 7 28 8 80 9 29 10 79 11 30 12 31 13
REMARK SMILES IDX 32 14 73 15 33 16 78 17 72 18 74 19 34 20 77 21 71 22 70 23
REMARK SMILES IDX 35 25 61 26 44 27 60 28 45 29 48 30 59 31 75 32 46 33 47 34
REMARK SMILES IDX 58 36 76 37 49 38 36 39 37 40 42 41 38 42 39 43 41 44 43 45
REMARK SMILES IDX 40 46 62 47 63 48 68 49 64 50 65 51 67 52 69 53 66 54 50 55
REMARK SMILES IDX 51 56 56 57 52 58 53 59 55 60 57 61 54 62 6 63 7 64 8 65
REMARK SMILES IDX 9 67 10 68 11 69 26 70 12 71 25 72 13 73 14 74 24 75 15 76
REMARK SMILES IDX 16 77 17 78 18 79 19 80 23 81 20 82 22 83 21 84
REMARK H PARENT 3 6 74 24 48 35 7 66
REMARK Flexibility Score: inf
ROOT
ATOM      1  C   UNL A   1      32.284  29.713  25.728  1.00  0.00     0.042 C 
ENDROOT
BRANCH   1   2
ATOM      2  C   UNL A   1      33.083  29.659  27.026  1.00  0.00     0.118 C 
BRANCH   2   3
ATOM      3  N   UNL A   1      33.445  30.948  27.576  1.00  0.00    -0.352 N 
ATOM      4  O   UNL A   1      34.552  32.776  28.111  1.00  0.00    -0.269 OA
ATOM      5  C   UNL A   1      34.620  31.561  27.906  1.00  0.00     0.251 C 
ATOM      6  H   UNL A   1      32.660  31.515  27.756  1.00  0.00     0.163 HD
BRANCH   5   7
ATOM      7  C   UNL A   1      35.918  30.874  28.141  1.00  0.00     0.039 A 
ATOM      8  C   UNL A   1      36.195  29.519  27.947  1.00  0.00     0.014 A 
ATOM      9  C   UNL A   1      36.939  31.700  28.650  1.00  0.00     0.014 A 
ATOM     10  C   UNL A   1      37.422  28.989  28.359  1.00  0.00     0.010 A 
ATOM     11  C   UNL A   1      38.156  31.180  29.066  1.00  0.00     0.010 A 
ATOM     12  C   UNL A   1      38.384  29.813  28.962  1.00  0.00    -0.014 A 
BRANCH  12  13
ATOM     13  C   UNL A   1      39.726  29.290  29.235  1.00  0.00     0.031 A 
ATOM     14  C   UNL A   1      40.033  29.276  30.695  1.00  0.00     0.074 A 
ATOM     15  C   UNL A   1      40.524  28.709  28.309  1.00  0.00     0.049 A 
ATOM     16  N   UNL A   1      40.923  29.974  31.319  1.00  0.00    -0.248 NA
ATOM     17  C   UNL A   1      39.128  28.534  31.594  1.00  0.00     0.031 C 
ATOM     18  C   UNL A   1      40.211  28.433  26.905  1.00  0.00     0.029 A 
ATOM     19  N   UNL A   1      41.772  28.155  28.442  1.00  0.00    -0.354 N 
ATOM     20  C   UNL A   1      40.851  29.571  32.652  1.00  0.00     0.074 A 
ATOM     21  C   UNL A   1      39.610  28.863  32.794  1.00  0.00     0.031 C 
ATOM     22  C   UNL A   1      41.128  27.581  26.388  1.00  0.00     0.029 A 
ATOM     23  C   UNL A   1      42.169  27.344  27.372  1.00  0.00     0.049 A 
ATOM     24  H   UNL A   1      42.344  28.316  29.228  1.00  0.00     0.167 HD
ATOM     25  C   UNL A   1      41.964  29.587  33.436  1.00  0.00     0.037 A 
ATOM     26  C   UNL A   1      43.254  26.518  27.316  1.00  0.00     0.037 A 
ATOM     27  C   UNL A   1      42.969  30.454  32.870  1.00  0.00     0.049 A 
ATOM     28  C   UNL A   1      44.197  26.952  28.373  1.00  0.00     0.074 A 
ATOM     29  C   UNL A   1      43.043  31.791  32.533  1.00  0.00     0.029 A 
ATOM     30  N   UNL A   1      44.007  29.845  32.211  1.00  0.00    -0.354 N 
ATOM     31  N   UNL A   1      44.853  28.075  28.336  1.00  0.00    -0.248 NA
ATOM     32  C   UNL A   1      44.038  26.353  29.687  1.00  0.00     0.031 C 
ATOM     33  C   UNL A   1      43.813  31.828  31.333  1.00  0.00     0.029 A 
ATOM     34  C   UNL A   1      44.244  30.532  31.055  1.00  0.00     0.049 A 
ATOM     35  H   UNL A   1      44.497  29.049  32.520  1.00  0.00     0.167 HD
ATOM     36  C   UNL A   1      44.759  28.563  29.629  1.00  0.00     0.074 A 
ATOM     37  C   UNL A   1      44.307  27.427  30.433  1.00  0.00     0.031 C 
ATOM     38  C   UNL A   1      44.768  29.907  29.865  1.00  0.00     0.037 A 
BRANCH  25  39
ATOM     39  C   UNL A   1      42.332  28.476  34.405  1.00  0.00     0.057 A 
ATOM     40  C   UNL A   1      42.503  27.173  33.900  1.00  0.00     0.134 A 
ATOM     41  C   UNL A   1      42.192  28.551  35.808  1.00  0.00     0.134 A 
ATOM     42  F   UNL A   1      42.648  26.958  32.583  1.00  0.00    -0.206 F 
ATOM     43  C   UNL A   1      42.420  26.032  34.709  1.00  0.00     0.040 A 
ATOM     44  C   UNL A   1      42.158  27.420  36.630  1.00  0.00     0.040 A 
ATOM     45  F   UNL A   1      41.981  29.698  36.459  1.00  0.00    -0.206 F 
ATOM     46  C   UNL A   1      42.232  26.154  36.078  1.00  0.00     0.006 A 
ENDBRANCH  25  39
BRANCH  26  47
ATOM     47  C   UNL A   1      43.426  25.195  26.655  1.00  0.00     0.057 A 
ATOM     48  C   UNL A   1      42.621  24.092  26.994  1.00  0.00     0.134 A 
ATOM     49  C   UNL A   1      44.157  25.066  25.463  1.00  0.00     0.134 A 
ATOM     50  F   UNL A   1      41.842  24.125  28.086  1.00  0.00    -0.206 F 
ATOM     51  C   UNL A   1      42.525  22.949  26.183  1.00  0.00     0.040 A 
ATOM     52  C   UNL A   1      44.074  23.931  24.646  1.00  0.00     0.040 A 
ATOM     53  F   UNL A   1      44.901  26.080  25.000  1.00  0.00    -0.206 F 
ATOM     54  C   UNL A   1      43.245  22.872  24.996  1.00  0.00     0.006 A 
ENDBRANCH  26  47
BRANCH  38  55
ATOM     55  C   UNL A   1      45.170  30.818  28.739  1.00  0.00     0.057 A 
ATOM     56  C   UNL A   1      44.313  31.254  27.716  1.00  0.00     0.134 A 
ATOM     57  C   UNL A   1      46.449  31.382  28.777  1.00  0.00     0.134 A 
ATOM     58  F   UNL A   1      43.040  30.841  27.650  1.00  0.00    -0.206 F 
ATOM     59  C   UNL A   1      44.731  32.179  26.753  1.00  0.00     0.040 A 
ATOM     60  C   UNL A   1      46.865  32.333  27.845  1.00  0.00     0.040 A 
ATOM     61  F   UNL A   1      47.304  31.049  29.758  1.00  0.00    -0.206 F 
ATOM     62  C   UNL A   1      46.009  32.726  26.821  1.00  0.00     0.006 A 
ENDBRANCH  38  55
ENDBRANCH  12  13
ENDBRANCH   5   7
ENDBRANCH   2   3
ENDBRANCH   1   2
BRANCH   1  63
ATOM     63  C   UNL A   1      31.622  28.395  25.327  1.00  0.00     0.118 C 
BRANCH  63  64
ATOM     64  N   UNL A   1      30.941  28.465  24.043  1.00  0.00    -0.351 N 
ATOM     65  C   UNL A   1      30.763  27.498  23.074  1.00  0.00     0.273 C 
ATOM     66  H   UNL A   1      30.545  29.341  23.833  1.00  0.00     0.163 HD
ATOM     67  O   UNL A   1      30.297  27.835  21.993  1.00  0.00    -0.267 OA
BRANCH  65  68
ATOM     68  C   UNL A   1      31.123  26.124  23.379  1.00  0.00     0.170 A 
ATOM     69  C   UNL A   1      32.310  25.472  23.113  1.00  0.00     0.145 A 
ATOM     70  N   UNL A   1      30.291  25.262  24.050  1.00  0.00    -0.125 NA
ATOM     71  N   UNL A   1      32.090  24.194  23.535  1.00  0.00    -0.245 N 
ATOM     72  N   UNL A   1      30.887  24.078  24.120  1.00  0.00    -0.066 NA
BRANCH  71  73
ATOM     73  C   UNL A   1      32.956  23.066  23.382  1.00  0.00     0.148 C 
ATOM     74  C   UNL A   1      33.969  22.883  24.537  1.00  0.00     0.148 C 
ATOM     75  C   UNL A   1      32.318  21.746  23.873  1.00  0.00     0.148 C 
ATOM     76  N   UNL A   1      33.599  21.480  24.490  1.00  0.00    -0.338 N 
ATOM     77  C   UNL A   1      34.338  20.388  24.831  1.00  0.00     0.226 C 
ATOM     78  O   UNL A   1      35.435  20.515  25.381  1.00  0.00    -0.275 OA
BRANCH  77  79
ATOM     79  C   UNL A   1      33.811  19.003  24.481  1.00  0.00     0.083 C 
ATOM     80  C   UNL A   1      32.762  18.545  25.509  1.00  0.00     0.040 C 
ATOM     81  C   UNL A   1      34.931  17.983  24.250  1.00  0.00     0.018 C 
ATOM     82  C   UNL A   1      32.527  17.064  25.524  1.00  0.00    -0.030 C 
ATOM     83  C   UNL A   1      34.374  16.601  23.905  1.00  0.00     0.028 C 
ATOM     84  C   UNL A   1      33.239  16.193  24.796  1.00  0.00    -0.031 C 
ENDBRANCH  77  79
ENDBRANCH  71  73
ENDBRANCH  65  68
ENDBRANCH  63  64
ENDBRANCH   1  63
TORSDOF 12
ENDMDL
MODEL 2
REMARK VINA RESULT:     -12.7      3.333      8.857
REMARK SMILES O=C(NCCCNC(=O)c1cn(C2CN(C(=O)[C@@H]3CC=CCC3)C2)nn1)c1ccc(-c2c3nc(c(-c4c(F)cccc4F)c4ccc([nH]4)c(-c4c(F)cccc4F)c4nc(c(-c5c(F)cccc5F)c5ccc2[nH]5)C=C4)C=C3)cc1
REMARK SMILES IDX 5 1 4 2 3 3 1 4 2 5 27 7 28 8 80 9 29 10 79 11 30 12 31 13
REMARK SMILES IDX 32 14 73 15 33 16 78 17 72 18 74 19 34 20 77 21 71 22 70 23
REMARK SMILES IDX 35 25 61 26 44 27 60 28 45 29 48 30 59 31 75 32 46 33 47 34
REMARK SMILES IDX 58 36 76 37 49 38 36 39 37 40 42 41 38 42 39 43 41 44 43 45
REMARK SMILES IDX 40 46 62 47 63 48 68 49 64 50 65 51 67 52 69 53 66 54 50 55
REMARK SMILES IDX 51 56 56 57 52 58 53 59 55 60 57 61 54 62 6 63 7 64 8 65
REMARK SMILES IDX 9 67 10 68 11 69 26 70 12 71 25 72 13 73 14 74 24 75 15 76
REMARK SMILES IDX 16 77 17 78 18 79 19 80 23 81 20 82 22 83 21 84
REMARK H PARENT 3 6 74 24 48 35 7 66
REMARK Flexibility Score: inf
ROOT
ATOM      1  C   UNL A   1      43.352  18.448  26.157  1.00  0.00     0.042 C 
ENDROOT
BRANCH   1   2
ATOM      2  C   UNL A   1      43.344  19.425  24.985  1.00  0.00     0.118 C 
BRANCH   2   3
ATOM      3  N   UNL A   1      44.651  19.875  24.556  1.00  0.00    -0.352 N 
ATOM      4  O   UNL A   1      46.610  20.878  24.466  1.00  0.00    -0.269 OA
ATOM      5  C   UNL A   1      45.431  20.964  24.823  1.00  0.00     0.251 C 
ATOM      6  H   UNL A   1      45.076  19.252  23.923  1.00  0.00     0.163 HD
BRANCH   5   7
ATOM      7  C   UNL A   1      44.954  22.252  25.392  1.00  0.00     0.039 A 
ATOM      8  C   UNL A   1      43.946  23.071  24.879  1.00  0.00     0.014 A 
ATOM      9  C   UNL A   1      45.642  22.679  26.545  1.00  0.00     0.014 A 
ATOM     10  C   UNL A   1      43.714  24.332  25.441  1.00  0.00     0.010 A 
ATOM     11  C   UNL A   1      45.421  23.929  27.103  1.00  0.00     0.010 A 
ATOM     12  C   UNL A   1      44.486  24.778  26.525  1.00  0.00    -0.014 A 
BRANCH  12  13
ATOM     13  C   UNL A   1      44.126  26.021  27.213  1.00  0.00     0.031 A 
ATOM     14  C   UNL A   1      45.060  27.135  26.877  1.00  0.00     0.074 A 
ATOM     15  C   UNL A   1      42.984  26.205  27.916  1.00  0.00     0.049 A 
ATOM     16  N   UNL A   1      45.884  27.738  27.668  1.00  0.00    -0.248 NA
ATOM     17  C   UNL A   1      45.230  27.503  25.458  1.00  0.00     0.031 C 
ATOM     18  C   UNL A   1      41.876  25.261  28.084  1.00  0.00     0.029 A 
ATOM     19  N   UNL A   1      42.520  27.317  28.571  1.00  0.00    -0.354 N 
ATOM     20  C   UNL A   1      46.493  28.727  26.897  1.00  0.00     0.074 A 
ATOM     21  C   UNL A   1      46.219  28.395  25.527  1.00  0.00     0.031 C 
ATOM     22  C   UNL A   1      40.796  25.905  28.589  1.00  0.00     0.029 A 
ATOM     23  C   UNL A   1      41.160  27.275  28.904  1.00  0.00     0.049 A 
ATOM     24  H   UNL A   1      43.097  28.084  28.789  1.00  0.00     0.167 HD
ATOM     25  C   UNL A   1      46.898  29.894  27.469  1.00  0.00     0.037 A 
ATOM     26  C   UNL A   1      40.390  28.299  29.373  1.00  0.00     0.037 A 
ATOM     27  C   UNL A   1      47.032  29.737  28.897  1.00  0.00     0.049 A 
ATOM     28  C   UNL A   1      41.304  29.333  29.909  1.00  0.00     0.074 A 
ATOM     29  C   UNL A   1      47.774  28.929  29.737  1.00  0.00     0.029 A 
ATOM     30  N   UNL A   1      46.020  30.248  29.669  1.00  0.00    -0.354 N 
ATOM     31  N   UNL A   1      42.022  29.173  30.982  1.00  0.00    -0.248 NA
ATOM     32  C   UNL A   1      41.768  30.350  28.981  1.00  0.00     0.031 C 
ATOM     33  C   UNL A   1      46.903  28.628  30.825  1.00  0.00     0.029 A 
ATOM     34  C   UNL A   1      45.717  29.336  30.640  1.00  0.00     0.049 A 
ATOM     35  H   UNL A   1      45.587  31.124  29.545  1.00  0.00     0.167 HD
ATOM     36  C   UNL A   1      43.259  29.697  30.641  1.00  0.00     0.074 A 
ATOM     37  C   UNL A   1      43.022  30.470  29.422  1.00  0.00     0.031 C 
ATOM     38  C   UNL A   1      44.399  29.207  31.210  1.00  0.00     0.037 A 
BRANCH  25  39
ATOM     39  C   UNL A   1      46.694  31.261  26.838  1.00  0.00     0.057 A 
ATOM     40  C   UNL A   1      47.765  32.174  26.852  1.00  0.00     0.134 A 
ATOM     41  C   UNL A   1      45.438  31.829  26.537  1.00  0.00     0.134 A 
ATOM     42  F   UNL A   1      49.015  31.766  27.124  1.00  0.00    -0.206 F 
ATOM     43  C   UNL A   1      47.583  33.555  26.699  1.00  0.00     0.040 A 
ATOM     44  C   UNL A   1      45.254  33.201  26.334  1.00  0.00     0.040 A 
ATOM     45  F   UNL A   1      44.304  31.124  26.518  1.00  0.00    -0.206 F 
ATOM     46  C   UNL A   1      46.320  34.074  26.454  1.00  0.00     0.006 A 
ENDBRANCH  25  39
BRANCH  26  47
ATOM     47  C   UNL A   1      38.958  28.621  29.122  1.00  0.00     0.057 A 
ATOM     48  C   UNL A   1      38.016  28.660  30.167  1.00  0.00     0.134 A 
ATOM     49  C   UNL A   1      38.545  29.209  27.915  1.00  0.00     0.134 A 
ATOM     50  F   UNL A   1      38.322  28.171  31.379  1.00  0.00    -0.206 F 
ATOM     51  C   UNL A   1      36.759  29.271  30.030  1.00  0.00     0.040 A 
ATOM     52  C   UNL A   1      37.293  29.820  27.763  1.00  0.00     0.040 A 
ATOM     53  F   UNL A   1      39.382  29.299  26.872  1.00  0.00    -0.206 F 
ATOM     54  C   UNL A   1      36.399  29.866  28.826  1.00  0.00     0.006 A 
ENDBRANCH  26  47
BRANCH  38  55
ATOM     55  C   UNL A   1      44.260  28.308  32.406  1.00  0.00     0.057 A 
ATOM     56  C   UNL A   1      44.098  26.915  32.347  1.00  0.00     0.134 A 
ATOM     57  C   UNL A   1      44.436  28.872  33.674  1.00  0.00     0.134 A 
ATOM     58  F   UNL A   1      44.013  26.272  31.174  1.00  0.00    -0.206 F 
ATOM     59  C   UNL A   1      44.071  26.129  33.505  1.00  0.00     0.040 A 
ATOM     60  C   UNL A   1      44.449  28.095  34.833  1.00  0.00     0.040 A 
ATOM     61  F   UNL A   1      44.648  30.192  33.801  1.00  0.00    -0.206 F 
ATOM     62  C   UNL A   1      44.254  26.719  34.752  1.00  0.00     0.006 A 
ENDBRANCH  38  55
ENDBRANCH  12  13
ENDBRANCH   5   7
ENDBRANCH   2   3
ENDBRANCH   1   2
BRANCH   1  63
ATOM     63  C   UNL A   1      42.303  18.729  27.232  1.00  0.00     0.118 C 
BRANCH  63  64
ATOM     64  N   UNL A   1      42.472  20.027  27.869  1.00  0.00    -0.351 N 
ATOM     65  C   UNL A   1      41.803  21.216  27.661  1.00  0.00     0.273 C 
ATOM     66  H   UNL A   1      43.174  20.062  28.557  1.00  0.00     0.163 HD
ATOM     67  O   UNL A   1      42.232  22.228  28.199  1.00  0.00    -0.267 OA
BRANCH  65  68
ATOM     68  C   UNL A   1      40.614  21.216  26.824  1.00  0.00     0.170 A 
ATOM     69  C   UNL A   1      39.844  22.293  26.433  1.00  0.00     0.145 A 
ATOM     70  N   UNL A   1      40.104  20.080  26.248  1.00  0.00    -0.125 NA
ATOM     71  N   UNL A   1      38.822  21.732  25.727  1.00  0.00    -0.245 N 
ATOM     72  N   UNL A   1      38.994  20.407  25.596  1.00  0.00    -0.066 NA
BRANCH  71  73
ATOM     73  C   UNL A   1      37.667  22.389  25.195  1.00  0.00     0.148 C 
ATOM     74  C   UNL A   1      36.426  21.476  25.060  1.00  0.00     0.148 C 
ATOM     75  C   UNL A   1      36.860  23.150  26.272  1.00  0.00     0.148 C 
ATOM     76  N   UNL A   1      35.688  22.583  25.642  1.00  0.00    -0.338 N 
ATOM     77  C   UNL A   1      34.378  22.919  25.477  1.00  0.00     0.226 C 
ATOM     78  O   UNL A   1      33.606  22.171  24.872  1.00  0.00    -0.275 OA
BRANCH  77  79
ATOM     79  C   UNL A   1      33.888  24.257  26.014  1.00  0.00     0.083 C 
ATOM     80  C   UNL A   1      32.390  24.190  26.356  1.00  0.00     0.040 C 
ATOM     81  C   UNL A   1      34.258  25.433  25.104  1.00  0.00     0.018 C 
ATOM     82  C   UNL A   1      31.724  25.530  26.450  1.00  0.00    -0.030 C 
ATOM     83  C   UNL A   1      33.751  26.763  25.664  1.00  0.00     0.028 C 
ATOM     84  C   UNL A   1      32.336  26.685  26.153  1.00  0.00    -0.031 C 
ENDBRANCH  77  79
ENDBRANCH  71  73
ENDBRANCH  65  68
ENDBRANCH  63  64
ENDBRANCH   1  63
TORSDOF 12
ENDMDL
MODEL 3
REMARK VINA RESULT:     -12.7      2.567      8.334
REMARK SMILES O=C(NCCCNC(=O)c1cn(C2CN(C(=O)[C@@H]3CC=CCC3)C2)nn1)c1ccc(-c2c3nc(c(-c4c(F)cccc4F)c4ccc([nH]4)c(-c4c(F)cccc4F)c4nc(c(-c5c(F)cccc5F)c5ccc2[nH]5)C=C4)C=C3)cc1
REMARK SMILES IDX 5 1 4 2 3 3 1 4 2 5 27 7 28 8 80 9 29 10 79 11 30 12 31 13
REMARK SMILES IDX 32 14 73 15 33 16 78 17 72 18 74 19 34 20 77 21 71 22 70 23
REMARK SMILES IDX 35 25 61 26 44 27 60 28 45 29 48 30 59 31 75 32 46 33 47 34
REMARK SMILES IDX 58 36 76 37 49 38 36 39 37 40 42 41 38 42 39 43 41 44 43 45
REMARK SMILES IDX 40 46 62 47 63 48 68 49 64 50 65 51 67 52 69 53 66 54 50 55
REMARK SMILES IDX 51 56 56 57 52 58 53 59 55 60 57 61 54 62 6 63 7 64 8 65
REMARK SMILES IDX 9 67 10 68 11 69 26 70 12 71 25 72 13 73 14 74 24 75 15 76
REMARK SMILES IDX 16 77 17 78 18 79 19 80 23 81 20 82 22 83 21 84
REMARK H PARENT 3 6 74 24 48 35 7 66
REMARK Flexibility Score: inf
ROOT
ATOM      1  C   UNL A   1      36.730  20.735  25.209  1.00  0.00     0.042 C 
ENDROOT
BRANCH   1   2
ATOM      2  C   UNL A   1      37.887  21.729  25.227  1.00  0.00     0.118 C 
BRANCH   2   3
ATOM      3  N   UNL A   1      39.133  21.208  25.747  1.00  0.00    -0.352 N 
ATOM      4  O   UNL A   1      40.859  20.779  27.047  1.00  0.00    -0.269 OA
ATOM      5  C   UNL A   1      40.036  21.624  26.684  1.00  0.00     0.251 C 
ATOM      6  H   UNL A   1      39.391  20.356  25.327  1.00  0.00     0.163 HD
BRANCH   5   7
ATOM      7  C   UNL A   1      40.169  23.012  27.201  1.00  0.00     0.039 A 
ATOM      8  C   UNL A   1      39.280  24.069  26.998  1.00  0.00     0.014 A 
ATOM      9  C   UNL A   1      41.348  23.258  27.932  1.00  0.00     0.014 A 
ATOM     10  C   UNL A   1      39.620  25.360  27.418  1.00  0.00     0.010 A 
ATOM     11  C   UNL A   1      41.693  24.536  28.347  1.00  0.00     0.010 A 
ATOM     12  C   UNL A   1      40.849  25.600  28.052  1.00  0.00    -0.014 A 
BRANCH  12  13
ATOM     13  C   UNL A   1      41.123  26.914  28.640  1.00  0.00     0.031 A 
ATOM     14  C   UNL A   1      42.329  27.554  28.037  1.00  0.00     0.074 A 
ATOM     15  C   UNL A   1      40.289  27.565  29.483  1.00  0.00     0.049 A 
ATOM     16  N   UNL A   1      43.452  27.820  28.618  1.00  0.00    -0.248 NA
ATOM     17  C   UNL A   1      42.358  27.759  26.576  1.00  0.00     0.031 C 
ATOM     18  C   UNL A   1      38.958  27.143  29.928  1.00  0.00     0.029 A 
ATOM     19  N   UNL A   1      40.412  28.799  30.069  1.00  0.00    -0.354 N 
ATOM     20  C   UNL A   1      44.235  28.451  27.653  1.00  0.00     0.074 A 
ATOM     21  C   UNL A   1      43.606  28.191  26.389  1.00  0.00     0.031 C 
ATOM     22  C   UNL A   1      38.318  28.182  30.515  1.00  0.00     0.029 A 
ATOM     23  C   UNL A   1      39.227  29.311  30.610  1.00  0.00     0.049 A 
ATOM     24  H   UNL A   1      41.267  29.287  30.106  1.00  0.00     0.167 HD
ATOM     25  C   UNL A   1      45.152  29.390  28.017  1.00  0.00     0.037 A 
ATOM     26  C   UNL A   1      39.004  30.576  31.070  1.00  0.00     0.037 A 
ATOM     27  C   UNL A   1      45.480  29.259  29.417  1.00  0.00     0.049 A 
ATOM     28  C   UNL A   1      40.325  31.191  31.337  1.00  0.00     0.074 A 
ATOM     29  C   UNL A   1      46.003  28.264  30.220  1.00  0.00     0.029 A 
ATOM     30  N   UNL A   1      44.901  30.162  30.271  1.00  0.00    -0.354 N 
ATOM     31  N   UNL A   1      41.115  30.811  32.298  1.00  0.00    -0.248 NA
ATOM     32  C   UNL A   1      40.958  31.898  30.237  1.00  0.00     0.031 C 
ATOM     33  C   UNL A   1      45.302  28.381  31.456  1.00  0.00     0.029 A 
ATOM     34  C   UNL A   1      44.462  29.490  31.375  1.00  0.00     0.049 A 
ATOM     35  H   UNL A   1      44.818  31.131  30.115  1.00  0.00     0.167 HD
ATOM     36  C   UNL A   1      42.371  30.789  31.713  1.00  0.00     0.074 A 
ATOM     37  C   UNL A   1      42.223  31.535  30.463  1.00  0.00     0.031 C 
ATOM     38  C   UNL A   1      43.325  29.917  32.152  1.00  0.00     0.037 A 
BRANCH  25  39
ATOM     39  C   UNL A   1      45.368  30.696  27.272  1.00  0.00     0.057 A 
ATOM     40  C   UNL A   1      46.688  31.117  27.023  1.00  0.00     0.134 A 
ATOM     41  C   UNL A   1      44.387  31.695  27.097  1.00  0.00     0.134 A 
ATOM     42  F   UNL A   1      47.719  30.267  27.152  1.00  0.00    -0.206 F 
ATOM     43  C   UNL A   1      47.015  32.450  26.742  1.00  0.00     0.040 A 
ATOM     44  C   UNL A   1      44.700  33.018  26.768  1.00  0.00     0.040 A 
ATOM     45  F   UNL A   1      43.087  31.489  27.327  1.00  0.00    -0.206 F 
ATOM     46  C   UNL A   1      46.019  33.409  26.629  1.00  0.00     0.006 A 
ENDBRANCH  25  39
BRANCH  26  47
ATOM     47  C   UNL A   1      37.782  31.425  31.007  1.00  0.00     0.057 A 
ATOM     48  C   UNL A   1      37.255  31.868  29.779  1.00  0.00     0.134 A 
ATOM     49  C   UNL A   1      36.926  31.552  32.113  1.00  0.00     0.134 A 
ATOM     50  F   UNL A   1      37.968  31.750  28.648  1.00  0.00    -0.206 F 
ATOM     51  C   UNL A   1      35.951  32.376  29.656  1.00  0.00     0.040 A 
ATOM     52  C   UNL A   1      35.623  32.059  32.005  1.00  0.00     0.040 A 
ATOM     53  F   UNL A   1      37.289  31.096  33.319  1.00  0.00    -0.206 F 
ATOM     54  C   UNL A   1      35.126  32.460  30.771  1.00  0.00     0.006 A 
ENDBRANCH  26  47
BRANCH  38  55
ATOM     55  C   UNL A   1      43.081  29.201  33.451  1.00  0.00     0.057 A 
ATOM     56  C   UNL A   1      42.343  28.014  33.586  1.00  0.00     0.134 A 
ATOM     57  C   UNL A   1      43.741  29.670  34.591  1.00  0.00     0.134 A 
ATOM     58  F   UNL A   1      41.751  27.437  32.532  1.00  0.00    -0.206 F 
ATOM     59  C   UNL A   1      42.238  27.351  34.814  1.00  0.00     0.040 A 
ATOM     60  C   UNL A   1      43.674  28.998  35.812  1.00  0.00     0.040 A 
ATOM     61  F   UNL A   1      44.506  30.772  34.523  1.00  0.00    -0.206 F 
ATOM     62  C   UNL A   1      42.911  27.840  35.930  1.00  0.00     0.006 A 
ENDBRANCH  38  55
ENDBRANCH  12  13
ENDBRANCH   5   7
ENDBRANCH   2   3
ENDBRANCH   1   2
BRANCH   1  63
ATOM     63  C   UNL A   1      35.412  21.275  25.763  1.00  0.00     0.118 C 
BRANCH  63  64
ATOM     64  N   UNL A   1      34.278  20.404  25.491  1.00  0.00    -0.351 N 
ATOM     65  C   UNL A   1      32.924  20.674  25.497  1.00  0.00     0.273 C 
ATOM     66  H   UNL A   1      34.514  19.476  25.266  1.00  0.00     0.163 HD
ATOM     67  O   UNL A   1      32.143  19.737  25.400  1.00  0.00    -0.267 OA
BRANCH  65  68
ATOM     68  C   UNL A   1      32.484  22.055  25.607  1.00  0.00     0.170 A 
ATOM     69  C   UNL A   1      32.491  23.035  24.635  1.00  0.00     0.145 A 
ATOM     70  N   UNL A   1      31.933  22.576  26.751  1.00  0.00    -0.125 NA
ATOM     71  N   UNL A   1      32.047  24.149  25.283  1.00  0.00    -0.245 N 
ATOM     72  N   UNL A   1      31.689  23.865  26.545  1.00  0.00    -0.066 NA
BRANCH  71  73
ATOM     73  C   UNL A   1      31.977  25.483  24.771  1.00  0.00     0.148 C 
ATOM     74  C   UNL A   1      31.770  25.563  23.239  1.00  0.00     0.148 C 
ATOM     75  C   UNL A   1      30.564  26.099  24.888  1.00  0.00     0.148 C 
ATOM     76  N   UNL A   1      30.776  26.578  23.540  1.00  0.00    -0.338 N 
ATOM     77  C   UNL A   1      30.366  27.627  22.773  1.00  0.00     0.226 C 
ATOM     78  O   UNL A   1      30.739  27.738  21.603  1.00  0.00    -0.275 OA
BRANCH  77  79
ATOM     79  C   UNL A   1      29.470  28.689  23.398  1.00  0.00     0.083 C 
ATOM     80  C   UNL A   1      28.011  28.503  22.947  1.00  0.00     0.040 C 
ATOM     81  C   UNL A   1      30.002  30.111  23.187  1.00  0.00     0.018 C 
ATOM     82  C   UNL A   1      27.158  29.724  23.123  1.00  0.00    -0.030 C 
ATOM     83  C   UNL A   1      29.083  31.157  23.819  1.00  0.00     0.028 C 
ATOM     84  C   UNL A   1      27.634  30.910  23.526  1.00  0.00    -0.031 C 
ENDBRANCH  77  79
ENDBRANCH  71  73
ENDBRANCH  65  68
ENDBRANCH  63  64
ENDBRANCH   1  63
TORSDOF 12
ENDMDL
