MODEL 1
REMARK VINA RESULT:     -10.6      0.000      0.000
REMARK SMILES CC(C)(C[NH2+]CCc1cccnc1)C(=O)NCCCNC(=O)c1ccc(-c2c3nc(c(-c4c(F)cccc4F)c4ccc([nH]4)c(-c4c(F)cccc4F)c4nc(c(-c5c(F)cccc5F)c5ccc2[nH]5)C=C4)C=C3)cc1
REMARK SMILES IDX 14 1 15 2 16 3 2 5 1 6 3 7 4 8 5 9 6 12 7 13 8 14 9 15 13 16
REMARK SMILES IDX 10 17 12 18 11 19 17 20 18 21 19 22 20 23 21 24 22 26 23 27
REMARK SMILES IDX 24 28 76 29 25 30 75 31 26 32 27 33 28 34 69 35 29 36 74 37
REMARK SMILES IDX 68 38 70 39 30 40 73 41 67 42 66 43 31 45 57 46 40 47 56 48
REMARK SMILES IDX 41 49 44 50 55 51 71 52 42 53 43 54 54 56 72 57 45 58 32 59
REMARK SMILES IDX 33 60 38 61 34 62 35 63 37 64 39 65 36 66 58 67 59 68 64 69
REMARK SMILES IDX 60 70 61 71 63 72 65 73 62 74 46 75 47 76 52 77 48 78 49 79
REMARK SMILES IDX 51 80 53 81 50 82
REMARK H PARENT 16 4 5 10 5 11 20 25 70 44 44 55
REMARK Flexibility Score: inf
ROOT
ATOM      1  C   UNL A   1      33.192  29.031  25.905  1.00  0.00     0.231 C 
ATOM      2  O   UNL A   1      34.403  28.959  25.660  1.00  0.00    -0.274 OA
ATOM      3  N   UNL A   1      32.680  30.291  25.925  1.00  0.00    -0.355 N 
ATOM      4  H   UNL A   1      33.345  30.988  25.727  1.00  0.00     0.163 HD
ENDROOT
BRANCH   1   5
ATOM      5  C   UNL A   1      32.341  27.762  26.114  1.00  0.00     0.092 C 
ATOM      6  C   UNL A   1      31.699  27.834  27.527  1.00  0.00     0.027 C 
ATOM      7  C   UNL A   1      33.250  26.518  26.129  1.00  0.00     0.027 C 
BRANCH   5   8
ATOM      8  C   UNL A   1      31.213  27.608  25.058  1.00  0.00     0.276 C 
BRANCH   8   9
ATOM      9  N   UNL A   1      31.698  27.732  23.681  1.00  0.00    -0.345 N 
ATOM     10  H   UNL A   1      31.507  26.855  23.196  1.00  0.00     0.346 HD
ATOM     11  H   UNL A   1      32.693  27.947  23.745  1.00  0.00     0.346 HD
BRANCH   9  12
ATOM     12  C   UNL A   1      31.090  28.819  22.911  1.00  0.00     0.265 C 
BRANCH  12  13
ATOM     13  C   UNL A   1      29.631  29.195  23.237  1.00  0.00     0.098 C 
BRANCH  13  14
ATOM     14  C   UNL A   1      29.075  30.475  22.667  1.00  0.00    -0.024 A 
ATOM     15  C   UNL A   1      29.084  31.704  23.329  1.00  0.00     0.007 A 
ATOM     16  C   UNL A   1      28.557  30.468  21.370  1.00  0.00     0.114 A 
ATOM     17  C   UNL A   1      28.538  32.830  22.716  1.00  0.00     0.020 A 
ATOM     18  N   UNL A   1      28.033  31.545  20.744  1.00  0.00    -0.264 NA
ATOM     19  C   UNL A   1      28.027  32.701  21.436  1.00  0.00     0.111 A 
ENDBRANCH  13  14
ENDBRANCH  12  13
ENDBRANCH   9  12
ENDBRANCH   8   9
ENDBRANCH   5   8
ENDBRANCH   1   5
BRANCH   3  20
ATOM     20  C   UNL A   1      31.352  30.813  26.179  1.00  0.00     0.117 C 
BRANCH  20  21
ATOM     21  C   UNL A   1      31.350  32.315  26.440  1.00  0.00     0.042 C 
BRANCH  21  22
ATOM     22  C   UNL A   1      32.565  32.820  27.212  1.00  0.00     0.118 C 
BRANCH  22  23
ATOM     23  N   UNL A   1      32.420  34.203  27.647  1.00  0.00    -0.352 N 
ATOM     24  C   UNL A   1      33.053  34.904  28.641  1.00  0.00     0.251 C 
ATOM     25  H   UNL A   1      31.754  34.724  27.141  1.00  0.00     0.163 HD
ATOM     26  O   UNL A   1      32.625  36.014  28.960  1.00  0.00    -0.269 OA
BRANCH  24  27
ATOM     27  C   UNL A   1      34.229  34.349  29.345  1.00  0.00     0.039 A 
ATOM     28  C   UNL A   1      34.029  33.660  30.546  1.00  0.00     0.014 A 
ATOM     29  C   UNL A   1      35.527  34.544  28.866  1.00  0.00     0.014 A 
ATOM     30  C   UNL A   1      35.118  33.114  31.229  1.00  0.00     0.010 A 
ATOM     31  C   UNL A   1      36.604  33.934  29.505  1.00  0.00     0.010 A 
ATOM     32  C   UNL A   1      36.413  33.218  30.695  1.00  0.00    -0.014 A 
BRANCH  32  33
ATOM     33  C   UNL A   1      37.575  32.580  31.364  1.00  0.00     0.031 A 
ATOM     34  C   UNL A   1      38.277  31.415  30.724  1.00  0.00     0.074 A 
ATOM     35  C   UNL A   1      37.945  32.996  32.589  1.00  0.00     0.049 A 
ATOM     36  N   UNL A   1      39.258  30.684  31.189  1.00  0.00    -0.248 NA
ATOM     37  C   UNL A   1      37.791  30.996  29.401  1.00  0.00     0.031 C 
ATOM     38  C   UNL A   1      37.302  34.071  33.348  1.00  0.00     0.029 A 
ATOM     39  N   UNL A   1      38.941  32.553  33.422  1.00  0.00    -0.354 N 
ATOM     40  C   UNL A   1      39.487  29.704  30.232  1.00  0.00     0.074 A 
ATOM     41  C   UNL A   1      38.513  29.908  29.180  1.00  0.00     0.031 C 
ATOM     42  C   UNL A   1      37.925  34.210  34.528  1.00  0.00     0.029 A 
ATOM     43  C   UNL A   1      38.992  33.218  34.622  1.00  0.00     0.049 A 
ATOM     44  H   UNL A   1      39.561  31.826  33.182  1.00  0.00     0.167 HD
ATOM     45  C   UNL A   1      40.431  28.733  30.221  1.00  0.00     0.037 A 
ATOM     46  C   UNL A   1      39.801  33.044  35.684  1.00  0.00     0.037 A 
ATOM     47  C   UNL A   1      41.422  28.557  31.251  1.00  0.00     0.049 A 
ATOM     48  C   UNL A   1      40.869  31.992  35.633  1.00  0.00     0.074 A 
ATOM     49  C   UNL A   1      42.484  27.669  31.282  1.00  0.00     0.029 A 
ATOM     50  N   UNL A   1      41.471  29.282  32.432  1.00  0.00    -0.354 N 
ATOM     51  N   UNL A   1      41.132  31.129  34.681  1.00  0.00    -0.248 NA
ATOM     52  C   UNL A   1      41.761  31.894  36.797  1.00  0.00     0.031 C 
ATOM     53  C   UNL A   1      43.151  27.829  32.503  1.00  0.00     0.029 A 
ATOM     54  C   UNL A   1      42.529  28.844  33.212  1.00  0.00     0.049 A 
ATOM     55  H   UNL A   1      40.845  30.000  32.679  1.00  0.00     0.167 HD
ATOM     56  C   UNL A   1      42.225  30.397  35.123  1.00  0.00     0.074 A 
ATOM     57  C   UNL A   1      42.588  30.927  36.421  1.00  0.00     0.031 C 
ATOM     58  C   UNL A   1      42.872  29.376  34.507  1.00  0.00     0.037 A 
BRANCH  45  59
ATOM     59  C   UNL A   1      40.431  27.786  29.058  1.00  0.00     0.057 A 
ATOM     60  C   UNL A   1      41.202  28.019  27.911  1.00  0.00     0.134 A 
ATOM     61  C   UNL A   1      39.660  26.617  29.090  1.00  0.00     0.134 A 
ATOM     62  F   UNL A   1      41.955  29.125  27.811  1.00  0.00    -0.206 F 
ATOM     63  C   UNL A   1      41.178  27.142  26.825  1.00  0.00     0.040 A 
ATOM     64  C   UNL A   1      39.648  25.719  28.020  1.00  0.00     0.040 A 
ATOM     65  F   UNL A   1      38.903  26.329  30.160  1.00  0.00    -0.206 F 
ATOM     66  C   UNL A   1      40.402  25.986  26.880  1.00  0.00     0.006 A 
ENDBRANCH  45  59
BRANCH  46  67
ATOM     67  C   UNL A   1      39.640  33.915  36.874  1.00  0.00     0.057 A 
ATOM     68  C   UNL A   1      40.238  35.179  36.928  1.00  0.00     0.134 A 
ATOM     69  C   UNL A   1      38.858  33.519  37.965  1.00  0.00     0.134 A 
ATOM     70  F   UNL A   1      41.009  35.604  35.918  1.00  0.00    -0.206 F 
ATOM     71  C   UNL A   1      40.071  36.017  38.031  1.00  0.00     0.040 A 
ATOM     72  C   UNL A   1      38.667  34.356  39.066  1.00  0.00     0.040 A 
ATOM     73  F   UNL A   1      38.252  32.323  37.965  1.00  0.00    -0.206 F 
ATOM     74  C   UNL A   1      39.277  35.608  39.101  1.00  0.00     0.006 A 
ENDBRANCH  46  67
BRANCH  58  75
ATOM     75  C   UNL A   1      44.041  28.773  35.227  1.00  0.00     0.057 A 
ATOM     76  C   UNL A   1      45.343  29.259  35.052  1.00  0.00     0.134 A 
ATOM     77  C   UNL A   1      43.858  27.719  36.130  1.00  0.00     0.134 A 
ATOM     78  F   UNL A   1      45.585  30.258  34.190  1.00  0.00    -0.206 F 
ATOM     79  C   UNL A   1      46.425  28.705  35.738  1.00  0.00     0.040 A 
ATOM     80  C   UNL A   1      44.928  27.171  36.838  1.00  0.00     0.040 A 
ATOM     81  F   UNL A   1      42.634  27.212  36.347  1.00  0.00    -0.206 F 
ATOM     82  C   UNL A   1      46.217  27.662  36.639  1.00  0.00     0.006 A 
ENDBRANCH  58  75
ENDBRANCH  32  33
ENDBRANCH  24  27
ENDBRANCH  22  23
ENDBRANCH  21  22
ENDBRANCH  20  21
ENDBRANCH   3  20
TORSDOF 15
ENDMDL
MODEL 2
REMARK VINA RESULT:     -10.6      3.612      9.220
REMARK SMILES CC(C)(C[NH2+]CCc1cccnc1)C(=O)NCCCNC(=O)c1ccc(-c2c3nc(c(-c4c(F)cccc4F)c4ccc([nH]4)c(-c4c(F)cccc4F)c4nc(c(-c5c(F)cccc5F)c5ccc2[nH]5)C=C4)C=C3)cc1
REMARK SMILES IDX 14 1 15 2 16 3 2 5 1 6 3 7 4 8 5 9 6 12 7 13 8 14 9 15 13 16
REMARK SMILES IDX 10 17 12 18 11 19 17 20 18 21 19 22 20 23 21 24 22 26 23 27
REMARK SMILES IDX 24 28 76 29 25 30 75 31 26 32 27 33 28 34 69 35 29 36 74 37
REMARK SMILES IDX 68 38 70 39 30 40 73 41 67 42 66 43 31 45 57 46 40 47 56 48
REMARK SMILES IDX 41 49 44 50 55 51 71 52 42 53 43 54 54 56 72 57 45 58 32 59
REMARK SMILES IDX 33 60 38 61 34 62 35 63 37 64 39 65 36 66 58 67 59 68 64 69
REMARK SMILES IDX 60 70 61 71 63 72 65 73 62 74 46 75 47 76 52 77 48 78 49 79
REMARK SMILES IDX 51 80 53 81 50 82
REMARK H PARENT 16 4 5 10 5 11 20 25 70 44 44 55
REMARK Flexibility Score: inf
ROOT
ATOM      1  C   UNL A   1      33.050  36.772  30.630  1.00  0.00     0.231 C 
ATOM      2  O   UNL A   1      32.928  38.004  30.612  1.00  0.00    -0.274 OA
ATOM      3  N   UNL A   1      32.921  36.160  29.423  1.00  0.00    -0.355 N 
ATOM      4  H   UNL A   1      32.757  36.785  28.682  1.00  0.00     0.163 HD
ENDROOT
BRANCH   1   5
ATOM      5  C   UNL A   1      33.381  36.021  31.936  1.00  0.00     0.092 C 
ATOM      6  C   UNL A   1      32.064  35.420  32.499  1.00  0.00     0.027 C 
ATOM      7  C   UNL A   1      33.878  37.016  33.002  1.00  0.00     0.027 C 
BRANCH   5   8
ATOM      8  C   UNL A   1      34.409  34.874  31.732  1.00  0.00     0.276 C 
BRANCH   8   9
ATOM      9  N   UNL A   1      33.910  33.573  32.184  1.00  0.00    -0.345 N 
ATOM     10  H   UNL A   1      32.997  33.416  31.759  1.00  0.00     0.346 HD
ATOM     11  H   UNL A   1      33.877  33.616  33.203  1.00  0.00     0.346 HD
BRANCH   9  12
ATOM     12  C   UNL A   1      34.770  32.435  31.848  1.00  0.00     0.265 C 
BRANCH  12  13
ATOM     13  C   UNL A   1      36.201  32.429  32.419  1.00  0.00     0.098 C 
BRANCH  13  14
ATOM     14  C   UNL A   1      37.293  33.105  31.628  1.00  0.00    -0.024 A 
ATOM     15  C   UNL A   1      37.452  32.992  30.245  1.00  0.00     0.007 A 
ATOM     16  C   UNL A   1      38.186  33.947  32.293  1.00  0.00     0.114 A 
ATOM     17  C   UNL A   1      38.500  33.653  29.608  1.00  0.00     0.020 A 
ATOM     18  N   UNL A   1      39.204  34.611  31.702  1.00  0.00    -0.264 NA
ATOM     19  C   UNL A   1      39.342  34.442  30.372  1.00  0.00     0.111 A 
ENDBRANCH  13  14
ENDBRANCH  12  13
ENDBRANCH   9  12
ENDBRANCH   8   9
ENDBRANCH   5   8
ENDBRANCH   1   5
BRANCH   3  20
ATOM     20  C   UNL A   1      32.975  34.772  29.010  1.00  0.00     0.117 C 
BRANCH  20  21
ATOM     21  C   UNL A   1      34.094  34.500  28.009  1.00  0.00     0.042 C 
BRANCH  21  22
ATOM     22  C   UNL A   1      34.858  33.204  28.259  1.00  0.00     0.118 C 
BRANCH  22  23
ATOM     23  N   UNL A   1      34.137  32.026  27.793  1.00  0.00    -0.352 N 
ATOM     24  C   UNL A   1      34.536  30.721  27.664  1.00  0.00     0.251 C 
ATOM     25  H   UNL A   1      33.205  32.196  27.524  1.00  0.00     0.163 HD
ATOM     26  O   UNL A   1      33.815  29.929  27.058  1.00  0.00    -0.269 OA
BRANCH  24  27
ATOM     27  C   UNL A   1      35.821  30.249  28.227  1.00  0.00     0.039 A 
ATOM     28  C   UNL A   1      35.828  29.691  29.509  1.00  0.00     0.014 A 
ATOM     29  C   UNL A   1      37.022  30.398  27.529  1.00  0.00     0.014 A 
ATOM     30  C   UNL A   1      37.023  29.227  30.064  1.00  0.00     0.010 A 
ATOM     31  C   UNL A   1      38.199  29.865  28.049  1.00  0.00     0.010 A 
ATOM     32  C   UNL A   1      38.214  29.280  29.323  1.00  0.00    -0.014 A 
BRANCH  32  33
ATOM     33  C   UNL A   1      39.480  28.722  29.861  1.00  0.00     0.031 A 
ATOM     34  C   UNL A   1      40.134  29.339  31.066  1.00  0.00     0.074 A 
ATOM     35  C   UNL A   1      40.088  27.711  29.211  1.00  0.00     0.049 A 
ATOM     36  N   UNL A   1      41.275  29.038  31.632  1.00  0.00    -0.248 NA
ATOM     37  C   UNL A   1      39.427  30.462  31.698  1.00  0.00     0.031 C 
ATOM     38  C   UNL A   1      39.592  27.070  27.991  1.00  0.00     0.029 A 
ATOM     39  N   UNL A   1      41.265  27.057  29.475  1.00  0.00    -0.354 N 
ATOM     40  C   UNL A   1      41.436  29.951  32.666  1.00  0.00     0.074 A 
ATOM     41  C   UNL A   1      40.296  30.843  32.622  1.00  0.00     0.031 C 
ATOM     42  C   UNL A   1      40.452  26.110  27.619  1.00  0.00     0.029 A 
ATOM     43  C   UNL A   1      41.572  26.085  28.556  1.00  0.00     0.049 A 
ATOM     44  H   UNL A   1      41.835  27.265  30.251  1.00  0.00     0.167 HD
ATOM     45  C   UNL A   1      42.433  30.030  33.580  1.00  0.00     0.037 A 
ATOM     46  C   UNL A   1      42.640  25.269  28.470  1.00  0.00     0.037 A 
ATOM     47  C   UNL A   1      43.546  29.118  33.645  1.00  0.00     0.049 A 
ATOM     48  C   UNL A   1      43.711  25.344  29.518  1.00  0.00     0.074 A 
ATOM     49  C   UNL A   1      44.551  29.052  34.594  1.00  0.00     0.029 A 
ATOM     50  N   UNL A   1      43.799  28.115  32.722  1.00  0.00    -0.354 N 
ATOM     51  N   UNL A   1      43.806  26.155  30.544  1.00  0.00    -0.248 NA
ATOM     52  C   UNL A   1      44.819  24.385  29.404  1.00  0.00     0.031 C 
ATOM     53  C   UNL A   1      45.437  28.034  34.220  1.00  0.00     0.029 A 
ATOM     54  C   UNL A   1      44.960  27.440  33.063  1.00  0.00     0.049 A 
ATOM     55  H   UNL A   1      43.237  27.913  31.939  1.00  0.00     0.167 HD
ATOM     56  C   UNL A   1      44.972  25.796  31.206  1.00  0.00     0.074 A 
ATOM     57  C   UNL A   1      45.543  24.683  30.475  1.00  0.00     0.031 C 
ATOM     58  C   UNL A   1      45.521  26.340  32.320  1.00  0.00     0.037 A 
BRANCH  45  59
ATOM     59  C   UNL A   1      42.363  31.146  34.580  1.00  0.00     0.057 A 
ATOM     60  C   UNL A   1      42.981  32.384  34.355  1.00  0.00     0.134 A 
ATOM     61  C   UNL A   1      41.659  30.986  35.780  1.00  0.00     0.134 A 
ATOM     62  F   UNL A   1      43.681  32.599  33.231  1.00  0.00    -0.206 F 
ATOM     63  C   UNL A   1      42.929  33.409  35.301  1.00  0.00     0.040 A 
ATOM     64  C   UNL A   1      41.578  32.013  36.723  1.00  0.00     0.040 A 
ATOM     65  F   UNL A   1      41.039  29.829  36.057  1.00  0.00    -0.206 F 
ATOM     66  C   UNL A   1      42.222  33.225  36.488  1.00  0.00     0.006 A 
ENDBRANCH  45  59
BRANCH  46  67
ATOM     67  C   UNL A   1      42.724  24.293  27.356  1.00  0.00     0.057 A 
ATOM     68  C   UNL A   1      43.313  24.642  26.136  1.00  0.00     0.134 A 
ATOM     69  C   UNL A   1      42.249  22.984  27.497  1.00  0.00     0.134 A 
ATOM     70  F   UNL A   1      43.771  25.886  25.939  1.00  0.00    -0.206 F 
ATOM     71  C   UNL A   1      43.421  23.724  25.090  1.00  0.00     0.040 A 
ATOM     72  C   UNL A   1      42.369  22.050  26.467  1.00  0.00     0.040 A 
ATOM     73  F   UNL A   1      41.684  22.589  28.648  1.00  0.00    -0.206 F 
ATOM     74  C   UNL A   1      42.955  22.421  25.258  1.00  0.00     0.006 A 
ENDBRANCH  46  67
BRANCH  58  75
ATOM     75  C   UNL A   1      46.797  25.733  32.820  1.00  0.00     0.057 A 
ATOM     76  C   UNL A   1      46.800  24.695  33.760  1.00  0.00     0.134 A 
ATOM     77  C   UNL A   1      48.035  26.168  32.330  1.00  0.00     0.134 A 
ATOM     78  F   UNL A   1      45.647  24.244  34.278  1.00  0.00    -0.206 F 
ATOM     79  C   UNL A   1      47.991  24.123  34.210  1.00  0.00     0.040 A 
ATOM     80  C   UNL A   1      49.231  25.588  32.755  1.00  0.00     0.040 A 
ATOM     81  F   UNL A   1      48.101  27.155  31.423  1.00  0.00    -0.206 F 
ATOM     82  C   UNL A   1      49.210  24.565  33.701  1.00  0.00     0.006 A 
ENDBRANCH  58  75
ENDBRANCH  32  33
ENDBRANCH  24  27
ENDBRANCH  22  23
ENDBRANCH  21  22
ENDBRANCH  20  21
ENDBRANCH   3  20
TORSDOF 15
ENDMDL
MODEL 3
REMARK VINA RESULT:     -10.5      5.823     10.240
REMARK SMILES CC(C)(C[NH2+]CCc1cccnc1)C(=O)NCCCNC(=O)c1ccc(-c2c3nc(c(-c4c(F)cccc4F)c4ccc([nH]4)c(-c4c(F)cccc4F)c4nc(c(-c5c(F)cccc5F)c5ccc2[nH]5)C=C4)C=C3)cc1
REMARK SMILES IDX 14 1 15 2 16 3 2 5 1 6 3 7 4 8 5 9 6 12 7 13 8 14 9 15 13 16
REMARK SMILES IDX 10 17 12 18 11 19 17 20 18 21 19 22 20 23 21 24 22 26 23 27
REMARK SMILES IDX 24 28 76 29 25 30 75 31 26 32 27 33 28 34 69 35 29 36 74 37
REMARK SMILES IDX 68 38 70 39 30 40 73 41 67 42 66 43 31 45 57 46 40 47 56 48
REMARK SMILES IDX 41 49 44 50 55 51 71 52 42 53 43 54 54 56 72 57 45 58 32 59
REMARK SMILES IDX 33 60 38 61 34 62 35 63 37 64 39 65 36 66 58 67 59 68 64 69
REMARK SMILES IDX 60 70 61 71 63 72 65 73 62 74 46 75 47 76 52 77 48 78 49 79
REMARK SMILES IDX 51 80 53 81 50 82
REMARK H PARENT 16 4 5 10 5 11 20 25 70 44 44 55
REMARK Flexibility Score: inf
ROOT
ATOM      1  C   UNL A   1      35.389  22.101  25.850  1.00  0.00     0.231 C 
ATOM      2  O   UNL A   1      34.821  22.077  26.950  1.00  0.00    -0.274 OA
ATOM      3  N   UNL A   1      36.334  21.141  25.666  1.00  0.00    -0.355 N 
ATOM      4  H   UNL A   1      36.435  20.537  26.436  1.00  0.00     0.163 HD
ENDROOT
BRANCH   1   5
ATOM      5  C   UNL A   1      34.992  23.125  24.768  1.00  0.00     0.092 C 
ATOM      6  C   UNL A   1      36.019  23.028  23.606  1.00  0.00     0.027 C 
ATOM      7  C   UNL A   1      35.124  24.556  25.325  1.00  0.00     0.027 C 
BRANCH   5   8
ATOM      8  C   UNL A   1      33.568  22.885  24.199  1.00  0.00     0.276 C 
BRANCH   8   9
ATOM      9  N   UNL A   1      32.594  22.521  25.232  1.00  0.00    -0.345 N 
ATOM     10  H   UNL A   1      31.877  23.245  25.263  1.00  0.00     0.346 HD
ATOM     11  H   UNL A   1      33.117  22.435  26.103  1.00  0.00     0.346 HD
BRANCH   9  12
ATOM     12  C   UNL A   1      31.929  21.232  25.022  1.00  0.00     0.265 C 
BRANCH  12  13
ATOM     13  C   UNL A   1      32.142  20.532  23.666  1.00  0.00     0.098 C 
BRANCH  13  14
ATOM     14  C   UNL A   1      32.905  19.232  23.641  1.00  0.00    -0.024 A 
ATOM     15  C   UNL A   1      33.951  18.914  24.509  1.00  0.00     0.007 A 
ATOM     16  C   UNL A   1      32.524  18.243  22.733  1.00  0.00     0.114 A 
ATOM     17  C   UNL A   1      34.598  17.684  24.399  1.00  0.00     0.020 A 
ATOM     18  N   UNL A   1      33.122  17.037  22.611  1.00  0.00    -0.264 NA
ATOM     19  C   UNL A   1      34.152  16.789  23.443  1.00  0.00     0.111 A 
ENDBRANCH  13  14
ENDBRANCH  12  13
ENDBRANCH   9  12
ENDBRANCH   8   9
ENDBRANCH   5   8
ENDBRANCH   1   5
BRANCH   3  20
ATOM     20  C   UNL A   1      37.222  20.829  24.564  1.00  0.00     0.117 C 
BRANCH  20  21
ATOM     21  C   UNL A   1      38.149  19.658  24.869  1.00  0.00     0.042 C 
BRANCH  21  22
ATOM     22  C   UNL A   1      39.133  19.915  26.006  1.00  0.00     0.118 C 
BRANCH  22  23
ATOM     23  N   UNL A   1      40.377  19.173  25.852  1.00  0.00    -0.352 N 
ATOM     24  C   UNL A   1      41.684  19.575  25.965  1.00  0.00     0.251 C 
ATOM     25  H   UNL A   1      40.262  18.221  25.629  1.00  0.00     0.163 HD
ATOM     26  O   UNL A   1      42.580  18.817  25.595  1.00  0.00    -0.269 OA
BRANCH  24  27
ATOM     27  C   UNL A   1      42.035  20.906  26.509  1.00  0.00     0.039 A 
ATOM     28  C   UNL A   1      42.459  21.902  25.624  1.00  0.00     0.014 A 
ATOM     29  C   UNL A   1      42.003  21.165  27.882  1.00  0.00     0.014 A 
ATOM     30  C   UNL A   1      42.788  23.172  26.106  1.00  0.00     0.010 A 
ATOM     31  C   UNL A   1      42.255  22.451  28.353  1.00  0.00     0.010 A 
ATOM     32  C   UNL A   1      42.656  23.466  27.472  1.00  0.00    -0.014 A 
BRANCH  32  33
ATOM     33  C   UNL A   1      42.925  24.829  27.995  1.00  0.00     0.031 A 
ATOM     34  C   UNL A   1      44.309  25.218  28.435  1.00  0.00     0.074 A 
ATOM     35  C   UNL A   1      41.903  25.691  28.154  1.00  0.00     0.049 A 
ATOM     36  N   UNL A   1      44.719  26.332  28.985  1.00  0.00    -0.248 NA
ATOM     37  C   UNL A   1      45.364  24.208  28.262  1.00  0.00     0.031 C 
ATOM     38  C   UNL A   1      40.502  25.413  27.830  1.00  0.00     0.029 A 
ATOM     39  N   UNL A   1      41.881  26.972  28.646  1.00  0.00    -0.354 N 
ATOM     40  C   UNL A   1      46.070  26.148  29.251  1.00  0.00     0.074 A 
ATOM     41  C   UNL A   1      46.400  24.799  28.840  1.00  0.00     0.031 C 
ATOM     42  C   UNL A   1      39.761  26.492  28.122  1.00  0.00     0.029 A 
ATOM     43  C   UNL A   1      40.626  27.528  28.679  1.00  0.00     0.049 A 
ATOM     44  H   UNL A   1      42.689  27.448  28.947  1.00  0.00     0.167 HD
ATOM     45  C   UNL A   1      46.959  27.026  29.773  1.00  0.00     0.037 A 
ATOM     46  C   UNL A   1      40.215  28.733  29.116  1.00  0.00     0.037 A 
ATOM     47  C   UNL A   1      46.637  28.379  30.145  1.00  0.00     0.049 A 
ATOM     48  C   UNL A   1      41.224  29.707  29.651  1.00  0.00     0.074 A 
ATOM     49  C   UNL A   1      47.487  29.378  30.587  1.00  0.00     0.029 A 
ATOM     50  N   UNL A   1      45.360  28.922  30.121  1.00  0.00    -0.354 N 
ATOM     51  N   UNL A   1      42.515  29.551  29.813  1.00  0.00    -0.248 NA
ATOM     52  C   UNL A   1      40.722  31.028  30.053  1.00  0.00     0.031 C 
ATOM     53  C   UNL A   1      46.718  30.514  30.870  1.00  0.00     0.029 A 
ATOM     54  C   UNL A   1      45.396  30.234  30.565  1.00  0.00     0.049 A 
ATOM     55  H   UNL A   1      44.550  28.445  29.831  1.00  0.00     0.167 HD
ATOM     56  C   UNL A   1      42.983  30.755  30.321  1.00  0.00     0.074 A 
ATOM     57  C   UNL A   1      41.839  31.638  30.425  1.00  0.00     0.031 C 
ATOM     58  C   UNL A   1      44.247  31.098  30.671  1.00  0.00     0.037 A 
BRANCH  45  59
ATOM     59  C   UNL A   1      48.365  26.544  29.976  1.00  0.00     0.057 A 
ATOM     60  C   UNL A   1      49.367  26.756  29.019  1.00  0.00     0.134 A 
ATOM     61  C   UNL A   1      48.726  25.871  31.149  1.00  0.00     0.134 A 
ATOM     62  F   UNL A   1      49.085  27.384  27.868  1.00  0.00    -0.206 F 
ATOM     63  C   UNL A   1      50.667  26.284  29.207  1.00  0.00     0.040 A 
ATOM     64  C   UNL A   1      50.030  25.417  31.360  1.00  0.00     0.040 A 
ATOM     65  F   UNL A   1      47.818  25.640  32.110  1.00  0.00    -0.206 F 
ATOM     66  C   UNL A   1      51.002  25.615  30.382  1.00  0.00     0.006 A 
ENDBRANCH  45  59
BRANCH  46  67
ATOM     67  C   UNL A   1      38.777  29.085  29.036  1.00  0.00     0.057 A 
ATOM     68  C   UNL A   1      37.949  28.996  30.161  1.00  0.00     0.134 A 
ATOM     69  C   UNL A   1      38.206  29.550  27.846  1.00  0.00     0.134 A 
ATOM     70  F   UNL A   1      38.439  28.543  31.324  1.00  0.00    -0.206 F 
ATOM     71  C   UNL A   1      36.601  29.350  30.104  1.00  0.00     0.040 A 
ATOM     72  C   UNL A   1      36.864  29.927  27.779  1.00  0.00     0.040 A 
ATOM     73  F   UNL A   1      38.952  29.667  26.737  1.00  0.00    -0.206 F 
ATOM     74  C   UNL A   1      36.057  29.824  28.911  1.00  0.00     0.006 A 
ENDBRANCH  46  67
BRANCH  58  75
ATOM     75  C   UNL A   1      44.460  32.489  31.188  1.00  0.00     0.057 A 
ATOM     76  C   UNL A   1      44.411  32.780  32.557  1.00  0.00     0.134 A 
ATOM     77  C   UNL A   1      44.750  33.541  30.311  1.00  0.00     0.134 A 
ATOM     78  F   UNL A   1      44.123  31.818  33.447  1.00  0.00    -0.206 F 
ATOM     79  C   UNL A   1      44.626  34.074  33.035  1.00  0.00     0.040 A 
ATOM     80  C   UNL A   1      44.989  34.834  30.778  1.00  0.00     0.040 A 
ATOM     81  F   UNL A   1      44.817  33.327  28.988  1.00  0.00    -0.206 F 
ATOM     82  C   UNL A   1      44.923  35.104  32.144  1.00  0.00     0.006 A 
ENDBRANCH  58  75
ENDBRANCH  32  33
ENDBRANCH  24  27
ENDBRANCH  22  23
ENDBRANCH  21  22
ENDBRANCH  20  21
ENDBRANCH   3  20
TORSDOF 15
ENDMDL
