MODEL 1
REMARK VINA RESULT:     -11.6      0.000      0.000
REMARK SMILES O=C(NCCCNC(=O)c1ccc(C[NH2+]Cc2cc(F)ccc2F)nc1)c1ccc(-c2c3nc(c(-c4c(F)cccc4F)c4ccc([nH]4)c(-c4c(F)cccc4F)c4nc(c(-c5c(F)cccc5F)c5ccc2[nH]5)C=C4)C=C3)cc1
REMARK SMILES IDX 6 1 5 2 4 3 3 4 1 5 2 6 27 8 28 9 80 10 29 11 79 12 30 13
REMARK SMILES IDX 31 14 32 15 73 16 33 17 78 18 72 19 74 20 34 21 77 22 71 23
REMARK SMILES IDX 70 24 35 26 61 27 44 28 60 29 45 30 48 31 59 32 75 33 46 34
REMARK SMILES IDX 47 35 58 37 76 38 49 39 36 40 37 41 42 42 38 43 39 44 41 45
REMARK SMILES IDX 43 46 40 47 62 48 63 49 68 50 64 51 65 52 67 53 69 54 66 55
REMARK SMILES IDX 50 56 51 57 56 58 52 59 53 60 55 61 57 62 54 63 7 64 8 65
REMARK SMILES IDX 9 67 10 68 11 69 26 70 12 71 25 72 13 73 14 74 15 75 16 78
REMARK SMILES IDX 17 79 18 80 23 81 19 82 22 83 24 84 20 85 21 86
REMARK H PARENT 3 7 74 25 48 36 7 66 15 76 15 77
REMARK Flexibility Score: inf
ROOT
ATOM      1  C   UNL A   1      31.813  30.551  27.118  1.00  0.00     0.118 C 
ENDROOT
BRANCH   1   2
ATOM      2  C   UNL A   1      31.527  32.031  26.893  1.00  0.00     0.042 C 
BRANCH   2   3
ATOM      3  C   UNL A   1      32.769  32.911  26.899  1.00  0.00     0.118 C 
BRANCH   3   4
ATOM      4  N   UNL A   1      32.557  34.176  27.591  1.00  0.00    -0.352 N 
ATOM      5  O   UNL A   1      32.670  35.679  29.258  1.00  0.00    -0.269 OA
ATOM      6  C   UNL A   1      33.138  34.675  28.728  1.00  0.00     0.251 C 
ATOM      7  H   UNL A   1      31.888  34.766  27.174  1.00  0.00     0.163 HD
BRANCH   6   8
ATOM      8  C   UNL A   1      34.313  34.007  29.329  1.00  0.00     0.039 A 
ATOM      9  C   UNL A   1      34.158  32.962  30.243  1.00  0.00     0.014 A 
ATOM     10  C   UNL A   1      35.592  34.403  28.930  1.00  0.00     0.014 A 
ATOM     11  C   UNL A   1      35.274  32.411  30.863  1.00  0.00     0.010 A 
ATOM     12  C   UNL A   1      36.715  33.788  29.488  1.00  0.00     0.010 A 
ATOM     13  C   UNL A   1      36.564  32.805  30.479  1.00  0.00    -0.014 A 
BRANCH  13  14
ATOM     14  C   UNL A   1      37.747  32.132  31.068  1.00  0.00     0.031 A 
ATOM     15  C   UNL A   1      38.490  31.071  30.310  1.00  0.00     0.074 A 
ATOM     16  C   UNL A   1      38.137  32.477  32.310  1.00  0.00     0.049 A 
ATOM     17  N   UNL A   1      39.508  30.344  30.695  1.00  0.00    -0.248 NA
ATOM     18  C   UNL A   1      38.023  30.778  28.948  1.00  0.00     0.031 C 
ATOM     19  C   UNL A   1      37.481  33.482  33.149  1.00  0.00     0.029 A 
ATOM     20  N   UNL A   1      39.169  32.017  33.086  1.00  0.00    -0.354 N 
ATOM     21  C   UNL A   1      39.788  29.492  29.635  1.00  0.00     0.074 A 
ATOM     22  C   UNL A   1      38.818  29.776  28.598  1.00  0.00     0.031 C 
ATOM     23  C   UNL A   1      38.133  33.574  34.315  1.00  0.00     0.029 A 
ATOM     24  C   UNL A   1      39.213  32.594  34.330  1.00  0.00     0.049 A 
ATOM     25  H   UNL A   1      39.815  31.340  32.780  1.00  0.00     0.167 HD
ATOM     26  C   UNL A   1      40.768  28.562  29.538  1.00  0.00     0.037 A 
ATOM     27  C   UNL A   1      40.011  32.342  35.384  1.00  0.00     0.037 A 
ATOM     28  C   UNL A   1      41.738  28.296  30.569  1.00  0.00     0.049 A 
ATOM     29  C   UNL A   1      41.076  31.294  35.260  1.00  0.00     0.074 A 
ATOM     30  C   UNL A   1      42.806  27.416  30.544  1.00  0.00     0.029 A 
ATOM     31  N   UNL A   1      41.750  28.901  31.818  1.00  0.00    -0.354 N 
ATOM     32  N   UNL A   1      41.362  30.530  34.235  1.00  0.00    -0.248 NA
ATOM     33  C   UNL A   1      41.926  31.070  36.436  1.00  0.00     0.031 C 
ATOM     34  C   UNL A   1      43.435  27.454  31.793  1.00  0.00     0.029 A 
ATOM     35  C   UNL A   1      42.788  28.392  32.582  1.00  0.00     0.049 A 
ATOM     36  H   UNL A   1      41.115  29.591  32.118  1.00  0.00     0.167 HD
ATOM     37  C   UNL A   1      42.433  29.743  34.634  1.00  0.00     0.074 A 
ATOM     38  C   UNL A   1      42.753  30.133  35.992  1.00  0.00     0.031 C 
ATOM     39  C   UNL A   1      43.091  28.788  33.934  1.00  0.00     0.037 A 
BRANCH  26  40
ATOM     40  C   UNL A   1      40.823  27.742  28.281  1.00  0.00     0.057 A 
ATOM     41  C   UNL A   1      41.562  28.145  27.160  1.00  0.00     0.134 A 
ATOM     42  C   UNL A   1      40.142  26.521  28.198  1.00  0.00     0.134 A 
ATOM     43  F   UNL A   1      42.228  29.310  27.169  1.00  0.00    -0.206 F 
ATOM     44  C   UNL A   1      41.599  27.378  25.994  1.00  0.00     0.040 A 
ATOM     45  C   UNL A   1      40.192  25.732  27.047  1.00  0.00     0.040 A 
ATOM     46  F   UNL A   1      39.422  26.071  29.237  1.00  0.00    -0.206 F 
ATOM     47  C   UNL A   1      40.916  26.165  25.939  1.00  0.00     0.006 A 
ENDBRANCH  26  40
BRANCH  27  48
ATOM     48  C   UNL A   1      39.803  33.095  36.643  1.00  0.00     0.057 A 
ATOM     49  C   UNL A   1      38.902  32.652  37.615  1.00  0.00     0.134 A 
ATOM     50  C   UNL A   1      40.549  34.247  36.929  1.00  0.00     0.134 A 
ATOM     51  F   UNL A   1      38.152  31.562  37.391  1.00  0.00    -0.206 F 
ATOM     52  C   UNL A   1      38.748  33.324  38.828  1.00  0.00     0.040 A 
ATOM     53  C   UNL A   1      40.423  34.915  38.146  1.00  0.00     0.040 A 
ATOM     54  F   UNL A   1      41.439  34.714  36.040  1.00  0.00    -0.206 F 
ATOM     55  C   UNL A   1      39.517  34.454  39.099  1.00  0.00     0.006 A 
ENDBRANCH  27  48
BRANCH  39  56
ATOM     56  C   UNL A   1      44.239  28.108  34.619  1.00  0.00     0.057 A 
ATOM     57  C   UNL A   1      45.533  28.642  34.593  1.00  0.00     0.134 A 
ATOM     58  C   UNL A   1      44.035  26.935  35.356  1.00  0.00     0.134 A 
ATOM     59  F   UNL A   1      45.795  29.755  33.891  1.00  0.00    -0.206 F 
ATOM     60  C   UNL A   1      46.587  28.026  35.270  1.00  0.00     0.040 A 
ATOM     61  C   UNL A   1      45.075  26.323  36.056  1.00  0.00     0.040 A 
ATOM     62  F   UNL A   1      42.817  26.377  35.424  1.00  0.00    -0.206 F 
ATOM     63  C   UNL A   1      46.357  26.868  36.011  1.00  0.00     0.006 A 
ENDBRANCH  39  56
ENDBRANCH  13  14
ENDBRANCH   6   8
ENDBRANCH   3   4
ENDBRANCH   2   3
ENDBRANCH   1   2
BRANCH   1  64
ATOM     64  N   UNL A   1      33.189  30.317  27.532  1.00  0.00    -0.352 N 
ATOM     65  C   UNL A   1      34.082  29.376  27.094  1.00  0.00     0.252 C 
ATOM     66  H   UNL A   1      33.526  30.925  28.230  1.00  0.00     0.163 HD
ATOM     67  O   UNL A   1      35.117  29.170  27.726  1.00  0.00    -0.269 OA
BRANCH  65  68
ATOM     68  C   UNL A   1      33.809  28.609  25.874  1.00  0.00     0.058 A 
ATOM     69  C   UNL A   1      33.736  27.217  25.875  1.00  0.00     0.017 A 
ATOM     70  C   UNL A   1      33.564  29.284  24.691  1.00  0.00     0.125 A 
ATOM     71  C   UNL A   1      33.480  26.552  24.680  1.00  0.00     0.030 A 
ATOM     72  N   UNL A   1      33.327  28.661  23.512  1.00  0.00    -0.255 NA
ATOM     73  C   UNL A   1      33.292  27.304  23.518  1.00  0.00     0.094 A 
BRANCH  73  74
ATOM     74  C   UNL A   1      32.960  26.596  22.217  1.00  0.00     0.318 C 
BRANCH  74  75
ATOM     75  N   UNL A   1      31.603  26.910  21.766  1.00  0.00    -0.337 N 
ATOM     76  H   UNL A   1      31.339  26.242  21.042  1.00  0.00     0.346 HD
ATOM     77  H   UNL A   1      31.615  27.869  21.420  1.00  0.00     0.346 HD
BRANCH  75  78
ATOM     78  C   UNL A   1      30.611  26.850  22.833  1.00  0.00     0.300 C 
BRANCH  78  79
ATOM     79  C   UNL A   1      29.613  27.978  22.792  1.00  0.00     0.045 A 
ATOM     80  C   UNL A   1      29.968  29.233  22.276  1.00  0.00     0.051 A 
ATOM     81  C   UNL A   1      28.302  27.796  23.253  1.00  0.00     0.132 A 
ATOM     82  C   UNL A   1      29.024  30.255  22.222  1.00  0.00     0.123 A 
ATOM     83  C   UNL A   1      27.360  28.819  23.196  1.00  0.00     0.043 A 
ATOM     84  F   UNL A   1      27.928  26.603  23.739  1.00  0.00    -0.206 F 
ATOM     85  F   UNL A   1      29.374  31.445  21.718  1.00  0.00    -0.207 F 
ATOM     86  C   UNL A   1      27.724  30.060  22.675  1.00  0.00     0.042 A 
ENDBRANCH  78  79
ENDBRANCH  75  78
ENDBRANCH  74  75
ENDBRANCH  73  74
ENDBRANCH  65  68
ENDBRANCH   1  64
TORSDOF 14
ENDMDL
MODEL 2
REMARK VINA RESULT:     -11.6      1.722      2.943
REMARK SMILES O=C(NCCCNC(=O)c1ccc(C[NH2+]Cc2cc(F)ccc2F)nc1)c1ccc(-c2c3nc(c(-c4c(F)cccc4F)c4ccc([nH]4)c(-c4c(F)cccc4F)c4nc(c(-c5c(F)cccc5F)c5ccc2[nH]5)C=C4)C=C3)cc1
REMARK SMILES IDX 6 1 5 2 4 3 3 4 1 5 2 6 27 8 28 9 80 10 29 11 79 12 30 13
REMARK SMILES IDX 31 14 32 15 73 16 33 17 78 18 72 19 74 20 34 21 77 22 71 23
REMARK SMILES IDX 70 24 35 26 61 27 44 28 60 29 45 30 48 31 59 32 75 33 46 34
REMARK SMILES IDX 47 35 58 37 76 38 49 39 36 40 37 41 42 42 38 43 39 44 41 45
REMARK SMILES IDX 43 46 40 47 62 48 63 49 68 50 64 51 65 52 67 53 69 54 66 55
REMARK SMILES IDX 50 56 51 57 56 58 52 59 53 60 55 61 57 62 54 63 7 64 8 65
REMARK SMILES IDX 9 67 10 68 11 69 26 70 12 71 25 72 13 73 14 74 15 75 16 78
REMARK SMILES IDX 17 79 18 80 23 81 19 82 22 83 24 84 20 85 21 86
REMARK H PARENT 3 7 74 25 48 36 7 66 15 76 15 77
REMARK Flexibility Score: inf
ROOT
ATOM      1  C   UNL A   1      31.065  30.770  25.385  1.00  0.00     0.118 C 
ENDROOT
BRANCH   1   2
ATOM      2  C   UNL A   1      31.034  31.815  26.494  1.00  0.00     0.042 C 
BRANCH   2   3
ATOM      3  C   UNL A   1      32.402  32.368  26.865  1.00  0.00     0.118 C 
BRANCH   3   4
ATOM      4  N   UNL A   1      32.344  33.751  27.318  1.00  0.00    -0.352 N 
ATOM      5  O   UNL A   1      32.715  35.519  28.657  1.00  0.00    -0.269 OA
ATOM      6  C   UNL A   1      33.061  34.398  28.292  1.00  0.00     0.251 C 
ATOM      7  H   UNL A   1      31.683  34.311  26.850  1.00  0.00     0.163 HD
BRANCH   6   8
ATOM      8  C   UNL A   1      34.235  33.752  28.917  1.00  0.00     0.039 A 
ATOM      9  C   UNL A   1      35.531  34.204  28.657  1.00  0.00     0.014 A 
ATOM     10  C   UNL A   1      34.028  32.706  29.820  1.00  0.00     0.014 A 
ATOM     11  C   UNL A   1      36.622  33.524  29.184  1.00  0.00     0.010 A 
ATOM     12  C   UNL A   1      35.123  32.079  30.420  1.00  0.00     0.010 A 
ATOM     13  C   UNL A   1      36.430  32.467  30.085  1.00  0.00    -0.014 A 
BRANCH  13  14
ATOM     14  C   UNL A   1      37.601  31.821  30.726  1.00  0.00     0.031 A 
ATOM     15  C   UNL A   1      38.404  30.781  30.001  1.00  0.00     0.074 A 
ATOM     16  C   UNL A   1      37.926  32.171  31.985  1.00  0.00     0.049 A 
ATOM     17  N   UNL A   1      39.421  30.077  30.430  1.00  0.00    -0.248 NA
ATOM     18  C   UNL A   1      38.006  30.481  28.618  1.00  0.00     0.031 C 
ATOM     19  C   UNL A   1      37.208  33.158  32.795  1.00  0.00     0.029 A 
ATOM     20  N   UNL A   1      38.933  31.734  32.806  1.00  0.00    -0.354 N 
ATOM     21  C   UNL A   1      39.769  29.236  29.383  1.00  0.00     0.074 A 
ATOM     22  C   UNL A   1      38.841  29.499  28.303  1.00  0.00     0.031 C 
ATOM     23  C   UNL A   1      37.804  33.262  33.990  1.00  0.00     0.029 A 
ATOM     24  C   UNL A   1      38.906  32.308  34.052  1.00  0.00     0.049 A 
ATOM     25  H   UNL A   1      39.608  31.075  32.529  1.00  0.00     0.167 HD
ATOM     26  C   UNL A   1      40.775  28.330  29.328  1.00  0.00     0.037 A 
ATOM     27  C   UNL A   1      39.662  32.073  35.140  1.00  0.00     0.037 A 
ATOM     28  C   UNL A   1      41.704  28.085  30.402  1.00  0.00     0.049 A 
ATOM     29  C   UNL A   1      40.756  31.052  35.064  1.00  0.00     0.074 A 
ATOM     30  C   UNL A   1      42.793  27.231  30.423  1.00  0.00     0.029 A 
ATOM     31  N   UNL A   1      41.644  28.686  31.651  1.00  0.00    -0.354 N 
ATOM     32  N   UNL A   1      41.107  30.298  34.051  1.00  0.00    -0.248 NA
ATOM     33  C   UNL A   1      41.557  30.845  36.277  1.00  0.00     0.031 C 
ATOM     34  C   UNL A   1      43.364  27.281  31.700  1.00  0.00     0.029 A 
ATOM     35  C   UNL A   1      42.658  28.200  32.461  1.00  0.00     0.049 A 
ATOM     36  H   UNL A   1      40.979  29.360  31.923  1.00  0.00     0.167 HD
ATOM     37  C   UNL A   1      42.178  29.536  34.497  1.00  0.00     0.074 A 
ATOM     38  C   UNL A   1      42.426  29.929  35.869  1.00  0.00     0.031 C 
ATOM     39  C   UNL A   1      42.890  28.599  33.826  1.00  0.00     0.037 A 
BRANCH  26  40
ATOM     40  C   UNL A   1      40.907  27.516  28.073  1.00  0.00     0.057 A 
ATOM     41  C   UNL A   1      41.688  27.939  26.989  1.00  0.00     0.134 A 
ATOM     42  C   UNL A   1      40.259  26.280  27.956  1.00  0.00     0.134 A 
ATOM     43  F   UNL A   1      42.326  29.119  27.031  1.00  0.00    -0.206 F 
ATOM     44  C   UNL A   1      41.797  27.176  25.825  1.00  0.00     0.040 A 
ATOM     45  C   UNL A   1      40.380  25.496  26.807  1.00  0.00     0.040 A 
ATOM     46  F   UNL A   1      39.502  25.810  28.959  1.00  0.00    -0.206 F 
ATOM     47  C   UNL A   1      41.145  25.948  25.735  1.00  0.00     0.006 A 
ENDBRANCH  26  40
BRANCH  27  48
ATOM     48  C   UNL A   1      39.378  32.817  36.391  1.00  0.00     0.057 A 
ATOM     49  C   UNL A   1      39.981  34.049  36.656  1.00  0.00     0.134 A 
ATOM     50  C   UNL A   1      38.447  32.337  37.322  1.00  0.00     0.134 A 
ATOM     51  F   UNL A   1      40.889  34.553  35.806  1.00  0.00    -0.206 F 
ATOM     52  C   UNL A   1      39.670  34.782  37.802  1.00  0.00     0.040 A 
ATOM     53  C   UNL A   1      38.109  33.069  38.460  1.00  0.00     0.040 A 
ATOM     54  F   UNL A   1      37.827  31.166  37.116  1.00  0.00    -0.206 F 
ATOM     55  C   UNL A   1      38.724  34.295  38.703  1.00  0.00     0.006 A 
ENDBRANCH  27  48
BRANCH  39  56
ATOM     56  C   UNL A   1      44.022  27.945  34.560  1.00  0.00     0.057 A 
ATOM     57  C   UNL A   1      45.305  28.504  34.584  1.00  0.00     0.134 A 
ATOM     58  C   UNL A   1      43.810  26.773  35.296  1.00  0.00     0.134 A 
ATOM     59  F   UNL A   1      45.575  29.618  33.887  1.00  0.00    -0.206 F 
ATOM     60  C   UNL A   1      46.342  27.913  35.307  1.00  0.00     0.040 A 
ATOM     61  C   UNL A   1      44.833  26.185  36.041  1.00  0.00     0.040 A 
ATOM     62  F   UNL A   1      42.602  26.192  35.318  1.00  0.00    -0.206 F 
ATOM     63  C   UNL A   1      46.104  26.755  36.046  1.00  0.00     0.006 A 
ENDBRANCH  39  56
ENDBRANCH  13  14
ENDBRANCH   6   8
ENDBRANCH   3   4
ENDBRANCH   2   3
ENDBRANCH   1   2
BRANCH   1  64
ATOM     64  N   UNL A   1      30.115  31.071  24.324  1.00  0.00    -0.352 N 
ATOM     65  C   UNL A   1      29.746  30.311  23.245  1.00  0.00     0.252 C 
ATOM     66  H   UNL A   1      29.673  31.948  24.392  1.00  0.00     0.163 HD
ATOM     67  O   UNL A   1      29.113  30.822  22.323  1.00  0.00    -0.269 OA
BRANCH  65  68
ATOM     68  C   UNL A   1      30.105  28.891  23.184  1.00  0.00     0.058 A 
ATOM     69  C   UNL A   1      31.347  28.460  22.721  1.00  0.00     0.017 A 
ATOM     70  C   UNL A   1      29.206  27.945  23.647  1.00  0.00     0.125 A 
ATOM     71  C   UNL A   1      31.618  27.096  22.682  1.00  0.00     0.030 A 
ATOM     72  N   UNL A   1      29.440  26.612  23.606  1.00  0.00    -0.255 NA
ATOM     73  C   UNL A   1      30.641  26.201  23.122  1.00  0.00     0.094 A 
BRANCH  73  74
ATOM     74  C   UNL A   1      30.941  24.714  23.135  1.00  0.00     0.318 C 
BRANCH  74  75
ATOM     75  N   UNL A   1      30.735  24.137  24.465  1.00  0.00    -0.337 N 
ATOM     76  H   UNL A   1      30.408  23.177  24.355  1.00  0.00     0.346 HD
ATOM     77  H   UNL A   1      30.054  24.723  24.946  1.00  0.00     0.346 HD
BRANCH  75  78
ATOM     78  C   UNL A   1      31.943  24.123  25.281  1.00  0.00     0.300 C 
BRANCH  78  79
ATOM     79  C   UNL A   1      32.349  25.487  25.779  1.00  0.00     0.045 A 
ATOM     80  C   UNL A   1      31.470  26.260  26.552  1.00  0.00     0.051 A 
ATOM     81  C   UNL A   1      33.619  26.006  25.496  1.00  0.00     0.132 A 
ATOM     82  C   UNL A   1      31.874  27.506  27.024  1.00  0.00     0.123 A 
ATOM     83  C   UNL A   1      34.020  27.252  25.972  1.00  0.00     0.043 A 
ATOM     84  F   UNL A   1      34.487  25.285  24.772  1.00  0.00    -0.206 F 
ATOM     85  F   UNL A   1      31.029  28.230  27.768  1.00  0.00    -0.207 F 
ATOM     86  C   UNL A   1      33.140  28.008  26.744  1.00  0.00     0.042 A 
ENDBRANCH  78  79
ENDBRANCH  75  78
ENDBRANCH  74  75
ENDBRANCH  73  74
ENDBRANCH  65  68
ENDBRANCH   1  64
TORSDOF 14
ENDMDL
MODEL 3
REMARK VINA RESULT:     -11.6      5.476      9.874
REMARK SMILES O=C(NCCCNC(=O)c1ccc(C[NH2+]Cc2cc(F)ccc2F)nc1)c1ccc(-c2c3nc(c(-c4c(F)cccc4F)c4ccc([nH]4)c(-c4c(F)cccc4F)c4nc(c(-c5c(F)cccc5F)c5ccc2[nH]5)C=C4)C=C3)cc1
REMARK SMILES IDX 6 1 5 2 4 3 3 4 1 5 2 6 27 8 28 9 80 10 29 11 79 12 30 13
REMARK SMILES IDX 31 14 32 15 73 16 33 17 78 18 72 19 74 20 34 21 77 22 71 23
REMARK SMILES IDX 70 24 35 26 61 27 44 28 60 29 45 30 48 31 59 32 75 33 46 34
REMARK SMILES IDX 47 35 58 37 76 38 49 39 36 40 37 41 42 42 38 43 39 44 41 45
REMARK SMILES IDX 43 46 40 47 62 48 63 49 68 50 64 51 65 52 67 53 69 54 66 55
REMARK SMILES IDX 50 56 51 57 56 58 52 59 53 60 55 61 57 62 54 63 7 64 8 65
REMARK SMILES IDX 9 67 10 68 11 69 26 70 12 71 25 72 13 73 14 74 15 75 16 78
REMARK SMILES IDX 17 79 18 80 23 81 19 82 22 83 24 84 20 85 21 86
REMARK H PARENT 3 7 74 25 48 36 7 66 15 76 15 77
REMARK Flexibility Score: inf
ROOT
ATOM      1  C   UNL A   1      36.028  19.973  25.009  1.00  0.00     0.118 C 
ENDROOT
BRANCH   1   2
ATOM      2  C   UNL A   1      37.451  19.628  24.588  1.00  0.00     0.042 C 
BRANCH   2   3
ATOM      3  C   UNL A   1      38.523  20.169  25.523  1.00  0.00     0.118 C 
BRANCH   3   4
ATOM      4  N   UNL A   1      39.639  19.247  25.690  1.00  0.00    -0.352 N 
ATOM      5  O   UNL A   1      41.775  18.588  25.932  1.00  0.00    -0.269 OA
ATOM      6  C   UNL A   1      40.942  19.484  26.045  1.00  0.00     0.251 C 
ATOM      7  H   UNL A   1      39.422  18.302  25.521  1.00  0.00     0.163 HD
BRANCH   6   8
ATOM      8  C   UNL A   1      41.357  20.812  26.547  1.00  0.00     0.039 A 
ATOM      9  C   UNL A   1      41.889  21.775  25.686  1.00  0.00     0.014 A 
ATOM     10  C   UNL A   1      41.162  21.114  27.897  1.00  0.00     0.014 A 
ATOM     11  C   UNL A   1      42.354  22.981  26.195  1.00  0.00     0.010 A 
ATOM     12  C   UNL A   1      41.549  22.361  28.394  1.00  0.00     0.010 A 
ATOM     13  C   UNL A   1      42.173  23.294  27.550  1.00  0.00    -0.014 A 
BRANCH  13  14
ATOM     14  C   UNL A   1      42.575  24.628  28.060  1.00  0.00     0.031 A 
ATOM     15  C   UNL A   1      41.553  25.695  28.323  1.00  0.00     0.074 A 
ATOM     16  C   UNL A   1      43.882  24.876  28.266  1.00  0.00     0.049 A 
ATOM     17  N   UNL A   1      41.735  26.931  28.715  1.00  0.00    -0.248 NA
ATOM     18  C   UNL A   1      40.145  25.334  28.106  1.00  0.00     0.031 C 
ATOM     19  C   UNL A   1      44.967  23.921  28.028  1.00  0.00     0.029 A 
ATOM     20  N   UNL A   1      44.522  26.003  28.713  1.00  0.00    -0.354 N 
ATOM     21  C   UNL A   1      40.470  27.501  28.769  1.00  0.00     0.074 A 
ATOM     22  C   UNL A   1      39.530  26.484  28.347  1.00  0.00     0.031 C 
ATOM     23  C   UNL A   1      46.135  24.496  28.345  1.00  0.00     0.029 A 
ATOM     24  C   UNL A   1      45.888  25.876  28.748  1.00  0.00     0.049 A 
ATOM     25  H   UNL A   1      44.048  26.822  28.983  1.00  0.00     0.167 HD
ATOM     26  C   UNL A   1      40.128  28.758  29.141  1.00  0.00     0.037 A 
ATOM     27  C   UNL A   1      46.843  26.777  29.040  1.00  0.00     0.037 A 
ATOM     28  C   UNL A   1      41.069  29.760  29.574  1.00  0.00     0.049 A 
ATOM     29  C   UNL A   1      46.443  28.167  29.429  1.00  0.00     0.074 A 
ATOM     30  C   UNL A   1      40.816  31.043  30.027  1.00  0.00     0.029 A 
ATOM     31  N   UNL A   1      42.447  29.593  29.595  1.00  0.00    -0.354 N 
ATOM     32  N   UNL A   1      45.240  28.680  29.524  1.00  0.00    -0.248 NA
ATOM     33  C   UNL A   1      47.526  29.106  29.749  1.00  0.00     0.031 C 
ATOM     34  C   UNL A   1      42.043  31.668  30.277  1.00  0.00     0.029 A 
ATOM     35  C   UNL A   1      43.058  30.760  30.024  1.00  0.00     0.049 A 
ATOM     36  H   UNL A   1      42.920  28.768  29.342  1.00  0.00     0.167 HD
ATOM     37  C   UNL A   1      45.418  29.996  29.927  1.00  0.00     0.074 A 
ATOM     38  C   UNL A   1      46.846  30.198  30.071  1.00  0.00     0.031 C 
ATOM     39  C   UNL A   1      44.481  30.946  30.159  1.00  0.00     0.037 A 
BRANCH  26  40
ATOM     40  C   UNL A   1      38.675  29.130  29.070  1.00  0.00     0.057 A 
ATOM     41  C   UNL A   1      37.826  29.036  30.181  1.00  0.00     0.134 A 
ATOM     42  C   UNL A   1      38.121  29.608  27.876  1.00  0.00     0.134 A 
ATOM     43  F   UNL A   1      38.289  28.575  31.352  1.00  0.00    -0.206 F 
ATOM     44  C   UNL A   1      36.475  29.378  30.099  1.00  0.00     0.040 A 
ATOM     45  C   UNL A   1      36.778  29.977  27.787  1.00  0.00     0.040 A 
ATOM     46  F   UNL A   1      38.879  29.731  26.774  1.00  0.00    -0.206 F 
ATOM     47  C   UNL A   1      35.949  29.855  28.901  1.00  0.00     0.006 A 
ENDBRANCH  26  40
BRANCH  27  48
ATOM     48  C   UNL A   1      48.267  26.374  28.949  1.00  0.00     0.057 A 
ATOM     49  C   UNL A   1      48.928  25.792  30.034  1.00  0.00     0.134 A 
ATOM     50  C   UNL A   1      48.982  26.509  27.751  1.00  0.00     0.134 A 
ATOM     51  F   UNL A   1      48.297  25.648  31.210  1.00  0.00    -0.206 F 
ATOM     52  C   UNL A   1      50.249  25.355  29.934  1.00  0.00     0.040 A 
ATOM     53  C   UNL A   1      50.295  26.056  27.630  1.00  0.00     0.040 A 
ATOM     54  F   UNL A   1      48.397  27.050  26.672  1.00  0.00    -0.206 F 
ATOM     55  C   UNL A   1      50.933  25.478  28.726  1.00  0.00     0.006 A 
ENDBRANCH  27  48
BRANCH  39  56
ATOM     56  C   UNL A   1      44.968  32.290  30.613  1.00  0.00     0.057 A 
ATOM     57  C   UNL A   1      45.194  32.573  31.965  1.00  0.00     0.134 A 
ATOM     58  C   UNL A   1      45.264  33.292  29.681  1.00  0.00     0.134 A 
ATOM     59  F   UNL A   1      44.915  31.659  32.907  1.00  0.00    -0.206 F 
ATOM     60  C   UNL A   1      45.690  33.812  32.375  1.00  0.00     0.040 A 
ATOM     61  C   UNL A   1      45.782  34.526  30.077  1.00  0.00     0.040 A 
ATOM     62  F   UNL A   1      45.074  33.081  28.370  1.00  0.00    -0.206 F 
ATOM     63  C   UNL A   1      45.993  34.788  31.429  1.00  0.00     0.006 A 
ENDBRANCH  39  56
ENDBRANCH  13  14
ENDBRANCH   6   8
ENDBRANCH   3   4
ENDBRANCH   2   3
ENDBRANCH   1   2
BRANCH   1  64
ATOM     64  N   UNL A   1      35.127  18.839  24.867  1.00  0.00    -0.352 N 
ATOM     65  C   UNL A   1      33.760  18.819  24.771  1.00  0.00     0.252 C 
ATOM     66  H   UNL A   1      35.563  17.956  24.835  1.00  0.00     0.163 HD
ATOM     67  O   UNL A   1      33.150  17.759  24.899  1.00  0.00    -0.269 OA
BRANCH  65  68
ATOM     68  C   UNL A   1      33.020  20.060  24.518  1.00  0.00     0.058 A 
ATOM     69  C   UNL A   1      32.666  20.934  25.544  1.00  0.00     0.017 A 
ATOM     70  C   UNL A   1      32.703  20.405  23.216  1.00  0.00     0.125 A 
ATOM     71  C   UNL A   1      31.957  22.090  25.235  1.00  0.00     0.030 A 
ATOM     72  N   UNL A   1      32.001  21.516  22.889  1.00  0.00    -0.255 NA
ATOM     73  C   UNL A   1      31.632  22.344  23.900  1.00  0.00     0.094 A 
BRANCH  73  74
ATOM     74  C   UNL A   1      30.905  23.626  23.540  1.00  0.00     0.318 C 
BRANCH  74  75
ATOM     75  N   UNL A   1      31.725  24.486  22.683  1.00  0.00    -0.337 N 
ATOM     76  H   UNL A   1      31.105  25.050  22.102  1.00  0.00     0.346 HD
ATOM     77  H   UNL A   1      32.323  23.875  22.128  1.00  0.00     0.346 HD
BRANCH  75  78
ATOM     78  C   UNL A   1      32.598  25.381  23.432  1.00  0.00     0.300 C 
BRANCH  78  79
ATOM     79  C   UNL A   1      33.878  24.728  23.892  1.00  0.00     0.045 A 
ATOM     80  C   UNL A   1      34.641  23.946  23.013  1.00  0.00     0.051 A 
ATOM     81  C   UNL A   1      34.342  24.902  25.202  1.00  0.00     0.132 A 
ATOM     82  C   UNL A   1      35.832  23.373  23.450  1.00  0.00     0.123 A 
ATOM     83  C   UNL A   1      35.535  24.329  25.635  1.00  0.00     0.043 A 
ATOM     84  F   UNL A   1      33.642  25.656  26.062  1.00  0.00    -0.206 F 
ATOM     85  F   UNL A   1      36.556  22.637  22.598  1.00  0.00    -0.207 F 
ATOM     86  C   UNL A   1      36.287  23.559  24.751  1.00  0.00     0.042 A 
ENDBRANCH  78  79
ENDBRANCH  75  78
ENDBRANCH  74  75
ENDBRANCH  73  74
ENDBRANCH  65  68
ENDBRANCH   1  64
TORSDOF 14
ENDMDL
