MODEL 1
REMARK VINA RESULT:     -12.0      0.000      0.000
REMARK SMILES Cn1c(=O)c2c(nc(Nc3cccc(Cl)c3Cl)n2CC(=O)NCCCNC(=O)c2ccc(-c3c4nc(c(-c5c(F)cccc5F)c5ccc([nH]5)c(-c5c(F)cccc5F)c5nc(c(-c6c(F)cccc6F)c6ccc3[nH]6)C=C5)C=C4)cc2)n(C)c1=O
REMARK SMILES IDX 23 1 22 2 20 3 21 4 19 6 18 7 1 8 2 9 3 10 85 11 4 12 5 13
REMARK SMILES IDX 83 14 86 15 6 16 84 17 7 18 8 19 9 20 10 22 11 23 16 24
REMARK SMILES IDX 12 25 14 26 17 27 13 28 15 29 24 30 25 31 26 32 27 33 28 35
REMARK SMILES IDX 29 36 30 37 82 38 31 39 81 40 32 41 33 42 34 43 75 44 35 45
REMARK SMILES IDX 80 46 74 47 76 48 36 49 79 50 73 51 72 52 37 54 63 55 46 56
REMARK SMILES IDX 62 57 47 58 50 59 61 60 77 61 48 62 49 63 60 65 78 66 51 67
REMARK SMILES IDX 38 68 39 69 44 70 40 71 41 72 43 73 45 74 42 75 64 76 65 77
REMARK SMILES IDX 70 78 66 79 67 80 69 81 71 82 68 83 52 84 53 85 58 86 54 87
REMARK SMILES IDX 55 88 57 89 59 90 56 91
REMARK H PARENT 22 5 9 21 26 34 76 53 50 64
REMARK Flexibility Score: inf
ROOT
ATOM      1  C   UNL A   1      33.201  29.168  26.408  1.00  0.00     0.117 C 
ENDROOT
BRANCH   1   2
ATOM      2  N   UNL A   1      33.419  28.544  25.122  1.00  0.00    -0.354 N 
ATOM      3  C   UNL A   1      33.868  27.281  24.855  1.00  0.00     0.240 C 
ATOM      4  O   UNL A   1      33.726  26.876  23.700  1.00  0.00    -0.273 OA
ATOM      5  H   UNL A   1      33.216  29.100  24.336  1.00  0.00     0.163 HD
BRANCH   3   6
ATOM      6  C   UNL A   1      34.388  26.379  25.963  1.00  0.00     0.226 C 
BRANCH   6   7
ATOM      7  N   UNL A   1      34.133  24.955  25.796  1.00  0.00    -0.295 N 
ATOM      8  C   UNL A   1      29.313  24.408  26.904  1.00  0.00     0.159 C 
ATOM      9  N   UNL A   1      30.625  23.939  26.496  1.00  0.00    -0.261 N 
ATOM     10  C   UNL A   1      31.654  24.893  26.485  1.00  0.00     0.282 A 
ATOM     11  C   UNL A   1      30.752  22.590  26.125  1.00  0.00     0.332 A 
ATOM     12  O   UNL A   1      31.505  26.048  26.833  1.00  0.00    -0.267 OA
ATOM     13  C   UNL A   1      32.902  24.366  26.028  1.00  0.00     0.154 A 
ATOM     14  N   UNL A   1      32.023  22.156  25.746  1.00  0.00    -0.279 N 
ATOM     15  O   UNL A   1      29.781  21.828  26.126  1.00  0.00    -0.247 OA
ATOM     16  C   UNL A   1      33.059  23.059  25.701  1.00  0.00     0.170 A 
ATOM     17  C   UNL A   1      32.246  20.769  25.378  1.00  0.00     0.157 C 
ATOM     18  N   UNL A   1      34.328  22.786  25.324  1.00  0.00    -0.194 NA
ATOM     19  C   UNL A   1      34.996  23.922  25.426  1.00  0.00     0.210 A 
BRANCH  19  20
ATOM     20  N   UNL A   1      36.301  23.962  25.065  1.00  0.00    -0.324 N 
ATOM     21  H   UNL A   1      36.441  24.410  24.199  1.00  0.00     0.170 HD
BRANCH  20  22
ATOM     22  C   UNL A   1      37.501  23.513  25.645  1.00  0.00     0.061 A 
ATOM     23  C   UNL A   1      38.163  24.419  26.501  1.00  0.00     0.028 A 
ATOM     24  C   UNL A   1      38.069  22.239  25.449  1.00  0.00     0.083 A 
ATOM     25  C   UNL A   1      39.266  24.030  27.258  1.00  0.00     0.004 A 
ATOM     26  C   UNL A   1      39.182  21.850  26.216  1.00  0.00     0.061 A 
ATOM     27  Cl  UNL A   1      37.403  21.173  24.251  1.00  0.00    -0.080 Cl
ATOM     28  C   UNL A   1      39.759  22.736  27.133  1.00  0.00     0.022 A 
ATOM     29  Cl  UNL A   1      39.876  20.271  26.106  1.00  0.00    -0.083 Cl
ENDBRANCH  20  22
ENDBRANCH  19  20
ENDBRANCH   6   7
ENDBRANCH   3   6
ENDBRANCH   1   2
BRANCH   1  30
ATOM     30  C   UNL A   1      34.325  30.107  26.837  1.00  0.00     0.042 C 
BRANCH  30  31
ATOM     31  C   UNL A   1      35.440  29.367  27.546  1.00  0.00     0.118 C 
BRANCH  31  32
ATOM     32  N   UNL A   1      35.529  29.704  28.968  1.00  0.00    -0.352 N 
ATOM     33  C   UNL A   1      36.534  29.372  29.855  1.00  0.00     0.251 C 
ATOM     34  H   UNL A   1      34.782  30.228  29.337  1.00  0.00     0.163 HD
ATOM     35  O   UNL A   1      36.351  29.413  31.065  1.00  0.00    -0.269 OA
BRANCH  33  36
ATOM     36  C   UNL A   1      37.832  28.952  29.304  1.00  0.00     0.039 A 
ATOM     37  C   UNL A   1      38.457  29.669  28.285  1.00  0.00     0.014 A 
ATOM     38  C   UNL A   1      38.460  27.862  29.900  1.00  0.00     0.014 A 
ATOM     39  C   UNL A   1      39.762  29.329  27.939  1.00  0.00     0.010 A 
ATOM     40  C   UNL A   1      39.801  27.665  29.700  1.00  0.00     0.010 A 
ATOM     41  C   UNL A   1      40.443  28.344  28.676  1.00  0.00    -0.014 A 
BRANCH  41  42
ATOM     42  C   UNL A   1      41.846  28.050  28.409  1.00  0.00     0.031 A 
ATOM     43  C   UNL A   1      42.104  26.806  27.635  1.00  0.00     0.074 A 
ATOM     44  C   UNL A   1      42.863  28.884  28.716  1.00  0.00     0.049 A 
ATOM     45  N   UNL A   1      42.586  25.696  28.085  1.00  0.00    -0.248 NA
ATOM     46  C   UNL A   1      41.668  26.745  26.234  1.00  0.00     0.031 C 
ATOM     47  C   UNL A   1      42.827  30.265  29.214  1.00  0.00     0.029 A 
ATOM     48  N   UNL A   1      44.196  28.652  28.582  1.00  0.00    -0.354 N 
ATOM     49  C   UNL A   1      42.692  24.844  26.991  1.00  0.00     0.074 A 
ATOM     50  C   UNL A   1      41.978  25.484  25.916  1.00  0.00     0.031 C 
ATOM     51  C   UNL A   1      44.060  30.811  29.138  1.00  0.00     0.029 A 
ATOM     52  C   UNL A   1      44.998  29.765  28.781  1.00  0.00     0.049 A 
ATOM     53  H   UNL A   1      44.562  27.765  28.363  1.00  0.00     0.167 HD
ATOM     54  C   UNL A   1      43.537  23.775  27.013  1.00  0.00     0.037 A 
ATOM     55  C   UNL A   1      46.346  29.819  28.679  1.00  0.00     0.037 A 
ATOM     56  C   UNL A   1      43.948  23.466  28.361  1.00  0.00     0.049 A 
ATOM     57  C   UNL A   1      46.849  28.436  28.854  1.00  0.00     0.074 A 
ATOM     58  C   UNL A   1      43.288  23.095  29.517  1.00  0.00     0.029 A 
ATOM     59  N   UNL A   1      45.188  23.893  28.767  1.00  0.00    -0.354 N 
ATOM     60  N   UNL A   1      46.779  27.775  29.976  1.00  0.00    -0.248 NA
ATOM     61  C   UNL A   1      47.026  27.625  27.660  1.00  0.00     0.031 C 
ATOM     62  C   UNL A   1      43.966  23.788  30.565  1.00  0.00     0.029 A 
ATOM     63  C   UNL A   1      45.030  24.486  29.993  1.00  0.00     0.049 A 
ATOM     64  H   UNL A   1      46.033  23.791  28.272  1.00  0.00     0.167 HD
ATOM     65  C   UNL A   1      46.472  26.476  29.602  1.00  0.00     0.074 A 
ATOM     66  C   UNL A   1      46.730  26.424  28.164  1.00  0.00     0.031 C 
ATOM     67  C   UNL A   1      45.778  25.644  30.433  1.00  0.00     0.037 A 
BRANCH  54  68
ATOM     68  C   UNL A   1      44.270  23.229  25.812  1.00  0.00     0.057 A 
ATOM     69  C   UNL A   1      44.132  21.867  25.483  1.00  0.00     0.134 A 
ATOM     70  C   UNL A   1      45.317  23.899  25.149  1.00  0.00     0.134 A 
ATOM     71  F   UNL A   1      43.178  21.112  26.051  1.00  0.00    -0.206 F 
ATOM     72  C   UNL A   1      45.021  21.205  24.626  1.00  0.00     0.040 A 
ATOM     73  C   UNL A   1      46.177  23.260  24.251  1.00  0.00     0.040 A 
ATOM     74  F   UNL A   1      45.629  25.174  25.405  1.00  0.00    -0.206 F 
ATOM     75  C   UNL A   1      46.054  21.900  24.013  1.00  0.00     0.006 A 
ENDBRANCH  54  68
BRANCH  55  76
ATOM     76  C   UNL A   1      47.184  30.910  28.142  1.00  0.00     0.057 A 
ATOM     77  C   UNL A   1      46.909  31.481  26.893  1.00  0.00     0.134 A 
ATOM     78  C   UNL A   1      48.079  31.619  28.965  1.00  0.00     0.134 A 
ATOM     79  F   UNL A   1      46.045  30.892  26.054  1.00  0.00    -0.206 F 
ATOM     80  C   UNL A   1      47.452  32.711  26.501  1.00  0.00     0.040 A 
ATOM     81  C   UNL A   1      48.633  32.844  28.584  1.00  0.00     0.040 A 
ATOM     82  F   UNL A   1      48.367  31.191  30.204  1.00  0.00    -0.206 F 
ATOM     83  C   UNL A   1      48.304  33.405  27.355  1.00  0.00     0.006 A 
ENDBRANCH  55  76
BRANCH  67  84
ATOM     84  C   UNL A   1      45.559  26.085  31.856  1.00  0.00     0.057 A 
ATOM     85  C   UNL A   1      44.389  26.708  32.316  1.00  0.00     0.134 A 
ATOM     86  C   UNL A   1      46.496  25.713  32.828  1.00  0.00     0.134 A 
ATOM     87  F   UNL A   1      43.393  27.020  31.478  1.00  0.00    -0.206 F 
ATOM     88  C   UNL A   1      44.175  26.974  33.673  1.00  0.00     0.040 A 
ATOM     89  C   UNL A   1      46.281  25.946  34.188  1.00  0.00     0.040 A 
ATOM     90  F   UNL A   1      47.617  25.066  32.471  1.00  0.00    -0.206 F 
ATOM     91  C   UNL A   1      45.120  26.583  34.616  1.00  0.00     0.006 A 
ENDBRANCH  67  84
ENDBRANCH  41  42
ENDBRANCH  33  36
ENDBRANCH  31  32
ENDBRANCH  30  31
ENDBRANCH   1  30
TORSDOF 13
ENDMDL
MODEL 2
REMARK VINA RESULT:     -11.9      3.181      7.282
REMARK SMILES Cn1c(=O)c2c(nc(Nc3cccc(Cl)c3Cl)n2CC(=O)NCCCNC(=O)c2ccc(-c3c4nc(c(-c5c(F)cccc5F)c5ccc([nH]5)c(-c5c(F)cccc5F)c5nc(c(-c6c(F)cccc6F)c6ccc3[nH]6)C=C5)C=C4)cc2)n(C)c1=O
REMARK SMILES IDX 23 1 22 2 20 3 21 4 19 6 18 7 1 8 2 9 3 10 85 11 4 12 5 13
REMARK SMILES IDX 83 14 86 15 6 16 84 17 7 18 8 19 9 20 10 22 11 23 16 24
REMARK SMILES IDX 12 25 14 26 17 27 13 28 15 29 24 30 25 31 26 32 27 33 28 35
REMARK SMILES IDX 29 36 30 37 82 38 31 39 81 40 32 41 33 42 34 43 75 44 35 45
REMARK SMILES IDX 80 46 74 47 76 48 36 49 79 50 73 51 72 52 37 54 63 55 46 56
REMARK SMILES IDX 62 57 47 58 50 59 61 60 77 61 48 62 49 63 60 65 78 66 51 67
REMARK SMILES IDX 38 68 39 69 44 70 40 71 41 72 43 73 45 74 42 75 64 76 65 77
REMARK SMILES IDX 70 78 66 79 67 80 69 81 71 82 68 83 52 84 53 85 58 86 54 87
REMARK SMILES IDX 55 88 57 89 59 90 56 91
REMARK H PARENT 22 5 9 21 26 34 76 53 50 64
REMARK Flexibility Score: inf
ROOT
ATOM      1  C   UNL A   1      32.733  30.453  26.405  1.00  0.00     0.117 C 
ENDROOT
BRANCH   1   2
ATOM      2  N   UNL A   1      31.782  29.365  26.426  1.00  0.00    -0.354 N 
ATOM      3  C   UNL A   1      31.865  28.150  25.806  1.00  0.00     0.240 C 
ATOM      4  O   UNL A   1      31.069  27.285  26.175  1.00  0.00    -0.273 OA
ATOM      5  H   UNL A   1      30.968  29.518  26.958  1.00  0.00     0.163 HD
BRANCH   3   6
ATOM      6  C   UNL A   1      32.975  27.848  24.812  1.00  0.00     0.226 C 
BRANCH   6   7
ATOM      7  N   UNL A   1      32.767  26.685  23.960  1.00  0.00    -0.295 N 
ATOM      8  C   UNL A   1      35.173  22.994  26.273  1.00  0.00     0.159 C 
ATOM      9  N   UNL A   1      34.364  23.570  25.214  1.00  0.00    -0.261 N 
ATOM     10  C   UNL A   1      34.137  24.953  25.281  1.00  0.00     0.282 A 
ATOM     11  C   UNL A   1      33.857  22.701  24.232  1.00  0.00     0.332 A 
ATOM     12  O   UNL A   1      34.612  25.672  26.139  1.00  0.00    -0.267 OA
ATOM     13  C   UNL A   1      33.294  25.434  24.231  1.00  0.00     0.154 A 
ATOM     14  N   UNL A   1      33.090  23.274  23.217  1.00  0.00    -0.279 N 
ATOM     15  O   UNL A   1      34.074  21.487  24.273  1.00  0.00    -0.247 OA
ATOM     16  C   UNL A   1      32.825  24.623  23.251  1.00  0.00     0.170 A 
ATOM     17  C   UNL A   1      32.556  22.451  22.147  1.00  0.00     0.157 C 
ATOM     18  N   UNL A   1      32.074  25.302  22.356  1.00  0.00    -0.194 NA
ATOM     19  C   UNL A   1      32.076  26.563  22.753  1.00  0.00     0.210 A 
BRANCH  19  20
ATOM     20  N   UNL A   1      31.357  27.481  22.063  1.00  0.00    -0.324 N 
ATOM     21  H   UNL A   1      31.696  27.619  21.149  1.00  0.00     0.170 HD
BRANCH  20  22
ATOM     22  C   UNL A   1      30.236  28.280  22.353  1.00  0.00     0.061 A 
ATOM     23  C   UNL A   1      30.303  29.628  21.936  1.00  0.00     0.028 A 
ATOM     24  C   UNL A   1      29.069  27.836  23.001  1.00  0.00     0.083 A 
ATOM     25  C   UNL A   1      29.195  30.469  22.020  1.00  0.00     0.004 A 
ATOM     26  C   UNL A   1      27.952  28.688  23.082  1.00  0.00     0.061 A 
ATOM     27  Cl  UNL A   1      29.026  26.251  23.710  1.00  0.00    -0.080 Cl
ATOM     28  C   UNL A   1      28.012  29.989  22.571  1.00  0.00     0.022 A 
ATOM     29  Cl  UNL A   1      26.450  28.183  23.773  1.00  0.00    -0.083 Cl
ENDBRANCH  20  22
ENDBRANCH  19  20
ENDBRANCH   6   7
ENDBRANCH   3   6
ENDBRANCH   1   2
BRANCH   1  30
ATOM     30  C   UNL A   1      33.656  30.491  27.620  1.00  0.00     0.042 C 
BRANCH  30  31
ATOM     31  C   UNL A   1      34.468  31.768  27.674  1.00  0.00     0.118 C 
BRANCH  31  32
ATOM     32  N   UNL A   1      34.484  32.373  29.007  1.00  0.00    -0.352 N 
ATOM     33  C   UNL A   1      35.273  32.022  30.086  1.00  0.00     0.251 C 
ATOM     34  H   UNL A   1      33.858  33.118  29.154  1.00  0.00     0.163 HD
ATOM     35  O   UNL A   1      34.976  32.361  31.225  1.00  0.00    -0.269 OA
BRANCH  33  36
ATOM     36  C   UNL A   1      36.476  31.214  29.831  1.00  0.00     0.039 A 
ATOM     37  C   UNL A   1      37.700  31.808  29.525  1.00  0.00     0.014 A 
ATOM     38  C   UNL A   1      36.370  29.836  29.994  1.00  0.00     0.014 A 
ATOM     39  C   UNL A   1      38.834  31.002  29.478  1.00  0.00     0.010 A 
ATOM     40  C   UNL A   1      37.508  29.087  30.147  1.00  0.00     0.010 A 
ATOM     41  C   UNL A   1      38.736  29.642  29.825  1.00  0.00    -0.014 A 
BRANCH  41  42
ATOM     42  C   UNL A   1      39.927  28.803  29.895  1.00  0.00     0.031 A 
ATOM     43  C   UNL A   1      40.531  28.662  31.247  1.00  0.00     0.074 A 
ATOM     44  C   UNL A   1      40.409  28.090  28.856  1.00  0.00     0.049 A 
ATOM     45  N   UNL A   1      41.625  29.200  31.671  1.00  0.00    -0.248 NA
ATOM     46  C   UNL A   1      39.778  27.942  32.282  1.00  0.00     0.031 C 
ATOM     47  C   UNL A   1      39.827  27.854  27.528  1.00  0.00     0.029 A 
ATOM     48  N   UNL A   1      41.554  27.357  28.812  1.00  0.00    -0.354 N 
ATOM     49  C   UNL A   1      41.808  28.743  32.972  1.00  0.00     0.074 A 
ATOM     50  C   UNL A   1      40.574  28.099  33.345  1.00  0.00     0.031 C 
ATOM     51  C   UNL A   1      40.511  26.874  26.897  1.00  0.00     0.029 A 
ATOM     52  C   UNL A   1      41.687  26.562  27.683  1.00  0.00     0.049 A 
ATOM     53  H   UNL A   1      42.233  27.389  29.523  1.00  0.00     0.167 HD
ATOM     54  C   UNL A   1      43.039  28.759  33.556  1.00  0.00     0.037 A 
ATOM     55  C   UNL A   1      42.707  25.717  27.405  1.00  0.00     0.037 A 
ATOM     56  C   UNL A   1      43.944  29.620  32.833  1.00  0.00     0.049 A 
ATOM     57  C   UNL A   1      43.873  26.170  28.201  1.00  0.00     0.074 A 
ATOM     58  C   UNL A   1      43.965  30.965  32.518  1.00  0.00     0.029 A 
ATOM     59  N   UNL A   1      44.845  29.030  31.980  1.00  0.00    -0.354 N 
ATOM     60  N   UNL A   1      44.503  27.292  27.989  1.00  0.00    -0.248 NA
ATOM     61  C   UNL A   1      44.059  25.586  29.519  1.00  0.00     0.031 C 
ATOM     62  C   UNL A   1      44.477  31.023  31.188  1.00  0.00     0.029 A 
ATOM     63  C   UNL A   1      44.794  29.722  30.797  1.00  0.00     0.049 A 
ATOM     64  H   UNL A   1      45.419  28.256  32.180  1.00  0.00     0.167 HD
ATOM     65  C   UNL A   1      44.807  27.770  29.254  1.00  0.00     0.074 A 
ATOM     66  C   UNL A   1      44.594  26.634  30.150  1.00  0.00     0.031 C 
ATOM     67  C   UNL A   1      44.936  29.108  29.495  1.00  0.00     0.037 A 
BRANCH  54  68
ATOM     68  C   UNL A   1      43.532  27.745  34.558  1.00  0.00     0.057 A 
ATOM     69  C   UNL A   1      43.694  26.405  34.158  1.00  0.00     0.134 A 
ATOM     70  C   UNL A   1      43.574  27.961  35.949  1.00  0.00     0.134 A 
ATOM     71  F   UNL A   1      43.666  26.063  32.861  1.00  0.00    -0.206 F 
ATOM     72  C   UNL A   1      43.804  25.353  35.077  1.00  0.00     0.040 A 
ATOM     73  C   UNL A   1      43.735  26.924  36.873  1.00  0.00     0.040 A 
ATOM     74  F   UNL A   1      43.361  29.163  36.497  1.00  0.00    -0.206 F 
ATOM     75  C   UNL A   1      43.815  25.610  36.441  1.00  0.00     0.006 A 
ENDBRANCH  54  68
BRANCH  55  76
ATOM     76  C   UNL A   1      42.652  24.393  26.753  1.00  0.00     0.057 A 
ATOM     77  C   UNL A   1      43.290  24.169  25.527  1.00  0.00     0.134 A 
ATOM     78  C   UNL A   1      42.235  23.248  27.455  1.00  0.00     0.134 A 
ATOM     79  F   UNL A   1      43.749  25.199  24.801  1.00  0.00    -0.206 F 
ATOM     80  C   UNL A   1      43.545  22.878  25.047  1.00  0.00     0.040 A 
ATOM     81  C   UNL A   1      42.478  21.954  26.985  1.00  0.00     0.040 A 
ATOM     82  F   UNL A   1      41.665  23.348  28.666  1.00  0.00    -0.206 F 
ATOM     83  C   UNL A   1      43.154  21.766  25.785  1.00  0.00     0.006 A 
ENDBRANCH  55  76
BRANCH  67  84
ATOM     84  C   UNL A   1      44.977  30.040  28.312  1.00  0.00     0.057 A 
ATOM     85  C   UNL A   1      43.844  30.649  27.751  1.00  0.00     0.134 A 
ATOM     86  C   UNL A   1      46.221  30.467  27.835  1.00  0.00     0.134 A 
ATOM     87  F   UNL A   1      42.614  30.376  28.202  1.00  0.00    -0.206 F 
ATOM     88  C   UNL A   1      43.944  31.614  26.743  1.00  0.00     0.040 A 
ATOM     89  C   UNL A   1      46.336  31.451  26.850  1.00  0.00     0.040 A 
ATOM     90  F   UNL A   1      47.352  29.969  28.359  1.00  0.00    -0.206 F 
ATOM     91  C   UNL A   1      45.196  32.025  26.296  1.00  0.00     0.006 A 
ENDBRANCH  67  84
ENDBRANCH  41  42
ENDBRANCH  33  36
ENDBRANCH  31  32
ENDBRANCH  30  31
ENDBRANCH   1  30
TORSDOF 13
ENDMDL
MODEL 3
REMARK VINA RESULT:     -11.7      2.538      4.108
REMARK SMILES Cn1c(=O)c2c(nc(Nc3cccc(Cl)c3Cl)n2CC(=O)NCCCNC(=O)c2ccc(-c3c4nc(c(-c5c(F)cccc5F)c5ccc([nH]5)c(-c5c(F)cccc5F)c5nc(c(-c6c(F)cccc6F)c6ccc3[nH]6)C=C5)C=C4)cc2)n(C)c1=O
REMARK SMILES IDX 23 1 22 2 20 3 21 4 19 6 18 7 1 8 2 9 3 10 85 11 4 12 5 13
REMARK SMILES IDX 83 14 86 15 6 16 84 17 7 18 8 19 9 20 10 22 11 23 16 24
REMARK SMILES IDX 12 25 14 26 17 27 13 28 15 29 24 30 25 31 26 32 27 33 28 35
REMARK SMILES IDX 29 36 30 37 82 38 31 39 81 40 32 41 33 42 34 43 75 44 35 45
REMARK SMILES IDX 80 46 74 47 76 48 36 49 79 50 73 51 72 52 37 54 63 55 46 56
REMARK SMILES IDX 62 57 47 58 50 59 61 60 77 61 48 62 49 63 60 65 78 66 51 67
REMARK SMILES IDX 38 68 39 69 44 70 40 71 41 72 43 73 45 74 42 75 64 76 65 77
REMARK SMILES IDX 70 78 66 79 67 80 69 81 71 82 68 83 52 84 53 85 58 86 54 87
REMARK SMILES IDX 55 88 57 89 59 90 56 91
REMARK H PARENT 22 5 9 21 26 34 76 53 50 64
REMARK Flexibility Score: inf
ROOT
ATOM      1  C   UNL A   1      33.443  29.729  26.502  1.00  0.00     0.117 C 
ENDROOT
BRANCH   1   2
ATOM      2  N   UNL A   1      33.982  29.360  25.212  1.00  0.00    -0.354 N 
ATOM      3  C   UNL A   1      33.710  28.250  24.462  1.00  0.00     0.240 C 
ATOM      4  O   UNL A   1      34.079  28.272  23.287  1.00  0.00    -0.273 OA
ATOM      5  H   UNL A   1      34.627  29.992  24.821  1.00  0.00     0.163 HD
BRANCH   3   6
ATOM      6  C   UNL A   1      32.874  27.109  25.020  1.00  0.00     0.226 C 
BRANCH   6   7
ATOM      7  N   UNL A   1      32.626  25.999  24.110  1.00  0.00    -0.295 N 
ATOM      8  C   UNL A   1      34.488  22.021  26.449  1.00  0.00     0.159 C 
ATOM      9  N   UNL A   1      33.822  22.706  25.356  1.00  0.00    -0.261 N 
ATOM     10  C   UNL A   1      33.720  24.102  25.460  1.00  0.00     0.282 A 
ATOM     11  C   UNL A   1      33.314  21.922  24.306  1.00  0.00     0.332 A 
ATOM     12  O   UNL A   1      34.191  24.744  26.379  1.00  0.00    -0.267 OA
ATOM     13  C   UNL A   1      33.011  24.696  24.370  1.00  0.00     0.154 A 
ATOM     14  N   UNL A   1      32.686  22.598  23.259  1.00  0.00    -0.279 N 
ATOM     15  O   UNL A   1      33.413  20.692  24.314  1.00  0.00    -0.247 OA
ATOM     16  C   UNL A   1      32.547  23.965  23.326  1.00  0.00     0.170 A 
ATOM     17  C   UNL A   1      32.163  21.866  22.120  1.00  0.00     0.157 C 
ATOM     18  N   UNL A   1      31.935  24.742  22.405  1.00  0.00    -0.194 NA
ATOM     19  C   UNL A   1      32.023  25.984  22.850  1.00  0.00     0.210 A 
BRANCH  19  20
ATOM     20  N   UNL A   1      31.449  26.987  22.145  1.00  0.00    -0.324 N 
ATOM     21  H   UNL A   1      31.818  27.071  21.236  1.00  0.00     0.170 HD
BRANCH  20  22
ATOM     22  C   UNL A   1      30.446  27.937  22.414  1.00  0.00     0.061 A 
ATOM     23  C   UNL A   1      30.708  29.260  21.999  1.00  0.00     0.028 A 
ATOM     24  C   UNL A   1      29.216  27.661  23.039  1.00  0.00     0.083 A 
ATOM     25  C   UNL A   1      29.728  30.248  22.062  1.00  0.00     0.004 A 
ATOM     26  C   UNL A   1      28.228  28.661  23.099  1.00  0.00     0.061 A 
ATOM     27  Cl  UNL A   1      28.938  26.099  23.746  1.00  0.00    -0.080 Cl
ATOM     28  C   UNL A   1      28.479  29.940  22.588  1.00  0.00     0.022 A 
ATOM     29  Cl  UNL A   1      26.657  28.373  23.760  1.00  0.00    -0.083 Cl
ENDBRANCH  20  22
ENDBRANCH  19  20
ENDBRANCH   6   7
ENDBRANCH   3   6
ENDBRANCH   1   2
BRANCH   1  30
ATOM     30  C   UNL A   1      34.413  30.521  27.373  1.00  0.00     0.042 C 
BRANCH  30  31
ATOM     31  C   UNL A   1      35.452  29.627  28.019  1.00  0.00     0.118 C 
BRANCH  31  32
ATOM     32  N   UNL A   1      35.587  29.865  29.457  1.00  0.00    -0.352 N 
ATOM     33  C   UNL A   1      36.599  29.436  30.294  1.00  0.00     0.251 C 
ATOM     34  H   UNL A   1      34.872  30.393  29.879  1.00  0.00     0.163 HD
ATOM     35  O   UNL A   1      36.446  29.404  31.509  1.00  0.00    -0.269 OA
BRANCH  33  36
ATOM     36  C   UNL A   1      37.866  29.002  29.684  1.00  0.00     0.039 A 
ATOM     37  C   UNL A   1      38.498  29.763  28.701  1.00  0.00     0.014 A 
ATOM     38  C   UNL A   1      38.459  27.848  30.186  1.00  0.00     0.014 A 
ATOM     39  C   UNL A   1      39.780  29.395  28.300  1.00  0.00     0.010 A 
ATOM     40  C   UNL A   1      39.786  27.611  29.940  1.00  0.00     0.010 A 
ATOM     41  C   UNL A   1      40.434  28.333  28.950  1.00  0.00    -0.014 A 
BRANCH  41  42
ATOM     42  C   UNL A   1      41.817  28.001  28.628  1.00  0.00     0.031 A 
ATOM     43  C   UNL A   1      42.009  26.760  27.832  1.00  0.00     0.074 A 
ATOM     44  C   UNL A   1      42.868  28.801  28.907  1.00  0.00     0.049 A 
ATOM     45  N   UNL A   1      42.474  25.631  28.252  1.00  0.00    -0.248 NA
ATOM     46  C   UNL A   1      41.521  26.728  26.448  1.00  0.00     0.031 C 
ATOM     47  C   UNL A   1      42.892  30.176  29.421  1.00  0.00     0.029 A 
ATOM     48  N   UNL A   1      44.188  28.532  28.721  1.00  0.00    -0.354 N 
ATOM     49  C   UNL A   1      42.515  24.788  27.146  1.00  0.00     0.074 A 
ATOM     50  C   UNL A   1      41.781  25.462  26.105  1.00  0.00     0.031 C 
ATOM     51  C   UNL A   1      44.137  30.687  29.304  1.00  0.00     0.029 A 
ATOM     52  C   UNL A   1      45.029  29.619  28.903  1.00  0.00     0.049 A 
ATOM     53  H   UNL A   1      44.519  27.637  28.479  1.00  0.00     0.167 HD
ATOM     54  C   UNL A   1      43.328  23.695  27.125  1.00  0.00     0.037 A 
ATOM     55  C   UNL A   1      46.374  29.634  28.751  1.00  0.00     0.037 A 
ATOM     56  C   UNL A   1      43.778  23.358  28.454  1.00  0.00     0.049 A 
ATOM     57  C   UNL A   1      46.842  28.235  28.892  1.00  0.00     0.074 A 
ATOM     58  C   UNL A   1      43.150  22.994  29.630  1.00  0.00     0.029 A 
ATOM     59  N   UNL A   1      45.045  23.744  28.819  1.00  0.00    -0.354 N 
ATOM     60  N   UNL A   1      46.793  27.564  30.010  1.00  0.00    -0.248 NA
ATOM     61  C   UNL A   1      46.951  27.433  27.684  1.00  0.00     0.031 C 
ATOM     62  C   UNL A   1      43.886  23.654  30.659  1.00  0.00     0.029 A 
ATOM     63  C   UNL A   1      44.949  24.327  30.056  1.00  0.00     0.049 A 
ATOM     64  H   UNL A   1      45.867  23.623  28.292  1.00  0.00     0.167 HD
ATOM     65  C   UNL A   1      46.434  26.278  29.633  1.00  0.00     0.074 A 
ATOM     66  C   UNL A   1      46.637  26.236  28.186  1.00  0.00     0.031 C 
ATOM     67  C   UNL A   1      45.746  25.457  30.480  1.00  0.00     0.037 A 
BRANCH  54  68
ATOM     68  C   UNL A   1      43.999  23.142  25.892  1.00  0.00     0.057 A 
ATOM     69  C   UNL A   1      43.900  21.765  25.614  1.00  0.00     0.134 A 
ATOM     70  C   UNL A   1      44.967  23.833  25.138  1.00  0.00     0.134 A 
ATOM     71  F   UNL A   1      43.022  20.990  26.269  1.00  0.00    -0.206 F 
ATOM     72  C   UNL A   1      44.756  21.114  24.717  1.00  0.00     0.040 A 
ATOM     73  C   UNL A   1      45.792  23.203  24.201  1.00  0.00     0.040 A 
ATOM     74  F   UNL A   1      45.239  25.129  25.334  1.00  0.00    -0.206 F 
ATOM     75  C   UNL A   1      45.713  21.832  24.012  1.00  0.00     0.006 A 
ENDBRANCH  54  68
BRANCH  55  76
ATOM     76  C   UNL A   1      47.224  30.707  28.196  1.00  0.00     0.057 A 
ATOM     77  C   UNL A   1      46.883  31.348  26.998  1.00  0.00     0.134 A 
ATOM     78  C   UNL A   1      48.217  31.331  28.973  1.00  0.00     0.134 A 
ATOM     79  F   UNL A   1      45.926  30.842  26.206  1.00  0.00    -0.206 F 
ATOM     80  C   UNL A   1      47.458  32.566  26.616  1.00  0.00     0.040 A 
ATOM     81  C   UNL A   1      48.803  32.544  28.601  1.00  0.00     0.040 A 
ATOM     82  F   UNL A   1      48.578  30.833  30.165  1.00  0.00    -0.206 F 
ATOM     83  C   UNL A   1      48.409  33.177  27.428  1.00  0.00     0.006 A 
ENDBRANCH  55  76
BRANCH  67  84
ATOM     84  C   UNL A   1      45.593  25.888  31.915  1.00  0.00     0.057 A 
ATOM     85  C   UNL A   1      46.583  25.725  32.896  1.00  0.00     0.134 A 
ATOM     86  C   UNL A   1      44.472  26.646  32.274  1.00  0.00     0.134 A 
ATOM     87  F   UNL A   1      47.732  25.095  32.624  1.00  0.00    -0.206 F 
ATOM     88  C   UNL A   1      46.451  26.265  34.180  1.00  0.00     0.040 A 
ATOM     89  C   UNL A   1      44.342  27.217  33.543  1.00  0.00     0.040 A 
ATOM     90  F   UNL A   1      43.506  26.891  31.375  1.00  0.00    -0.206 F 
ATOM     91  C   UNL A   1      45.330  27.023  34.504  1.00  0.00     0.006 A 
ENDBRANCH  67  84
ENDBRANCH  41  42
ENDBRANCH  33  36
ENDBRANCH  31  32
ENDBRANCH  30  31
ENDBRANCH   1  30
TORSDOF 13
ENDMDL
