MODEL 1
REMARK VINA RESULT:     -11.8      0.000      0.000
REMARK SMILES O=C(CO/N=C\c1ccccc1)Nc1ccccc1C(=O)NCCCNC(=O)c1ccc(-c2c3nc(c(-c4c(F)cccc4F)c4ccc([nH]4)c(-c4c(F)cccc4F)c4nc(c(-c5c(F)cccc5F)c5ccc2[nH]5)C=C4)C=C3)cc1
REMARK SMILES IDX 20 1 21 2 22 3 19 5 14 6 15 7 16 8 18 9 17 10 13 11 1 12
REMARK SMILES IDX 2 13 3 15 4 16 5 17 6 18 7 19 8 20 12 21 9 22 11 23 10 24
REMARK SMILES IDX 23 25 24 26 25 27 26 28 27 29 28 31 29 32 30 33 82 34 31 35
REMARK SMILES IDX 81 36 32 37 33 38 34 39 75 40 35 41 80 42 74 43 76 44 36 45
REMARK SMILES IDX 79 46 73 47 72 48 37 50 63 51 46 52 62 53 47 54 50 55 61 56
REMARK SMILES IDX 77 57 48 58 49 59 60 61 78 62 51 63 38 64 39 65 44 66 40 67
REMARK SMILES IDX 41 68 43 69 45 70 42 71 64 72 65 73 70 74 66 75 67 76 69 77
REMARK SMILES IDX 71 78 68 79 52 80 53 81 58 82 54 83 55 84 57 85 59 86 56 87
REMARK H PARENT 22 4 13 14 26 30 76 49 50 60
REMARK Flexibility Score: inf
ROOT
ATOM      1  C   UNL A   1      33.363  25.110  25.773  1.00  0.00     0.253 C 
ATOM      2  O   UNL A   1      32.695  24.382  26.511  1.00  0.00    -0.269 OA
ATOM      3  N   UNL A   1      33.003  26.445  25.723  1.00  0.00    -0.352 N 
ATOM      4  H   UNL A   1      32.121  26.674  26.095  1.00  0.00     0.163 HD
ENDROOT
BRANCH   1   5
ATOM      5  C   UNL A   1      34.349  24.483  24.827  1.00  0.00     0.063 A 
ATOM      6  C   UNL A   1      34.227  24.152  23.459  1.00  0.00     0.054 A 
ATOM      7  C   UNL A   1      35.217  23.330  22.874  1.00  0.00     0.027 A 
ATOM      8  C   UNL A   1      36.360  22.937  23.572  1.00  0.00     0.002 A 
ATOM      9  C   UNL A   1      35.534  24.094  25.503  1.00  0.00     0.016 A 
ATOM     10  C   UNL A   1      36.534  23.345  24.883  1.00  0.00     0.001 A 
BRANCH   6  11
ATOM     11  N   UNL A   1      33.217  24.543  22.544  1.00  0.00    -0.322 N 
ATOM     12  O   UNL A   1      34.068  26.532  21.726  1.00  0.00    -0.271 OA
ATOM     13  C   UNL A   1      33.158  25.714  21.813  1.00  0.00     0.265 C 
ATOM     14  H   UNL A   1      32.474  23.910  22.417  1.00  0.00     0.170 HD
BRANCH  13  15
ATOM     15  C   UNL A   1      31.752  25.993  21.258  1.00  0.00     0.363 C 
BRANCH  15  16
ATOM     16  O   UNL A   1      31.006  26.947  21.991  1.00  0.00    -0.386 OA
BRANCH  16  17
ATOM     17  N   UNL A   1      30.845  26.481  23.298  1.00  0.00    -0.094 NA
ATOM     18  C   UNL A   1      30.028  27.222  23.982  1.00  0.00     0.162 C 
BRANCH  18  19
ATOM     19  C   UNL A   1      29.260  28.381  23.502  1.00  0.00    -0.004 A 
ATOM     20  C   UNL A   1      29.889  29.626  23.500  1.00  0.00     0.010 A 
ATOM     21  C   UNL A   1      27.919  28.252  23.129  1.00  0.00     0.010 A 
ATOM     22  C   UNL A   1      29.175  30.755  23.101  1.00  0.00     0.001 A 
ATOM     23  C   UNL A   1      27.205  29.389  22.744  1.00  0.00     0.001 A 
ATOM     24  C   UNL A   1      27.835  30.637  22.727  1.00  0.00     0.000 A 
ENDBRANCH  18  19
ENDBRANCH  16  17
ENDBRANCH  15  16
ENDBRANCH  13  15
ENDBRANCH   6  11
ENDBRANCH   1   5
BRANCH   3  25
ATOM     25  C   UNL A   1      33.772  27.533  25.190  1.00  0.00     0.118 C 
BRANCH  25  26
ATOM     26  C   UNL A   1      33.123  28.897  25.110  1.00  0.00     0.042 C 
BRANCH  26  27
ATOM     27  C   UNL A   1      32.244  29.280  26.301  1.00  0.00     0.118 C 
BRANCH  27  28
ATOM     28  N   UNL A   1      32.125  30.718  26.569  1.00  0.00    -0.352 N 
ATOM     29  C   UNL A   1      32.933  31.645  27.189  1.00  0.00     0.251 C 
ATOM     30  H   UNL A   1      31.285  31.104  26.232  1.00  0.00     0.163 HD
ATOM     31  O   UNL A   1      32.499  32.783  27.365  1.00  0.00    -0.269 OA
BRANCH  29  32
ATOM     32  C   UNL A   1      34.284  31.307  27.698  1.00  0.00     0.039 A 
ATOM     33  C   UNL A   1      35.250  32.317  27.810  1.00  0.00     0.014 A 
ATOM     34  C   UNL A   1      34.624  30.009  28.060  1.00  0.00     0.014 A 
ATOM     35  C   UNL A   1      36.489  32.044  28.402  1.00  0.00     0.010 A 
ATOM     36  C   UNL A   1      35.787  29.770  28.780  1.00  0.00     0.010 A 
ATOM     37  C   UNL A   1      36.738  30.782  28.962  1.00  0.00    -0.014 A 
BRANCH  37  38
ATOM     38  C   UNL A   1      37.968  30.478  29.742  1.00  0.00     0.031 A 
ATOM     39  C   UNL A   1      39.018  29.561  29.166  1.00  0.00     0.074 A 
ATOM     40  C   UNL A   1      38.082  30.915  31.012  1.00  0.00     0.049 A 
ATOM     41  N   UNL A   1      40.060  29.024  29.748  1.00  0.00    -0.248 NA
ATOM     42  C   UNL A   1      38.842  29.152  27.763  1.00  0.00     0.031 C 
ATOM     43  C   UNL A   1      37.104  31.749  31.717  1.00  0.00     0.029 A 
ATOM     44  N   UNL A   1      39.065  30.701  31.947  1.00  0.00    -0.354 N 
ATOM     45  C   UNL A   1      40.631  28.184  28.800  1.00  0.00     0.074 A 
ATOM     46  C   UNL A   1      39.785  28.233  27.627  1.00  0.00     0.031 C 
ATOM     47  C   UNL A   1      37.552  32.002  32.957  1.00  0.00     0.029 A 
ATOM     48  C   UNL A   1      38.819  31.310  33.156  1.00  0.00     0.049 A 
ATOM     49  H   UNL A   1      39.869  30.163  31.768  1.00  0.00     0.167 HD
ATOM     50  C   UNL A   1      41.772  27.460  28.883  1.00  0.00     0.037 A 
ATOM     51  C   UNL A   1      39.532  31.303  34.297  1.00  0.00     0.037 A 
ATOM     52  C   UNL A   1      42.643  27.461  30.028  1.00  0.00     0.049 A 
ATOM     53  C   UNL A   1      40.816  30.525  34.353  1.00  0.00     0.074 A 
ATOM     54  C   UNL A   1      43.866  26.832  30.184  1.00  0.00     0.029 A 
ATOM     55  N   UNL A   1      42.385  28.138  31.211  1.00  0.00    -0.354 N 
ATOM     56  N   UNL A   1      41.376  29.785  33.426  1.00  0.00    -0.248 NA
ATOM     57  C   UNL A   1      41.571  30.583  35.613  1.00  0.00     0.031 C 
ATOM     58  C   UNL A   1      44.332  27.099  31.475  1.00  0.00     0.029 A 
ATOM     59  C   UNL A   1      43.420  27.931  32.107  1.00  0.00     0.049 A 
ATOM     60  H   UNL A   1      41.586  28.683  31.388  1.00  0.00     0.167 HD
ATOM     61  C   UNL A   1      42.558  29.312  33.979  1.00  0.00     0.074 A 
ATOM     62  C   UNL A   1      42.643  29.863  35.316  1.00  0.00     0.031 C 
ATOM     63  C   UNL A   1      43.489  28.494  33.431  1.00  0.00     0.037 A 
BRANCH  50  64
ATOM     64  C   UNL A   1      42.152  26.625  27.693  1.00  0.00     0.057 A 
ATOM     65  C   UNL A   1      41.779  25.277  27.585  1.00  0.00     0.134 A 
ATOM     66  C   UNL A   1      42.883  27.176  26.633  1.00  0.00     0.134 A 
ATOM     67  F   UNL A   1      41.089  24.682  28.570  1.00  0.00    -0.206 F 
ATOM     68  C   UNL A   1      42.147  24.502  26.484  1.00  0.00     0.040 A 
ATOM     69  C   UNL A   1      43.230  26.419  25.512  1.00  0.00     0.040 A 
ATOM     70  F   UNL A   1      43.268  28.461  26.666  1.00  0.00    -0.206 F 
ATOM     71  C   UNL A   1      42.869  25.075  25.439  1.00  0.00     0.006 A 
ENDBRANCH  50  64
BRANCH  51  72
ATOM     72  C   UNL A   1      39.066  32.085  35.471  1.00  0.00     0.057 A 
ATOM     73  C   UNL A   1      39.371  33.446  35.591  1.00  0.00     0.134 A 
ATOM     74  C   UNL A   1      38.312  31.501  36.496  1.00  0.00     0.134 A 
ATOM     75  F   UNL A   1      40.105  34.058  34.649  1.00  0.00    -0.206 F 
ATOM     76  C   UNL A   1      38.962  34.194  36.696  1.00  0.00     0.040 A 
ATOM     77  C   UNL A   1      37.875  32.243  37.595  1.00  0.00     0.040 A 
ATOM     78  F   UNL A   1      37.976  30.205  36.436  1.00  0.00    -0.206 F 
ATOM     79  C   UNL A   1      38.207  33.593  37.700  1.00  0.00     0.006 A 
ENDBRANCH  51  72
BRANCH  63  80
ATOM     80  C   UNL A   1      44.694  28.175  34.265  1.00  0.00     0.057 A 
ATOM     81  C   UNL A   1      45.832  28.991  34.261  1.00  0.00     0.134 A 
ATOM     82  C   UNL A   1      44.700  27.056  35.108  1.00  0.00     0.134 A 
ATOM     83  F   UNL A   1      45.894  30.069  33.465  1.00  0.00    -0.206 F 
ATOM     84  C   UNL A   1      46.944  28.692  35.050  1.00  0.00     0.040 A 
ATOM     85  C   UNL A   1      45.795  26.763  35.921  1.00  0.00     0.040 A 
ATOM     86  F   UNL A   1      43.638  26.239  35.165  1.00  0.00    -0.206 F 
ATOM     87  C   UNL A   1      46.924  27.579  35.888  1.00  0.00     0.006 A 
ENDBRANCH  63  80
ENDBRANCH  37  38
ENDBRANCH  29  32
ENDBRANCH  27  28
ENDBRANCH  26  27
ENDBRANCH  25  26
ENDBRANCH   3  25
TORSDOF 15
ENDMDL
MODEL 2
REMARK VINA RESULT:     -11.6      3.499      7.821
REMARK SMILES O=C(CO/N=C\c1ccccc1)Nc1ccccc1C(=O)NCCCNC(=O)c1ccc(-c2c3nc(c(-c4c(F)cccc4F)c4ccc([nH]4)c(-c4c(F)cccc4F)c4nc(c(-c5c(F)cccc5F)c5ccc2[nH]5)C=C4)C=C3)cc1
REMARK SMILES IDX 20 1 21 2 22 3 19 5 14 6 15 7 16 8 18 9 17 10 13 11 1 12
REMARK SMILES IDX 2 13 3 15 4 16 5 17 6 18 7 19 8 20 12 21 9 22 11 23 10 24
REMARK SMILES IDX 23 25 24 26 25 27 26 28 27 29 28 31 29 32 30 33 82 34 31 35
REMARK SMILES IDX 81 36 32 37 33 38 34 39 75 40 35 41 80 42 74 43 76 44 36 45
REMARK SMILES IDX 79 46 73 47 72 48 37 50 63 51 46 52 62 53 47 54 50 55 61 56
REMARK SMILES IDX 77 57 48 58 49 59 60 61 78 62 51 63 38 64 39 65 44 66 40 67
REMARK SMILES IDX 41 68 43 69 45 70 42 71 64 72 65 73 70 74 66 75 67 76 69 77
REMARK SMILES IDX 71 78 68 79 52 80 53 81 58 82 54 83 55 84 57 85 59 86 56 87
REMARK H PARENT 22 4 13 14 26 30 76 49 50 60
REMARK Flexibility Score: inf
ROOT
ATOM      1  C   UNL A   1      31.611  27.415  22.845  1.00  0.00     0.253 C 
ATOM      2  O   UNL A   1      31.889  26.794  21.816  1.00  0.00    -0.269 OA
ATOM      3  N   UNL A   1      32.661  27.713  23.695  1.00  0.00    -0.352 N 
ATOM      4  H   UNL A   1      33.502  27.226  23.539  1.00  0.00     0.163 HD
ENDROOT
BRANCH   1   5
ATOM      5  C   UNL A   1      30.166  27.604  23.215  1.00  0.00     0.063 A 
ATOM      6  C   UNL A   1      29.270  26.742  23.887  1.00  0.00     0.054 A 
ATOM      7  C   UNL A   1      27.893  27.061  23.875  1.00  0.00     0.027 A 
ATOM      8  C   UNL A   1      27.414  28.250  23.323  1.00  0.00     0.002 A 
ATOM      9  C   UNL A   1      29.656  28.818  22.689  1.00  0.00     0.016 A 
ATOM     10  C   UNL A   1      28.302  29.146  22.754  1.00  0.00     0.001 A 
BRANCH   6  11
ATOM     11  N   UNL A   1      29.560  25.557  24.608  1.00  0.00    -0.322 N 
ATOM     12  O   UNL A   1      30.586  26.398  26.504  1.00  0.00    -0.271 OA
ATOM     13  C   UNL A   1      30.253  25.450  25.800  1.00  0.00     0.265 C 
ATOM     14  H   UNL A   1      29.234  24.716  24.215  1.00  0.00     0.170 HD
BRANCH  13  15
ATOM     15  C   UNL A   1      30.738  24.017  26.074  1.00  0.00     0.363 C 
BRANCH  15  16
ATOM     16  O   UNL A   1      32.084  23.771  25.712  1.00  0.00    -0.386 OA
BRANCH  16  17
ATOM     17  N   UNL A   1      32.302  24.281  24.429  1.00  0.00    -0.094 NA
ATOM     18  C   UNL A   1      32.912  23.427  23.664  1.00  0.00     0.162 C 
BRANCH  18  19
ATOM     19  C   UNL A   1      33.292  22.045  23.994  1.00  0.00    -0.004 A 
ATOM     20  C   UNL A   1      32.371  21.032  23.726  1.00  0.00     0.010 A 
ATOM     21  C   UNL A   1      34.508  21.763  24.624  1.00  0.00     0.010 A 
ATOM     22  C   UNL A   1      32.677  19.717  24.074  1.00  0.00     0.001 A 
ATOM     23  C   UNL A   1      34.802  20.446  24.982  1.00  0.00     0.001 A 
ATOM     24  C   UNL A   1      33.888  19.425  24.703  1.00  0.00     0.000 A 
ENDBRANCH  18  19
ENDBRANCH  16  17
ENDBRANCH  15  16
ENDBRANCH  13  15
ENDBRANCH   6  11
ENDBRANCH   1   5
BRANCH   3  25
ATOM     25  C   UNL A   1      32.660  28.653  24.779  1.00  0.00     0.118 C 
BRANCH  25  26
ATOM     26  C   UNL A   1      33.804  28.605  25.768  1.00  0.00     0.042 C 
BRANCH  26  27
ATOM     27  C   UNL A   1      33.415  28.785  27.236  1.00  0.00     0.118 C 
BRANCH  27  28
ATOM     28  N   UNL A   1      33.666  30.115  27.804  1.00  0.00    -0.352 N 
ATOM     29  C   UNL A   1      34.764  30.717  28.377  1.00  0.00     0.251 C 
ATOM     30  H   UNL A   1      32.879  30.704  27.767  1.00  0.00     0.163 HD
ATOM     31  O   UNL A   1      34.631  31.835  28.875  1.00  0.00    -0.269 OA
BRANCH  29  32
ATOM     32  C   UNL A   1      36.084  30.048  28.460  1.00  0.00     0.039 A 
ATOM     33  C   UNL A   1      36.946  30.086  27.355  1.00  0.00     0.014 A 
ATOM     34  C   UNL A   1      36.490  29.374  29.605  1.00  0.00     0.014 A 
ATOM     35  C   UNL A   1      38.243  29.568  27.455  1.00  0.00     0.010 A 
ATOM     36  C   UNL A   1      37.817  28.996  29.757  1.00  0.00     0.010 A 
ATOM     37  C   UNL A   1      38.715  29.086  28.685  1.00  0.00    -0.014 A 
BRANCH  37  38
ATOM     38  C   UNL A   1      40.128  28.671  28.897  1.00  0.00     0.031 A 
ATOM     39  C   UNL A   1      41.134  29.664  29.423  1.00  0.00     0.074 A 
ATOM     40  C   UNL A   1      40.535  27.449  28.498  1.00  0.00     0.049 A 
ATOM     41  N   UNL A   1      42.437  29.562  29.500  1.00  0.00    -0.248 NA
ATOM     42  C   UNL A   1      40.610  30.965  29.869  1.00  0.00     0.031 C 
ATOM     43  C   UNL A   1      39.679  26.417  27.906  1.00  0.00     0.029 A 
ATOM     44  N   UNL A   1      41.782  26.873  28.511  1.00  0.00    -0.354 N 
ATOM     45  C   UNL A   1      42.885  30.795  29.959  1.00  0.00     0.074 A 
ATOM     46  C   UNL A   1      41.723  31.649  30.080  1.00  0.00     0.031 C 
ATOM     47  C   UNL A   1      40.418  25.328  27.645  1.00  0.00     0.029 A 
ATOM     48  C   UNL A   1      41.806  25.597  28.001  1.00  0.00     0.049 A 
ATOM     49  H   UNL A   1      42.582  27.332  28.854  1.00  0.00     0.167 HD
ATOM     50  C   UNL A   1      44.144  31.177  30.280  1.00  0.00     0.037 A 
ATOM     51  C   UNL A   1      42.832  24.743  27.831  1.00  0.00     0.037 A 
ATOM     52  C   UNL A   1      45.288  30.306  30.215  1.00  0.00     0.049 A 
ATOM     53  C   UNL A   1      44.215  25.174  28.232  1.00  0.00     0.074 A 
ATOM     54  C   UNL A   1      46.592  30.565  30.599  1.00  0.00     0.029 A 
ATOM     55  N   UNL A   1      45.258  29.002  29.747  1.00  0.00    -0.354 N 
ATOM     56  N   UNL A   1      44.613  26.323  28.724  1.00  0.00    -0.248 NA
ATOM     57  C   UNL A   1      45.291  24.188  28.060  1.00  0.00     0.031 C 
ATOM     58  C   UNL A   1      47.359  29.428  30.329  1.00  0.00     0.029 A 
ATOM     59  C   UNL A   1      46.524  28.446  29.819  1.00  0.00     0.049 A 
ATOM     60  H   UNL A   1      44.456  28.540  29.412  1.00  0.00     0.167 HD
ATOM     61  C   UNL A   1      45.977  26.190  28.943  1.00  0.00     0.074 A 
ATOM     62  C   UNL A   1      46.335  24.843  28.546  1.00  0.00     0.031 C 
ATOM     63  C   UNL A   1      46.857  27.101  29.426  1.00  0.00     0.037 A 
BRANCH  50  64
ATOM     64  C   UNL A   1      44.343  32.590  30.749  1.00  0.00     0.057 A 
ATOM     65  C   UNL A   1      44.293  32.933  32.108  1.00  0.00     0.134 A 
ATOM     66  C   UNL A   1      44.607  33.619  29.836  1.00  0.00     0.134 A 
ATOM     67  F   UNL A   1      44.032  31.999  33.036  1.00  0.00    -0.206 F 
ATOM     68  C   UNL A   1      44.464  34.250  32.537  1.00  0.00     0.040 A 
ATOM     69  C   UNL A   1      44.810  34.935  30.256  1.00  0.00     0.040 A 
ATOM     70  F   UNL A   1      44.675  33.362  28.521  1.00  0.00    -0.206 F 
ATOM     71  C   UNL A   1      44.731  35.255  31.610  1.00  0.00     0.006 A 
ENDBRANCH  50  64
BRANCH  51  72
ATOM     72  C   UNL A   1      42.589  23.383  27.287  1.00  0.00     0.057 A 
ATOM     73  C   UNL A   1      42.663  23.139  25.910  1.00  0.00     0.134 A 
ATOM     74  C   UNL A   1      42.277  22.300  28.118  1.00  0.00     0.134 A 
ATOM     75  F   UNL A   1      42.941  24.140  25.062  1.00  0.00    -0.206 F 
ATOM     76  C   UNL A   1      42.416  21.873  25.377  1.00  0.00     0.040 A 
ATOM     77  C   UNL A   1      42.052  21.023  27.600  1.00  0.00     0.040 A 
ATOM     78  F   UNL A   1      42.202  22.464  29.446  1.00  0.00    -0.206 F 
ATOM     79  C   UNL A   1      42.114  20.809  26.224  1.00  0.00     0.006 A 
ENDBRANCH  51  72
BRANCH  63  80
ATOM     80  C   UNL A   1      48.281  26.658  29.585  1.00  0.00     0.057 A 
ATOM     81  C   UNL A   1      49.256  26.947  28.622  1.00  0.00     0.134 A 
ATOM     82  C   UNL A   1      48.687  25.964  30.732  1.00  0.00     0.134 A 
ATOM     83  F   UNL A   1      48.928  27.597  27.495  1.00  0.00    -0.206 F 
ATOM     84  C   UNL A   1      50.581  26.540  28.784  1.00  0.00     0.040 A 
ATOM     85  C   UNL A   1      50.014  25.576  30.917  1.00  0.00     0.040 A 
ATOM     86  F   UNL A   1      47.803  25.664  31.696  1.00  0.00    -0.206 F 
ATOM     87  C   UNL A   1      50.964  25.859  29.938  1.00  0.00     0.006 A 
ENDBRANCH  63  80
ENDBRANCH  37  38
ENDBRANCH  29  32
ENDBRANCH  27  28
ENDBRANCH  26  27
ENDBRANCH  25  26
ENDBRANCH   3  25
TORSDOF 15
ENDMDL
MODEL 3
REMARK VINA RESULT:     -11.6      0.481      6.171
REMARK SMILES O=C(CO/N=C\c1ccccc1)Nc1ccccc1C(=O)NCCCNC(=O)c1ccc(-c2c3nc(c(-c4c(F)cccc4F)c4ccc([nH]4)c(-c4c(F)cccc4F)c4nc(c(-c5c(F)cccc5F)c5ccc2[nH]5)C=C4)C=C3)cc1
REMARK SMILES IDX 20 1 21 2 22 3 19 5 14 6 15 7 16 8 18 9 17 10 13 11 1 12
REMARK SMILES IDX 2 13 3 15 4 16 5 17 6 18 7 19 8 20 12 21 9 22 11 23 10 24
REMARK SMILES IDX 23 25 24 26 25 27 26 28 27 29 28 31 29 32 30 33 82 34 31 35
REMARK SMILES IDX 81 36 32 37 33 38 34 39 75 40 35 41 80 42 74 43 76 44 36 45
REMARK SMILES IDX 79 46 73 47 72 48 37 50 63 51 46 52 62 53 47 54 50 55 61 56
REMARK SMILES IDX 77 57 48 58 49 59 60 61 78 62 51 63 38 64 39 65 44 66 40 67
REMARK SMILES IDX 41 68 43 69 45 70 42 71 64 72 65 73 70 74 66 75 67 76 69 77
REMARK SMILES IDX 71 78 68 79 52 80 53 81 58 82 54 83 55 84 57 85 59 86 56 87
REMARK H PARENT 22 4 13 14 26 30 76 49 50 60
REMARK Flexibility Score: inf
ROOT
ATOM      1  C   UNL A   1      33.361  25.283  25.716  1.00  0.00     0.253 C 
ATOM      2  O   UNL A   1      32.689  24.607  26.498  1.00  0.00    -0.269 OA
ATOM      3  N   UNL A   1      33.020  26.618  25.595  1.00  0.00    -0.352 N 
ATOM      4  H   UNL A   1      32.145  26.881  25.961  1.00  0.00     0.163 HD
ENDROOT
BRANCH   1   5
ATOM      5  C   UNL A   1      34.329  24.589  24.798  1.00  0.00     0.063 A 
ATOM      6  C   UNL A   1      34.191  24.189  23.450  1.00  0.00     0.054 A 
ATOM      7  C   UNL A   1      35.162  23.320  22.903  1.00  0.00     0.027 A 
ATOM      8  C   UNL A   1      36.303  22.944  23.613  1.00  0.00     0.002 A 
ATOM      9  C   UNL A   1      35.512  24.215  25.486  1.00  0.00     0.016 A 
ATOM     10  C   UNL A   1      36.493  23.417  24.900  1.00  0.00     0.001 A 
BRANCH   6  11
ATOM     11  N   UNL A   1      33.182  24.550  22.522  1.00  0.00    -0.322 N 
ATOM     12  O   UNL A   1      34.028  26.518  21.649  1.00  0.00    -0.271 OA
ATOM     13  C   UNL A   1      33.120  25.700  21.757  1.00  0.00     0.265 C 
ATOM     14  H   UNL A   1      32.441  23.911  22.412  1.00  0.00     0.170 HD
BRANCH  13  15
ATOM     15  C   UNL A   1      31.714  25.957  21.192  1.00  0.00     0.363 C 
BRANCH  15  16
ATOM     16  O   UNL A   1      30.939  26.880  21.935  1.00  0.00    -0.386 OA
BRANCH  16  17
ATOM     17  N   UNL A   1      30.842  26.423  23.252  1.00  0.00    -0.094 NA
ATOM     18  C   UNL A   1      30.091  27.193  23.979  1.00  0.00     0.162 C 
BRANCH  18  19
ATOM     19  C   UNL A   1      29.332  28.374  23.540  1.00  0.00    -0.004 A 
ATOM     20  C   UNL A   1      28.013  28.185  23.127  1.00  0.00     0.010 A 
ATOM     21  C   UNL A   1      29.936  29.633  23.467  1.00  0.00     0.010 A 
ATOM     22  C   UNL A   1      27.280  29.273  22.655  1.00  0.00     0.001 A 
ATOM     23  C   UNL A   1      29.201  30.715  22.980  1.00  0.00     0.001 A 
ATOM     24  C   UNL A   1      27.874  30.535  22.579  1.00  0.00     0.000 A 
ENDBRANCH  18  19
ENDBRANCH  16  17
ENDBRANCH  15  16
ENDBRANCH  13  15
ENDBRANCH   6  11
ENDBRANCH   1   5
BRANCH   3  25
ATOM     25  C   UNL A   1      33.801  27.663  24.997  1.00  0.00     0.118 C 
BRANCH  25  26
ATOM     26  C   UNL A   1      33.221  29.060  24.965  1.00  0.00     0.042 C 
BRANCH  26  27
ATOM     27  C   UNL A   1      32.391  29.458  26.186  1.00  0.00     0.118 C 
BRANCH  27  28
ATOM     28  N   UNL A   1      32.425  30.881  26.543  1.00  0.00    -0.352 N 
ATOM     29  C   UNL A   1      33.304  31.668  27.254  1.00  0.00     0.251 C 
ATOM     30  H   UNL A   1      31.651  31.383  26.200  1.00  0.00     0.163 HD
ATOM     31  O   UNL A   1      32.995  32.836  27.487  1.00  0.00    -0.269 OA
BRANCH  29  32
ATOM     32  C   UNL A   1      34.583  31.144  27.791  1.00  0.00     0.039 A 
ATOM     33  C   UNL A   1      35.652  32.025  28.007  1.00  0.00     0.014 A 
ATOM     34  C   UNL A   1      34.755  29.795  28.080  1.00  0.00     0.014 A 
ATOM     35  C   UNL A   1      36.823  31.573  28.627  1.00  0.00     0.010 A 
ATOM     36  C   UNL A   1      35.849  29.378  28.827  1.00  0.00     0.010 A 
ATOM     37  C   UNL A   1      36.900  30.259  29.112  1.00  0.00    -0.014 A 
BRANCH  37  38
ATOM     38  C   UNL A   1      38.050  29.766  29.917  1.00  0.00     0.031 A 
ATOM     39  C   UNL A   1      38.256  30.271  31.324  1.00  0.00     0.074 A 
ATOM     40  C   UNL A   1      38.977  28.971  29.347  1.00  0.00     0.049 A 
ATOM     41  N   UNL A   1      39.284  30.115  32.118  1.00  0.00    -0.248 NA
ATOM     42  C   UNL A   1      37.186  31.108  31.890  1.00  0.00     0.031 C 
ATOM     43  C   UNL A   1      38.937  28.468  27.970  1.00  0.00     0.029 A 
ATOM     44  N   UNL A   1      40.149  28.460  29.848  1.00  0.00    -0.354 N 
ATOM     45  C   UNL A   1      39.003  30.868  33.252  1.00  0.00     0.074 A 
ATOM     46  C   UNL A   1      37.739  31.531  33.016  1.00  0.00     0.031 C 
ATOM     47  C   UNL A   1      40.013  27.698  27.750  1.00  0.00     0.029 A 
ATOM     48  C   UNL A   1      40.846  27.690  28.947  1.00  0.00     0.049 A 
ATOM     49  H   UNL A   1      40.459  28.630  30.766  1.00  0.00     0.167 HD
ATOM     50  C   UNL A   1      39.714  30.976  34.399  1.00  0.00     0.037 A 
ATOM     51  C   UNL A   1      42.028  27.057  29.070  1.00  0.00     0.037 A 
ATOM     52  C   UNL A   1      40.940  30.267  34.654  1.00  0.00     0.049 A 
ATOM     53  C   UNL A   1      42.780  27.158  30.367  1.00  0.00     0.074 A 
ATOM     54  C   UNL A   1      41.695  30.238  35.813  1.00  0.00     0.029 A 
ATOM     55  N   UNL A   1      41.582  29.452  33.734  1.00  0.00    -0.354 N 
ATOM     56  N   UNL A   1      42.469  27.824  31.453  1.00  0.00    -0.248 NA
ATOM     57  C   UNL A   1      44.046  26.417  30.457  1.00  0.00     0.031 C 
ATOM     58  C   UNL A   1      42.815  29.432  35.583  1.00  0.00     0.029 A 
ATOM     59  C   UNL A   1      42.733  28.924  34.295  1.00  0.00     0.049 A 
ATOM     60  H   UNL A   1      41.268  29.275  32.819  1.00  0.00     0.167 HD
ATOM     61  C   UNL A   1      43.485  27.562  32.363  1.00  0.00     0.074 A 
ATOM     62  C   UNL A   1      44.412  26.663  31.706  1.00  0.00     0.031 C 
ATOM     63  C   UNL A   1      43.638  28.025  33.628  1.00  0.00     0.037 A 
BRANCH  50  64
ATOM     64  C   UNL A   1      39.170  31.877  35.471  1.00  0.00     0.057 A 
ATOM     65  C   UNL A   1      39.484  33.243  35.520  1.00  0.00     0.134 A 
ATOM     66  C   UNL A   1      38.306  31.380  36.455  1.00  0.00     0.134 A 
ATOM     67  F   UNL A   1      40.316  33.782  34.616  1.00  0.00    -0.206 F 
ATOM     68  C   UNL A   1      38.987  34.073  36.527  1.00  0.00     0.040 A 
ATOM     69  C   UNL A   1      37.777  32.208  37.449  1.00  0.00     0.040 A 
ATOM     70  F   UNL A   1      37.957  30.085  36.466  1.00  0.00    -0.206 F 
ATOM     71  C   UNL A   1      38.125  33.556  37.491  1.00  0.00     0.006 A 
ENDBRANCH  50  64
BRANCH  51  72
ATOM     72  C   UNL A   1      42.557  26.243  27.946  1.00  0.00     0.057 A 
ATOM     73  C   UNL A   1      43.360  26.824  26.957  1.00  0.00     0.134 A 
ATOM     74  C   UNL A   1      42.277  24.876  27.829  1.00  0.00     0.134 A 
ATOM     75  F   UNL A   1      43.649  28.133  27.006  1.00  0.00    -0.206 F 
ATOM     76  C   UNL A   1      43.849  26.081  25.882  1.00  0.00     0.040 A 
ATOM     77  C   UNL A   1      42.781  24.116  26.771  1.00  0.00     0.040 A 
ATOM     78  F   UNL A   1      41.524  24.257  28.748  1.00  0.00    -0.206 F 
ATOM     79  C   UNL A   1      43.564  24.721  25.790  1.00  0.00     0.006 A 
ENDBRANCH  51  72
BRANCH  63  80
ATOM     80  C   UNL A   1      44.833  27.539  34.392  1.00  0.00     0.057 A 
ATOM     81  C   UNL A   1      46.048  28.236  34.386  1.00  0.00     0.134 A 
ATOM     82  C   UNL A   1      44.755  26.377  35.171  1.00  0.00     0.134 A 
ATOM     83  F   UNL A   1      46.190  29.348  33.649  1.00  0.00    -0.206 F 
ATOM     84  C   UNL A   1      47.151  27.781  35.110  1.00  0.00     0.040 A 
ATOM     85  C   UNL A   1      45.843  25.928  35.920  1.00  0.00     0.040 A 
ATOM     86  F   UNL A   1      43.618  25.668  35.227  1.00  0.00    -0.206 F 
ATOM     87  C   UNL A   1      47.047  26.628  35.886  1.00  0.00     0.006 A 
ENDBRANCH  63  80
ENDBRANCH  37  38
ENDBRANCH  29  32
ENDBRANCH  27  28
ENDBRANCH  26  27
ENDBRANCH  25  26
ENDBRANCH   3  25
TORSDOF 15
ENDMDL
