MODEL 1
REMARK VINA RESULT:     -13.2      0.000      0.000
REMARK SMILES C[C@H](C(=O)Nc1ccc(C(F)(F)F)cc1)n1nc(C(=O)NCCCNC(=O)c2ccc(-c3c4nc(c(-c5c(F)cccc5F)c5ccc([nH]5)c(-c5c(F)cccc5F)c5nc(c(-c6c(F)cccc6F)c6ccc3[nH]6)C=C5)C=C4)cc2)c2ccccc2c1=O
REMARK SMILES IDX 22 1 21 2 19 3 20 4 18 6 16 7 17 8 88 9 87 10 89 11 82 12
REMARK SMILES IDX 86 13 83 14 85 15 84 16 2 17 1 18 3 19 4 20 5 21 6 23 7 24
REMARK SMILES IDX 15 25 8 26 14 27 9 28 10 29 11 30 12 31 13 32 23 33 24 34
REMARK SMILES IDX 25 35 26 36 27 38 28 39 29 40 81 41 30 42 80 43 31 44 32 45
REMARK SMILES IDX 33 46 74 47 34 48 79 49 73 50 75 51 35 52 78 53 72 54 71 55
REMARK SMILES IDX 36 57 62 58 45 59 61 60 46 61 49 62 60 63 76 64 47 65 48 66
REMARK SMILES IDX 59 68 77 69 50 70 37 71 38 72 43 73 39 74 40 75 42 76 44 77
REMARK SMILES IDX 41 78 63 79 64 80 69 81 65 82 66 83 68 84 70 85 67 86 51 87
REMARK SMILES IDX 52 88 57 89 53 90 54 91 56 92 58 93 55 94
REMARK H PARENT 21 5 5 22 25 37 75 56 49 67
REMARK Flexibility Score: inf
ROOT
ATOM      1  C   UNL A   1      32.039  30.053  26.266  1.00  0.00     0.118 C 
ENDROOT
BRANCH   1   2
ATOM      2  N   UNL A   1      32.880  30.090  25.083  1.00  0.00    -0.351 N 
ATOM      3  C   UNL A   1      32.833  29.239  23.998  1.00  0.00     0.272 C 
ATOM      4  O   UNL A   1      33.721  29.261  23.155  1.00  0.00    -0.267 OA
ATOM      5  H   UNL A   1      33.559  30.802  25.051  1.00  0.00     0.163 HD
BRANCH   3   6
ATOM      6  C   UNL A   1      31.637  28.284  23.852  1.00  0.00     0.156 A 
ATOM      7  N   UNL A   1      30.778  26.168  24.288  1.00  0.00    -0.216 N 
ATOM      8  N   UNL A   1      31.830  27.051  24.220  1.00  0.00    -0.163 NA
ATOM      9  C   UNL A   1      29.487  26.495  23.893  1.00  0.00     0.275 A 
ATOM     10  C   UNL A   1      29.267  27.883  23.436  1.00  0.00     0.051 A 
ATOM     11  O   UNL A   1      28.534  25.725  23.939  1.00  0.00    -0.267 OA
ATOM     12  C   UNL A   1      30.334  28.777  23.375  1.00  0.00     0.020 A 
ATOM     13  C   UNL A   1      27.982  28.292  23.052  1.00  0.00     0.014 A 
ATOM     14  C   UNL A   1      30.122  30.067  22.871  1.00  0.00     0.011 A 
ATOM     15  C   UNL A   1      27.772  29.582  22.569  1.00  0.00     0.001 A 
ATOM     16  C   UNL A   1      28.845  30.463  22.461  1.00  0.00     0.001 A 
BRANCH   7  17
ATOM     17  C   UNL A   1      31.163  24.790  24.646  1.00  0.00     0.197 C 
ATOM     18  C   UNL A   1      30.648  23.798  23.598  1.00  0.00     0.044 C 
BRANCH  17  19
ATOM     19  C   UNL A   1      30.878  24.271  26.077  1.00  0.00     0.249 C 
ATOM     20  O   UNL A   1      29.845  24.575  26.685  1.00  0.00    -0.272 OA
ATOM     21  N   UNL A   1      31.675  23.306  26.645  1.00  0.00    -0.324 N 
ATOM     22  H   UNL A   1      31.287  22.872  27.439  1.00  0.00     0.170 HD
BRANCH  21  23
ATOM     23  C   UNL A   1      32.942  22.835  26.289  1.00  0.00     0.041 A 
ATOM     24  C   UNL A   1      33.045  21.541  25.774  1.00  0.00     0.027 A 
ATOM     25  C   UNL A   1      34.103  23.569  26.509  1.00  0.00     0.027 A 
ATOM     26  C   UNL A   1      34.286  21.028  25.378  1.00  0.00     0.015 A 
ATOM     27  C   UNL A   1      35.350  23.040  26.160  1.00  0.00     0.015 A 
ATOM     28  C   UNL A   1      35.453  21.782  25.551  1.00  0.00     0.056 A 
BRANCH  28  29
ATOM     29  C   UNL A   1      36.802  21.264  25.114  1.00  0.00     0.416 C 
ATOM     30  F   UNL A   1      36.848  19.906  25.060  1.00  0.00    -0.166 F 
ATOM     31  F   UNL A   1      37.190  21.707  23.889  1.00  0.00    -0.166 F 
ATOM     32  F   UNL A   1      37.790  21.640  25.977  1.00  0.00    -0.166 F 
ENDBRANCH  28  29
ENDBRANCH  21  23
ENDBRANCH  17  19
ENDBRANCH   7  17
ENDBRANCH   3   6
ENDBRANCH   1   2
BRANCH   1  33
ATOM     33  C   UNL A   1      31.653  31.462  26.718  1.00  0.00     0.042 C 
BRANCH  33  34
ATOM     34  C   UNL A   1      32.871  32.310  27.031  1.00  0.00     0.118 C 
BRANCH  34  35
ATOM     35  N   UNL A   1      32.509  33.616  27.565  1.00  0.00    -0.352 N 
ATOM     36  C   UNL A   1      33.158  34.349  28.531  1.00  0.00     0.251 C 
ATOM     37  H   UNL A   1      31.697  34.026  27.186  1.00  0.00     0.163 HD
ATOM     38  O   UNL A   1      32.638  35.358  28.994  1.00  0.00    -0.269 OA
BRANCH  36  39
ATOM     39  C   UNL A   1      34.462  33.872  29.045  1.00  0.00     0.039 A 
ATOM     40  C   UNL A   1      34.494  33.099  30.209  1.00  0.00     0.014 A 
ATOM     41  C   UNL A   1      35.645  34.143  28.352  1.00  0.00     0.014 A 
ATOM     42  C   UNL A   1      35.699  32.535  30.631  1.00  0.00     0.010 A 
ATOM     43  C   UNL A   1      36.823  33.508  28.720  1.00  0.00     0.010 A 
ATOM     44  C   UNL A   1      36.865  32.699  29.864  1.00  0.00    -0.014 A 
BRANCH  44  45
ATOM     45  C   UNL A   1      38.144  32.047  30.238  1.00  0.00     0.031 A 
ATOM     46  C   UNL A   1      39.100  32.750  31.162  1.00  0.00     0.074 A 
ATOM     47  C   UNL A   1      38.486  30.870  29.677  1.00  0.00     0.049 A 
ATOM     48  N   UNL A   1      40.316  32.413  31.509  1.00  0.00    -0.248 NA
ATOM     49  C   UNL A   1      38.643  34.025  31.738  1.00  0.00     0.031 C 
ATOM     50  C   UNL A   1      37.675  30.119  28.715  1.00  0.00     0.029 A 
ATOM     51  N   UNL A   1      39.615  30.106  29.825  1.00  0.00    -0.354 N 
ATOM     52  C   UNL A   1      40.780  33.450  32.309  1.00  0.00     0.074 A 
ATOM     53  C   UNL A   1      39.734  34.449  32.357  1.00  0.00     0.031 C 
ATOM     54  C   UNL A   1      38.320  28.989  28.384  1.00  0.00     0.029 A 
ATOM     55  C   UNL A   1      39.601  28.951  29.082  1.00  0.00     0.049 A 
ATOM     56  H   UNL A   1      40.365  30.362  30.411  1.00  0.00     0.167 HD
ATOM     57  C   UNL A   1      41.960  33.552  32.962  1.00  0.00     0.037 A 
ATOM     58  C   UNL A   1      40.520  27.974  28.975  1.00  0.00     0.037 A 
ATOM     59  C   UNL A   1      42.972  32.530  32.962  1.00  0.00     0.049 A 
ATOM     60  C   UNL A   1      41.797  28.079  29.759  1.00  0.00     0.074 A 
ATOM     61  C   UNL A   1      44.171  32.500  33.652  1.00  0.00     0.029 A 
ATOM     62  N   UNL A   1      42.893  31.347  32.242  1.00  0.00    -0.354 N 
ATOM     63  N   UNL A   1      42.200  29.040  30.554  1.00  0.00    -0.248 NA
ATOM     64  C   UNL A   1      42.744  26.962  29.638  1.00  0.00     0.031 C 
ATOM     65  C   UNL A   1      44.826  31.305  33.336  1.00  0.00     0.029 A 
ATOM     66  C   UNL A   1      44.022  30.580  32.471  1.00  0.00     0.049 A 
ATOM     67  H   UNL A   1      42.144  31.091  31.656  1.00  0.00     0.167 HD
ATOM     68  C   UNL A   1      43.433  28.636  31.045  1.00  0.00     0.074 A 
ATOM     69  C   UNL A   1      43.708  27.336  30.468  1.00  0.00     0.031 C 
ATOM     70  C   UNL A   1      44.266  29.283  31.896  1.00  0.00     0.037 A 
BRANCH  57  71
ATOM     71  C   UNL A   1      42.206  34.807  33.746  1.00  0.00     0.057 A 
ATOM     72  C   UNL A   1      41.833  34.921  35.091  1.00  0.00     0.134 A 
ATOM     73  C   UNL A   1      42.831  35.910  33.153  1.00  0.00     0.134 A 
ATOM     74  F   UNL A   1      41.216  33.905  35.714  1.00  0.00    -0.206 F 
ATOM     75  C   UNL A   1      42.044  36.099  35.811  1.00  0.00     0.040 A 
ATOM     76  C   UNL A   1      43.071  37.085  33.868  1.00  0.00     0.040 A 
ATOM     77  F   UNL A   1      43.217  35.866  31.868  1.00  0.00    -0.206 F 
ATOM     78  C   UNL A   1      42.670  37.183  35.200  1.00  0.00     0.006 A 
ENDBRANCH  57  71
BRANCH  58  79
ATOM     79  C   UNL A   1      40.249  26.789  28.124  1.00  0.00     0.057 A 
ATOM     80  C   UNL A   1      40.811  26.682  26.847  1.00  0.00     0.134 A 
ATOM     81  C   UNL A   1      39.429  25.743  28.560  1.00  0.00     0.134 A 
ATOM     82  F   UNL A   1      41.592  27.663  26.369  1.00  0.00    -0.206 F 
ATOM     83  C   UNL A   1      40.556  25.583  26.026  1.00  0.00     0.040 A 
ATOM     84  C   UNL A   1      39.181  24.627  27.757  1.00  0.00     0.040 A 
ATOM     85  F   UNL A   1      38.869  25.783  29.778  1.00  0.00    -0.206 F 
ATOM     86  C   UNL A   1      39.742  24.549  26.483  1.00  0.00     0.006 A 
ENDBRANCH  58  79
BRANCH  70  87
ATOM     87  C   UNL A   1      45.532  28.579  32.277  1.00  0.00     0.057 A 
ATOM     88  C   UNL A   1      46.717  28.755  31.552  1.00  0.00     0.134 A 
ATOM     89  C   UNL A   1      45.575  27.753  33.406  1.00  0.00     0.134 A 
ATOM     90  F   UNL A   1      46.735  29.525  30.454  1.00  0.00    -0.206 F 
ATOM     91  C   UNL A   1      47.900  28.118  31.930  1.00  0.00     0.040 A 
ATOM     92  C   UNL A   1      46.756  27.127  33.804  1.00  0.00     0.040 A 
ATOM     93  F   UNL A   1      44.473  27.551  34.145  1.00  0.00    -0.206 F 
ATOM     94  C   UNL A   1      47.922  27.306  33.063  1.00  0.00     0.006 A 
ENDBRANCH  70  87
ENDBRANCH  44  45
ENDBRANCH  36  39
ENDBRANCH  34  35
ENDBRANCH  33  34
ENDBRANCH   1  33
TORSDOF 14
ENDMDL
MODEL 2
REMARK VINA RESULT:     -13.1      0.779      5.907
REMARK SMILES C[C@H](C(=O)Nc1ccc(C(F)(F)F)cc1)n1nc(C(=O)NCCCNC(=O)c2ccc(-c3c4nc(c(-c5c(F)cccc5F)c5ccc([nH]5)c(-c5c(F)cccc5F)c5nc(c(-c6c(F)cccc6F)c6ccc3[nH]6)C=C5)C=C4)cc2)c2ccccc2c1=O
REMARK SMILES IDX 22 1 21 2 19 3 20 4 18 6 16 7 17 8 88 9 87 10 89 11 82 12
REMARK SMILES IDX 86 13 83 14 85 15 84 16 2 17 1 18 3 19 4 20 5 21 6 23 7 24
REMARK SMILES IDX 15 25 8 26 14 27 9 28 10 29 11 30 12 31 13 32 23 33 24 34
REMARK SMILES IDX 25 35 26 36 27 38 28 39 29 40 81 41 30 42 80 43 31 44 32 45
REMARK SMILES IDX 33 46 74 47 34 48 79 49 73 50 75 51 35 52 78 53 72 54 71 55
REMARK SMILES IDX 36 57 62 58 45 59 61 60 46 61 49 62 60 63 76 64 47 65 48 66
REMARK SMILES IDX 59 68 77 69 50 70 37 71 38 72 43 73 39 74 40 75 42 76 44 77
REMARK SMILES IDX 41 78 63 79 64 80 69 81 65 82 66 83 68 84 70 85 67 86 51 87
REMARK SMILES IDX 52 88 57 89 53 90 54 91 56 92 58 93 55 94
REMARK H PARENT 21 5 5 22 25 37 75 56 49 67
REMARK Flexibility Score: inf
ROOT
ATOM      1  C   UNL A   1      32.219  29.957  26.249  1.00  0.00     0.118 C 
ENDROOT
BRANCH   1   2
ATOM      2  N   UNL A   1      33.001  30.027  25.028  1.00  0.00    -0.351 N 
ATOM      3  C   UNL A   1      32.888  29.219  23.915  1.00  0.00     0.272 C 
ATOM      4  O   UNL A   1      33.734  29.261  23.032  1.00  0.00    -0.267 OA
ATOM      5  H   UNL A   1      33.689  30.730  24.990  1.00  0.00     0.163 HD
BRANCH   3   6
ATOM      6  C   UNL A   1      31.672  28.287  23.793  1.00  0.00     0.156 A 
ATOM      7  N   UNL A   1      30.780  26.189  24.249  1.00  0.00    -0.216 N 
ATOM      8  N   UNL A   1      31.847  27.052  24.160  1.00  0.00    -0.163 NA
ATOM      9  C   UNL A   1      29.488  26.540  23.876  1.00  0.00     0.275 A 
ATOM     10  C   UNL A   1      29.288  27.931  23.419  1.00  0.00     0.051 A 
ATOM     11  O   UNL A   1      28.522  25.789  23.940  1.00  0.00    -0.267 OA
ATOM     12  C   UNL A   1      30.370  28.804  23.338  1.00  0.00     0.020 A 
ATOM     13  C   UNL A   1      28.003  28.364  23.057  1.00  0.00     0.014 A 
ATOM     14  C   UNL A   1      30.173  30.098  22.836  1.00  0.00     0.011 A 
ATOM     15  C   UNL A   1      27.810  29.658  22.575  1.00  0.00     0.001 A 
ATOM     16  C   UNL A   1      28.897  30.517  22.448  1.00  0.00     0.001 A 
BRANCH   7  17
ATOM     17  C   UNL A   1      31.144  24.805  24.602  1.00  0.00     0.197 C 
ATOM     18  C   UNL A   1      30.609  23.823  23.555  1.00  0.00     0.044 C 
BRANCH  17  19
ATOM     19  C   UNL A   1      30.858  24.288  26.034  1.00  0.00     0.249 C 
ATOM     20  O   UNL A   1      29.829  24.600  26.643  1.00  0.00    -0.272 OA
ATOM     21  N   UNL A   1      31.648  23.317  26.600  1.00  0.00    -0.324 N 
ATOM     22  H   UNL A   1      31.258  22.886  27.395  1.00  0.00     0.170 HD
BRANCH  21  23
ATOM     23  C   UNL A   1      32.911  22.836  26.242  1.00  0.00     0.041 A 
ATOM     24  C   UNL A   1      33.004  21.535  25.740  1.00  0.00     0.027 A 
ATOM     25  C   UNL A   1      34.077  23.567  26.447  1.00  0.00     0.027 A 
ATOM     26  C   UNL A   1      34.241  21.012  25.343  1.00  0.00     0.015 A 
ATOM     27  C   UNL A   1      35.319  23.028  26.096  1.00  0.00     0.015 A 
ATOM     28  C   UNL A   1      35.412  21.762  25.501  1.00  0.00     0.056 A 
BRANCH  28  29
ATOM     29  C   UNL A   1      36.757  21.233  25.061  1.00  0.00     0.416 C 
ATOM     30  F   UNL A   1      36.780  19.877  24.969  1.00  0.00    -0.166 F 
ATOM     31  F   UNL A   1      37.163  21.703  23.853  1.00  0.00    -0.166 F 
ATOM     32  F   UNL A   1      37.743  21.567  25.943  1.00  0.00    -0.166 F 
ENDBRANCH  28  29
ENDBRANCH  21  23
ENDBRANCH  17  19
ENDBRANCH   7  17
ENDBRANCH   3   6
ENDBRANCH   1   2
BRANCH   1  33
ATOM     33  C   UNL A   1      31.785  31.348  26.714  1.00  0.00     0.042 C 
BRANCH  33  34
ATOM     34  C   UNL A   1      32.955  32.162  27.233  1.00  0.00     0.118 C 
BRANCH  34  35
ATOM     35  N   UNL A   1      32.570  33.525  27.570  1.00  0.00    -0.352 N 
ATOM     36  C   UNL A   1      33.177  34.386  28.454  1.00  0.00     0.251 C 
ATOM     37  H   UNL A   1      31.775  33.875  27.105  1.00  0.00     0.163 HD
ATOM     38  O   UNL A   1      32.636  35.445  28.754  1.00  0.00    -0.269 OA
BRANCH  36  39
ATOM     39  C   UNL A   1      34.458  33.991  29.081  1.00  0.00     0.039 A 
ATOM     40  C   UNL A   1      34.437  33.185  30.223  1.00  0.00     0.014 A 
ATOM     41  C   UNL A   1      35.677  34.373  28.516  1.00  0.00     0.014 A 
ATOM     42  C   UNL A   1      35.636  32.698  30.747  1.00  0.00     0.010 A 
ATOM     43  C   UNL A   1      36.861  33.816  28.983  1.00  0.00     0.010 A 
ATOM     44  C   UNL A   1      36.854  32.975  30.104  1.00  0.00    -0.014 A 
BRANCH  44  45
ATOM     45  C   UNL A   1      38.138  32.408  30.586  1.00  0.00     0.031 A 
ATOM     46  C   UNL A   1      38.672  31.142  29.976  1.00  0.00     0.074 A 
ATOM     47  C   UNL A   1      38.772  32.977  31.631  1.00  0.00     0.049 A 
ATOM     48  N   UNL A   1      39.702  30.419  30.336  1.00  0.00    -0.248 NA
ATOM     49  C   UNL A   1      37.924  30.593  28.834  1.00  0.00     0.031 C 
ATOM     50  C   UNL A   1      38.320  34.169  32.353  1.00  0.00     0.029 A 
ATOM     51  N   UNL A   1      39.928  32.618  32.276  1.00  0.00    -0.354 N 
ATOM     52  C   UNL A   1      39.700  29.314  29.493  1.00  0.00     0.074 A 
ATOM     53  C   UNL A   1      38.542  29.438  28.635  1.00  0.00     0.031 C 
ATOM     54  C   UNL A   1      39.205  34.459  33.320  1.00  0.00     0.029 A 
ATOM     55  C   UNL A   1      40.266  33.457  33.309  1.00  0.00     0.049 A 
ATOM     56  H   UNL A   1      40.465  31.832  32.021  1.00  0.00     0.167 HD
ATOM     57  C   UNL A   1      40.593  28.301  29.424  1.00  0.00     0.037 A 
ATOM     58  C   UNL A   1      41.314  33.419  34.153  1.00  0.00     0.037 A 
ATOM     59  C   UNL A   1      41.777  28.213  30.237  1.00  0.00     0.049 A 
ATOM     60  C   UNL A   1      42.326  32.319  34.016  1.00  0.00     0.074 A 
ATOM     61  C   UNL A   1      42.787  27.268  30.193  1.00  0.00     0.029 A 
ATOM     62  N   UNL A   1      42.114  29.117  31.233  1.00  0.00    -0.354 N 
ATOM     63  N   UNL A   1      42.341  31.310  33.179  1.00  0.00    -0.248 NA
ATOM     64  C   UNL A   1      43.472  32.353  34.936  1.00  0.00     0.031 C 
ATOM     65  C   UNL A   1      43.728  27.591  31.177  1.00  0.00     0.029 A 
ATOM     66  C   UNL A   1      43.316  28.752  31.812  1.00  0.00     0.049 A 
ATOM     67  H   UNL A   1      41.578  29.902  31.489  1.00  0.00     0.167 HD
ATOM     68  C   UNL A   1      43.504  30.605  33.453  1.00  0.00     0.074 A 
ATOM     69  C   UNL A   1      44.176  31.307  34.527  1.00  0.00     0.031 C 
ATOM     70  C   UNL A   1      43.973  29.474  32.870  1.00  0.00     0.037 A 
BRANCH  57  71
ATOM     71  C   UNL A   1      40.329  27.219  28.420  1.00  0.00     0.057 A 
ATOM     72  C   UNL A   1      39.493  26.133  28.710  1.00  0.00     0.134 A 
ATOM     73  C   UNL A   1      40.909  27.267  27.146  1.00  0.00     0.134 A 
ATOM     74  F   UNL A   1      38.919  26.021  29.918  1.00  0.00    -0.206 F 
ATOM     75  C   UNL A   1      39.267  25.116  27.780  1.00  0.00     0.040 A 
ATOM     76  C   UNL A   1      40.671  26.269  26.199  1.00  0.00     0.040 A 
ATOM     77  F   UNL A   1      41.717  28.281  26.802  1.00  0.00    -0.206 F 
ATOM     78  C   UNL A   1      39.854  25.186  26.519  1.00  0.00     0.006 A 
ENDBRANCH  57  71
BRANCH  58  79
ATOM     79  C   UNL A   1      41.482  34.482  35.175  1.00  0.00     0.057 A 
ATOM     80  C   UNL A   1      40.985  34.310  36.473  1.00  0.00     0.134 A 
ATOM     81  C   UNL A   1      42.137  35.683  34.887  1.00  0.00     0.134 A 
ATOM     82  F   UNL A   1      40.334  33.184  36.802  1.00  0.00    -0.206 F 
ATOM     83  C   UNL A   1      41.120  35.302  37.445  1.00  0.00     0.040 A 
ATOM     84  C   UNL A   1      42.297  36.677  35.855  1.00  0.00     0.040 A 
ATOM     85  F   UNL A   1      42.643  35.903  33.665  1.00  0.00    -0.206 F 
ATOM     86  C   UNL A   1      41.782  36.489  37.137  1.00  0.00     0.006 A 
ENDBRANCH  58  79
BRANCH  70  87
ATOM     87  C   UNL A   1      45.288  28.951  33.361  1.00  0.00     0.057 A 
ATOM     88  C   UNL A   1      46.501  29.377  32.808  1.00  0.00     0.134 A 
ATOM     89  C   UNL A   1      45.339  28.045  34.427  1.00  0.00     0.134 A 
ATOM     90  F   UNL A   1      46.514  30.234  31.777  1.00  0.00    -0.206 F 
ATOM     91  C   UNL A   1      47.723  28.906  33.289  1.00  0.00     0.040 A 
ATOM     92  C   UNL A   1      46.555  27.582  34.929  1.00  0.00     0.040 A 
ATOM     93  F   UNL A   1      44.210  27.604  35.003  1.00  0.00    -0.206 F 
ATOM     94  C   UNL A   1      47.751  28.010  34.358  1.00  0.00     0.006 A 
ENDBRANCH  70  87
ENDBRANCH  44  45
ENDBRANCH  36  39
ENDBRANCH  34  35
ENDBRANCH  33  34
ENDBRANCH   1  33
TORSDOF 14
ENDMDL
MODEL 3
REMARK VINA RESULT:     -13.1      3.441      7.430
REMARK SMILES C[C@H](C(=O)Nc1ccc(C(F)(F)F)cc1)n1nc(C(=O)NCCCNC(=O)c2ccc(-c3c4nc(c(-c5c(F)cccc5F)c5ccc([nH]5)c(-c5c(F)cccc5F)c5nc(c(-c6c(F)cccc6F)c6ccc3[nH]6)C=C5)C=C4)cc2)c2ccccc2c1=O
REMARK SMILES IDX 22 1 21 2 19 3 20 4 18 6 16 7 17 8 88 9 87 10 89 11 82 12
REMARK SMILES IDX 86 13 83 14 85 15 84 16 2 17 1 18 3 19 4 20 5 21 6 23 7 24
REMARK SMILES IDX 15 25 8 26 14 27 9 28 10 29 11 30 12 31 13 32 23 33 24 34
REMARK SMILES IDX 25 35 26 36 27 38 28 39 29 40 81 41 30 42 80 43 31 44 32 45
REMARK SMILES IDX 33 46 74 47 34 48 79 49 73 50 75 51 35 52 78 53 72 54 71 55
REMARK SMILES IDX 36 57 62 58 45 59 61 60 46 61 49 62 60 63 76 64 47 65 48 66
REMARK SMILES IDX 59 68 77 69 50 70 37 71 38 72 43 73 39 74 40 75 42 76 44 77
REMARK SMILES IDX 41 78 63 79 64 80 69 81 65 82 66 83 68 84 70 85 67 86 51 87
REMARK SMILES IDX 52 88 57 89 53 90 54 91 56 92 58 93 55 94
REMARK H PARENT 21 5 5 22 25 37 75 56 49 67
REMARK Flexibility Score: inf
ROOT
ATOM      1  C   UNL A   1      32.639  29.672  26.171  1.00  0.00     0.118 C 
ENDROOT
BRANCH   1   2
ATOM      2  N   UNL A   1      33.307  29.801  24.888  1.00  0.00    -0.351 N 
ATOM      3  C   UNL A   1      33.073  29.063  23.746  1.00  0.00     0.272 C 
ATOM      4  O   UNL A   1      33.835  29.142  22.791  1.00  0.00    -0.267 OA
ATOM      5  H   UNL A   1      34.004  30.493  24.827  1.00  0.00     0.163 HD
BRANCH   3   6
ATOM      6  C   UNL A   1      31.829  28.161  23.685  1.00  0.00     0.156 A 
ATOM      7  N   UNL A   1      30.899  26.098  24.216  1.00  0.00    -0.216 N 
ATOM      8  N   UNL A   1      31.984  26.930  24.073  1.00  0.00    -0.163 NA
ATOM      9  C   UNL A   1      29.605  26.475  23.878  1.00  0.00     0.275 A 
ATOM     10  C   UNL A   1      29.425  27.861  23.397  1.00  0.00     0.051 A 
ATOM     11  O   UNL A   1      28.622  25.753  23.991  1.00  0.00    -0.267 OA
ATOM     12  C   UNL A   1      30.527  28.703  23.261  1.00  0.00     0.020 A 
ATOM     13  C   UNL A   1      28.142  28.321  23.068  1.00  0.00     0.014 A 
ATOM     14  C   UNL A   1      30.348  29.990  22.736  1.00  0.00     0.011 A 
ATOM     15  C   UNL A   1      27.966  29.608  22.563  1.00  0.00     0.001 A 
ATOM     16  C   UNL A   1      29.071  30.435  22.381  1.00  0.00     0.001 A 
BRANCH   7  17
ATOM     17  C   UNL A   1      31.238  24.713  24.589  1.00  0.00     0.197 C 
ATOM     18  C   UNL A   1      30.672  23.725  23.563  1.00  0.00     0.044 C 
BRANCH  17  19
ATOM     19  C   UNL A   1      30.955  24.225  26.032  1.00  0.00     0.249 C 
ATOM     20  O   UNL A   1      29.929  24.552  26.639  1.00  0.00    -0.272 OA
ATOM     21  N   UNL A   1      31.745  23.263  26.614  1.00  0.00    -0.324 N 
ATOM     22  H   UNL A   1      31.357  22.849  27.418  1.00  0.00     0.170 HD
BRANCH  21  23
ATOM     23  C   UNL A   1      33.005  22.772  26.261  1.00  0.00     0.041 A 
ATOM     24  C   UNL A   1      33.068  21.624  25.466  1.00  0.00     0.027 A 
ATOM     25  C   UNL A   1      34.187  23.327  26.740  1.00  0.00     0.027 A 
ATOM     26  C   UNL A   1      34.303  21.103  25.063  1.00  0.00     0.015 A 
ATOM     27  C   UNL A   1      35.423  22.780  26.378  1.00  0.00     0.015 A 
ATOM     28  C   UNL A   1      35.497  21.689  25.502  1.00  0.00     0.056 A 
BRANCH  28  29
ATOM     29  C   UNL A   1      36.844  21.163  25.065  1.00  0.00     0.416 C 
ATOM     30  F   UNL A   1      37.170  21.547  23.802  1.00  0.00    -0.166 F 
ATOM     31  F   UNL A   1      37.872  21.557  25.861  1.00  0.00    -0.166 F 
ATOM     32  F   UNL A   1      36.875  19.798  25.063  1.00  0.00    -0.166 F 
ENDBRANCH  28  29
ENDBRANCH  21  23
ENDBRANCH  17  19
ENDBRANCH   7  17
ENDBRANCH   3   6
ENDBRANCH   1   2
BRANCH   1  33
ATOM     33  C   UNL A   1      33.387  28.708  27.093  1.00  0.00     0.042 C 
BRANCH  33  34
ATOM     34  C   UNL A   1      34.801  29.176  27.375  1.00  0.00     0.118 C 
BRANCH  34  35
ATOM     35  N   UNL A   1      34.857  30.118  28.485  1.00  0.00    -0.352 N 
ATOM     36  C   UNL A   1      35.923  30.401  29.307  1.00  0.00     0.251 C 
ATOM     37  H   UNL A   1      34.027  30.616  28.668  1.00  0.00     0.163 HD
ATOM     38  O   UNL A   1      35.766  31.099  30.303  1.00  0.00    -0.269 OA
BRANCH  36  39
ATOM     39  C   UNL A   1      37.244  29.806  29.006  1.00  0.00     0.039 A 
ATOM     40  C   UNL A   1      37.750  29.895  27.706  1.00  0.00     0.014 A 
ATOM     41  C   UNL A   1      38.005  29.209  30.014  1.00  0.00     0.014 A 
ATOM     42  C   UNL A   1      39.048  29.456  27.438  1.00  0.00     0.010 A 
ATOM     43  C   UNL A   1      39.326  28.857  29.767  1.00  0.00     0.010 A 
ATOM     44  C   UNL A   1      39.861  28.974  28.477  1.00  0.00    -0.014 A 
BRANCH  44  45
ATOM     45  C   UNL A   1      41.272  28.575  28.245  1.00  0.00     0.031 A 
ATOM     46  C   UNL A   1      41.596  27.150  27.888  1.00  0.00     0.074 A 
ATOM     47  C   UNL A   1      42.262  29.466  28.445  1.00  0.00     0.049 A 
ATOM     48  N   UNL A   1      42.764  26.572  27.769  1.00  0.00    -0.248 NA
ATOM     49  C   UNL A   1      40.455  26.246  27.678  1.00  0.00     0.031 C 
ATOM     50  C   UNL A   1      42.082  30.860  28.858  1.00  0.00     0.029 A 
ATOM     51  N   UNL A   1      43.623  29.326  28.342  1.00  0.00    -0.354 N 
ATOM     52  C   UNL A   1      42.496  25.233  27.512  1.00  0.00     0.074 A 
ATOM     53  C   UNL A   1      41.059  25.076  27.537  1.00  0.00     0.031 C 
ATOM     54  C   UNL A   1      43.283  31.453  28.942  1.00  0.00     0.029 A 
ATOM     55  C   UNL A   1      44.319  30.476  28.624  1.00  0.00     0.049 A 
ATOM     56  H   UNL A   1      44.059  28.480  28.088  1.00  0.00     0.167 HD
ATOM     57  C   UNL A   1      43.367  24.231  27.254  1.00  0.00     0.037 A 
ATOM     58  C   UNL A   1      45.644  30.713  28.626  1.00  0.00     0.037 A 
ATOM     59  C   UNL A   1      44.793  24.403  27.169  1.00  0.00     0.049 A 
ATOM     60  C   UNL A   1      46.588  29.599  28.276  1.00  0.00     0.074 A 
ATOM     61  C   UNL A   1      45.758  23.468  26.838  1.00  0.00     0.029 A 
ATOM     62  N   UNL A   1      45.455  25.599  27.403  1.00  0.00    -0.354 N 
ATOM     63  N   UNL A   1      46.318  28.350  27.981  1.00  0.00    -0.248 NA
ATOM     64  C   UNL A   1      48.020  29.926  28.252  1.00  0.00     0.031 C 
ATOM     65  C   UNL A   1      47.007  24.096  26.890  1.00  0.00     0.029 A 
ATOM     66  C   UNL A   1      46.816  25.426  27.226  1.00  0.00     0.049 A 
ATOM     67  H   UNL A   1      45.019  26.445  27.658  1.00  0.00     0.167 HD
ATOM     68  C   UNL A   1      47.540  27.750  27.714  1.00  0.00     0.074 A 
ATOM     69  C   UNL A   1      48.553  28.774  27.871  1.00  0.00     0.031 C 
ATOM     70  C   UNL A   1      47.803  26.464  27.373  1.00  0.00     0.037 A 
BRANCH  57  71
ATOM     71  C   UNL A   1      42.794  22.863  27.028  1.00  0.00     0.057 A 
ATOM     72  C   UNL A   1      42.670  22.318  25.744  1.00  0.00     0.134 A 
ATOM     73  C   UNL A   1      42.370  22.078  28.107  1.00  0.00     0.134 A 
ATOM     74  F   UNL A   1      43.044  23.026  24.667  1.00  0.00    -0.206 F 
ATOM     75  C   UNL A   1      42.116  21.054  25.537  1.00  0.00     0.040 A 
ATOM     76  C   UNL A   1      41.837  20.802  27.915  1.00  0.00     0.040 A 
ATOM     77  F   UNL A   1      42.464  22.538  29.364  1.00  0.00    -0.206 F 
ATOM     78  C   UNL A   1      41.702  20.290  26.625  1.00  0.00     0.006 A 
ENDBRANCH  57  71
BRANCH  58  79
ATOM     79  C   UNL A   1      46.154  32.072  28.930  1.00  0.00     0.057 A 
ATOM     80  C   UNL A   1      46.332  33.014  27.909  1.00  0.00     0.134 A 
ATOM     81  C   UNL A   1      46.474  32.464  30.234  1.00  0.00     0.134 A 
ATOM     82  F   UNL A   1      46.057  32.689  26.637  1.00  0.00    -0.206 F 
ATOM     83  C   UNL A   1      46.824  34.292  28.171  1.00  0.00     0.040 A 
ATOM     84  C   UNL A   1      46.950  33.747  30.514  1.00  0.00     0.040 A 
ATOM     85  F   UNL A   1      46.317  31.610  31.256  1.00  0.00    -0.206 F 
ATOM     86  C   UNL A   1      47.131  34.663  29.479  1.00  0.00     0.006 A 
ENDBRANCH  58  79
BRANCH  70  87
ATOM     87  C   UNL A   1      49.234  26.107  27.114  1.00  0.00     0.057 A 
ATOM     88  C   UNL A   1      49.790  26.182  25.832  1.00  0.00     0.134 A 
ATOM     89  C   UNL A   1      50.073  25.727  28.168  1.00  0.00     0.134 A 
ATOM     90  F   UNL A   1      49.032  26.529  24.781  1.00  0.00    -0.206 F 
ATOM     91  C   UNL A   1      51.132  25.875  25.604  1.00  0.00     0.040 A 
ATOM     92  C   UNL A   1      51.421  25.436  27.955  1.00  0.00     0.040 A 
ATOM     93  F   UNL A   1      49.600  25.642  29.421  1.00  0.00    -0.206 F 
ATOM     94  C   UNL A   1      51.952  25.506  26.670  1.00  0.00     0.006 A 
ENDBRANCH  70  87
ENDBRANCH  44  45
ENDBRANCH  36  39
ENDBRANCH  34  35
ENDBRANCH  33  34
ENDBRANCH   1  33
TORSDOF 14
ENDMDL
