MODEL 1
REMARK VINA RESULT:     -11.2      0.000      0.000
REMARK SMILES O=C(C[C@@H]1CSCC[NH2+]1)NC[C@H]1CC[C@@H](C(=O)NCCCNC(=O)c2ccc(-c3c4nc(c(-c5c(F)cccc5F)c5ccc([nH]5)c(-c5c(F)cccc5F)c5nc(c(-c6c(F)cccc6F)c6ccc3[nH]6)C=C5)C=C4)cc2)O1
REMARK SMILES IDX 19 1 18 2 16 3 17 4 15 6 12 7 13 8 79 9 14 10 11 11 10 12
REMARK SMILES IDX 1 13 2 14 3 16 4 17 5 18 9 19 6 20 8 21 7 24 20 25 21 26
REMARK SMILES IDX 22 27 23 28 24 30 25 31 26 32 78 33 27 34 77 35 28 36 29 37
REMARK SMILES IDX 30 38 71 39 31 40 76 41 70 42 72 43 32 44 75 45 69 46 68 47
REMARK SMILES IDX 33 49 59 50 42 51 58 52 43 53 46 54 57 55 73 56 44 57 45 58
REMARK SMILES IDX 56 60 74 61 47 62 34 63 35 64 40 65 36 66 37 67 39 68 41 69
REMARK SMILES IDX 38 70 60 71 61 72 66 73 62 74 63 75 65 76 67 77 64 78 48 79
REMARK SMILES IDX 49 80 54 81 50 82 51 83 53 84 55 85 52 86
REMARK H PARENT 18 5 10 15 9 22 9 23 22 29 72 48 46 59
REMARK Flexibility Score: inf
ROOT
ATOM      1  C   UNL A   1      38.018  21.800  25.367  1.00  0.00     0.117 C 
ENDROOT
BRANCH   1   2
ATOM      2  N   UNL A   1      37.327  22.448  24.268  1.00  0.00    -0.354 N 
ATOM      3  C   UNL A   1      36.081  23.008  24.264  1.00  0.00     0.249 C 
ATOM      4  O   UNL A   1      35.565  23.265  23.177  1.00  0.00    -0.272 OA
ATOM      5  H   UNL A   1      37.820  22.490  23.416  1.00  0.00     0.163 HD
BRANCH   3   6
ATOM      6  C   UNL A   1      35.378  23.261  25.602  1.00  0.00     0.207 C 
ATOM      7  C   UNL A   1      33.209  23.348  26.477  1.00  0.00     0.138 C 
ATOM      8  C   UNL A   1      34.026  22.378  27.323  1.00  0.00     0.037 C 
ATOM      9  O   UNL A   1      34.054  23.778  25.391  1.00  0.00    -0.363 OA
ATOM     10  C   UNL A   1      35.181  22.001  26.424  1.00  0.00     0.045 C 
BRANCH   7  11
ATOM     11  C   UNL A   1      31.895  22.781  25.922  1.00  0.00     0.147 C 
BRANCH  11  12
ATOM     12  N   UNL A   1      31.971  21.384  25.543  1.00  0.00    -0.353 N 
ATOM     13  O   UNL A   1      32.488  21.791  23.345  1.00  0.00    -0.275 OA
ATOM     14  C   UNL A   1      32.301  21.002  24.264  1.00  0.00     0.226 C 
ATOM     15  H   UNL A   1      31.784  20.692  26.218  1.00  0.00     0.163 HD
BRANCH  14  16
ATOM     16  C   UNL A   1      32.442  19.509  24.096  1.00  0.00     0.165 C 
BRANCH  16  17
ATOM     17  C   UNL A   1      33.371  18.802  25.115  1.00  0.00     0.201 C 
ATOM     18  C   UNL A   1      34.533  18.087  24.395  1.00  0.00     0.135 C 
ATOM     19  N   UNL A   1      32.772  17.976  26.182  1.00  0.00    -0.342 N 
ATOM     20  S   UNL A   1      33.974  16.580  23.552  1.00  0.00    -0.150 SA
ATOM     21  C   UNL A   1      32.316  16.636  25.798  1.00  0.00     0.271 C 
ATOM     22  H   UNL A   1      31.967  18.483  26.550  1.00  0.00     0.346 HD
ATOM     23  H   UNL A   1      33.522  17.822  26.855  1.00  0.00     0.346 HD
ATOM     24  C   UNL A   1      33.304  15.757  25.024  1.00  0.00     0.131 C 
ENDBRANCH  16  17
ENDBRANCH  14  16
ENDBRANCH  11  12
ENDBRANCH   7  11
ENDBRANCH   3   6
ENDBRANCH   1   2
BRANCH   1  25
ATOM     25  C   UNL A   1      38.532  20.427  24.943  1.00  0.00     0.042 C 
BRANCH  25  26
ATOM     26  C   UNL A   1      39.056  19.580  26.101  1.00  0.00     0.118 C 
BRANCH  26  27
ATOM     27  N   UNL A   1      40.360  18.995  25.822  1.00  0.00    -0.352 N 
ATOM     28  C   UNL A   1      41.609  19.559  25.893  1.00  0.00     0.251 C 
ATOM     29  H   UNL A   1      40.343  18.051  25.542  1.00  0.00     0.163 HD
ATOM     30  O   UNL A   1      42.579  18.949  25.451  1.00  0.00    -0.269 OA
BRANCH  28  31
ATOM     31  C   UNL A   1      41.791  20.908  26.470  1.00  0.00     0.039 A 
ATOM     32  C   UNL A   1      41.761  21.056  27.859  1.00  0.00     0.014 A 
ATOM     33  C   UNL A   1      41.982  22.026  25.651  1.00  0.00     0.014 A 
ATOM     34  C   UNL A   1      41.996  22.308  28.430  1.00  0.00     0.010 A 
ATOM     35  C   UNL A   1      42.293  23.258  26.223  1.00  0.00     0.010 A 
ATOM     36  C   UNL A   1      42.306  23.411  27.618  1.00  0.00    -0.014 A 
BRANCH  36  37
ATOM     37  C   UNL A   1      42.677  24.723  28.213  1.00  0.00     0.031 A 
ATOM     38  C   UNL A   1      41.636  25.786  28.427  1.00  0.00     0.074 A 
ATOM     39  C   UNL A   1      43.969  24.982  28.490  1.00  0.00     0.049 A 
ATOM     40  N   UNL A   1      41.784  27.010  28.869  1.00  0.00    -0.248 NA
ATOM     41  C   UNL A   1      40.252  25.439  28.074  1.00  0.00     0.031 C 
ATOM     42  C   UNL A   1      45.083  24.056  28.277  1.00  0.00     0.029 A 
ATOM     43  N   UNL A   1      44.568  26.110  28.995  1.00  0.00    -0.354 N 
ATOM     44  C   UNL A   1      40.519  27.582  28.829  1.00  0.00     0.074 A 
ATOM     45  C   UNL A   1      39.625  26.588  28.275  1.00  0.00     0.031 C 
ATOM     46  C   UNL A   1      46.225  24.645  28.661  1.00  0.00     0.029 A 
ATOM     47  C   UNL A   1      45.934  26.004  29.106  1.00  0.00     0.049 A 
ATOM     48  H   UNL A   1      44.068  26.917  29.253  1.00  0.00     0.167 HD
ATOM     49  C   UNL A   1      40.136  28.817  29.233  1.00  0.00     0.037 A 
ATOM     50  C   UNL A   1      46.853  26.904  29.504  1.00  0.00     0.037 A 
ATOM     51  C   UNL A   1      41.027  29.797  29.799  1.00  0.00     0.049 A 
ATOM     52  C   UNL A   1      46.405  28.270  29.943  1.00  0.00     0.074 A 
ATOM     53  C   UNL A   1      40.719  31.046  30.313  1.00  0.00     0.029 A 
ATOM     54  N   UNL A   1      42.400  29.647  29.913  1.00  0.00    -0.354 N 
ATOM     55  N   UNL A   1      45.192  28.767  29.984  1.00  0.00    -0.248 NA
ATOM     56  C   UNL A   1      47.450  29.198  30.396  1.00  0.00     0.031 C 
ATOM     57  C   UNL A   1      41.914  31.674  30.679  1.00  0.00     0.029 A 
ATOM     58  C   UNL A   1      42.960  30.794  30.452  1.00  0.00     0.049 A 
ATOM     59  H   UNL A   1      42.905  28.843  29.649  1.00  0.00     0.167 HD
ATOM     60  C   UNL A   1      45.326  30.056  30.486  1.00  0.00     0.074 A 
ATOM     61  C   UNL A   1      46.736  30.256  30.752  1.00  0.00     0.031 C 
ATOM     62  C   UNL A   1      44.366  30.987  30.708  1.00  0.00     0.037 A 
BRANCH  49  63
ATOM     63  C   UNL A   1      38.688  29.184  29.063  1.00  0.00     0.057 A 
ATOM     64  C   UNL A   1      38.164  29.600  27.832  1.00  0.00     0.134 A 
ATOM     65  C   UNL A   1      37.799  29.093  30.143  1.00  0.00     0.134 A 
ATOM     66  F   UNL A   1      38.961  29.717  26.758  1.00  0.00    -0.206 F 
ATOM     67  C   UNL A   1      36.818  29.944  27.688  1.00  0.00     0.040 A 
ATOM     68  C   UNL A   1      36.446  29.404  30.003  1.00  0.00     0.040 A 
ATOM     69  F   UNL A   1      38.230  28.694  31.348  1.00  0.00    -0.206 F 
ATOM     70  C   UNL A   1      35.954  29.839  28.775  1.00  0.00     0.006 A 
ENDBRANCH  49  63
BRANCH  50  71
ATOM     71  C   UNL A   1      48.292  26.534  29.511  1.00  0.00     0.057 A 
ATOM     72  C   UNL A   1      49.125  26.835  28.428  1.00  0.00     0.134 A 
ATOM     73  C   UNL A   1      48.870  25.881  30.607  1.00  0.00     0.134 A 
ATOM     74  F   UNL A   1      48.625  27.443  27.342  1.00  0.00    -0.206 F 
ATOM     75  C   UNL A   1      50.476  26.489  28.426  1.00  0.00     0.040 A 
ATOM     76  C   UNL A   1      50.226  25.553  30.631  1.00  0.00     0.040 A 
ATOM     77  F   UNL A   1      48.129  25.573  31.681  1.00  0.00    -0.206 F 
ATOM     78  C   UNL A   1      51.032  25.852  29.534  1.00  0.00     0.006 A 
ENDBRANCH  50  71
BRANCH  62  79
ATOM     79  C   UNL A   1      44.801  32.302  31.287  1.00  0.00     0.057 A 
ATOM     80  C   UNL A   1      45.138  33.394  30.478  1.00  0.00     0.134 A 
ATOM     81  C   UNL A   1      44.843  32.491  32.675  1.00  0.00     0.134 A 
ATOM     82  F   UNL A   1      45.131  33.278  29.141  1.00  0.00    -0.206 F 
ATOM     83  C   UNL A   1      45.520  34.620  31.027  1.00  0.00     0.040 A 
ATOM     84  C   UNL A   1      45.195  33.720  33.235  1.00  0.00     0.040 A 
ATOM     85  F   UNL A   1      44.525  31.489  33.509  1.00  0.00    -0.206 F 
ATOM     86  C   UNL A   1      45.541  34.786  32.410  1.00  0.00     0.006 A 
ENDBRANCH  62  79
ENDBRANCH  36  37
ENDBRANCH  28  31
ENDBRANCH  26  27
ENDBRANCH  25  26
ENDBRANCH   1  25
TORSDOF 14
ENDMDL
MODEL 2
REMARK VINA RESULT:     -11.1      2.059      7.079
REMARK SMILES O=C(C[C@@H]1CSCC[NH2+]1)NC[C@H]1CC[C@@H](C(=O)NCCCNC(=O)c2ccc(-c3c4nc(c(-c5c(F)cccc5F)c5ccc([nH]5)c(-c5c(F)cccc5F)c5nc(c(-c6c(F)cccc6F)c6ccc3[nH]6)C=C5)C=C4)cc2)O1
REMARK SMILES IDX 19 1 18 2 16 3 17 4 15 6 12 7 13 8 79 9 14 10 11 11 10 12
REMARK SMILES IDX 1 13 2 14 3 16 4 17 5 18 9 19 6 20 8 21 7 24 20 25 21 26
REMARK SMILES IDX 22 27 23 28 24 30 25 31 26 32 78 33 27 34 77 35 28 36 29 37
REMARK SMILES IDX 30 38 71 39 31 40 76 41 70 42 72 43 32 44 75 45 69 46 68 47
REMARK SMILES IDX 33 49 59 50 42 51 58 52 43 53 46 54 57 55 73 56 44 57 45 58
REMARK SMILES IDX 56 60 74 61 47 62 34 63 35 64 40 65 36 66 37 67 39 68 41 69
REMARK SMILES IDX 38 70 60 71 61 72 66 73 62 74 63 75 65 76 67 77 64 78 48 79
REMARK SMILES IDX 49 80 54 81 50 82 51 83 53 84 55 85 52 86
REMARK H PARENT 18 5 10 15 9 22 9 23 22 29 72 48 46 59
REMARK Flexibility Score: inf
ROOT
ATOM      1  C   UNL A   1      36.371  20.239  25.022  1.00  0.00     0.117 C 
ENDROOT
BRANCH   1   2
ATOM      2  N   UNL A   1      36.196  21.399  25.876  1.00  0.00    -0.354 N 
ATOM      3  C   UNL A   1      35.110  22.222  25.976  1.00  0.00     0.249 C 
ATOM      4  O   UNL A   1      35.251  23.300  26.551  1.00  0.00    -0.272 OA
ATOM      5  H   UNL A   1      36.959  21.622  26.459  1.00  0.00     0.163 HD
BRANCH   3   6
ATOM      6  C   UNL A   1      33.785  21.779  25.346  1.00  0.00     0.207 C 
ATOM      7  C   UNL A   1      31.493  22.205  25.552  1.00  0.00     0.138 C 
ATOM      8  C   UNL A   1      31.886  22.402  24.093  1.00  0.00     0.037 C 
ATOM      9  O   UNL A   1      32.704  21.922  26.281  1.00  0.00    -0.363 OA
ATOM     10  C   UNL A   1      33.381  22.616  24.147  1.00  0.00     0.045 C 
BRANCH   7  11
ATOM     11  C   UNL A   1      30.761  23.391  26.196  1.00  0.00     0.147 C 
BRANCH  11  12
ATOM     12  N   UNL A   1      30.305  24.386  25.246  1.00  0.00    -0.353 N 
ATOM     13  O   UNL A   1      30.536  26.164  26.678  1.00  0.00    -0.275 OA
ATOM     14  C   UNL A   1      30.262  25.722  25.568  1.00  0.00     0.226 C 
ATOM     15  H   UNL A   1      30.020  24.098  24.348  1.00  0.00     0.163 HD
BRANCH  14  16
ATOM     16  C   UNL A   1      29.871  26.610  24.413  1.00  0.00     0.165 C 
BRANCH  16  17
ATOM     17  C   UNL A   1      30.981  27.548  23.879  1.00  0.00     0.201 C 
ATOM     18  C   UNL A   1      31.079  27.466  22.341  1.00  0.00     0.135 C 
ATOM     19  N   UNL A   1      32.306  27.540  24.531  1.00  0.00    -0.342 N 
ATOM     20  S   UNL A   1      31.849  25.914  21.800  1.00  0.00    -0.150 SA
ATOM     21  C   UNL A   1      33.200  26.428  24.189  1.00  0.00     0.271 C 
ATOM     22  H   UNL A   1      32.154  27.515  25.540  1.00  0.00     0.346 HD
ATOM     23  H   UNL A   1      32.777  28.378  24.192  1.00  0.00     0.346 HD
ATOM     24  C   UNL A   1      33.410  26.133  22.701  1.00  0.00     0.131 C 
ENDBRANCH  16  17
ENDBRANCH  14  16
ENDBRANCH  11  12
ENDBRANCH   7  11
ENDBRANCH   3   6
ENDBRANCH   1   2
BRANCH   1  25
ATOM     25  C   UNL A   1      37.833  20.087  24.616  1.00  0.00     0.042 C 
BRANCH  25  26
ATOM     26  C   UNL A   1      38.820  20.357  25.750  1.00  0.00     0.118 C 
BRANCH  26  27
ATOM     27  N   UNL A   1      39.912  19.395  25.784  1.00  0.00    -0.352 N 
ATOM     28  C   UNL A   1      41.238  19.583  26.085  1.00  0.00     0.251 C 
ATOM     29  H   UNL A   1      39.662  18.469  25.559  1.00  0.00     0.163 HD
ATOM     30  O   UNL A   1      42.042  18.674  25.890  1.00  0.00    -0.269 OA
BRANCH  28  31
ATOM     31  C   UNL A   1      41.711  20.881  26.611  1.00  0.00     0.039 A 
ATOM     32  C   UNL A   1      42.228  21.822  25.716  1.00  0.00     0.014 A 
ATOM     33  C   UNL A   1      41.656  21.172  27.978  1.00  0.00     0.014 A 
ATOM     34  C   UNL A   1      42.619  23.079  26.180  1.00  0.00     0.010 A 
ATOM     35  C   UNL A   1      41.974  22.453  28.426  1.00  0.00     0.010 A 
ATOM     36  C   UNL A   1      42.455  23.420  27.532  1.00  0.00    -0.014 A 
BRANCH  36  37
ATOM     37  C   UNL A   1      42.754  24.793  28.020  1.00  0.00     0.031 A 
ATOM     38  C   UNL A   1      44.148  25.170  28.434  1.00  0.00     0.074 A 
ATOM     39  C   UNL A   1      41.749  25.679  28.161  1.00  0.00     0.049 A 
ATOM     40  N   UNL A   1      44.583  26.294  28.946  1.00  0.00    -0.248 NA
ATOM     41  C   UNL A   1      45.187  24.141  28.278  1.00  0.00     0.031 C 
ATOM     42  C   UNL A   1      40.342  25.419  27.847  1.00  0.00     0.029 A 
ATOM     43  N   UNL A   1      41.752  26.971  28.623  1.00  0.00    -0.354 N 
ATOM     44  C   UNL A   1      45.937  26.101  29.190  1.00  0.00     0.074 A 
ATOM     45  C   UNL A   1      46.242  24.737  28.814  1.00  0.00     0.031 C 
ATOM     46  C   UNL A   1      39.622  26.520  28.110  1.00  0.00     0.029 A 
ATOM     47  C   UNL A   1      40.505  27.548  28.652  1.00  0.00     0.049 A 
ATOM     48  H   UNL A   1      42.569  27.441  28.906  1.00  0.00     0.167 HD
ATOM     49  C   UNL A   1      46.845  26.986  29.667  1.00  0.00     0.037 A 
ATOM     50  C   UNL A   1      40.110  28.761  29.082  1.00  0.00     0.037 A 
ATOM     51  C   UNL A   1      46.540  28.347  30.023  1.00  0.00     0.049 A 
ATOM     52  C   UNL A   1      41.136  29.724  29.612  1.00  0.00     0.074 A 
ATOM     53  C   UNL A   1      47.408  29.344  30.438  1.00  0.00     0.029 A 
ATOM     54  N   UNL A   1      45.269  28.901  30.021  1.00  0.00    -0.354 N 
ATOM     55  N   UNL A   1      42.429  29.558  29.753  1.00  0.00    -0.248 NA
ATOM     56  C   UNL A   1      40.650  31.044  30.038  1.00  0.00     0.031 C 
ATOM     57  C   UNL A   1      46.653  30.480  30.748  1.00  0.00     0.029 A 
ATOM     58  C   UNL A   1      45.323  30.213  30.466  1.00  0.00     0.049 A 
ATOM     59  H   UNL A   1      44.449  28.431  29.746  1.00  0.00     0.167 HD
ATOM     60  C   UNL A   1      42.913  30.758  30.262  1.00  0.00     0.074 A 
ATOM     61  C   UNL A   1      41.777  31.647  30.388  1.00  0.00     0.031 C 
ATOM     62  C   UNL A   1      44.185  31.089  30.593  1.00  0.00     0.037 A 
BRANCH  49  63
ATOM     63  C   UNL A   1      48.257  26.502  29.844  1.00  0.00     0.057 A 
ATOM     64  C   UNL A   1      49.244  26.709  28.871  1.00  0.00     0.134 A 
ATOM     65  C   UNL A   1      48.642  25.844  31.020  1.00  0.00     0.134 A 
ATOM     66  F   UNL A   1      48.943  27.325  27.717  1.00  0.00    -0.206 F 
ATOM     67  C   UNL A   1      50.552  26.250  29.045  1.00  0.00     0.040 A 
ATOM     68  C   UNL A   1      49.953  25.409  31.219  1.00  0.00     0.040 A 
ATOM     69  F   UNL A   1      47.752  25.620  31.998  1.00  0.00    -0.206 F 
ATOM     70  C   UNL A   1      50.910  25.604  30.225  1.00  0.00     0.006 A 
ENDBRANCH  49  63
BRANCH  50  71
ATOM     71  C   UNL A   1      38.674  29.133  29.021  1.00  0.00     0.057 A 
ATOM     72  C   UNL A   1      37.848  29.030  30.145  1.00  0.00     0.134 A 
ATOM     73  C   UNL A   1      38.096  29.614  27.839  1.00  0.00     0.134 A 
ATOM     74  F   UNL A   1      38.339  28.560  31.301  1.00  0.00    -0.206 F 
ATOM     75  C   UNL A   1      36.497  29.375  30.095  1.00  0.00     0.040 A 
ATOM     76  C   UNL A   1      36.753  29.989  27.781  1.00  0.00     0.040 A 
ATOM     77  F   UNL A   1      38.835  29.746  26.727  1.00  0.00    -0.206 F 
ATOM     78  C   UNL A   1      35.948  29.864  28.911  1.00  0.00     0.006 A 
ENDBRANCH  50  71
BRANCH  62  79
ATOM     79  C   UNL A   1      44.424  32.481  31.104  1.00  0.00     0.057 A 
ATOM     80  C   UNL A   1      44.334  32.798  32.465  1.00  0.00     0.134 A 
ATOM     81  C   UNL A   1      44.791  33.509  30.225  1.00  0.00     0.134 A 
ATOM     82  F   UNL A   1      43.974  31.863  33.358  1.00  0.00    -0.206 F 
ATOM     83  C   UNL A   1      44.579  34.091  32.932  1.00  0.00     0.040 A 
ATOM     84  C   UNL A   1      45.068  34.799  30.684  1.00  0.00     0.040 A 
ATOM     85  F   UNL A   1      44.904  33.273  28.910  1.00  0.00    -0.206 F 
ATOM     86  C   UNL A   1      44.956  35.093  32.040  1.00  0.00     0.006 A 
ENDBRANCH  62  79
ENDBRANCH  36  37
ENDBRANCH  28  31
ENDBRANCH  26  27
ENDBRANCH  25  26
ENDBRANCH   1  25
TORSDOF 14
ENDMDL
MODEL 3
REMARK VINA RESULT:     -11.1      2.550      3.972
REMARK SMILES O=C(C[C@@H]1CSCC[NH2+]1)NC[C@H]1CC[C@@H](C(=O)NCCCNC(=O)c2ccc(-c3c4nc(c(-c5c(F)cccc5F)c5ccc([nH]5)c(-c5c(F)cccc5F)c5nc(c(-c6c(F)cccc6F)c6ccc3[nH]6)C=C5)C=C4)cc2)O1
REMARK SMILES IDX 19 1 18 2 16 3 17 4 15 6 12 7 13 8 79 9 14 10 11 11 10 12
REMARK SMILES IDX 1 13 2 14 3 16 4 17 5 18 9 19 6 20 8 21 7 24 20 25 21 26
REMARK SMILES IDX 22 27 23 28 24 30 25 31 26 32 78 33 27 34 77 35 28 36 29 37
REMARK SMILES IDX 30 38 71 39 31 40 76 41 70 42 72 43 32 44 75 45 69 46 68 47
REMARK SMILES IDX 33 49 59 50 42 51 58 52 43 53 46 54 57 55 73 56 44 57 45 58
REMARK SMILES IDX 56 60 74 61 47 62 34 63 35 64 40 65 36 66 37 67 39 68 41 69
REMARK SMILES IDX 38 70 60 71 61 72 66 73 62 74 63 75 65 76 67 77 64 78 48 79
REMARK SMILES IDX 49 80 54 81 50 82 51 83 53 84 55 85 52 86
REMARK H PARENT 18 5 10 15 9 22 9 23 22 29 72 48 46 59
REMARK Flexibility Score: inf
ROOT
ATOM      1  C   UNL A   1      37.382  21.235  24.513  1.00  0.00     0.117 C 
ENDROOT
BRANCH   1   2
ATOM      2  N   UNL A   1      36.808  21.959  25.631  1.00  0.00    -0.354 N 
ATOM      3  C   UNL A   1      35.511  22.350  25.811  1.00  0.00     0.249 C 
ATOM      4  O   UNL A   1      35.273  23.181  26.686  1.00  0.00    -0.272 OA
ATOM      5  H   UNL A   1      37.433  22.199  26.354  1.00  0.00     0.163 HD
BRANCH   3   6
ATOM      6  C   UNL A   1      34.427  21.760  24.902  1.00  0.00     0.207 C 
ATOM      7  C   UNL A   1      32.113  21.404  24.901  1.00  0.00     0.138 C 
ATOM      8  C   UNL A   1      32.481  22.160  23.630  1.00  0.00     0.037 C 
ATOM      9  O   UNL A   1      33.320  21.275  25.679  1.00  0.00    -0.363 OA
ATOM     10  C   UNL A   1      33.823  22.776  23.952  1.00  0.00     0.045 C 
BRANCH   7  11
ATOM     11  C   UNL A   1      31.013  22.054  25.751  1.00  0.00     0.147 C 
BRANCH  11  12
ATOM     12  N   UNL A   1      30.658  23.395  25.329  1.00  0.00    -0.353 N 
ATOM     13  O   UNL A   1      31.380  24.418  27.252  1.00  0.00    -0.275 OA
ATOM     14  C   UNL A   1      30.909  24.489  26.122  1.00  0.00     0.226 C 
ATOM     15  H   UNL A   1      30.229  23.524  24.452  1.00  0.00     0.163 HD
BRANCH  14  16
ATOM     16  C   UNL A   1      30.575  25.804  25.461  1.00  0.00     0.165 C 
BRANCH  16  17
ATOM     17  C   UNL A   1      31.533  26.979  25.780  1.00  0.00     0.201 C 
ATOM     18  C   UNL A   1      31.277  28.169  24.831  1.00  0.00     0.135 C 
ATOM     19  N   UNL A   1      32.971  26.705  25.968  1.00  0.00    -0.342 N 
ATOM     20  S   UNL A   1      31.907  27.842  23.161  1.00  0.00    -0.150 SA
ATOM     21  C   UNL A   1      33.766  26.499  24.753  1.00  0.00     0.271 C 
ATOM     22  H   UNL A   1      33.053  25.862  26.537  1.00  0.00     0.346 HD
ATOM     23  H   UNL A   1      33.351  27.547  26.398  1.00  0.00     0.346 HD
ATOM     24  C   UNL A   1      33.632  27.548  23.644  1.00  0.00     0.131 C 
ENDBRANCH  16  17
ENDBRANCH  14  16
ENDBRANCH  11  12
ENDBRANCH   7  11
ENDBRANCH   3   6
ENDBRANCH   1   2
BRANCH   1  25
ATOM     25  C   UNL A   1      38.051  19.950  24.993  1.00  0.00     0.042 C 
BRANCH  25  26
ATOM     26  C   UNL A   1      39.175  20.180  26.001  1.00  0.00     0.118 C 
BRANCH  26  27
ATOM     27  N   UNL A   1      40.187  19.134  25.960  1.00  0.00    -0.352 N 
ATOM     28  C   UNL A   1      41.553  19.231  26.056  1.00  0.00     0.251 C 
ATOM     29  H   UNL A   1      39.839  18.220  25.847  1.00  0.00     0.163 HD
ATOM     30  O   UNL A   1      42.251  18.246  25.826  1.00  0.00    -0.269 OA
BRANCH  28  31
ATOM     31  C   UNL A   1      42.191  20.517  26.405  1.00  0.00     0.039 A 
ATOM     32  C   UNL A   1      42.716  21.308  25.380  1.00  0.00     0.014 A 
ATOM     33  C   UNL A   1      42.283  20.944  27.734  1.00  0.00     0.014 A 
ATOM     34  C   UNL A   1      43.263  22.558  25.676  1.00  0.00     0.010 A 
ATOM     35  C   UNL A   1      42.759  22.222  28.020  1.00  0.00     0.010 A 
ATOM     36  C   UNL A   1      43.251  23.044  26.994  1.00  0.00    -0.014 A 
BRANCH  36  37
ATOM     37  C   UNL A   1      43.720  24.419  27.311  1.00  0.00     0.031 A 
ATOM     38  C   UNL A   1      42.743  25.484  27.719  1.00  0.00     0.074 A 
ATOM     39  C   UNL A   1      45.023  24.725  27.156  1.00  0.00     0.049 A 
ATOM     40  N   UNL A   1      42.958  26.752  27.967  1.00  0.00    -0.248 NA
ATOM     41  C   UNL A   1      41.333  25.081  27.839  1.00  0.00     0.031 C 
ATOM     42  C   UNL A   1      46.063  23.796  26.712  1.00  0.00     0.029 A 
ATOM     43  N   UNL A   1      45.691  25.910  27.337  1.00  0.00    -0.354 N 
ATOM     44  C   UNL A   1      41.713  27.299  28.253  1.00  0.00     0.074 A 
ATOM     45  C   UNL A   1      40.742  26.237  28.101  1.00  0.00     0.031 C 
ATOM     46  C   UNL A   1      47.240  24.440  26.670  1.00  0.00     0.029 A 
ATOM     47  C   UNL A   1      47.032  25.836  27.040  1.00  0.00     0.049 A 
ATOM     48  H   UNL A   1      45.254  26.735  27.649  1.00  0.00     0.167 HD
ATOM     49  C   UNL A   1      41.411  28.566  28.624  1.00  0.00     0.037 A 
ATOM     50  C   UNL A   1      47.984  26.788  27.046  1.00  0.00     0.037 A 
ATOM     51  C   UNL A   1      42.384  29.616  28.790  1.00  0.00     0.049 A 
ATOM     52  C   UNL A   1      47.624  28.188  27.457  1.00  0.00     0.074 A 
ATOM     53  C   UNL A   1      42.185  30.910  29.242  1.00  0.00     0.029 A 
ATOM     54  N   UNL A   1      43.734  29.498  28.498  1.00  0.00    -0.354 N 
ATOM     55  N   UNL A   1      46.457  28.670  27.811  1.00  0.00    -0.248 NA
ATOM     56  C   UNL A   1      48.712  29.176  27.474  1.00  0.00     0.031 C 
ATOM     57  C   UNL A   1      43.404  31.592  29.162  1.00  0.00     0.029 A 
ATOM     58  C   UNL A   1      44.374  30.707  28.722  1.00  0.00     0.049 A 
ATOM     59  H   UNL A   1      44.173  28.677  28.178  1.00  0.00     0.167 HD
ATOM     60  C   UNL A   1      46.675  30.009  28.114  1.00  0.00     0.074 A 
ATOM     61  C   UNL A   1      48.088  30.257  27.918  1.00  0.00     0.031 C 
ATOM     62  C   UNL A   1      45.782  30.946  28.518  1.00  0.00     0.037 A 
BRANCH  49  63
ATOM     63  C   UNL A   1      39.964  28.892  28.863  1.00  0.00     0.057 A 
ATOM     64  C   UNL A   1      39.394  28.862  30.143  1.00  0.00     0.134 A 
ATOM     65  C   UNL A   1      39.134  29.271  27.799  1.00  0.00     0.134 A 
ATOM     66  F   UNL A   1      40.129  28.500  31.206  1.00  0.00    -0.206 F 
ATOM     67  C   UNL A   1      38.046  29.162  30.352  1.00  0.00     0.040 A 
ATOM     68  C   UNL A   1      37.793  29.603  28.000  1.00  0.00     0.040 A 
ATOM     69  F   UNL A   1      39.614  29.330  26.548  1.00  0.00    -0.206 F 
ATOM     70  C   UNL A   1      37.244  29.540  29.279  1.00  0.00     0.006 A 
ENDBRANCH  49  63
BRANCH  50  71
ATOM     71  C   UNL A   1      49.374  26.441  26.655  1.00  0.00     0.057 A 
ATOM     72  C   UNL A   1      49.838  26.655  25.353  1.00  0.00     0.134 A 
ATOM     73  C   UNL A   1      50.276  25.898  27.580  1.00  0.00     0.134 A 
ATOM     74  F   UNL A   1      49.017  27.155  24.419  1.00  0.00    -0.206 F 
ATOM     75  C   UNL A   1      51.142  26.329  24.978  1.00  0.00     0.040 A 
ATOM     76  C   UNL A   1      51.591  25.593  27.227  1.00  0.00     0.040 A 
ATOM     77  F   UNL A   1      49.897  25.677  28.847  1.00  0.00    -0.206 F 
ATOM     78  C   UNL A   1      52.025  25.803  25.919  1.00  0.00     0.006 A 
ENDBRANCH  50  71
BRANCH  62  79
ATOM     79  C   UNL A   1      46.308  32.324  28.800  1.00  0.00     0.057 A 
ATOM     80  C   UNL A   1      46.798  32.687  30.061  1.00  0.00     0.134 A 
ATOM     81  C   UNL A   1      46.364  33.287  27.785  1.00  0.00     0.134 A 
ATOM     82  F   UNL A   1      46.762  31.816  31.081  1.00  0.00    -0.206 F 
ATOM     83  C   UNL A   1      47.305  33.964  30.307  1.00  0.00     0.040 A 
ATOM     84  C   UNL A   1      46.896  34.558  28.010  1.00  0.00     0.040 A 
ATOM     85  F   UNL A   1      45.918  33.004  26.551  1.00  0.00    -0.206 F 
ATOM     86  C   UNL A   1      47.362  34.901  29.276  1.00  0.00     0.006 A 
ENDBRANCH  62  79
ENDBRANCH  36  37
ENDBRANCH  28  31
ENDBRANCH  26  27
ENDBRANCH  25  26
ENDBRANCH   1  25
TORSDOF 14
ENDMDL
