MODEL 1
REMARK VINA RESULT:     -12.1      0.000      0.000
REMARK SMILES CC[C@H](C)N1C(=O)c2ccccc2[C@@H](C(=O)NCCCNC(=O)c2ccc(-c3c4nc(c(-c5c(F)cccc5F)c5ccc([nH]5)c(-c5c(F)cccc5F)c5nc(c(-c6c(F)cccc6F)c6ccc3[nH]6)C=C5)C=C4)cc2)C12CCCCC2
REMARK SMILES IDX 19 1 18 2 17 3 15 4 16 5 14 7 5 8 6 9 78 10 7 11 8 12 79 13
REMARK SMILES IDX 83 14 9 15 13 16 80 17 82 18 10 19 12 20 81 21 11 22 3 23
REMARK SMILES IDX 4 24 2 25 1 26 20 27 21 28 22 29 23 31 24 32 25 33 77 34
REMARK SMILES IDX 26 35 76 36 27 37 28 38 29 39 70 40 30 41 75 42 69 43 71 44
REMARK SMILES IDX 31 45 74 46 68 47 67 48 32 50 58 51 41 52 57 53 42 54 45 55
REMARK SMILES IDX 56 56 72 57 43 58 44 59 55 61 73 62 46 63 33 64 34 65 39 66
REMARK SMILES IDX 35 67 36 68 38 69 40 70 37 71 59 72 60 73 65 74 61 75 62 76
REMARK SMILES IDX 64 77 66 78 63 79 47 80 48 81 53 82 49 83 50 84 52 85 54 86
REMARK SMILES IDX 51 87
REMARK H PARENT 17 6 21 30 71 49 45 60
REMARK Flexibility Score: inf
ROOT
ATOM      1  C   UNL A   1      30.976  31.727  26.074  1.00  0.00     0.042 C 
ENDROOT
BRANCH   1   2
ATOM      2  C   UNL A   1      31.032  30.364  25.390  1.00  0.00     0.117 C 
BRANCH   2   3
ATOM      3  N   UNL A   1      32.296  30.078  24.724  1.00  0.00    -0.355 N 
ATOM      4  C   UNL A   1      32.724  29.104  23.872  1.00  0.00     0.229 C 
ATOM      5  O   UNL A   1      33.864  29.262  23.421  1.00  0.00    -0.274 OA
ATOM      6  H   UNL A   1      32.998  30.736  24.935  1.00  0.00     0.163 HD
BRANCH   4   7
ATOM      7  C   UNL A   1      31.863  27.907  23.416  1.00  0.00     0.135 C 
ATOM      8  N   UNL A   1      30.463  25.898  24.180  1.00  0.00    -0.329 N 
ATOM      9  C   UNL A   1      29.284  26.681  24.103  1.00  0.00     0.254 C 
ATOM     10  C   UNL A   1      31.810  26.623  24.373  1.00  0.00     0.059 C 
ATOM     11  O   UNL A   1      28.190  26.317  24.530  1.00  0.00    -0.269 OA
ATOM     12  C   UNL A   1      29.340  27.938  23.334  1.00  0.00     0.044 A 
ATOM     13  C   UNL A   1      31.887  26.930  25.891  1.00  0.00     0.030 C 
ATOM     14  C   UNL A   1      33.051  25.746  24.027  1.00  0.00     0.030 C 
ATOM     15  C   UNL A   1      28.144  28.594  23.001  1.00  0.00     0.014 A 
ATOM     16  C   UNL A   1      30.551  28.433  22.876  1.00  0.00    -0.020 A 
ATOM     17  C   UNL A   1      33.232  27.404  26.451  1.00  0.00     0.002 C 
ATOM     18  C   UNL A   1      34.403  26.285  24.497  1.00  0.00     0.002 C 
ATOM     19  C   UNL A   1      28.154  29.713  22.168  1.00  0.00     0.001 A 
ATOM     20  C   UNL A   1      30.544  29.515  21.968  1.00  0.00     0.005 A 
ATOM     21  C   UNL A   1      34.409  26.556  25.996  1.00  0.00     0.000 C 
ATOM     22  C   UNL A   1      29.355  30.156  21.626  1.00  0.00     0.000 A 
BRANCH   8  23
ATOM     23  C   UNL A   1      30.153  24.438  24.365  1.00  0.00     0.082 C 
ATOM     24  C   UNL A   1      30.653  23.670  23.126  1.00  0.00     0.031 C 
BRANCH  23  25
ATOM     25  C   UNL A   1      30.451  23.675  25.672  1.00  0.00     0.021 C 
ATOM     26  C   UNL A   1      31.629  22.701  25.634  1.00  0.00     0.006 C 
ENDBRANCH  23  25
ENDBRANCH   8  23
ENDBRANCH   4   7
ENDBRANCH   2   3
ENDBRANCH   1   2
BRANCH   1  27
ATOM     27  C   UNL A   1      32.204  32.091  26.889  1.00  0.00     0.118 C 
BRANCH  27  28
ATOM     28  N   UNL A   1      32.250  33.508  27.196  1.00  0.00    -0.352 N 
ATOM     29  C   UNL A   1      33.074  34.158  28.080  1.00  0.00     0.251 C 
ATOM     30  H   UNL A   1      31.610  34.075  26.708  1.00  0.00     0.163 HD
ATOM     31  O   UNL A   1      32.825  35.319  28.413  1.00  0.00    -0.269 OA
BRANCH  29  32
ATOM     32  C   UNL A   1      34.247  33.461  28.653  1.00  0.00     0.039 A 
ATOM     33  C   UNL A   1      34.105  32.223  29.288  1.00  0.00     0.014 A 
ATOM     34  C   UNL A   1      35.511  34.047  28.545  1.00  0.00     0.014 A 
ATOM     35  C   UNL A   1      35.190  31.649  29.940  1.00  0.00     0.010 A 
ATOM     36  C   UNL A   1      36.622  33.414  29.115  1.00  0.00     0.010 A 
ATOM     37  C   UNL A   1      36.467  32.226  29.845  1.00  0.00    -0.014 A 
BRANCH  37  38
ATOM     38  C   UNL A   1      37.628  31.544  30.477  1.00  0.00     0.031 A 
ATOM     39  C   UNL A   1      38.007  31.815  31.907  1.00  0.00     0.074 A 
ATOM     40  C   UNL A   1      38.336  30.652  29.755  1.00  0.00     0.049 A 
ATOM     41  N   UNL A   1      38.993  31.311  32.611  1.00  0.00    -0.248 NA
ATOM     42  C   UNL A   1      37.180  32.782  32.644  1.00  0.00     0.031 C 
ATOM     43  C   UNL A   1      38.076  30.304  28.356  1.00  0.00     0.029 A 
ATOM     44  N   UNL A   1      39.407  29.867  30.097  1.00  0.00    -0.354 N 
ATOM     45  C   UNL A   1      38.915  31.912  33.861  1.00  0.00     0.074 A 
ATOM     46  C   UNL A   1      37.808  32.842  33.810  1.00  0.00     0.031 C 
ATOM     47  C   UNL A   1      38.931  29.344  27.975  1.00  0.00     0.029 A 
ATOM     48  C   UNL A   1      39.841  29.057  29.077  1.00  0.00     0.049 A 
ATOM     49  H   UNL A   1      39.823  29.882  30.990  1.00  0.00     0.167 HD
ATOM     50  C   UNL A   1      39.690  31.701  34.953  1.00  0.00     0.037 A 
ATOM     51  C   UNL A   1      40.873  28.195  29.022  1.00  0.00     0.037 A 
ATOM     52  C   UNL A   1      40.789  30.769  35.006  1.00  0.00     0.049 A 
ATOM     53  C   UNL A   1      41.745  28.018  30.231  1.00  0.00     0.074 A 
ATOM     54  C   UNL A   1      41.610  30.460  36.077  1.00  0.00     0.029 A 
ATOM     55  N   UNL A   1      41.227  30.001  33.936  1.00  0.00    -0.354 N 
ATOM     56  N   UNL A   1      41.638  28.569  31.415  1.00  0.00    -0.248 NA
ATOM     57  C   UNL A   1      42.885  27.103  30.091  1.00  0.00     0.031 C 
ATOM     58  C   UNL A   1      42.576  29.544  35.641  1.00  0.00     0.029 A 
ATOM     59  C   UNL A   1      42.325  29.243  34.313  1.00  0.00     0.049 A 
ATOM     60  H   UNL A   1      40.818  29.997  33.040  1.00  0.00     0.167 HD
ATOM     61  C   UNL A   1      42.689  28.057  32.167  1.00  0.00     0.074 A 
ATOM     62  C   UNL A   1      43.402  27.131  31.310  1.00  0.00     0.031 C 
ATOM     63  C   UNL A   1      43.033  28.333  33.448  1.00  0.00     0.037 A 
BRANCH  50  64
ATOM     64  C   UNL A   1      39.388  32.515  36.180  1.00  0.00     0.057 A 
ATOM     65  C   UNL A   1      40.050  33.727  36.413  1.00  0.00     0.134 A 
ATOM     66  C   UNL A   1      38.457  32.096  37.140  1.00  0.00     0.134 A 
ATOM     67  F   UNL A   1      40.962  34.184  35.542  1.00  0.00    -0.206 F 
ATOM     68  C   UNL A   1      39.794  34.495  37.551  1.00  0.00     0.040 A 
ATOM     69  C   UNL A   1      38.171  32.868  38.268  1.00  0.00     0.040 A 
ATOM     70  F   UNL A   1      37.778  30.950  36.974  1.00  0.00    -0.206 F 
ATOM     71  C   UNL A   1      38.845  34.070  38.478  1.00  0.00     0.006 A 
ENDBRANCH  50  64
BRANCH  51  72
ATOM     72  C   UNL A   1      41.147  27.444  27.771  1.00  0.00     0.057 A 
ATOM     73  C   UNL A   1      40.604  26.172  27.550  1.00  0.00     0.134 A 
ATOM     74  C   UNL A   1      41.952  27.987  26.763  1.00  0.00     0.134 A 
ATOM     75  F   UNL A   1      39.830  25.595  28.481  1.00  0.00    -0.206 F 
ATOM     76  C   UNL A   1      40.858  25.463  26.376  1.00  0.00     0.040 A 
ATOM     77  C   UNL A   1      42.191  27.301  25.572  1.00  0.00     0.040 A 
ATOM     78  F   UNL A   1      42.484  29.209  26.909  1.00  0.00    -0.206 F 
ATOM     79  C   UNL A   1      41.647  26.032  25.379  1.00  0.00     0.006 A 
ENDBRANCH  51  72
BRANCH  63  80
ATOM     80  C   UNL A   1      44.223  27.603  34.001  1.00  0.00     0.057 A 
ATOM     81  C   UNL A   1      44.076  26.343  34.593  1.00  0.00     0.134 A 
ATOM     82  C   UNL A   1      45.515  28.144  33.944  1.00  0.00     0.134 A 
ATOM     83  F   UNL A   1      42.867  25.769  34.685  1.00  0.00    -0.206 F 
ATOM     84  C   UNL A   1      45.170  25.646  35.108  1.00  0.00     0.040 A 
ATOM     85  C   UNL A   1      46.620  27.444  34.429  1.00  0.00     0.040 A 
ATOM     86  F   UNL A   1      45.727  29.339  33.372  1.00  0.00    -0.206 F 
ATOM     87  C   UNL A   1      46.448  26.192  35.017  1.00  0.00     0.006 A 
ENDBRANCH  63  80
ENDBRANCH  37  38
ENDBRANCH  29  32
ENDBRANCH  27  28
ENDBRANCH   1  27
TORSDOF 12
ENDMDL
MODEL 2
REMARK VINA RESULT:     -12.1      3.891      8.286
REMARK SMILES CC[C@H](C)N1C(=O)c2ccccc2[C@@H](C(=O)NCCCNC(=O)c2ccc(-c3c4nc(c(-c5c(F)cccc5F)c5ccc([nH]5)c(-c5c(F)cccc5F)c5nc(c(-c6c(F)cccc6F)c6ccc3[nH]6)C=C5)C=C4)cc2)C12CCCCC2
REMARK SMILES IDX 19 1 18 2 17 3 15 4 16 5 14 7 5 8 6 9 78 10 7 11 8 12 79 13
REMARK SMILES IDX 83 14 9 15 13 16 80 17 82 18 10 19 12 20 81 21 11 22 3 23
REMARK SMILES IDX 4 24 2 25 1 26 20 27 21 28 22 29 23 31 24 32 25 33 77 34
REMARK SMILES IDX 26 35 76 36 27 37 28 38 29 39 70 40 30 41 75 42 69 43 71 44
REMARK SMILES IDX 31 45 74 46 68 47 67 48 32 50 58 51 41 52 57 53 42 54 45 55
REMARK SMILES IDX 56 56 72 57 43 58 44 59 55 61 73 62 46 63 33 64 34 65 39 66
REMARK SMILES IDX 35 67 36 68 38 69 40 70 37 71 59 72 60 73 65 74 61 75 62 76
REMARK SMILES IDX 64 77 66 78 63 79 47 80 48 81 53 82 49 83 50 84 52 85 54 86
REMARK SMILES IDX 51 87
REMARK H PARENT 17 6 21 30 71 49 45 60
REMARK Flexibility Score: inf
ROOT
ATOM      1  C   UNL A   1      35.766  23.592  24.668  1.00  0.00     0.042 C 
ENDROOT
BRANCH   1   2
ATOM      2  C   UNL A   1      34.761  24.712  24.418  1.00  0.00     0.117 C 
BRANCH   2   3
ATOM      3  N   UNL A   1      33.879  24.990  25.545  1.00  0.00    -0.355 N 
ATOM      4  C   UNL A   1      33.020  26.000  25.854  1.00  0.00     0.229 C 
ATOM      5  O   UNL A   1      32.346  25.826  26.876  1.00  0.00    -0.274 OA
ATOM      6  H   UNL A   1      33.910  24.289  26.237  1.00  0.00     0.163 HD
BRANCH   4   7
ATOM      7  C   UNL A   1      32.812  27.262  24.988  1.00  0.00     0.135 C 
ATOM      8  N   UNL A   1      31.095  28.917  24.045  1.00  0.00    -0.329 N 
ATOM      9  C   UNL A   1      31.329  29.793  25.135  1.00  0.00     0.254 C 
ATOM     10  C   UNL A   1      31.408  27.420  24.231  1.00  0.00     0.059 C 
ATOM     11  O   UNL A   1      30.645  30.784  25.377  1.00  0.00    -0.269 OA
ATOM     12  C   UNL A   1      32.553  29.589  25.932  1.00  0.00     0.044 A 
ATOM     13  C   UNL A   1      30.183  26.843  24.988  1.00  0.00     0.030 C 
ATOM     14  C   UNL A   1      31.523  26.630  22.892  1.00  0.00     0.030 C 
ATOM     15  C   UNL A   1      32.962  30.588  26.831  1.00  0.00     0.014 A 
ATOM     16  C   UNL A   1      33.337  28.461  25.748  1.00  0.00    -0.020 A 
ATOM     17  C   UNL A   1      30.063  25.320  25.085  1.00  0.00     0.002 C 
ATOM     18  C   UNL A   1      31.511  25.105  23.012  1.00  0.00     0.002 C 
ATOM     19  C   UNL A   1      34.179  30.483  27.504  1.00  0.00     0.001 A 
ATOM     20  C   UNL A   1      34.603  28.403  26.370  1.00  0.00     0.005 A 
ATOM     21  C   UNL A   1      30.278  24.610  23.758  1.00  0.00     0.000 C 
ATOM     22  C   UNL A   1      35.015  29.402  27.250  1.00  0.00     0.000 A 
BRANCH   8  23
ATOM     23  C   UNL A   1      30.277  29.573  22.967  1.00  0.00     0.082 C 
ATOM     24  C   UNL A   1      31.146  29.703  21.701  1.00  0.00     0.031 C 
BRANCH  23  25
ATOM     25  C   UNL A   1      28.834  29.146  22.629  1.00  0.00     0.021 C 
ATOM     26  C   UNL A   1      27.723  30.093  23.084  1.00  0.00     0.006 C 
ENDBRANCH  23  25
ENDBRANCH   8  23
ENDBRANCH   4   7
ENDBRANCH   2   3
ENDBRANCH   1   2
BRANCH   1  27
ATOM     27  C   UNL A   1      36.492  23.661  26.000  1.00  0.00     0.118 C 
BRANCH  27  28
ATOM     28  N   UNL A   1      37.495  22.621  26.126  1.00  0.00    -0.352 N 
ATOM     29  C   UNL A   1      38.831  22.759  26.405  1.00  0.00     0.251 C 
ATOM     30  H   UNL A   1      37.176  21.698  25.995  1.00  0.00     0.163 HD
ATOM     31  O   UNL A   1      39.597  21.809  26.232  1.00  0.00    -0.269 OA
BRANCH  29  32
ATOM     32  C   UNL A   1      39.358  24.054  26.891  1.00  0.00     0.039 A 
ATOM     33  C   UNL A   1      39.279  24.398  28.244  1.00  0.00     0.014 A 
ATOM     34  C   UNL A   1      39.951  24.935  25.982  1.00  0.00     0.014 A 
ATOM     35  C   UNL A   1      39.652  25.672  28.659  1.00  0.00     0.010 A 
ATOM     36  C   UNL A   1      40.419  26.178  26.423  1.00  0.00     0.010 A 
ATOM     37  C   UNL A   1      40.246  26.571  27.759  1.00  0.00    -0.014 A 
BRANCH  37  38
ATOM     38  C   UNL A   1      40.718  27.894  28.249  1.00  0.00     0.031 A 
ATOM     39  C   UNL A   1      42.181  28.247  28.252  1.00  0.00     0.074 A 
ATOM     40  C   UNL A   1      39.811  28.795  28.674  1.00  0.00     0.049 A 
ATOM     41  N   UNL A   1      42.763  29.352  28.650  1.00  0.00    -0.248 NA
ATOM     42  C   UNL A   1      43.113  27.225  27.754  1.00  0.00     0.031 C 
ATOM     43  C   UNL A   1      38.364  28.576  28.728  1.00  0.00     0.029 A 
ATOM     44  N   UNL A   1      39.968  30.080  29.130  1.00  0.00    -0.354 N 
ATOM     45  C   UNL A   1      44.125  29.152  28.468  1.00  0.00     0.074 A 
ATOM     46  C   UNL A   1      44.287  27.808  27.956  1.00  0.00     0.031 C 
ATOM     47  C   UNL A   1      37.763  29.700  29.144  1.00  0.00     0.029 A 
ATOM     48  C   UNL A   1      38.782  30.695  29.451  1.00  0.00     0.049 A 
ATOM     49  H   UNL A   1      40.845  30.518  29.217  1.00  0.00     0.167 HD
ATOM     50  C   UNL A   1      45.147  30.014  28.697  1.00  0.00     0.037 A 
ATOM     51  C   UNL A   1      38.541  31.917  29.961  1.00  0.00     0.037 A 
ATOM     52  C   UNL A   1      44.986  31.355  29.200  1.00  0.00     0.049 A 
ATOM     53  C   UNL A   1      39.695  32.831  30.252  1.00  0.00     0.074 A 
ATOM     54  C   UNL A   1      45.957  32.314  29.431  1.00  0.00     0.029 A 
ATOM     55  N   UNL A   1      43.772  31.925  29.558  1.00  0.00    -0.354 N 
ATOM     56  N   UNL A   1      40.975  32.640  30.043  1.00  0.00    -0.248 NA
ATOM     57  C   UNL A   1      39.369  34.129  30.856  1.00  0.00     0.031 C 
ATOM     58  C   UNL A   1      45.337  33.445  29.978  1.00  0.00     0.029 A 
ATOM     59  C   UNL A   1      43.974  33.210  30.038  1.00  0.00     0.049 A 
ATOM     60  H   UNL A   1      42.897  31.481  29.483  1.00  0.00     0.167 HD
ATOM     61  C   UNL A   1      41.606  33.798  30.477  1.00  0.00     0.074 A 
ATOM     62  C   UNL A   1      40.564  34.696  30.933  1.00  0.00     0.031 C 
ATOM     63  C   UNL A   1      42.930  34.090  30.500  1.00  0.00     0.037 A 
BRANCH  50  64
ATOM     64  C   UNL A   1      46.540  29.517  28.425  1.00  0.00     0.057 A 
ATOM     65  C   UNL A   1      47.113  29.661  27.155  1.00  0.00     0.134 A 
ATOM     66  C   UNL A   1      47.309  28.884  29.410  1.00  0.00     0.134 A 
ATOM     67  F   UNL A   1      46.431  30.249  26.161  1.00  0.00    -0.206 F 
ATOM     68  C   UNL A   1      48.401  29.198  26.876  1.00  0.00     0.040 A 
ATOM     69  C   UNL A   1      48.608  28.441  29.152  1.00  0.00     0.040 A 
ATOM     70  F   UNL A   1      46.825  28.723  30.651  1.00  0.00    -0.206 F 
ATOM     71  C   UNL A   1      49.156  28.594  27.880  1.00  0.00     0.006 A 
ENDBRANCH  50  64
BRANCH  51  72
ATOM     72  C   UNL A   1      37.146  32.341  30.244  1.00  0.00     0.057 A 
ATOM     73  C   UNL A   1      36.392  33.044  29.296  1.00  0.00     0.134 A 
ATOM     74  C   UNL A   1      36.533  32.043  31.466  1.00  0.00     0.134 A 
ATOM     75  F   UNL A   1      36.925  33.365  28.108  1.00  0.00    -0.206 F 
ATOM     76  C   UNL A   1      35.081  33.443  29.557  1.00  0.00     0.040 A 
ATOM     77  C   UNL A   1      35.213  32.410  31.729  1.00  0.00     0.040 A 
ATOM     78  F   UNL A   1      37.199  31.354  32.404  1.00  0.00    -0.206 F 
ATOM     79  C   UNL A   1      34.485  33.119  30.774  1.00  0.00     0.006 A 
ENDBRANCH  51  72
BRANCH  63  80
ATOM     80  C   UNL A   1      43.315  35.446  31.016  1.00  0.00     0.057 A 
ATOM     81  C   UNL A   1      43.482  35.667  32.389  1.00  0.00     0.134 A 
ATOM     82  C   UNL A   1      43.524  36.532  30.156  1.00  0.00     0.134 A 
ATOM     83  F   UNL A   1      43.292  34.673  33.268  1.00  0.00    -0.206 F 
ATOM     84  C   UNL A   1      43.844  36.919  32.887  1.00  0.00     0.040 A 
ATOM     85  C   UNL A   1      43.915  37.782  30.641  1.00  0.00     0.040 A 
ATOM     86  F   UNL A   1      43.399  36.382  28.828  1.00  0.00    -0.206 F 
ATOM     87  C   UNL A   1      44.072  37.978  32.011  1.00  0.00     0.006 A 
ENDBRANCH  63  80
ENDBRANCH  37  38
ENDBRANCH  29  32
ENDBRANCH  27  28
ENDBRANCH   1  27
TORSDOF 12
ENDMDL
MODEL 3
REMARK VINA RESULT:     -12.1      3.811      5.974
REMARK SMILES CC[C@H](C)N1C(=O)c2ccccc2[C@@H](C(=O)NCCCNC(=O)c2ccc(-c3c4nc(c(-c5c(F)cccc5F)c5ccc([nH]5)c(-c5c(F)cccc5F)c5nc(c(-c6c(F)cccc6F)c6ccc3[nH]6)C=C5)C=C4)cc2)C12CCCCC2
REMARK SMILES IDX 19 1 18 2 17 3 15 4 16 5 14 7 5 8 6 9 78 10 7 11 8 12 79 13
REMARK SMILES IDX 83 14 9 15 13 16 80 17 82 18 10 19 12 20 81 21 11 22 3 23
REMARK SMILES IDX 4 24 2 25 1 26 20 27 21 28 22 29 23 31 24 32 25 33 77 34
REMARK SMILES IDX 26 35 76 36 27 37 28 38 29 39 70 40 30 41 75 42 69 43 71 44
REMARK SMILES IDX 31 45 74 46 68 47 67 48 32 50 58 51 41 52 57 53 42 54 45 55
REMARK SMILES IDX 56 56 72 57 43 58 44 59 55 61 73 62 46 63 33 64 34 65 39 66
REMARK SMILES IDX 35 67 36 68 38 69 40 70 37 71 59 72 60 73 65 74 61 75 62 76
REMARK SMILES IDX 64 77 66 78 63 79 47 80 48 81 53 82 49 83 50 84 52 85 54 86
REMARK SMILES IDX 51 87
REMARK H PARENT 17 6 21 30 71 49 45 60
REMARK Flexibility Score: inf
ROOT
ATOM      1  C   UNL A   1      32.819  27.472  26.386  1.00  0.00     0.042 C 
ENDROOT
BRANCH   1   2
ATOM      2  C   UNL A   1      33.006  25.980  26.127  1.00  0.00     0.117 C 
BRANCH   2   3
ATOM      3  N   UNL A   1      33.803  25.671  24.947  1.00  0.00    -0.355 N 
ATOM      4  C   UNL A   1      34.404  24.544  24.474  1.00  0.00     0.229 C 
ATOM      5  O   UNL A   1      34.913  24.649  23.352  1.00  0.00    -0.274 OA
ATOM      6  H   UNL A   1      33.937  26.451  24.361  1.00  0.00     0.163 HD
BRANCH   4   7
ATOM      7  C   UNL A   1      34.416  23.188  25.212  1.00  0.00     0.135 C 
ATOM      8  N   UNL A   1      34.132  20.650  24.974  1.00  0.00    -0.329 N 
ATOM      9  C   UNL A   1      35.534  20.499  24.826  1.00  0.00     0.254 C 
ATOM     10  C   UNL A   1      33.502  22.012  24.621  1.00  0.00     0.059 C 
ATOM     11  O   UNL A   1      36.078  19.450  24.492  1.00  0.00    -0.269 OA
ATOM     12  C   UNL A   1      36.396  21.621  25.242  1.00  0.00     0.044 A 
ATOM     13  C   UNL A   1      33.361  22.001  23.076  1.00  0.00     0.030 C 
ATOM     14  C   UNL A   1      32.071  22.213  25.202  1.00  0.00     0.030 C 
ATOM     15  C   UNL A   1      37.778  21.413  25.375  1.00  0.00     0.014 A 
ATOM     16  C   UNL A   1      35.846  22.849  25.575  1.00  0.00    -0.020 A 
ATOM     17  C   UNL A   1      32.516  23.105  22.434  1.00  0.00     0.002 C 
ATOM     18  C   UNL A   1      31.274  23.387  24.630  1.00  0.00     0.002 C 
ATOM     19  C   UNL A   1      38.602  22.415  25.889  1.00  0.00     0.001 A 
ATOM     20  C   UNL A   1      36.674  23.826  26.171  1.00  0.00     0.005 A 
ATOM     21  C   UNL A   1      31.170  23.307  23.112  1.00  0.00     0.000 C 
ATOM     22  C   UNL A   1      38.043  23.613  26.316  1.00  0.00     0.000 A 
BRANCH   8  23
ATOM     23  C   UNL A   1      33.445  19.327  25.170  1.00  0.00     0.082 C 
ATOM     24  C   UNL A   1      32.878  19.276  26.602  1.00  0.00     0.031 C 
BRANCH  23  25
ATOM     25  C   UNL A   1      32.462  18.729  24.142  1.00  0.00     0.021 C 
ATOM     26  C   UNL A   1      33.036  17.686  23.184  1.00  0.00     0.006 C 
ENDBRANCH  23  25
ENDBRANCH   8  23
ENDBRANCH   4   7
ENDBRANCH   2   3
ENDBRANCH   1   2
BRANCH   1  27
ATOM     27  C   UNL A   1      34.070  28.213  26.823  1.00  0.00     0.118 C 
BRANCH  27  28
ATOM     28  N   UNL A   1      33.785  29.584  27.202  1.00  0.00    -0.352 N 
ATOM     29  C   UNL A   1      34.557  30.436  27.951  1.00  0.00     0.251 C 
ATOM     30  H   UNL A   1      32.928  29.949  26.881  1.00  0.00     0.163 HD
ATOM     31  O   UNL A   1      34.069  31.478  28.395  1.00  0.00    -0.269 OA
BRANCH  29  32
ATOM     32  C   UNL A   1      35.967  30.096  28.245  1.00  0.00     0.039 A 
ATOM     33  C   UNL A   1      36.970  30.311  27.295  1.00  0.00     0.014 A 
ATOM     34  C   UNL A   1      36.296  29.563  29.494  1.00  0.00     0.014 A 
ATOM     35  C   UNL A   1      38.262  29.859  27.534  1.00  0.00     0.010 A 
ATOM     36  C   UNL A   1      37.619  29.203  29.771  1.00  0.00     0.010 A 
ATOM     37  C   UNL A   1      38.610  29.318  28.782  1.00  0.00    -0.014 A 
BRANCH  37  38
ATOM     38  C   UNL A   1      40.019  28.925  29.045  1.00  0.00     0.031 A 
ATOM     39  C   UNL A   1      40.960  29.840  29.782  1.00  0.00     0.074 A 
ATOM     40  C   UNL A   1      40.450  27.716  28.631  1.00  0.00     0.049 A 
ATOM     41  N   UNL A   1      42.220  29.655  30.090  1.00  0.00    -0.248 NA
ATOM     42  C   UNL A   1      40.419  31.133  30.225  1.00  0.00     0.031 C 
ATOM     43  C   UNL A   1      39.641  26.737  27.900  1.00  0.00     0.029 A 
ATOM     44  N   UNL A   1      41.666  27.098  28.775  1.00  0.00    -0.354 N 
ATOM     45  C   UNL A   1      42.627  30.812  30.743  1.00  0.00     0.074 A 
ATOM     46  C   UNL A   1      41.489  31.706  30.758  1.00  0.00     0.031 C 
ATOM     47  C   UNL A   1      40.366  25.627  27.702  1.00  0.00     0.029 A 
ATOM     48  C   UNL A   1      41.708  25.839  28.229  1.00  0.00     0.049 A 
ATOM     49  H   UNL A   1      42.434  27.517  29.228  1.00  0.00     0.167 HD
ATOM     50  C   UNL A   1      43.835  31.098  31.289  1.00  0.00     0.037 A 
ATOM     51  C   UNL A   1      42.721  24.958  28.138  1.00  0.00     0.037 A 
ATOM     52  C   UNL A   1      44.966  30.204  31.280  1.00  0.00     0.049 A 
ATOM     53  C   UNL A   1      44.062  25.321  28.707  1.00  0.00     0.074 A 
ATOM     54  C   UNL A   1      46.219  30.391  31.838  1.00  0.00     0.029 A 
ATOM     55  N   UNL A   1      44.983  28.956  30.675  1.00  0.00    -0.354 N 
ATOM     56  N   UNL A   1      44.421  26.406  29.350  1.00  0.00    -0.248 NA
ATOM     57  C   UNL A   1      45.139  24.340  28.530  1.00  0.00     0.031 C 
ATOM     58  C   UNL A   1      47.010  29.278  31.525  1.00  0.00     0.029 A 
ATOM     59  C   UNL A   1      46.234  28.375  30.818  1.00  0.00     0.049 A 
ATOM     60  H   UNL A   1      44.219  28.543  30.211  1.00  0.00     0.167 HD
ATOM     61  C   UNL A   1      45.762  26.231  29.667  1.00  0.00     0.074 A 
ATOM     62  C   UNL A   1      46.142  24.924  29.169  1.00  0.00     0.031 C 
ATOM     63  C   UNL A   1      46.603  27.079  30.308  1.00  0.00     0.037 A 
BRANCH  50  64
ATOM     64  C   UNL A   1      44.001  32.451  31.923  1.00  0.00     0.057 A 
ATOM     65  C   UNL A   1      44.452  33.542  31.169  1.00  0.00     0.134 A 
ATOM     66  C   UNL A   1      43.733  32.674  33.280  1.00  0.00     0.134 A 
ATOM     67  F   UNL A   1      44.738  33.399  29.866  1.00  0.00    -0.206 F 
ATOM     68  C   UNL A   1      44.624  34.805  31.739  1.00  0.00     0.040 A 
ATOM     69  C   UNL A   1      43.874  33.939  33.855  1.00  0.00     0.040 A 
ATOM     70  F   UNL A   1      43.287  31.675  34.058  1.00  0.00    -0.206 F 
ATOM     71  C   UNL A   1      44.326  35.008  33.085  1.00  0.00     0.006 A 
ENDBRANCH  50  64
BRANCH  51  72
ATOM     72  C   UNL A   1      42.510  23.650  27.468  1.00  0.00     0.057 A 
ATOM     73  C   UNL A   1      42.660  23.508  26.083  1.00  0.00     0.134 A 
ATOM     74  C   UNL A   1      42.163  22.509  28.200  1.00  0.00     0.134 A 
ATOM     75  F   UNL A   1      42.986  24.566  25.325  1.00  0.00    -0.206 F 
ATOM     76  C   UNL A   1      42.464  22.282  25.448  1.00  0.00     0.040 A 
ATOM     77  C   UNL A   1      41.992  21.270  27.582  1.00  0.00     0.040 A 
ATOM     78  F   UNL A   1      42.024  22.579  29.532  1.00  0.00    -0.206 F 
ATOM     79  C   UNL A   1      42.137  21.156  26.200  1.00  0.00     0.006 A 
ENDBRANCH  51  72
BRANCH  63  80
ATOM     80  C   UNL A   1      48.010  26.601  30.524  1.00  0.00     0.057 A 
ATOM     81  C   UNL A   1      49.010  26.876  29.583  1.00  0.00     0.134 A 
ATOM     82  C   UNL A   1      48.377  25.871  31.662  1.00  0.00     0.134 A 
ATOM     83  F   UNL A   1      48.727  27.565  28.468  1.00  0.00    -0.206 F 
ATOM     84  C   UNL A   1      50.325  26.444  29.767  1.00  0.00     0.040 A 
ATOM     85  C   UNL A   1      49.694  25.460  31.872  1.00  0.00     0.040 A 
ATOM     86  F   UNL A   1      47.471  25.591  32.611  1.00  0.00    -0.206 F 
ATOM     87  C   UNL A   1      50.672  25.743  30.920  1.00  0.00     0.006 A 
ENDBRANCH  63  80
ENDBRANCH  37  38
ENDBRANCH  29  32
ENDBRANCH  27  28
ENDBRANCH   1  27
TORSDOF 12
ENDMDL
