MODEL 1
REMARK VINA RESULT:     -13.3      0.000      0.000
REMARK SMILES COc1cc([C@@H]2CC(NCCCNC(=O)c3ccc(-c4c5nc(c(-c6c(F)cccc6F)c6ccc([nH]6)c(-c6c(F)cccc6F)c6nc(c(-c7c(F)cccc7F)c7ccc4[nH]7)C=C6)C=C5)cc3)=[NH+]c3c(C(=O)[O-])cn(-c4ccc(Cl)cc4)c32)cc(OC)c1O
REMARK SMILES IDX 11 1 10 2 9 3 6 4 7 5 85 6 8 7 71 8 77 9 70 10 72 11 76 12
REMARK SMILES IDX 5 15 3 16 4 17 90 18 87 19 86 20 2 21 1 22 91 23 88 25 89 26
REMARK SMILES IDX 78 27 79 28 84 29 80 30 83 31 81 32 82 33 73 34 74 35 75 36
REMARK SMILES IDX 12 37 13 38 14 39 15 41 16 42 17 43 69 44 18 45 68 46 19 47
REMARK SMILES IDX 20 48 21 49 62 50 22 51 67 52 61 53 63 54 23 55 66 56 60 57
REMARK SMILES IDX 59 58 24 60 50 61 33 62 49 63 34 64 37 65 48 66 64 67 35 68
REMARK SMILES IDX 36 69 47 71 65 72 38 73 25 74 26 75 31 76 27 77 28 78 30 79
REMARK SMILES IDX 32 80 29 81 51 82 52 83 57 84 53 85 54 86 56 87 58 88 55 89
REMARK SMILES IDX 39 90 40 91 45 92 41 93 42 94 44 95 46 96 43 97
REMARK H PARENT 9 13 70 14 91 24 13 40 63 59 37 70
REMARK Flexibility Score: inf
ROOT
ATOM      1  C   UNL A   1      33.500  29.515  25.565  1.00  0.00     0.067 C 
ENDROOT
BRANCH   1   2
ATOM      2  C   UNL A   1      32.767  28.250  25.117  1.00  0.00     0.235 C 
BRANCH   2   3
ATOM      3  N   UNL A   1      33.680  27.243  24.583  1.00  0.00    -0.278 N 
ATOM      4  C   UNL A   1      34.235  23.458  24.062  1.00  0.00     0.083 C 
ATOM      5  C   UNL A   1      34.327  24.979  23.806  1.00  0.00     0.142 C 
ATOM      6  C   UNL A   1      33.011  23.148  24.864  1.00  0.00     0.078 A 
ATOM      7  C   UNL A   1      33.463  25.881  24.699  1.00  0.00     0.248 C 
ATOM      8  C   UNL A   1      32.232  24.104  25.466  1.00  0.00     0.155 A 
ATOM      9  N   UNL A   1      32.346  21.938  25.005  1.00  0.00    -0.315 N 
ATOM     10  N   UNL A   1      32.517  25.459  25.485  1.00  0.00    -0.243 N 
ATOM     11  C   UNL A   1      31.061  23.526  25.989  1.00  0.00     0.062 A 
ATOM     12  C   UNL A   1      31.144  22.186  25.645  1.00  0.00     0.106 A 
ATOM     13  H   UNL A   1      34.492  27.548  24.117  1.00  0.00     0.304 HD
ATOM     14  H   UNL A   1      32.024  26.078  26.071  1.00  0.00     0.312 HD
BRANCH   4  15
ATOM     15  C   UNL A   1      35.527  22.930  24.663  1.00  0.00    -0.031 A 
ATOM     16  C   UNL A   1      37.505  23.327  26.058  1.00  0.00     0.164 A 
ATOM     17  C   UNL A   1      36.244  23.714  25.581  1.00  0.00     0.055 A 
ATOM     18  C   UNL A   1      38.043  22.101  25.637  1.00  0.00     0.200 A 
ATOM     19  C   UNL A   1      37.319  21.275  24.756  1.00  0.00     0.164 A 
ATOM     20  C   UNL A   1      36.068  21.698  24.284  1.00  0.00     0.055 A 
BRANCH  16  21
ATOM     21  O   UNL A   1      38.042  24.271  26.890  1.00  0.00    -0.493 OA
ATOM     22  C   UNL A   1      39.330  24.808  26.641  1.00  0.00     0.278 C 
ENDBRANCH  16  21
BRANCH  18  23
ATOM     23  O   UNL A   1      39.269  21.693  26.082  1.00  0.00    -0.502 OA
ATOM     24  H   UNL A   1      39.400  21.508  26.991  1.00  0.00     0.293 HD
ENDBRANCH  18  23
BRANCH  19  25
ATOM     25  O   UNL A   1      37.660  20.044  24.260  1.00  0.00    -0.493 OA
ATOM     26  C   UNL A   1      37.586  18.912  25.109  1.00  0.00     0.278 C 
ENDBRANCH  19  25
ENDBRANCH   4  15
BRANCH   9  27
ATOM     27  C   UNL A   1      32.740  20.647  24.574  1.00  0.00     0.046 A 
ATOM     28  C   UNL A   1      33.534  19.843  25.392  1.00  0.00     0.028 A 
ATOM     29  C   UNL A   1      32.267  20.146  23.355  1.00  0.00     0.028 A 
ATOM     30  C   UNL A   1      33.940  18.579  24.958  1.00  0.00     0.022 A 
ATOM     31  C   UNL A   1      32.670  18.879  22.923  1.00  0.00     0.022 A 
ATOM     32  C   UNL A   1      33.518  18.108  23.718  1.00  0.00     0.041 A 
ATOM     33  Cl  UNL A   1      34.032  16.559  23.175  1.00  0.00    -0.084 Cl
ENDBRANCH   9  27
BRANCH  11  34
ATOM     34  C   UNL A   1      29.946  24.117  26.709  1.00  0.00     0.077 C 
ATOM     35  O   UNL A   1      29.539  25.254  26.559  1.00  0.00    -0.545 OA
ATOM     36  O   UNL A   1      29.341  23.310  27.614  1.00  0.00    -0.545 OA
ENDBRANCH  11  34
ENDBRANCH   2   3
ENDBRANCH   1   2
BRANCH   1  37
ATOM     37  C   UNL A   1      33.734  29.564  27.065  1.00  0.00     0.120 C 
BRANCH  37  38
ATOM     38  N   UNL A   1      33.657  30.909  27.637  1.00  0.00    -0.352 N 
ATOM     39  C   UNL A   1      34.590  31.551  28.430  1.00  0.00     0.251 C 
ATOM     40  H   UNL A   1      32.842  31.419  27.431  1.00  0.00     0.163 HD
ATOM     41  O   UNL A   1      34.262  32.519  29.110  1.00  0.00    -0.269 OA
BRANCH  39  42
ATOM     42  C   UNL A   1      35.985  31.063  28.462  1.00  0.00     0.039 A 
ATOM     43  C   UNL A   1      37.002  31.850  29.007  1.00  0.00     0.014 A 
ATOM     44  C   UNL A   1      36.281  29.805  27.937  1.00  0.00     0.014 A 
ATOM     45  C   UNL A   1      38.290  31.324  29.086  1.00  0.00     0.010 A 
ATOM     46  C   UNL A   1      37.514  29.229  28.147  1.00  0.00     0.010 A 
ATOM     47  C   UNL A   1      38.535  29.994  28.684  1.00  0.00    -0.014 A 
BRANCH  47  48
ATOM     48  C   UNL A   1      39.815  29.359  28.997  1.00  0.00     0.031 A 
ATOM     49  C   UNL A   1      40.066  29.273  30.459  1.00  0.00     0.074 A 
ATOM     50  C   UNL A   1      40.637  28.751  28.112  1.00  0.00     0.049 A 
ATOM     51  N   UNL A   1      40.913  29.974  31.132  1.00  0.00    -0.248 NA
ATOM     52  C   UNL A   1      39.157  28.471  31.296  1.00  0.00     0.031 C 
ATOM     53  C   UNL A   1      40.409  28.469  26.693  1.00  0.00     0.029 A 
ATOM     54  N   UNL A   1      41.858  28.180  28.329  1.00  0.00    -0.354 N 
ATOM     55  C   UNL A   1      40.813  29.536  32.447  1.00  0.00     0.074 A 
ATOM     56  C   UNL A   1      39.598  28.768  32.521  1.00  0.00     0.031 C 
ATOM     57  C   UNL A   1      41.340  27.595  26.245  1.00  0.00     0.029 A 
ATOM     58  C   UNL A   1      42.326  27.377  27.289  1.00  0.00     0.049 A 
ATOM     59  H   UNL A   1      42.371  28.325  29.157  1.00  0.00     0.167 HD
ATOM     60  C   UNL A   1      41.889  29.627  33.275  1.00  0.00     0.037 A 
ATOM     61  C   UNL A   1      43.433  26.586  27.296  1.00  0.00     0.037 A 
ATOM     62  C   UNL A   1      42.856  30.567  32.753  1.00  0.00     0.049 A 
ATOM     63  C   UNL A   1      44.322  27.081  28.376  1.00  0.00     0.074 A 
ATOM     64  C   UNL A   1      42.804  31.895  32.368  1.00  0.00     0.029 A 
ATOM     65  N   UNL A   1      43.990  30.059  32.164  1.00  0.00    -0.354 N 
ATOM     66  N   UNL A   1      44.952  28.220  28.330  1.00  0.00    -0.248 NA
ATOM     67  C   UNL A   1      44.124  26.525  29.705  1.00  0.00     0.031 C 
ATOM     68  C   UNL A   1      43.590  31.964  31.180  1.00  0.00     0.029 A 
ATOM     69  C   UNL A   1      44.160  30.710  30.969  1.00  0.00     0.049 A 
ATOM     70  H   UNL A   1      44.573  29.357  32.533  1.00  0.00     0.167 HD
ATOM     71  C   UNL A   1      44.799  28.746  29.602  1.00  0.00     0.074 A 
ATOM     72  C   UNL A   1      44.345  27.626  30.427  1.00  0.00     0.031 C 
ATOM     73  C   UNL A   1      44.761  30.095  29.809  1.00  0.00     0.037 A 
BRANCH  60  74
ATOM     74  C   UNL A   1      42.262  28.572  34.292  1.00  0.00     0.057 A 
ATOM     75  C   UNL A   1      42.548  27.270  33.839  1.00  0.00     0.134 A 
ATOM     76  C   UNL A   1      42.051  28.685  35.681  1.00  0.00     0.134 A 
ATOM     77  F   UNL A   1      42.762  27.024  32.539  1.00  0.00    -0.206 F 
ATOM     78  C   UNL A   1      42.521  26.156  34.687  1.00  0.00     0.040 A 
ATOM     79  C   UNL A   1      42.072  27.586  36.544  1.00  0.00     0.040 A 
ATOM     80  F   UNL A   1      41.712  29.835  36.273  1.00  0.00    -0.206 F 
ATOM     81  C   UNL A   1      42.271  26.311  36.044  1.00  0.00     0.006 A 
ENDBRANCH  60  74
BRANCH  61  82
ATOM     82  C   UNL A   1      43.678  25.272  26.647  1.00  0.00     0.057 A 
ATOM     83  C   UNL A   1      42.982  24.119  27.054  1.00  0.00     0.134 A 
ATOM     84  C   UNL A   1      44.356  25.170  25.421  1.00  0.00     0.134 A 
ATOM     85  F   UNL A   1      42.270  24.118  28.191  1.00  0.00    -0.206 F 
ATOM     86  C   UNL A   1      42.928  22.956  26.272  1.00  0.00     0.040 A 
ATOM     87  C   UNL A   1      44.315  24.012  24.633  1.00  0.00     0.040 A 
ATOM     88  F   UNL A   1      45.004  26.220  24.899  1.00  0.00    -0.206 F 
ATOM     89  C   UNL A   1      43.583  22.906  25.047  1.00  0.00     0.006 A 
ENDBRANCH  61  82
BRANCH  73  90
ATOM     90  C   UNL A   1      45.170  31.012  28.689  1.00  0.00     0.057 A 
ATOM     91  C   UNL A   1      44.359  31.367  27.599  1.00  0.00     0.134 A 
ATOM     92  C   UNL A   1      46.394  31.683  28.805  1.00  0.00     0.134 A 
ATOM     93  F   UNL A   1      43.131  30.856  27.446  1.00  0.00    -0.206 F 
ATOM     94  C   UNL A   1      44.770  32.314  26.653  1.00  0.00     0.040 A 
ATOM     95  C   UNL A   1      46.798  32.658  27.891  1.00  0.00     0.040 A 
ATOM     96  F   UNL A   1      47.205  31.433  29.846  1.00  0.00    -0.206 F 
ATOM     97  C   UNL A   1      45.989  32.970  26.804  1.00  0.00     0.006 A 
ENDBRANCH  73  90
ENDBRANCH  47  48
ENDBRANCH  39  42
ENDBRANCH  37  38
ENDBRANCH   1  37
TORSDOF 15
ENDMDL
MODEL 2
REMARK VINA RESULT:     -12.8      3.180      8.195
REMARK SMILES COc1cc([C@@H]2CC(NCCCNC(=O)c3ccc(-c4c5nc(c(-c6c(F)cccc6F)c6ccc([nH]6)c(-c6c(F)cccc6F)c6nc(c(-c7c(F)cccc7F)c7ccc4[nH]7)C=C6)C=C5)cc3)=[NH+]c3c(C(=O)[O-])cn(-c4ccc(Cl)cc4)c32)cc(OC)c1O
REMARK SMILES IDX 11 1 10 2 9 3 6 4 7 5 85 6 8 7 71 8 77 9 70 10 72 11 76 12
REMARK SMILES IDX 5 15 3 16 4 17 90 18 87 19 86 20 2 21 1 22 91 23 88 25 89 26
REMARK SMILES IDX 78 27 79 28 84 29 80 30 83 31 81 32 82 33 73 34 74 35 75 36
REMARK SMILES IDX 12 37 13 38 14 39 15 41 16 42 17 43 69 44 18 45 68 46 19 47
REMARK SMILES IDX 20 48 21 49 62 50 22 51 67 52 61 53 63 54 23 55 66 56 60 57
REMARK SMILES IDX 59 58 24 60 50 61 33 62 49 63 34 64 37 65 48 66 64 67 35 68
REMARK SMILES IDX 36 69 47 71 65 72 38 73 25 74 26 75 31 76 27 77 28 78 30 79
REMARK SMILES IDX 32 80 29 81 51 82 52 83 57 84 53 85 54 86 56 87 58 88 55 89
REMARK SMILES IDX 39 90 40 91 45 92 41 93 42 94 44 95 46 96 43 97
REMARK H PARENT 9 13 70 14 91 24 13 40 63 59 37 70
REMARK Flexibility Score: inf
ROOT
ATOM      1  C   UNL A   1      36.359  22.969  25.356  1.00  0.00     0.067 C 
ENDROOT
BRANCH   1   2
ATOM      2  C   UNL A   1      34.998  22.570  25.926  1.00  0.00     0.235 C 
BRANCH   2   3
ATOM      3  N   UNL A   1      34.276  23.711  26.482  1.00  0.00    -0.278 N 
ATOM      4  C   UNL A   1      31.937  26.668  25.648  1.00  0.00     0.083 C 
ATOM      5  C   UNL A   1      32.597  25.536  26.468  1.00  0.00     0.142 C 
ATOM      6  C   UNL A   1      32.062  26.379  24.185  1.00  0.00     0.078 A 
ATOM      7  C   UNL A   1      33.558  24.608  25.710  1.00  0.00     0.248 C 
ATOM      8  C   UNL A   1      32.846  25.378  23.670  1.00  0.00     0.155 A 
ATOM      9  N   UNL A   1      31.324  26.896  23.130  1.00  0.00    -0.315 N 
ATOM     10  N   UNL A   1      33.685  24.567  24.416  1.00  0.00    -0.243 N 
ATOM     11  C   UNL A   1      32.617  25.235  22.290  1.00  0.00     0.062 A 
ATOM     12  C   UNL A   1      31.632  26.166  21.997  1.00  0.00     0.106 A 
ATOM     13  H   UNL A   1      34.300  23.849  27.457  1.00  0.00     0.304 HD
ATOM     14  H   UNL A   1      34.350  23.984  23.986  1.00  0.00     0.312 HD
BRANCH   4  15
ATOM     15  C   UNL A   1      32.478  28.025  26.066  1.00  0.00    -0.031 A 
ATOM     16  C   UNL A   1      34.386  29.392  26.779  1.00  0.00     0.164 A 
ATOM     17  C   UNL A   1      33.857  28.198  26.266  1.00  0.00     0.055 A 
ATOM     18  C   UNL A   1      33.513  30.456  27.059  1.00  0.00     0.200 A 
ATOM     19  C   UNL A   1      32.133  30.322  26.817  1.00  0.00     0.164 A 
ATOM     20  C   UNL A   1      31.634  29.109  26.318  1.00  0.00     0.055 A 
BRANCH  16  21
ATOM     21  O   UNL A   1      35.741  29.312  26.950  1.00  0.00    -0.493 OA
ATOM     22  C   UNL A   1      36.326  29.539  28.221  1.00  0.00     0.278 C 
ENDBRANCH  16  21
BRANCH  18  23
ATOM     23  O   UNL A   1      33.995  31.633  27.559  1.00  0.00    -0.502 OA
ATOM     24  H   UNL A   1      34.915  31.742  27.697  1.00  0.00     0.293 HD
ENDBRANCH  18  23
BRANCH  19  25
ATOM     25  O   UNL A   1      31.138  31.246  26.995  1.00  0.00    -0.493 OA
ATOM     26  C   UNL A   1      31.015  32.317  26.075  1.00  0.00     0.278 C 
ENDBRANCH  19  25
ENDBRANCH   4  15
BRANCH   9  27
ATOM     27  C   UNL A   1      30.383  27.956  23.134  1.00  0.00     0.046 A 
ATOM     28  C   UNL A   1      30.799  29.268  22.900  1.00  0.00     0.028 A 
ATOM     29  C   UNL A   1      29.021  27.677  23.296  1.00  0.00     0.028 A 
ATOM     30  C   UNL A   1      29.874  30.315  22.924  1.00  0.00     0.022 A 
ATOM     31  C   UNL A   1      28.095  28.725  23.317  1.00  0.00     0.022 A 
ATOM     32  C   UNL A   1      28.528  30.040  23.147  1.00  0.00     0.041 A 
ATOM     33  Cl  UNL A   1      27.392  31.331  23.196  1.00  0.00    -0.084 Cl
ENDBRANCH   9  27
BRANCH  11  34
ATOM     34  C   UNL A   1      33.202  24.330  21.315  1.00  0.00     0.077 C 
ATOM     35  O   UNL A   1      33.679  23.240  21.570  1.00  0.00    -0.545 OA
ATOM     36  O   UNL A   1      33.203  24.771  20.034  1.00  0.00    -0.545 OA
ENDBRANCH  11  34
ENDBRANCH   2   3
ENDBRANCH   1   2
BRANCH   1  37
ATOM     37  C   UNL A   1      37.387  23.274  26.433  1.00  0.00     0.120 C 
BRANCH  37  38
ATOM     38  N   UNL A   1      38.528  22.358  26.444  1.00  0.00    -0.352 N 
ATOM     39  C   UNL A   1      39.870  22.672  26.545  1.00  0.00     0.251 C 
ATOM     40  H   UNL A   1      38.314  21.401  26.369  1.00  0.00     0.163 HD
ATOM     41  O   UNL A   1      40.723  21.859  26.205  1.00  0.00    -0.269 OA
BRANCH  39  42
ATOM     42  C   UNL A   1      40.275  23.997  27.061  1.00  0.00     0.039 A 
ATOM     43  C   UNL A   1      39.775  25.168  26.485  1.00  0.00     0.014 A 
ATOM     44  C   UNL A   1      41.169  24.072  28.129  1.00  0.00     0.014 A 
ATOM     45  C   UNL A   1      40.123  26.395  27.047  1.00  0.00     0.010 A 
ATOM     46  C   UNL A   1      41.395  25.267  28.774  1.00  0.00     0.010 A 
ATOM     47  C   UNL A   1      40.909  26.438  28.218  1.00  0.00    -0.014 A 
BRANCH  47  48
ATOM     48  C   UNL A   1      41.065  27.694  28.949  1.00  0.00     0.031 A 
ATOM     49  C   UNL A   1      42.237  28.482  28.485  1.00  0.00     0.074 A 
ATOM     50  C   UNL A   1      40.184  28.212  29.835  1.00  0.00     0.049 A 
ATOM     51  N   UNL A   1      43.345  28.651  29.123  1.00  0.00    -0.248 NA
ATOM     52  C   UNL A   1      42.265  28.974  27.098  1.00  0.00     0.031 C 
ATOM     53  C   UNL A   1      38.844  27.734  30.181  1.00  0.00     0.029 A 
ATOM     54  N   UNL A   1      40.287  29.351  30.581  1.00  0.00    -0.354 N 
ATOM     55  C   UNL A   1      44.128  29.469  28.318  1.00  0.00     0.074 A 
ATOM     56  C   UNL A   1      43.503  29.470  27.021  1.00  0.00     0.031 C 
ATOM     57  C   UNL A   1      38.184  28.686  30.880  1.00  0.00     0.029 A 
ATOM     58  C   UNL A   1      39.099  29.775  31.176  1.00  0.00     0.049 A 
ATOM     59  H   UNL A   1      41.137  29.837  30.691  1.00  0.00     0.167 HD
ATOM     60  C   UNL A   1      45.064  30.280  28.882  1.00  0.00     0.037 A 
ATOM     61  C   UNL A   1      38.887  30.939  31.848  1.00  0.00     0.037 A 
ATOM     62  C   UNL A   1      45.376  29.840  30.224  1.00  0.00     0.049 A 
ATOM     63  C   UNL A   1      40.213  31.451  32.274  1.00  0.00     0.074 A 
ATOM     64  C   UNL A   1      45.807  28.646  30.775  1.00  0.00     0.029 A 
ATOM     65  N   UNL A   1      44.853  30.559  31.273  1.00  0.00    -0.354 N 
ATOM     66  N   UNL A   1      40.949  30.883  33.187  1.00  0.00    -0.248 NA
ATOM     67  C   UNL A   1      40.920  32.316  31.343  1.00  0.00     0.031 C 
ATOM     68  C   UNL A   1      45.059  28.506  31.981  1.00  0.00     0.029 A 
ATOM     69  C   UNL A   1      44.300  29.663  32.151  1.00  0.00     0.049 A 
ATOM     70  H   UNL A   1      44.872  31.538  31.374  1.00  0.00     0.167 HD
ATOM     71  C   UNL A   1      42.231  30.923  32.664  1.00  0.00     0.074 A 
ATOM     72  C   UNL A   1      42.164  31.882  31.561  1.00  0.00     0.031 C 
ATOM     73  C   UNL A   1      43.150  29.962  32.971  1.00  0.00     0.037 A 
BRANCH  60  74
ATOM     74  C   UNL A   1      45.357  31.685  28.408  1.00  0.00     0.057 A 
ATOM     75  C   UNL A   1      46.699  32.065  28.214  1.00  0.00     0.134 A 
ATOM     76  C   UNL A   1      44.436  32.751  28.436  1.00  0.00     0.134 A 
ATOM     77  F   UNL A   1      47.676  31.147  28.174  1.00  0.00    -0.206 F 
ATOM     78  C   UNL A   1      47.101  33.405  28.159  1.00  0.00     0.040 A 
ATOM     79  C   UNL A   1      44.822  34.090  28.331  1.00  0.00     0.040 A 
ATOM     80  F   UNL A   1      43.131  32.578  28.669  1.00  0.00    -0.206 F 
ATOM     81  C   UNL A   1      46.161  34.424  28.229  1.00  0.00     0.006 A 
ENDBRANCH  60  74
BRANCH  61  82
ATOM     82  C   UNL A   1      37.677  31.798  31.921  1.00  0.00     0.057 A 
ATOM     83  C   UNL A   1      37.091  32.329  30.756  1.00  0.00     0.134 A 
ATOM     84  C   UNL A   1      36.888  31.866  33.081  1.00  0.00     0.134 A 
ATOM     85  F   UNL A   1      37.741  32.282  29.584  1.00  0.00    -0.206 F 
ATOM     86  C   UNL A   1      35.789  32.851  30.739  1.00  0.00     0.040 A 
ATOM     87  C   UNL A   1      35.590  32.391  33.078  1.00  0.00     0.040 A 
ATOM     88  F   UNL A   1      37.313  31.340  34.238  1.00  0.00    -0.206 F 
ATOM     89  C   UNL A   1      35.027  32.868  31.901  1.00  0.00     0.006 A 
ENDBRANCH  61  82
BRANCH  73  90
ATOM     90  C   UNL A   1      42.857  29.014  34.102  1.00  0.00     0.057 A 
ATOM     91  C   UNL A   1      42.066  27.858  34.002  1.00  0.00     0.134 A 
ATOM     92  C   UNL A   1      43.535  29.208  35.313  1.00  0.00     0.134 A 
ATOM     93  F   UNL A   1      41.452  27.528  32.859  1.00  0.00    -0.206 F 
ATOM     94  C   UNL A   1      41.930  26.965  35.072  1.00  0.00     0.040 A 
ATOM     95  C   UNL A   1      43.439  28.304  36.372  1.00  0.00     0.040 A 
ATOM     96  F   UNL A   1      44.347  30.267  35.469  1.00  0.00    -0.206 F 
ATOM     97  C   UNL A   1      42.626  27.182  36.258  1.00  0.00     0.006 A 
ENDBRANCH  73  90
ENDBRANCH  47  48
ENDBRANCH  39  42
ENDBRANCH  37  38
ENDBRANCH   1  37
TORSDOF 15
ENDMDL
MODEL 3
REMARK VINA RESULT:     -12.5      5.629      9.865
REMARK SMILES COc1cc([C@@H]2CC(NCCCNC(=O)c3ccc(-c4c5nc(c(-c6c(F)cccc6F)c6ccc([nH]6)c(-c6c(F)cccc6F)c6nc(c(-c7c(F)cccc7F)c7ccc4[nH]7)C=C6)C=C5)cc3)=[NH+]c3c(C(=O)[O-])cn(-c4ccc(Cl)cc4)c32)cc(OC)c1O
REMARK SMILES IDX 11 1 10 2 9 3 6 4 7 5 85 6 8 7 71 8 77 9 70 10 72 11 76 12
REMARK SMILES IDX 5 15 3 16 4 17 90 18 87 19 86 20 2 21 1 22 91 23 88 25 89 26
REMARK SMILES IDX 78 27 79 28 84 29 80 30 83 31 81 32 82 33 73 34 74 35 75 36
REMARK SMILES IDX 12 37 13 38 14 39 15 41 16 42 17 43 69 44 18 45 68 46 19 47
REMARK SMILES IDX 20 48 21 49 62 50 22 51 67 52 61 53 63 54 23 55 66 56 60 57
REMARK SMILES IDX 59 58 24 60 50 61 33 62 49 63 34 64 37 65 48 66 64 67 35 68
REMARK SMILES IDX 36 69 47 71 65 72 38 73 25 74 26 75 31 76 27 77 28 78 30 79
REMARK SMILES IDX 32 80 29 81 51 82 52 83 57 84 53 85 54 86 56 87 58 88 55 89
REMARK SMILES IDX 39 90 40 91 45 92 41 93 42 94 44 95 46 96 43 97
REMARK H PARENT 9 13 70 14 91 24 13 40 63 59 37 70
REMARK Flexibility Score: inf
ROOT
ATOM      1  C   UNL A   1      45.373  32.738  26.490  1.00  0.00     0.067 C 
ENDROOT
BRANCH   1   2
ATOM      2  C   UNL A   1      44.369  31.801  27.161  1.00  0.00     0.235 C 
BRANCH   2   3
ATOM      3  N   UNL A   1      44.065  30.635  26.336  1.00  0.00    -0.278 N 
ATOM      4  C   UNL A   1      43.079  26.903  26.401  1.00  0.00     0.083 C 
ATOM      5  C   UNL A   1      43.188  28.359  25.893  1.00  0.00     0.142 C 
ATOM      6  C   UNL A   1      43.238  26.866  27.888  1.00  0.00     0.078 A 
ATOM      7  C   UNL A   1      43.812  29.379  26.857  1.00  0.00     0.248 C 
ATOM      8  C   UNL A   1      43.647  27.940  28.637  1.00  0.00     0.155 A 
ATOM      9  N   UNL A   1      42.855  25.875  28.780  1.00  0.00    -0.315 N 
ATOM     10  N   UNL A   1      44.047  29.161  28.118  1.00  0.00    -0.243 N 
ATOM     11  C   UNL A   1      43.525  27.658  30.010  1.00  0.00     0.062 A 
ATOM     12  C   UNL A   1      42.987  26.381  30.061  1.00  0.00     0.106 A 
ATOM     13  H   UNL A   1      44.038  30.749  25.358  1.00  0.00     0.304 HD
ATOM     14  H   UNL A   1      44.491  29.835  28.679  1.00  0.00     0.312 HD
BRANCH   4  15
ATOM     15  C   UNL A   1      44.036  25.994  25.647  1.00  0.00    -0.031 A 
ATOM     16  C   UNL A   1      44.467  23.826  24.583  1.00  0.00     0.164 A 
ATOM     17  C   UNL A   1      43.590  24.753  25.165  1.00  0.00     0.055 A 
ATOM     18  C   UNL A   1      45.821  24.170  24.440  1.00  0.00     0.200 A 
ATOM     19  C   UNL A   1      46.280  25.430  24.869  1.00  0.00     0.164 A 
ATOM     20  C   UNL A   1      45.380  26.328  25.463  1.00  0.00     0.055 A 
BRANCH  16  21
ATOM     21  O   UNL A   1      43.826  22.665  24.247  1.00  0.00    -0.493 OA
ATOM     22  C   UNL A   1      43.877  21.536  25.101  1.00  0.00     0.278 C 
ENDBRANCH  16  21
BRANCH  18  23
ATOM     23  O   UNL A   1      46.703  23.292  23.877  1.00  0.00    -0.502 OA
ATOM     24  H   UNL A   1      46.722  23.178  22.948  1.00  0.00     0.293 HD
ENDBRANCH  18  23
BRANCH  19  25
ATOM     25  O   UNL A   1      47.543  25.955  24.790  1.00  0.00    -0.493 OA
ATOM     26  C   UNL A   1      48.477  25.667  25.816  1.00  0.00     0.278 C 
ENDBRANCH  19  25
ENDBRANCH   4  15
BRANCH   9  27
ATOM     27  C   UNL A   1      42.376  24.569  28.511  1.00  0.00     0.046 A 
ATOM     28  C   UNL A   1      41.104  24.383  27.968  1.00  0.00     0.028 A 
ATOM     29  C   UNL A   1      43.211  23.464  28.720  1.00  0.00     0.028 A 
ATOM     30  C   UNL A   1      40.623  23.095  27.723  1.00  0.00     0.022 A 
ATOM     31  C   UNL A   1      42.730  22.175  28.471  1.00  0.00     0.022 A 
ATOM     32  C   UNL A   1      41.434  21.995  27.989  1.00  0.00     0.041 A 
ATOM     33  Cl  UNL A   1      40.835  20.408  27.705  1.00  0.00    -0.084 Cl
ENDBRANCH   9  27
BRANCH  11  34
ATOM     34  C   UNL A   1      43.831  28.463  31.179  1.00  0.00     0.077 C 
ATOM     35  O   UNL A   1      44.283  28.035  32.225  1.00  0.00    -0.545 OA
ATOM     36  O   UNL A   1      43.576  29.788  31.061  1.00  0.00    -0.545 OA
ENDBRANCH  11  34
ENDBRANCH   2   3
ENDBRANCH   1   2
BRANCH   1  37
ATOM     37  C   UNL A   1      44.886  34.176  26.421  1.00  0.00     0.120 C 
BRANCH  37  38
ATOM     38  N   UNL A   1      45.760  35.135  27.098  1.00  0.00    -0.352 N 
ATOM     39  C   UNL A   1      45.473  35.918  28.200  1.00  0.00     0.251 C 
ATOM     40  H   UNL A   1      46.664  35.234  26.722  1.00  0.00     0.163 HD
ATOM     41  O   UNL A   1      46.157  36.905  28.452  1.00  0.00    -0.269 OA
BRANCH  39  42
ATOM     42  C   UNL A   1      44.332  35.566  29.071  1.00  0.00     0.039 A 
ATOM     43  C   UNL A   1      43.116  36.245  28.961  1.00  0.00     0.014 A 
ATOM     44  C   UNL A   1      44.479  34.549  30.013  1.00  0.00     0.014 A 
ATOM     45  C   UNL A   1      42.043  35.834  29.749  1.00  0.00     0.010 A 
ATOM     46  C   UNL A   1      43.386  34.046  30.682  1.00  0.00     0.010 A 
ATOM     47  C   UNL A   1      42.173  34.707  30.587  1.00  0.00    -0.014 A 
BRANCH  47  48
ATOM     48  C   UNL A   1      40.990  34.123  31.217  1.00  0.00     0.031 A 
ATOM     49  C   UNL A   1      41.147  33.965  32.687  1.00  0.00     0.074 A 
ATOM     50  C   UNL A   1      39.802  33.889  30.614  1.00  0.00     0.049 A 
ATOM     51  N   UNL A   1      41.315  32.857  33.324  1.00  0.00    -0.248 NA
ATOM     52  C   UNL A   1      41.330  35.166  33.520  1.00  0.00     0.031 C 
ATOM     53  C   UNL A   1      39.370  34.262  29.266  1.00  0.00     0.029 A 
ATOM     54  N   UNL A   1      38.679  33.310  31.130  1.00  0.00    -0.354 N 
ATOM     55  C   UNL A   1      41.390  33.196  34.669  1.00  0.00     0.074 A 
ATOM     56  C   UNL A   1      41.592  34.621  34.711  1.00  0.00     0.031 C 
ATOM     57  C   UNL A   1      38.029  34.109  29.157  1.00  0.00     0.029 A 
ATOM     58  C   UNL A   1      37.526  33.475  30.363  1.00  0.00     0.049 A 
ATOM     59  H   UNL A   1      38.682  32.812  31.980  1.00  0.00     0.167 HD
ATOM     60  C   UNL A   1      41.004  32.299  35.617  1.00  0.00     0.037 A 
ATOM     61  C   UNL A   1      36.255  33.127  30.704  1.00  0.00     0.037 A 
ATOM     62  C   UNL A   1      40.969  30.962  35.068  1.00  0.00     0.049 A 
ATOM     63  C   UNL A   1      36.350  32.113  31.783  1.00  0.00     0.074 A 
ATOM     64  C   UNL A   1      41.888  30.160  34.414  1.00  0.00     0.029 A 
ATOM     65  N   UNL A   1      39.739  30.420  34.778  1.00  0.00    -0.354 N 
ATOM     66  N   UNL A   1      36.793  30.902  31.601  1.00  0.00    -0.248 NA
ATOM     67  C   UNL A   1      36.401  32.603  33.151  1.00  0.00     0.031 C 
ATOM     68  C   UNL A   1      41.147  29.525  33.373  1.00  0.00     0.029 A 
ATOM     69  C   UNL A   1      39.809  29.890  33.516  1.00  0.00     0.049 A 
ATOM     70  H   UNL A   1      38.952  30.414  35.369  1.00  0.00     0.167 HD
ATOM     71  C   UNL A   1      37.605  30.668  32.698  1.00  0.00     0.074 A 
ATOM     72  C   UNL A   1      37.268  31.721  33.655  1.00  0.00     0.031 C 
ATOM     73  C   UNL A   1      38.683  29.834  32.614  1.00  0.00     0.037 A 
BRANCH  60  74
ATOM     74  C   UNL A   1      40.253  32.672  36.874  1.00  0.00     0.057 A 
ATOM     75  C   UNL A   1      39.068  33.423  36.754  1.00  0.00     0.134 A 
ATOM     76  C   UNL A   1      40.784  32.606  38.177  1.00  0.00     0.134 A 
ATOM     77  F   UNL A   1      38.463  33.571  35.566  1.00  0.00    -0.206 F 
ATOM     78  C   UNL A   1      38.518  34.137  37.825  1.00  0.00     0.040 A 
ATOM     79  C   UNL A   1      40.214  33.273  39.264  1.00  0.00     0.040 A 
ATOM     80  F   UNL A   1      41.934  31.985  38.462  1.00  0.00    -0.206 F 
ATOM     81  C   UNL A   1      39.098  34.072  39.084  1.00  0.00     0.006 A 
ENDBRANCH  60  74
BRANCH  61  82
ATOM     82  C   UNL A   1      34.962  33.786  30.385  1.00  0.00     0.057 A 
ATOM     83  C   UNL A   1      34.491  34.870  31.147  1.00  0.00     0.134 A 
ATOM     84  C   UNL A   1      34.314  33.581  29.156  1.00  0.00     0.134 A 
ATOM     85  F   UNL A   1      35.062  35.179  32.320  1.00  0.00    -0.206 F 
ATOM     86  C   UNL A   1      33.471  35.722  30.696  1.00  0.00     0.040 A 
ATOM     87  C   UNL A   1      33.290  34.420  28.697  1.00  0.00     0.040 A 
ATOM     88  F   UNL A   1      34.712  32.617  28.315  1.00  0.00    -0.206 F 
ATOM     89  C   UNL A   1      32.878  35.507  29.458  1.00  0.00     0.006 A 
ENDBRANCH  61  82
BRANCH  73  90
ATOM     90  C   UNL A   1      38.822  28.948  31.406  1.00  0.00     0.057 A 
ATOM     91  C   UNL A   1      39.331  29.355  30.162  1.00  0.00     0.134 A 
ATOM     92  C   UNL A   1      38.566  27.580  31.563  1.00  0.00     0.134 A 
ATOM     93  F   UNL A   1      39.699  30.622  29.937  1.00  0.00    -0.206 F 
ATOM     94  C   UNL A   1      39.534  28.444  29.117  1.00  0.00     0.040 A 
ATOM     95  C   UNL A   1      38.802  26.657  30.543  1.00  0.00     0.040 A 
ATOM     96  F   UNL A   1      38.122  27.107  32.740  1.00  0.00    -0.206 F 
ATOM     97  C   UNL A   1      39.278  27.090  29.310  1.00  0.00     0.006 A 
ENDBRANCH  73  90
ENDBRANCH  47  48
ENDBRANCH  39  42
ENDBRANCH  37  38
ENDBRANCH   1  37
TORSDOF 15
ENDMDL
