MODEL 1
REMARK VINA RESULT:      -7.7      0.000      0.000
REMARK SMILES CC/C=C/C/C=C/C/C=C/C/C=C/CCSCCCC(=O)NCCCNC(=O)c1ccc(-c2c3nc(c(-c4c(F)cccc4F)c4ccc([nH]4)c(-c4c(F)cccc4F)c4nc(c(-c5c(F)cccc5F)c5ccc2[nH]5)C=C4)C=C3)cc1
REMARK SMILES IDX 17 1 16 2 15 3 14 4 13 5 12 6 11 7 10 8 9 9 8 10 7 11 6 12
REMARK SMILES IDX 5 13 4 14 3 15 2 16 1 17 18 18 19 19 20 20 21 21 22 22 23 24
REMARK SMILES IDX 24 25 25 26 26 27 27 28 28 30 29 31 30 32 82 33 31 34 81 35
REMARK SMILES IDX 32 36 33 37 34 38 75 39 35 40 80 41 74 42 76 43 36 44 79 45
REMARK SMILES IDX 73 46 72 47 37 49 63 50 46 51 62 52 47 53 50 54 61 55 77 56
REMARK SMILES IDX 48 57 49 58 60 60 78 61 51 62 38 63 39 64 44 65 40 66 41 67
REMARK SMILES IDX 43 68 45 69 42 70 64 71 65 72 70 73 66 74 67 75 69 76 71 77
REMARK SMILES IDX 68 78 52 79 53 80 58 81 54 82 55 83 57 84 59 85 56 86
REMARK H PARENT 22 23 26 29 76 48 50 59
REMARK Flexibility Score: inf
ROOT
ATOM      1  C   UNL A   1      34.768  35.540  32.274  1.00  0.00     0.070 C 
ENDROOT
BRANCH   1   2
ATOM      2  S   UNL A   1      36.308  34.550  32.520  1.00  0.00    -0.162 SA
BRANCH   2   3
ATOM      3  C   UNL A   1      36.967  33.994  30.893  1.00  0.00     0.073 C 
BRANCH   3   4
ATOM      4  C   UNL A   1      38.062  32.892  30.897  1.00  0.00     0.038 C 
BRANCH   4   5
ATOM      5  C   UNL A   1      38.432  32.361  32.261  1.00  0.00    -0.030 C 
ATOM      6  C   UNL A   1      38.266  31.100  32.699  1.00  0.00    -0.027 C 
BRANCH   6   7
ATOM      7  C   UNL A   1      38.911  30.511  33.940  1.00  0.00     0.054 C 
BRANCH   7   8
ATOM      8  C   UNL A   1      39.976  29.472  33.720  1.00  0.00    -0.027 C 
ATOM      9  C   UNL A   1      41.246  29.791  33.415  1.00  0.00    -0.027 C 
BRANCH   9  10
ATOM     10  C   UNL A   1      42.324  28.790  33.102  1.00  0.00     0.054 C 
BRANCH  10  11
ATOM     11  C   UNL A   1      42.328  27.742  34.176  1.00  0.00    -0.027 C 
ATOM     12  C   UNL A   1      42.989  26.577  34.103  1.00  0.00    -0.027 C 
BRANCH  12  13
ATOM     13  C   UNL A   1      42.821  25.467  35.100  1.00  0.00     0.054 C 
BRANCH  13  14
ATOM     14  C   UNL A   1      43.834  24.393  34.828  1.00  0.00    -0.027 C 
ATOM     15  C   UNL A   1      43.558  23.080  34.810  1.00  0.00    -0.031 C 
BRANCH  15  16
ATOM     16  C   UNL A   1      44.598  22.013  34.632  1.00  0.00     0.023 C 
ATOM     17  C   UNL A   1      45.372  21.800  35.924  1.00  0.00     0.008 C 
ENDBRANCH  15  16
ENDBRANCH  13  14
ENDBRANCH  12  13
ENDBRANCH  10  11
ENDBRANCH   9  10
ENDBRANCH   7   8
ENDBRANCH   6   7
ENDBRANCH   4   5
ENDBRANCH   3   4
ENDBRANCH   2   3
ENDBRANCH   1   2
BRANCH   1  18
ATOM     18  C   UNL A   1      33.411  35.001  31.824  1.00  0.00     0.021 C 
BRANCH  18  19
ATOM     19  C   UNL A   1      32.533  35.829  30.903  1.00  0.00     0.101 C 
BRANCH  19  20
ATOM     20  C   UNL A   1      33.098  36.320  29.582  1.00  0.00     0.220 C 
ATOM     21  O   UNL A   1      33.454  37.495  29.462  1.00  0.00    -0.275 OA
ATOM     22  N   UNL A   1      33.307  35.505  28.518  1.00  0.00    -0.356 N 
ATOM     23  H   UNL A   1      33.627  35.970  27.711  1.00  0.00     0.163 HD
BRANCH  22  24
ATOM     24  C   UNL A   1      33.147  34.077  28.354  1.00  0.00     0.117 C 
BRANCH  24  25
ATOM     25  C   UNL A   1      34.475  33.373  28.130  1.00  0.00     0.042 C 
BRANCH  25  26
ATOM     26  C   UNL A   1      34.631  32.195  29.076  1.00  0.00     0.118 C 
BRANCH  26  27
ATOM     27  N   UNL A   1      34.183  30.931  28.495  1.00  0.00    -0.352 N 
ATOM     28  C   UNL A   1      34.959  29.837  28.149  1.00  0.00     0.251 C 
ATOM     29  H   UNL A   1      33.216  30.847  28.328  1.00  0.00     0.163 HD
ATOM     30  O   UNL A   1      34.494  28.880  27.562  1.00  0.00    -0.269 OA
BRANCH  28  31
ATOM     31  C   UNL A   1      36.397  29.899  28.487  1.00  0.00     0.039 A 
ATOM     32  C   UNL A   1      36.854  29.296  29.660  1.00  0.00     0.014 A 
ATOM     33  C   UNL A   1      37.291  30.393  27.537  1.00  0.00     0.014 A 
ATOM     34  C   UNL A   1      38.225  29.084  29.828  1.00  0.00     0.010 A 
ATOM     35  C   UNL A   1      38.636  30.078  27.656  1.00  0.00     0.010 A 
ATOM     36  C   UNL A   1      39.118  29.414  28.797  1.00  0.00    -0.014 A 
BRANCH  36  37
ATOM     37  C   UNL A   1      40.568  29.094  28.855  1.00  0.00     0.031 A 
ATOM     38  C   UNL A   1      41.029  27.735  28.408  1.00  0.00     0.074 A 
ATOM     39  C   UNL A   1      41.437  29.942  29.439  1.00  0.00     0.049 A 
ATOM     40  N   UNL A   1      42.175  27.138  28.606  1.00  0.00    -0.248 NA
ATOM     41  C   UNL A   1      40.034  26.911  27.702  1.00  0.00     0.031 C 
ATOM     42  C   UNL A   1      41.112  31.266  29.971  1.00  0.00     0.029 A 
ATOM     43  N   UNL A   1      42.774  29.795  29.717  1.00  0.00    -0.354 N 
ATOM     44  C   UNL A   1      42.016  25.853  28.105  1.00  0.00     0.074 A 
ATOM     45  C   UNL A   1      40.649  25.741  27.646  1.00  0.00     0.031 C 
ATOM     46  C   UNL A   1      42.218  31.813  30.501  1.00  0.00     0.029 A 
ATOM     47  C   UNL A   1      43.319  30.861  30.392  1.00  0.00     0.049 A 
ATOM     48  H   UNL A   1      43.293  28.999  29.458  1.00  0.00     0.167 HD
ATOM     49  C   UNL A   1      42.932  24.860  28.014  1.00  0.00     0.037 A 
ATOM     50  C   UNL A   1      44.559  31.042  30.885  1.00  0.00     0.037 A 
ATOM     51  C   UNL A   1      44.307  25.002  28.407  1.00  0.00     0.049 A 
ATOM     52  C   UNL A   1      45.582  29.954  30.718  1.00  0.00     0.074 A 
ATOM     53  C   UNL A   1      45.342  24.096  28.270  1.00  0.00     0.029 A 
ATOM     54  N   UNL A   1      44.840  26.136  29.005  1.00  0.00    -0.354 N 
ATOM     55  N   UNL A   1      45.440  28.763  30.191  1.00  0.00    -0.248 NA
ATOM     56  C   UNL A   1      46.940  30.234  31.210  1.00  0.00     0.031 C 
ATOM     57  C   UNL A   1      46.497  24.670  28.811  1.00  0.00     0.029 A 
ATOM     58  C   UNL A   1      46.189  25.948  29.250  1.00  0.00     0.049 A 
ATOM     59  H   UNL A   1      44.333  26.952  29.223  1.00  0.00     0.167 HD
ATOM     60  C   UNL A   1      46.688  28.160  30.262  1.00  0.00     0.074 A 
ATOM     61  C   UNL A   1      47.580  29.119  30.881  1.00  0.00     0.031 C 
ATOM     62  C   UNL A   1      47.063  26.924  29.850  1.00  0.00     0.037 A 
BRANCH  49  63
ATOM     63  C   UNL A   1      42.464  23.545  27.464  1.00  0.00     0.057 A 
ATOM     64  C   UNL A   1      42.361  23.310  26.086  1.00  0.00     0.134 A 
ATOM     65  C   UNL A   1      42.090  22.505  28.325  1.00  0.00     0.134 A 
ATOM     66  F   UNL A   1      42.688  24.269  25.207  1.00  0.00    -0.206 F 
ATOM     67  C   UNL A   1      41.855  22.109  25.585  1.00  0.00     0.040 A 
ATOM     68  C   UNL A   1      41.615  21.287  27.835  1.00  0.00     0.040 A 
ATOM     69  F   UNL A   1      42.170  22.659  29.655  1.00  0.00    -0.206 F 
ATOM     70  C   UNL A   1      41.484  21.092  26.462  1.00  0.00     0.006 A 
ENDBRANCH  49  63
BRANCH  50  71
ATOM     71  C   UNL A   1      44.901  32.316  31.565  1.00  0.00     0.057 A 
ATOM     72  C   UNL A   1      45.340  33.426  30.833  1.00  0.00     0.134 A 
ATOM     73  C   UNL A   1      44.768  32.469  32.951  1.00  0.00     0.134 A 
ATOM     74  F   UNL A   1      45.503  33.336  29.506  1.00  0.00    -0.206 F 
ATOM     75  C   UNL A   1      45.641  34.639  31.455  1.00  0.00     0.040 A 
ATOM     76  C   UNL A   1      45.045  33.683  33.582  1.00  0.00     0.040 A 
ATOM     77  F   UNL A   1      44.341  31.446  33.706  1.00  0.00    -0.206 F 
ATOM     78  C   UNL A   1      45.487  34.771  32.833  1.00  0.00     0.006 A 
ENDBRANCH  50  71
BRANCH  62  79
ATOM     79  C   UNL A   1      48.504  26.546  30.010  1.00  0.00     0.057 A 
ATOM     80  C   UNL A   1      49.461  26.854  29.037  1.00  0.00     0.134 A 
ATOM     81  C   UNL A   1      48.949  25.942  31.194  1.00  0.00     0.134 A 
ATOM     82  F   UNL A   1      49.094  27.423  27.879  1.00  0.00    -0.206 F 
ATOM     83  C   UNL A   1      50.814  26.574  29.235  1.00  0.00     0.040 A 
ATOM     84  C   UNL A   1      50.301  25.676  31.411  1.00  0.00     0.040 A 
ATOM     85  F   UNL A   1      48.079  25.629  32.167  1.00  0.00    -0.206 F 
ATOM     86  C   UNL A   1      51.238  25.993  30.431  1.00  0.00     0.006 A 
ENDBRANCH  62  79
ENDBRANCH  36  37
ENDBRANCH  28  31
ENDBRANCH  26  27
ENDBRANCH  25  26
ENDBRANCH  24  25
ENDBRANCH  22  24
ENDBRANCH  19  20
ENDBRANCH  18  19
ENDBRANCH   1  18
TORSDOF 23
ENDMDL
MODEL 2
REMARK VINA RESULT:      -7.7      5.234     10.495
REMARK SMILES CC/C=C/C/C=C/C/C=C/C/C=C/CCSCCCC(=O)NCCCNC(=O)c1ccc(-c2c3nc(c(-c4c(F)cccc4F)c4ccc([nH]4)c(-c4c(F)cccc4F)c4nc(c(-c5c(F)cccc5F)c5ccc2[nH]5)C=C4)C=C3)cc1
REMARK SMILES IDX 17 1 16 2 15 3 14 4 13 5 12 6 11 7 10 8 9 9 8 10 7 11 6 12
REMARK SMILES IDX 5 13 4 14 3 15 2 16 1 17 18 18 19 19 20 20 21 21 22 22 23 24
REMARK SMILES IDX 24 25 25 26 26 27 27 28 28 30 29 31 30 32 82 33 31 34 81 35
REMARK SMILES IDX 32 36 33 37 34 38 75 39 35 40 80 41 74 42 76 43 36 44 79 45
REMARK SMILES IDX 73 46 72 47 37 49 63 50 46 51 62 52 47 53 50 54 61 55 77 56
REMARK SMILES IDX 48 57 49 58 60 60 78 61 51 62 38 63 39 64 44 65 40 66 41 67
REMARK SMILES IDX 43 68 45 69 42 70 64 71 65 72 70 73 66 74 67 75 69 76 71 77
REMARK SMILES IDX 68 78 52 79 53 80 58 81 54 82 55 83 57 84 59 85 56 86
REMARK H PARENT 22 23 26 29 76 48 50 59
REMARK Flexibility Score: inf
ROOT
ATOM      1  C   UNL A   1      39.391  29.169  27.596  1.00  0.00     0.070 C 
ENDROOT
BRANCH   1   2
ATOM      2  S   UNL A   1      38.599  28.541  29.143  1.00  0.00    -0.162 SA
BRANCH   2   3
ATOM      3  C   UNL A   1      37.347  29.749  29.746  1.00  0.00     0.073 C 
BRANCH   3   4
ATOM      4  C   UNL A   1      36.686  30.687  28.698  1.00  0.00     0.038 C 
BRANCH   4   5
ATOM      5  C   UNL A   1      35.356  30.213  28.165  1.00  0.00    -0.030 C 
ATOM      6  C   UNL A   1      35.164  29.298  27.198  1.00  0.00    -0.027 C 
BRANCH   6   7
ATOM      7  C   UNL A   1      33.845  28.613  26.886  1.00  0.00     0.054 C 
BRANCH   7   8
ATOM      8  C   UNL A   1      33.243  28.889  25.536  1.00  0.00    -0.027 C 
ATOM      9  C   UNL A   1      33.786  28.433  24.394  1.00  0.00    -0.027 C 
BRANCH   9  10
ATOM     10  C   UNL A   1      33.271  28.753  23.018  1.00  0.00     0.054 C 
BRANCH  10  11
ATOM     11  C   UNL A   1      31.782  28.926  23.095  1.00  0.00    -0.027 C 
ATOM     12  C   UNL A   1      30.887  27.977  22.782  1.00  0.00    -0.027 C 
BRANCH  12  13
ATOM     13  C   UNL A   1      29.411  28.235  22.681  1.00  0.00     0.054 C 
BRANCH  13  14
ATOM     14  C   UNL A   1      29.139  29.689  22.938  1.00  0.00    -0.027 C 
ATOM     15  C   UNL A   1      27.936  30.185  23.268  1.00  0.00    -0.031 C 
BRANCH  15  16
ATOM     16  C   UNL A   1      27.658  31.651  23.429  1.00  0.00     0.023 C 
ATOM     17  C   UNL A   1      28.680  32.478  22.663  1.00  0.00     0.008 C 
ENDBRANCH  15  16
ENDBRANCH  13  14
ENDBRANCH  12  13
ENDBRANCH  10  11
ENDBRANCH   9  10
ENDBRANCH   7   8
ENDBRANCH   6   7
ENDBRANCH   4   5
ENDBRANCH   3   4
ENDBRANCH   2   3
ENDBRANCH   1   2
BRANCH   1  18
ATOM     18  C   UNL A   1      40.778  28.796  27.077  1.00  0.00     0.021 C 
BRANCH  18  19
ATOM     19  C   UNL A   1      41.260  27.359  27.164  1.00  0.00     0.101 C 
BRANCH  19  20
ATOM     20  C   UNL A   1      41.105  26.450  25.958  1.00  0.00     0.220 C 
ATOM     21  O   UNL A   1      41.752  26.672  24.931  1.00  0.00    -0.275 OA
ATOM     22  N   UNL A   1      40.332  25.336  25.966  1.00  0.00    -0.356 N 
ATOM     23  H   UNL A   1      40.283  24.873  25.099  1.00  0.00     0.163 HD
BRANCH  22  24
ATOM     24  C   UNL A   1      39.566  24.704  27.017  1.00  0.00     0.117 C 
BRANCH  24  25
ATOM     25  C   UNL A   1      40.064  23.302  27.326  1.00  0.00     0.042 C 
BRANCH  25  26
ATOM     26  C   UNL A   1      41.458  23.341  27.928  1.00  0.00     0.118 C 
BRANCH  26  27
ATOM     27  N   UNL A   1      42.362  22.353  27.342  1.00  0.00    -0.352 N 
ATOM     28  C   UNL A   1      43.553  22.587  26.675  1.00  0.00     0.251 C 
ATOM     29  H   UNL A   1      42.093  21.410  27.431  1.00  0.00     0.163 HD
ATOM     30  O   UNL A   1      44.166  21.694  26.125  1.00  0.00    -0.269 OA
BRANCH  28  31
ATOM     31  C   UNL A   1      44.030  23.986  26.620  1.00  0.00     0.039 A 
ATOM     32  C   UNL A   1      44.498  24.597  27.785  1.00  0.00     0.014 A 
ATOM     33  C   UNL A   1      44.177  24.599  25.377  1.00  0.00     0.014 A 
ATOM     34  C   UNL A   1      45.225  25.786  27.684  1.00  0.00     0.010 A 
ATOM     35  C   UNL A   1      44.994  25.713  25.272  1.00  0.00     0.010 A 
ATOM     36  C   UNL A   1      45.534  26.317  26.422  1.00  0.00    -0.014 A 
BRANCH  36  37
ATOM     37  C   UNL A   1      46.413  27.500  26.238  1.00  0.00     0.031 A 
ATOM     38  C   UNL A   1      47.890  27.285  26.055  1.00  0.00     0.074 A 
ATOM     39  C   UNL A   1      45.927  28.748  26.389  1.00  0.00     0.049 A 
ATOM     40  N   UNL A   1      48.872  28.143  26.140  1.00  0.00    -0.248 NA
ATOM     41  C   UNL A   1      48.320  25.898  25.812  1.00  0.00     0.031 C 
ATOM     42  C   UNL A   1      44.526  29.095  26.632  1.00  0.00     0.029 A 
ATOM     43  N   UNL A   1      46.573  29.960  26.395  1.00  0.00    -0.354 N 
ATOM     44  C   UNL A   1      50.034  27.391  26.022  1.00  0.00     0.074 A 
ATOM     45  C   UNL A   1      49.634  26.005  25.917  1.00  0.00     0.031 C 
ATOM     46  C   UNL A   1      44.416  30.428  26.753  1.00  0.00     0.029 A 
ATOM     47  C   UNL A   1      45.744  31.027  26.647  1.00  0.00     0.049 A 
ATOM     48  H   UNL A   1      47.540  30.056  26.235  1.00  0.00     0.167 HD
ATOM     49  C   UNL A   1      51.318  27.817  25.984  1.00  0.00     0.037 A 
ATOM     50  C   UNL A   1      46.024  32.335  26.796  1.00  0.00     0.037 A 
ATOM     51  C   UNL A   1      51.703  29.201  26.018  1.00  0.00     0.049 A 
ATOM     52  C   UNL A   1      47.449  32.800  26.685  1.00  0.00     0.074 A 
ATOM     53  C   UNL A   1      52.965  29.749  25.888  1.00  0.00     0.029 A 
ATOM     54  N   UNL A   1      50.819  30.258  26.183  1.00  0.00    -0.354 N 
ATOM     55  N   UNL A   1      48.536  32.087  26.516  1.00  0.00    -0.248 NA
ATOM     56  C   UNL A   1      47.690  34.247  26.782  1.00  0.00     0.031 C 
ATOM     57  C   UNL A   1      52.850  31.139  26.002  1.00  0.00     0.029 A 
ATOM     58  C   UNL A   1      51.511  31.457  26.165  1.00  0.00     0.049 A 
ATOM     59  H   UNL A   1      49.845  30.169  26.296  1.00  0.00     0.167 HD
ATOM     60  C   UNL A   1      49.584  32.996  26.460  1.00  0.00     0.074 A 
ATOM     61  C   UNL A   1      49.003  34.314  26.610  1.00  0.00     0.031 C 
ATOM     62  C   UNL A   1      50.910  32.760  26.297  1.00  0.00     0.037 A 
BRANCH  49  63
ATOM     63  C   UNL A   1      52.385  26.766  25.895  1.00  0.00     0.057 A 
ATOM     64  C   UNL A   1      52.744  26.173  24.677  1.00  0.00     0.134 A 
ATOM     65  C   UNL A   1      53.048  26.325  27.047  1.00  0.00     0.134 A 
ATOM     66  F   UNL A   1      52.137  26.538  23.538  1.00  0.00    -0.206 F 
ATOM     67  C   UNL A   1      53.687  25.144  24.614  1.00  0.00     0.040 A 
ATOM     68  C   UNL A   1      54.017  25.322  26.992  1.00  0.00     0.040 A 
ATOM     69  F   UNL A   1      52.760  26.854  28.245  1.00  0.00    -0.206 F 
ATOM     70  C   UNL A   1      54.328  24.719  25.775  1.00  0.00     0.006 A 
ENDBRANCH  49  63
BRANCH  50  71
ATOM     71  C   UNL A   1      44.923  33.299  27.045  1.00  0.00     0.057 A 
ATOM     72  C   UNL A   1      44.534  33.624  28.350  1.00  0.00     0.134 A 
ATOM     73  C   UNL A   1      44.256  33.941  25.994  1.00  0.00     0.134 A 
ATOM     74  F   UNL A   1      45.124  33.030  29.396  1.00  0.00    -0.206 F 
ATOM     75  C   UNL A   1      43.518  34.548  28.601  1.00  0.00     0.040 A 
ATOM     76  C   UNL A   1      43.253  34.883  26.232  1.00  0.00     0.040 A 
ATOM     77  F   UNL A   1      44.590  33.680  24.721  1.00  0.00    -0.206 F 
ATOM     78  C   UNL A   1      42.879  35.185  27.539  1.00  0.00     0.006 A 
ENDBRANCH  50  71
BRANCH  62  79
ATOM     79  C   UNL A   1      51.823  33.945  26.227  1.00  0.00     0.057 A 
ATOM     80  C   UNL A   1      52.411  34.493  27.373  1.00  0.00     0.134 A 
ATOM     81  C   UNL A   1      52.185  34.487  24.987  1.00  0.00     0.134 A 
ATOM     82  F   UNL A   1      52.095  34.023  28.590  1.00  0.00    -0.206 F 
ATOM     83  C   UNL A   1      53.327  35.542  27.289  1.00  0.00     0.040 A 
ATOM     84  C   UNL A   1      53.116  35.522  24.888  1.00  0.00     0.040 A 
ATOM     85  F   UNL A   1      51.662  33.999  23.851  1.00  0.00    -0.206 F 
ATOM     86  C   UNL A   1      53.690  36.051  26.041  1.00  0.00     0.006 A 
ENDBRANCH  62  79
ENDBRANCH  36  37
ENDBRANCH  28  31
ENDBRANCH  26  27
ENDBRANCH  25  26
ENDBRANCH  24  25
ENDBRANCH  22  24
ENDBRANCH  19  20
ENDBRANCH  18  19
ENDBRANCH   1  18
TORSDOF 23
ENDMDL
MODEL 3
REMARK VINA RESULT:      -7.4      5.216     10.083
REMARK SMILES CC/C=C/C/C=C/C/C=C/C/C=C/CCSCCCC(=O)NCCCNC(=O)c1ccc(-c2c3nc(c(-c4c(F)cccc4F)c4ccc([nH]4)c(-c4c(F)cccc4F)c4nc(c(-c5c(F)cccc5F)c5ccc2[nH]5)C=C4)C=C3)cc1
REMARK SMILES IDX 17 1 16 2 15 3 14 4 13 5 12 6 11 7 10 8 9 9 8 10 7 11 6 12
REMARK SMILES IDX 5 13 4 14 3 15 2 16 1 17 18 18 19 19 20 20 21 21 22 22 23 24
REMARK SMILES IDX 24 25 25 26 26 27 27 28 28 30 29 31 30 32 82 33 31 34 81 35
REMARK SMILES IDX 32 36 33 37 34 38 75 39 35 40 80 41 74 42 76 43 36 44 79 45
REMARK SMILES IDX 73 46 72 47 37 49 63 50 46 51 62 52 47 53 50 54 61 55 77 56
REMARK SMILES IDX 48 57 49 58 60 60 78 61 51 62 38 63 39 64 44 65 40 66 41 67
REMARK SMILES IDX 43 68 45 69 42 70 64 71 65 72 70 73 66 74 67 75 69 76 71 77
REMARK SMILES IDX 68 78 52 79 53 80 58 81 54 82 55 83 57 84 59 85 56 86
REMARK H PARENT 22 23 26 29 76 48 50 59
REMARK Flexibility Score: inf
ROOT
ATOM      1  C   UNL A   1      39.197  29.186  27.556  1.00  0.00     0.070 C 
ENDROOT
BRANCH   1   2
ATOM      2  S   UNL A   1      38.378  28.596  29.104  1.00  0.00    -0.162 SA
BRANCH   2   3
ATOM      3  C   UNL A   1      36.998  29.727  29.557  1.00  0.00     0.073 C 
BRANCH   3   4
ATOM      4  C   UNL A   1      36.478  30.704  28.468  1.00  0.00     0.038 C 
BRANCH   4   5
ATOM      5  C   UNL A   1      35.236  30.250  27.741  1.00  0.00    -0.030 C 
ATOM      6  C   UNL A   1      35.049  29.056  27.149  1.00  0.00    -0.027 C 
BRANCH   6   7
ATOM      7  C   UNL A   1      33.711  28.501  26.696  1.00  0.00     0.054 C 
BRANCH   7   8
ATOM      8  C   UNL A   1      33.612  28.062  25.261  1.00  0.00    -0.027 C 
ATOM      9  C   UNL A   1      33.321  28.913  24.263  1.00  0.00    -0.027 C 
BRANCH   9  10
ATOM     10  C   UNL A   1      33.126  28.509  22.827  1.00  0.00     0.054 C 
BRANCH  10  11
ATOM     11  C   UNL A   1      31.756  27.915  22.681  1.00  0.00    -0.027 C 
ATOM     12  C   UNL A   1      30.643  28.418  23.237  1.00  0.00    -0.027 C 
BRANCH  12  13
ATOM     13  C   UNL A   1      29.324  27.702  23.239  1.00  0.00     0.054 C 
BRANCH  13  14
ATOM     14  C   UNL A   1      29.437  26.448  24.056  1.00  0.00    -0.027 C 
ATOM     15  C   UNL A   1      30.149  26.345  25.188  1.00  0.00    -0.031 C 
BRANCH  15  16
ATOM     16  C   UNL A   1      30.331  25.060  25.943  1.00  0.00     0.023 C 
ATOM     17  C   UNL A   1      30.998  24.013  25.064  1.00  0.00     0.008 C 
ENDBRANCH  15  16
ENDBRANCH  13  14
ENDBRANCH  12  13
ENDBRANCH  10  11
ENDBRANCH   9  10
ENDBRANCH   7   8
ENDBRANCH   6   7
ENDBRANCH   4   5
ENDBRANCH   3   4
ENDBRANCH   2   3
ENDBRANCH   1   2
BRANCH   1  18
ATOM     18  C   UNL A   1      40.582  28.778  27.056  1.00  0.00     0.021 C 
BRANCH  18  19
ATOM     19  C   UNL A   1      41.041  27.337  27.184  1.00  0.00     0.101 C 
BRANCH  19  20
ATOM     20  C   UNL A   1      40.960  26.422  25.974  1.00  0.00     0.220 C 
ATOM     21  O   UNL A   1      41.647  26.658  24.977  1.00  0.00    -0.275 OA
ATOM     22  N   UNL A   1      40.213  25.291  25.951  1.00  0.00    -0.356 N 
ATOM     23  H   UNL A   1      40.214  24.826  25.083  1.00  0.00     0.163 HD
BRANCH  22  24
ATOM     24  C   UNL A   1      39.416  24.643  26.969  1.00  0.00     0.117 C 
BRANCH  24  25
ATOM     25  C   UNL A   1      40.029  23.332  27.430  1.00  0.00     0.042 C 
BRANCH  25  26
ATOM     26  C   UNL A   1      41.461  23.536  27.892  1.00  0.00     0.118 C 
BRANCH  26  27
ATOM     27  N   UNL A   1      42.388  22.553  27.334  1.00  0.00    -0.352 N 
ATOM     28  C   UNL A   1      43.589  22.794  26.689  1.00  0.00     0.251 C 
ATOM     29  H   UNL A   1      42.127  21.608  27.426  1.00  0.00     0.163 HD
ATOM     30  O   UNL A   1      44.224  21.904  26.159  1.00  0.00    -0.269 OA
BRANCH  28  31
ATOM     31  C   UNL A   1      44.052  24.198  26.631  1.00  0.00     0.039 A 
ATOM     32  C   UNL A   1      44.529  24.811  27.792  1.00  0.00     0.014 A 
ATOM     33  C   UNL A   1      44.178  24.815  25.388  1.00  0.00     0.014 A 
ATOM     34  C   UNL A   1      45.243  26.008  27.685  1.00  0.00     0.010 A 
ATOM     35  C   UNL A   1      44.983  25.937  25.275  1.00  0.00     0.010 A 
ATOM     36  C   UNL A   1      45.531  26.544  26.419  1.00  0.00    -0.014 A 
BRANCH  36  37
ATOM     37  C   UNL A   1      46.396  27.737  26.228  1.00  0.00     0.031 A 
ATOM     38  C   UNL A   1      47.874  27.537  26.038  1.00  0.00     0.074 A 
ATOM     39  C   UNL A   1      45.897  28.979  26.377  1.00  0.00     0.049 A 
ATOM     40  N   UNL A   1      48.847  28.406  26.115  1.00  0.00    -0.248 NA
ATOM     41  C   UNL A   1      48.318  26.154  25.797  1.00  0.00     0.031 C 
ATOM     42  C   UNL A   1      44.494  29.312  26.625  1.00  0.00     0.029 A 
ATOM     43  N   UNL A   1      46.530  30.198  26.376  1.00  0.00    -0.354 N 
ATOM     44  C   UNL A   1      50.017  27.666  25.995  1.00  0.00     0.074 A 
ATOM     45  C   UNL A   1      49.632  26.276  25.895  1.00  0.00     0.031 C 
ATOM     46  C   UNL A   1      44.370  30.644  26.743  1.00  0.00     0.029 A 
ATOM     47  C   UNL A   1      45.690  31.257  26.628  1.00  0.00     0.049 A 
ATOM     48  H   UNL A   1      47.495  30.304  26.211  1.00  0.00     0.167 HD
ATOM     49  C   UNL A   1      51.296  28.106  25.948  1.00  0.00     0.037 A 
ATOM     50  C   UNL A   1      45.956  32.569  26.771  1.00  0.00     0.037 A 
ATOM     51  C   UNL A   1      51.665  29.494  25.976  1.00  0.00     0.049 A 
ATOM     52  C   UNL A   1      47.376  33.048  26.652  1.00  0.00     0.074 A 
ATOM     53  C   UNL A   1      52.921  30.056  25.838  1.00  0.00     0.029 A 
ATOM     54  N   UNL A   1      50.771  30.542  26.142  1.00  0.00    -0.354 N 
ATOM     55  N   UNL A   1      48.470  32.347  26.480  1.00  0.00    -0.248 NA
ATOM     56  C   UNL A   1      47.601  34.498  26.743  1.00  0.00     0.031 C 
ATOM     57  C   UNL A   1      52.791  31.444  25.948  1.00  0.00     0.029 A 
ATOM     58  C   UNL A   1      51.450  31.748  26.117  1.00  0.00     0.049 A 
ATOM     59  H   UNL A   1      49.798  30.443  26.259  1.00  0.00     0.167 HD
ATOM     60  C   UNL A   1      49.508  33.267  26.416  1.00  0.00     0.074 A 
ATOM     61  C   UNL A   1      48.913  34.580  26.564  1.00  0.00     0.031 C 
ATOM     62  C   UNL A   1      50.835  33.045  26.247  1.00  0.00     0.037 A 
BRANCH  49  63
ATOM     63  C   UNL A   1      52.374  27.066  25.858  1.00  0.00     0.057 A 
ATOM     64  C   UNL A   1      52.791  26.533  24.630  1.00  0.00     0.134 A 
ATOM     65  C   UNL A   1      52.990  26.576  27.016  1.00  0.00     0.134 A 
ATOM     66  F   UNL A   1      52.231  26.947  23.484  1.00  0.00    -0.206 F 
ATOM     67  C   UNL A   1      53.743  25.514  24.561  1.00  0.00     0.040 A 
ATOM     68  C   UNL A   1      53.968  25.582  26.956  1.00  0.00     0.040 A 
ATOM     69  F   UNL A   1      52.645  27.047  28.223  1.00  0.00    -0.206 F 
ATOM     70  C   UNL A   1      54.337  25.038  25.728  1.00  0.00     0.006 A 
ENDBRANCH  49  63
BRANCH  50  71
ATOM     71  C   UNL A   1      44.846  33.521  27.023  1.00  0.00     0.057 A 
ATOM     72  C   UNL A   1      44.189  34.155  25.961  1.00  0.00     0.134 A 
ATOM     73  C   UNL A   1      44.393  33.796  28.319  1.00  0.00     0.134 A 
ATOM     74  F   UNL A   1      44.588  33.945  24.699  1.00  0.00    -0.206 F 
ATOM     75  C   UNL A   1      43.126  35.034  26.180  1.00  0.00     0.040 A 
ATOM     76  C   UNL A   1      43.318  34.657  28.550  1.00  0.00     0.040 A 
ATOM     77  F   UNL A   1      44.974  33.212  29.377  1.00  0.00    -0.206 F 
ATOM     78  C   UNL A   1      42.684  35.281  27.478  1.00  0.00     0.006 A 
ENDBRANCH  50  71
BRANCH  62  79
ATOM     79  C   UNL A   1      51.735  34.240  26.169  1.00  0.00     0.057 A 
ATOM     80  C   UNL A   1      52.018  34.873  24.954  1.00  0.00     0.134 A 
ATOM     81  C   UNL A   1      52.252  34.813  27.339  1.00  0.00     0.134 A 
ATOM     82  F   UNL A   1      51.560  34.365  23.799  1.00  0.00    -0.206 F 
ATOM     83  C   UNL A   1      52.788  36.036  24.903  1.00  0.00     0.040 A 
ATOM     84  C   UNL A   1      53.004  35.987  27.302  1.00  0.00     0.040 A 
ATOM     85  F   UNL A   1      52.008  34.257  28.535  1.00  0.00    -0.206 F 
ATOM     86  C   UNL A   1      53.274  36.602  26.082  1.00  0.00     0.006 A 
ENDBRANCH  62  79
ENDBRANCH  36  37
ENDBRANCH  28  31
ENDBRANCH  26  27
ENDBRANCH  25  26
ENDBRANCH  24  25
ENDBRANCH  22  24
ENDBRANCH  19  20
ENDBRANCH  18  19
ENDBRANCH   1  18
TORSDOF 23
ENDMDL
