MODEL 1
REMARK VINA RESULT:     -14.0      0.000      0.000
REMARK SMILES O=C(NCCCNC(=O)c1ccccc1-c1ccccc1C(=O)N1CC[NH+](Cc2ccc3c(c2)OCO3)CC1)c1ccc(-c2c3nc(c(-c4c(F)cccc4F)c4ccc([nH]4)c(-c4c(F)cccc4F)c4nc(c(-c5c(F)cccc5F)c5ccc2[nH]5)C=C4)C=C3)cc1
REMARK SMILES IDX 6 1 5 2 4 3 3 4 1 5 2 6 40 8 41 9 93 10 42 11 92 12 43 13
REMARK SMILES IDX 44 14 45 15 86 16 46 17 91 18 85 19 87 20 47 21 90 22 84 23
REMARK SMILES IDX 83 24 48 26 74 27 57 28 73 29 58 30 61 31 72 32 88 33 59 34
REMARK SMILES IDX 60 35 71 37 89 38 62 39 49 40 50 41 55 42 51 43 52 44 54 45
REMARK SMILES IDX 56 46 53 47 75 48 76 49 81 50 77 51 78 52 80 53 82 54 79 55
REMARK SMILES IDX 63 56 64 57 69 58 65 59 66 60 68 61 70 62 67 63 7 64 8 65
REMARK SMILES IDX 9 67 10 68 11 69 15 70 12 71 14 72 13 73 16 74 17 75 21 76
REMARK SMILES IDX 18 77 20 78 19 79 22 80 23 81 24 82 25 83 39 84 26 85 38 86
REMARK SMILES IDX 27 87 28 89 29 90 30 91 34 92 31 93 33 94 32 95 35 96 37 97
REMARK SMILES IDX 36 98
REMARK H PARENT 3 7 87 25 61 36 7 66 27 88
REMARK Flexibility Score: inf
ROOT
ATOM      1  C   UNL A   1      33.355  28.840  27.206  1.00  0.00     0.118 C 
ENDROOT
BRANCH   1   2
ATOM      2  C   UNL A   1      34.164  30.074  27.529  1.00  0.00     0.042 C 
BRANCH   2   3
ATOM      3  C   UNL A   1      35.490  29.669  28.146  1.00  0.00     0.118 C 
BRANCH   3   4
ATOM      4  N   UNL A   1      35.539  30.043  29.560  1.00  0.00    -0.352 N 
ATOM      5  O   UNL A   1      36.332  29.762  31.667  1.00  0.00    -0.269 OA
ATOM      6  C   UNL A   1      36.538  29.767  30.465  1.00  0.00     0.251 C 
ATOM      7  H   UNL A   1      34.768  30.550  29.904  1.00  0.00     0.163 HD
BRANCH   6   8
ATOM      8  C   UNL A   1      37.871  29.469  29.915  1.00  0.00     0.039 A 
ATOM      9  C   UNL A   1      38.781  28.811  30.743  1.00  0.00     0.014 A 
ATOM     10  C   UNL A   1      38.235  29.875  28.632  1.00  0.00     0.014 A 
ATOM     11  C   UNL A   1      40.107  28.753  30.384  1.00  0.00     0.010 A 
ATOM     12  C   UNL A   1      39.537  29.631  28.193  1.00  0.00     0.010 A 
ATOM     13  C   UNL A   1      40.477  29.071  29.073  1.00  0.00    -0.014 A 
BRANCH  13  14
ATOM     14  C   UNL A   1      41.805  28.606  28.624  1.00  0.00     0.031 A 
ATOM     15  C   UNL A   1      42.040  27.197  28.187  1.00  0.00     0.074 A 
ATOM     16  C   UNL A   1      42.789  29.529  28.592  1.00  0.00     0.049 A 
ATOM     17  N   UNL A   1      43.158  26.648  27.792  1.00  0.00    -0.248 NA
ATOM     18  C   UNL A   1      40.890  26.280  28.202  1.00  0.00     0.031 C 
ATOM     19  C   UNL A   1      42.643  30.933  29.007  1.00  0.00     0.029 A 
ATOM     20  N   UNL A   1      44.088  29.451  28.174  1.00  0.00    -0.354 N 
ATOM     21  C   UNL A   1      42.859  25.316  27.543  1.00  0.00     0.074 A 
ATOM     22  C   UNL A   1      41.453  25.135  27.834  1.00  0.00     0.031 C 
ATOM     23  C   UNL A   1      43.780  31.591  28.763  1.00  0.00     0.029 A 
ATOM     24  C   UNL A   1      44.770  30.638  28.293  1.00  0.00     0.049 A 
ATOM     25  H   UNL A   1      44.494  28.626  27.822  1.00  0.00     0.167 HD
ATOM     26  C   UNL A   1      43.700  24.345  27.118  1.00  0.00     0.037 A 
ATOM     27  C   UNL A   1      46.069  30.920  28.105  1.00  0.00     0.037 A 
ATOM     28  C   UNL A   1      45.092  24.566  26.815  1.00  0.00     0.049 A 
ATOM     29  C   UNL A   1      46.971  29.807  27.676  1.00  0.00     0.074 A 
ATOM     30  C   UNL A   1      46.016  23.663  26.320  1.00  0.00     0.029 A 
ATOM     31  N   UNL A   1      45.760  25.770  26.989  1.00  0.00    -0.354 N 
ATOM     32  N   UNL A   1      46.667  28.562  27.400  1.00  0.00    -0.248 NA
ATOM     33  C   UNL A   1      48.396  30.127  27.548  1.00  0.00     0.031 C 
ATOM     34  C   UNL A   1      47.257  24.302  26.257  1.00  0.00     0.029 A 
ATOM     35  C   UNL A   1      47.096  25.620  26.655  1.00  0.00     0.049 A 
ATOM     36  H   UNL A   1      45.347  26.606  27.303  1.00  0.00     0.167 HD
ATOM     37  C   UNL A   1      47.861  27.949  27.061  1.00  0.00     0.074 A 
ATOM     38  C   UNL A   1      48.888  28.972  27.128  1.00  0.00     0.031 C 
ATOM     39  C   UNL A   1      48.095  26.654  26.737  1.00  0.00     0.037 A 
BRANCH  26  40
ATOM     40  C   UNL A   1      43.167  22.950  26.982  1.00  0.00     0.057 A 
ATOM     41  C   UNL A   1      42.900  22.141  28.092  1.00  0.00     0.134 A 
ATOM     42  C   UNL A   1      42.821  22.451  25.719  1.00  0.00     0.134 A 
ATOM     43  F   UNL A   1      43.216  22.554  29.328  1.00  0.00    -0.206 F 
ATOM     44  C   UNL A   1      42.305  20.884  27.951  1.00  0.00     0.040 A 
ATOM     45  C   UNL A   1      42.206  21.207  25.567  1.00  0.00     0.040 A 
ATOM     46  F   UNL A   1      43.048  23.177  24.614  1.00  0.00    -0.206 F 
ATOM     47  C   UNL A   1      41.945  20.421  26.686  1.00  0.00     0.006 A 
ENDBRANCH  26  40
BRANCH  27  48
ATOM     48  C   UNL A   1      46.590  32.277  28.400  1.00  0.00     0.057 A 
ATOM     49  C   UNL A   1      46.573  33.289  27.436  1.00  0.00     0.134 A 
ATOM     50  C   UNL A   1      47.132  32.591  29.654  1.00  0.00     0.134 A 
ATOM     51  F   UNL A   1      46.077  33.049  26.213  1.00  0.00    -0.206 F 
ATOM     52  C   UNL A   1      47.105  34.554  27.696  1.00  0.00     0.040 A 
ATOM     53  C   UNL A   1      47.631  33.861  29.941  1.00  0.00     0.040 A 
ATOM     54  F   UNL A   1      47.165  31.671  30.630  1.00  0.00    -0.206 F 
ATOM     55  C   UNL A   1      47.631  34.843  28.954  1.00  0.00     0.006 A 
ENDBRANCH  27  48
BRANCH  39  56
ATOM     56  C   UNL A   1      49.513  26.290  26.421  1.00  0.00     0.057 A 
ATOM     57  C   UNL A   1      50.063  26.509  25.152  1.00  0.00     0.134 A 
ATOM     58  C   UNL A   1      50.342  25.734  27.403  1.00  0.00     0.134 A 
ATOM     59  F   UNL A   1      49.311  27.018  24.164  1.00  0.00    -0.206 F 
ATOM     60  C   UNL A   1      51.382  26.165  24.862  1.00  0.00     0.040 A 
ATOM     61  C   UNL A   1      51.673  25.416  27.135  1.00  0.00     0.040 A 
ATOM     62  F   UNL A   1      49.876  25.505  28.640  1.00  0.00    -0.206 F 
ATOM     63  C   UNL A   1      52.193  25.625  25.859  1.00  0.00     0.006 A 
ENDBRANCH  39  56
ENDBRANCH  13  14
ENDBRANCH   6   8
ENDBRANCH   3   4
ENDBRANCH   2   3
ENDBRANCH   1   2
BRANCH   1  64
ATOM     64  N   UNL A   1      32.041  29.253  26.763  1.00  0.00    -0.352 N 
ATOM     65  C   UNL A   1      31.834  29.811  25.538  1.00  0.00     0.251 C 
ATOM     66  H   UNL A   1      31.273  29.128  27.367  1.00  0.00     0.163 HD
ATOM     67  O   UNL A   1      31.214  30.864  25.444  1.00  0.00    -0.269 OA
BRANCH  65  68
ATOM     68  C   UNL A   1      32.395  29.097  24.361  1.00  0.00     0.047 A 
ATOM     69  C   UNL A   1      33.721  29.418  24.030  1.00  0.00     0.014 A 
ATOM     70  C   UNL A   1      31.648  28.166  23.591  1.00  0.00    -0.005 A 
ATOM     71  C   UNL A   1      34.347  28.790  22.959  1.00  0.00     0.001 A 
ATOM     72  C   UNL A   1      32.324  27.534  22.525  1.00  0.00     0.009 A 
ATOM     73  C   UNL A   1      33.654  27.839  22.217  1.00  0.00     0.001 A 
BRANCH  70  74
ATOM     74  C   UNL A   1      30.241  27.760  23.878  1.00  0.00    -0.005 A 
ATOM     75  C   UNL A   1      29.249  28.334  23.034  1.00  0.00     0.009 A 
ATOM     76  C   UNL A   1      29.820  26.751  24.782  1.00  0.00     0.047 A 
ATOM     77  C   UNL A   1      27.932  27.872  22.998  1.00  0.00     0.001 A 
ATOM     78  C   UNL A   1      28.471  26.314  24.743  1.00  0.00     0.014 A 
ATOM     79  C   UNL A   1      27.545  26.849  23.847  1.00  0.00     0.001 A 
BRANCH  76  80
ATOM     80  C   UNL A   1      30.718  25.899  25.638  1.00  0.00     0.254 C 
ATOM     81  O   UNL A   1      31.000  26.315  26.765  1.00  0.00    -0.269 OA
ATOM     82  N   UNL A   1      31.120  24.635  25.223  1.00  0.00    -0.327 N 
ATOM     83  C   UNL A   1      31.426  23.659  26.261  1.00  0.00     0.181 C 
ATOM     84  C   UNL A   1      31.795  24.381  23.959  1.00  0.00     0.181 C 
ATOM     85  C   UNL A   1      31.180  22.208  25.798  1.00  0.00     0.284 C 
ATOM     86  C   UNL A   1      31.687  22.908  23.487  1.00  0.00     0.284 C 
ATOM     87  N   UNL A   1      31.719  21.824  24.481  1.00  0.00    -0.328 N 
ATOM     88  H   UNL A   1      31.042  21.154  24.116  1.00  0.00     0.348 HD
BRANCH  87  89
ATOM     89  C   UNL A   1      32.930  20.995  24.509  1.00  0.00     0.299 C 
BRANCH  89  90
ATOM     90  C   UNL A   1      32.625  19.524  24.339  1.00  0.00     0.010 A 
ATOM     91  C   UNL A   1      32.491  18.997  23.033  1.00  0.00     0.013 A 
ATOM     92  C   UNL A   1      32.826  18.671  25.434  1.00  0.00     0.060 A 
ATOM     93  C   UNL A   1      32.805  17.663  22.782  1.00  0.00     0.051 A 
ATOM     94  C   UNL A   1      33.201  17.384  25.144  1.00  0.00     0.166 A 
ATOM     95  C   UNL A   1      33.237  16.909  23.851  1.00  0.00     0.165 A 
ATOM     96  O   UNL A   1      33.808  16.537  26.022  1.00  0.00    -0.454 OA
ATOM     97  O   UNL A   1      33.884  15.713  23.770  1.00  0.00    -0.454 OA
ATOM     98  C   UNL A   1      34.483  15.671  25.085  1.00  0.00     0.468 C 
ENDBRANCH  89  90
ENDBRANCH  87  89
ENDBRANCH  76  80
ENDBRANCH  70  74
ENDBRANCH  65  68
ENDBRANCH   1  64
TORSDOF 14
ENDMDL
MODEL 2
REMARK VINA RESULT:     -13.7      0.427      5.790
REMARK SMILES O=C(NCCCNC(=O)c1ccccc1-c1ccccc1C(=O)N1CC[NH+](Cc2ccc3c(c2)OCO3)CC1)c1ccc(-c2c3nc(c(-c4c(F)cccc4F)c4ccc([nH]4)c(-c4c(F)cccc4F)c4nc(c(-c5c(F)cccc5F)c5ccc2[nH]5)C=C4)C=C3)cc1
REMARK SMILES IDX 6 1 5 2 4 3 3 4 1 5 2 6 40 8 41 9 93 10 42 11 92 12 43 13
REMARK SMILES IDX 44 14 45 15 86 16 46 17 91 18 85 19 87 20 47 21 90 22 84 23
REMARK SMILES IDX 83 24 48 26 74 27 57 28 73 29 58 30 61 31 72 32 88 33 59 34
REMARK SMILES IDX 60 35 71 37 89 38 62 39 49 40 50 41 55 42 51 43 52 44 54 45
REMARK SMILES IDX 56 46 53 47 75 48 76 49 81 50 77 51 78 52 80 53 82 54 79 55
REMARK SMILES IDX 63 56 64 57 69 58 65 59 66 60 68 61 70 62 67 63 7 64 8 65
REMARK SMILES IDX 9 67 10 68 11 69 15 70 12 71 14 72 13 73 16 74 17 75 21 76
REMARK SMILES IDX 18 77 20 78 19 79 22 80 23 81 24 82 25 83 39 84 26 85 38 86
REMARK SMILES IDX 27 87 28 89 29 90 30 91 34 92 31 93 33 94 32 95 35 96 37 97
REMARK SMILES IDX 36 98
REMARK H PARENT 3 7 87 25 61 36 7 66 27 88
REMARK Flexibility Score: inf
ROOT
ATOM      1  C   UNL A   1      33.454  28.712  27.205  1.00  0.00     0.118 C 
ENDROOT
BRANCH   1   2
ATOM      2  C   UNL A   1      34.329  29.924  27.427  1.00  0.00     0.042 C 
BRANCH   2   3
ATOM      3  C   UNL A   1      35.592  29.514  28.162  1.00  0.00     0.118 C 
BRANCH   3   4
ATOM      4  N   UNL A   1      35.548  29.963  29.555  1.00  0.00    -0.352 N 
ATOM      5  O   UNL A   1      36.270  29.860  31.703  1.00  0.00    -0.269 OA
ATOM      6  C   UNL A   1      36.526  29.821  30.511  1.00  0.00     0.251 C 
ATOM      7  H   UNL A   1      34.724  30.420  29.840  1.00  0.00     0.163 HD
BRANCH   6   8
ATOM      8  C   UNL A   1      37.902  29.609  30.031  1.00  0.00     0.039 A 
ATOM      9  C   UNL A   1      38.793  28.961  30.886  1.00  0.00     0.014 A 
ATOM     10  C   UNL A   1      38.318  30.083  28.789  1.00  0.00     0.014 A 
ATOM     11  C   UNL A   1      40.140  28.980  30.605  1.00  0.00     0.010 A 
ATOM     12  C   UNL A   1      39.654  29.919  28.419  1.00  0.00     0.010 A 
ATOM     13  C   UNL A   1      40.569  29.369  29.332  1.00  0.00    -0.014 A 
BRANCH  13  14
ATOM     14  C   UNL A   1      41.942  28.985  28.945  1.00  0.00     0.031 A 
ATOM     15  C   UNL A   1      43.079  29.951  29.015  1.00  0.00     0.074 A 
ATOM     16  C   UNL A   1      42.125  27.704  28.562  1.00  0.00     0.049 A 
ATOM     17  N   UNL A   1      44.328  29.756  28.684  1.00  0.00    -0.248 NA
ATOM     18  C   UNL A   1      42.789  31.309  29.501  1.00  0.00     0.031 C 
ATOM     19  C   UNL A   1      41.062  26.693  28.463  1.00  0.00     0.029 A 
ATOM     20  N   UNL A   1      43.254  27.018  28.212  1.00  0.00    -0.354 N 
ATOM     21  C   UNL A   1      44.969  30.969  28.889  1.00  0.00     0.074 A 
ATOM     22  C   UNL A   1      43.971  31.900  29.371  1.00  0.00     0.031 C 
ATOM     23  C   UNL A   1      41.597  25.511  28.143  1.00  0.00     0.029 A 
ATOM     24  C   UNL A   1      43.016  25.703  27.894  1.00  0.00     0.049 A 
ATOM     25  H   UNL A   1      44.150  27.427  28.190  1.00  0.00     0.167 HD
ATOM     26  C   UNL A   1      46.273  31.262  28.680  1.00  0.00     0.037 A 
ATOM     27  C   UNL A   1      43.835  24.765  27.395  1.00  0.00     0.037 A 
ATOM     28  C   UNL A   1      47.246  30.303  28.221  1.00  0.00     0.049 A 
ATOM     29  C   UNL A   1      45.259  25.143  27.139  1.00  0.00     0.074 A 
ATOM     30  C   UNL A   1      48.605  30.481  28.034  1.00  0.00     0.029 A 
ATOM     31  N   UNL A   1      46.961  28.992  27.866  1.00  0.00    -0.354 N 
ATOM     32  N   UNL A   1      45.863  26.282  27.380  1.00  0.00    -0.248 NA
ATOM     33  C   UNL A   1      46.112  24.120  26.528  1.00  0.00     0.031 C 
ATOM     34  C   UNL A   1      49.130  29.300  27.504  1.00  0.00     0.029 A 
ATOM     35  C   UNL A   1      48.111  28.364  27.417  1.00  0.00     0.049 A 
ATOM     36  H   UNL A   1      46.074  28.570  27.925  1.00  0.00     0.167 HD
ATOM     37  C   UNL A   1      47.170  26.111  26.955  1.00  0.00     0.074 A 
ATOM     38  C   UNL A   1      47.278  24.746  26.477  1.00  0.00     0.031 C 
ATOM     39  C   UNL A   1      48.188  27.006  26.944  1.00  0.00     0.037 A 
BRANCH  26  40
ATOM     40  C   UNL A   1      46.732  32.671  28.907  1.00  0.00     0.057 A 
ATOM     41  C   UNL A   1      47.259  33.097  30.132  1.00  0.00     0.134 A 
ATOM     42  C   UNL A   1      46.740  33.587  27.846  1.00  0.00     0.134 A 
ATOM     43  F   UNL A   1      47.271  32.275  31.191  1.00  0.00    -0.206 F 
ATOM     44  C   UNL A   1      47.779  34.384  30.292  1.00  0.00     0.040 A 
ATOM     45  C   UNL A   1      47.278  34.867  27.988  1.00  0.00     0.040 A 
ATOM     46  F   UNL A   1      46.253  33.241  26.645  1.00  0.00    -0.206 F 
ATOM     47  C   UNL A   1      47.801  35.268  29.214  1.00  0.00     0.006 A 
ENDBRANCH  26  40
BRANCH  27  48
ATOM     48  C   UNL A   1      43.307  23.425  27.037  1.00  0.00     0.057 A 
ATOM     49  C   UNL A   1      43.008  23.090  25.713  1.00  0.00     0.134 A 
ATOM     50  C   UNL A   1      43.076  22.449  28.016  1.00  0.00     0.134 A 
ATOM     51  F   UNL A   1      43.197  23.984  24.731  1.00  0.00    -0.206 F 
ATOM     52  C   UNL A   1      42.468  21.847  25.379  1.00  0.00     0.040 A 
ATOM     53  C   UNL A   1      42.574  21.189  27.692  1.00  0.00     0.040 A 
ATOM     54  F   UNL A   1      43.356  22.699  29.305  1.00  0.00    -0.206 F 
ATOM     55  C   UNL A   1      42.254  20.891  26.371  1.00  0.00     0.006 A 
ENDBRANCH  27  48
BRANCH  39  56
ATOM     56  C   UNL A   1      49.500  26.519  26.410  1.00  0.00     0.057 A 
ATOM     57  C   UNL A   1      50.378  25.764  27.196  1.00  0.00     0.134 A 
ATOM     58  C   UNL A   1      49.877  26.790  25.089  1.00  0.00     0.134 A 
ATOM     59  F   UNL A   1      50.081  25.491  28.477  1.00  0.00    -0.206 F 
ATOM     60  C   UNL A   1      51.600  25.316  26.696  1.00  0.00     0.040 A 
ATOM     61  C   UNL A   1      51.081  26.321  24.567  1.00  0.00     0.040 A 
ATOM     62  F   UNL A   1      49.076  27.504  24.284  1.00  0.00    -0.206 F 
ATOM     63  C   UNL A   1      51.949  25.587  25.374  1.00  0.00     0.006 A 
ENDBRANCH  39  56
ENDBRANCH  13  14
ENDBRANCH   6   8
ENDBRANCH   3   4
ENDBRANCH   2   3
ENDBRANCH   1   2
BRANCH   1  64
ATOM     64  N   UNL A   1      32.146  29.160  26.779  1.00  0.00    -0.352 N 
ATOM     65  C   UNL A   1      31.940  29.736  25.562  1.00  0.00     0.251 C 
ATOM     66  H   UNL A   1      31.381  29.047  27.389  1.00  0.00     0.163 HD
ATOM     67  O   UNL A   1      31.345  30.803  25.485  1.00  0.00    -0.269 OA
BRANCH  65  68
ATOM     68  C   UNL A   1      32.473  29.021  24.372  1.00  0.00     0.047 A 
ATOM     69  C   UNL A   1      33.805  29.312  24.034  1.00  0.00     0.014 A 
ATOM     70  C   UNL A   1      31.697  28.118  23.598  1.00  0.00    -0.005 A 
ATOM     71  C   UNL A   1      34.406  28.682  22.951  1.00  0.00     0.001 A 
ATOM     72  C   UNL A   1      32.348  27.482  22.519  1.00  0.00     0.009 A 
ATOM     73  C   UNL A   1      33.683  27.757  22.203  1.00  0.00     0.001 A 
BRANCH  70  74
ATOM     74  C   UNL A   1      30.282  27.745  23.892  1.00  0.00    -0.005 A 
ATOM     75  C   UNL A   1      29.301  28.327  23.041  1.00  0.00     0.009 A 
ATOM     76  C   UNL A   1      29.842  26.758  24.811  1.00  0.00     0.047 A 
ATOM     77  C   UNL A   1      27.975  27.890  23.013  1.00  0.00     0.001 A 
ATOM     78  C   UNL A   1      28.485  26.347  24.779  1.00  0.00     0.014 A 
ATOM     79  C   UNL A   1      27.569  26.888  23.876  1.00  0.00     0.001 A 
BRANCH  76  80
ATOM     80  C   UNL A   1      30.724  25.900  25.678  1.00  0.00     0.254 C 
ATOM     81  O   UNL A   1      30.982  26.307  26.814  1.00  0.00    -0.269 OA
ATOM     82  N   UNL A   1      31.137  24.641  25.261  1.00  0.00    -0.327 N 
ATOM     83  C   UNL A   1      31.424  23.657  26.296  1.00  0.00     0.181 C 
ATOM     84  C   UNL A   1      31.839  24.398  24.009  1.00  0.00     0.181 C 
ATOM     85  C   UNL A   1      31.191  22.209  25.816  1.00  0.00     0.284 C 
ATOM     86  C   UNL A   1      31.744  22.930  23.523  1.00  0.00     0.284 C 
ATOM     87  N   UNL A   1      31.758  21.837  24.508  1.00  0.00    -0.328 N 
ATOM     88  H   UNL A   1      31.090  21.169  24.123  1.00  0.00     0.348 HD
BRANCH  87  89
ATOM     89  C   UNL A   1      32.970  21.010  24.554  1.00  0.00     0.299 C 
BRANCH  89  90
ATOM     90  C   UNL A   1      32.673  19.541  24.355  1.00  0.00     0.010 A 
ATOM     91  C   UNL A   1      32.535  19.041  23.039  1.00  0.00     0.013 A 
ATOM     92  C   UNL A   1      32.885  18.667  25.431  1.00  0.00     0.060 A 
ATOM     93  C   UNL A   1      32.855  17.714  22.759  1.00  0.00     0.051 A 
ATOM     94  C   UNL A   1      33.266  17.388  25.112  1.00  0.00     0.166 A 
ATOM     95  C   UNL A   1      33.297  16.941  23.809  1.00  0.00     0.165 A 
ATOM     96  O   UNL A   1      33.883  16.527  25.969  1.00  0.00    -0.454 OA
ATOM     97  O   UNL A   1      33.951  15.751  23.700  1.00  0.00    -0.454 OA
ATOM     98  C   UNL A   1      34.558  15.686  25.010  1.00  0.00     0.468 C 
ENDBRANCH  89  90
ENDBRANCH  87  89
ENDBRANCH  76  80
ENDBRANCH  70  74
ENDBRANCH  65  68
ENDBRANCH   1  64
TORSDOF 14
ENDMDL
MODEL 3
REMARK VINA RESULT:     -13.1      6.627     13.329
REMARK SMILES O=C(NCCCNC(=O)c1ccccc1-c1ccccc1C(=O)N1CC[NH+](Cc2ccc3c(c2)OCO3)CC1)c1ccc(-c2c3nc(c(-c4c(F)cccc4F)c4ccc([nH]4)c(-c4c(F)cccc4F)c4nc(c(-c5c(F)cccc5F)c5ccc2[nH]5)C=C4)C=C3)cc1
REMARK SMILES IDX 6 1 5 2 4 3 3 4 1 5 2 6 40 8 41 9 93 10 42 11 92 12 43 13
REMARK SMILES IDX 44 14 45 15 86 16 46 17 91 18 85 19 87 20 47 21 90 22 84 23
REMARK SMILES IDX 83 24 48 26 74 27 57 28 73 29 58 30 61 31 72 32 88 33 59 34
REMARK SMILES IDX 60 35 71 37 89 38 62 39 49 40 50 41 55 42 51 43 52 44 54 45
REMARK SMILES IDX 56 46 53 47 75 48 76 49 81 50 77 51 78 52 80 53 82 54 79 55
REMARK SMILES IDX 63 56 64 57 69 58 65 59 66 60 68 61 70 62 67 63 7 64 8 65
REMARK SMILES IDX 9 67 10 68 11 69 15 70 12 71 14 72 13 73 16 74 17 75 21 76
REMARK SMILES IDX 18 77 20 78 19 79 22 80 23 81 24 82 25 83 39 84 26 85 38 86
REMARK SMILES IDX 27 87 28 89 29 90 30 91 34 92 31 93 33 94 32 95 35 96 37 97
REMARK SMILES IDX 36 98
REMARK H PARENT 3 7 87 25 61 36 7 66 27 88
REMARK Flexibility Score: inf
ROOT
ATOM      1  C   UNL A   1      44.645  25.217  33.070  1.00  0.00     0.118 C 
ENDROOT
BRANCH   1   2
ATOM      2  C   UNL A   1      45.607  24.396  33.900  1.00  0.00     0.042 C 
BRANCH   2   3
ATOM      3  C   UNL A   1      46.780  25.260  34.324  1.00  0.00     0.118 C 
BRANCH   3   4
ATOM      4  N   UNL A   1      46.857  25.345  35.784  1.00  0.00    -0.352 N 
ATOM      5  O   UNL A   1      46.716  26.520  37.720  1.00  0.00    -0.269 OA
ATOM      6  C   UNL A   1      46.291  26.298  36.598  1.00  0.00     0.251 C 
ATOM      7  H   UNL A   1      47.374  24.639  36.235  1.00  0.00     0.163 HD
BRANCH   6   8
ATOM      8  C   UNL A   1      45.149  27.050  36.051  1.00  0.00     0.039 A 
ATOM      9  C   UNL A   1      45.427  28.168  35.265  1.00  0.00     0.014 A 
ATOM     10  C   UNL A   1      43.836  26.692  36.347  1.00  0.00     0.014 A 
ATOM     11  C   UNL A   1      44.418  29.052  34.960  1.00  0.00     0.010 A 
ATOM     12  C   UNL A   1      42.795  27.486  35.862  1.00  0.00     0.010 A 
ATOM     13  C   UNL A   1      43.088  28.672  35.169  1.00  0.00    -0.014 A 
BRANCH  13  14
ATOM     14  C   UNL A   1      42.053  29.453  34.460  1.00  0.00     0.031 A 
ATOM     15  C   UNL A   1      41.464  30.694  35.046  1.00  0.00     0.074 A 
ATOM     16  C   UNL A   1      41.694  29.008  33.238  1.00  0.00     0.049 A 
ATOM     17  N   UNL A   1      40.533  31.462  34.545  1.00  0.00    -0.248 NA
ATOM     18  C   UNL A   1      41.963  31.129  36.359  1.00  0.00     0.031 C 
ATOM     19  C   UNL A   1      42.222  27.797  32.591  1.00  0.00     0.029 A 
ATOM     20  N   UNL A   1      40.834  29.521  32.307  1.00  0.00    -0.354 N 
ATOM     21  C   UNL A   1      40.309  32.452  35.491  1.00  0.00     0.074 A 
ATOM     22  C   UNL A   1      41.200  32.189  36.601  1.00  0.00     0.031 C 
ATOM     23  C   UNL A   1      41.725  27.698  31.355  1.00  0.00     0.029 A 
ATOM     24  C   UNL A   1      40.755  28.762  31.164  1.00  0.00     0.049 A 
ATOM     25  H   UNL A   1      40.321  30.350  32.443  1.00  0.00     0.167 HD
ATOM     26  C   UNL A   1      39.427  33.476  35.423  1.00  0.00     0.037 A 
ATOM     27  C   UNL A   1      39.945  28.873  30.099  1.00  0.00     0.037 A 
ATOM     28  C   UNL A   1      38.571  33.723  34.291  1.00  0.00     0.049 A 
ATOM     29  C   UNL A   1      38.956  29.995  30.085  1.00  0.00     0.074 A 
ATOM     30  C   UNL A   1      37.685  34.768  34.096  1.00  0.00     0.029 A 
ATOM     31  N   UNL A   1      38.485  32.911  33.169  1.00  0.00    -0.354 N 
ATOM     32  N   UNL A   1      38.785  30.951  30.966  1.00  0.00    -0.248 NA
ATOM     33  C   UNL A   1      38.037  30.047  28.944  1.00  0.00     0.031 C 
ATOM     34  C   UNL A   1      37.016  34.552  32.889  1.00  0.00     0.029 A 
ATOM     35  C   UNL A   1      37.526  33.406  32.300  1.00  0.00     0.049 A 
ATOM     36  H   UNL A   1      39.024  32.102  33.014  1.00  0.00     0.167 HD
ATOM     37  C   UNL A   1      37.742  31.724  30.484  1.00  0.00     0.074 A 
ATOM     38  C   UNL A   1      37.347  31.145  29.214  1.00  0.00     0.031 C 
ATOM     39  C   UNL A   1      37.152  32.806  31.046  1.00  0.00     0.037 A 
BRANCH  26  40
ATOM     40  C   UNL A   1      39.308  34.393  36.604  1.00  0.00     0.057 A 
ATOM     41  C   UNL A   1      38.592  34.042  37.754  1.00  0.00     0.134 A 
ATOM     42  C   UNL A   1      40.010  35.606  36.625  1.00  0.00     0.134 A 
ATOM     43  F   UNL A   1      37.890  32.900  37.796  1.00  0.00    -0.206 F 
ATOM     44  C   UNL A   1      38.580  34.863  38.884  1.00  0.00     0.040 A 
ATOM     45  C   UNL A   1      40.024  36.424  37.756  1.00  0.00     0.040 A 
ATOM     46  F   UNL A   1      40.719  36.001  35.557  1.00  0.00    -0.206 F 
ATOM     47  C   UNL A   1      39.308  36.052  38.890  1.00  0.00     0.006 A 
ENDBRANCH  26  40
BRANCH  27  48
ATOM     48  C   UNL A   1      39.985  27.855  29.020  1.00  0.00     0.057 A 
ATOM     49  C   UNL A   1      40.640  28.101  27.811  1.00  0.00     0.134 A 
ATOM     50  C   UNL A   1      39.354  26.611  29.170  1.00  0.00     0.134 A 
ATOM     51  F   UNL A   1      41.255  29.275  27.602  1.00  0.00    -0.206 F 
ATOM     52  C   UNL A   1      40.641  27.163  26.777  1.00  0.00     0.040 A 
ATOM     53  C   UNL A   1      39.380  25.649  28.161  1.00  0.00     0.040 A 
ATOM     54  F   UNL A   1      38.720  26.304  30.312  1.00  0.00    -0.206 F 
ATOM     55  C   UNL A   1      40.013  25.931  26.953  1.00  0.00     0.006 A 
ENDBRANCH  27  48
BRANCH  39  56
ATOM     56  C   UNL A   1      36.029  33.430  30.275  1.00  0.00     0.057 A 
ATOM     57  C   UNL A   1      34.691  33.240  30.642  1.00  0.00     0.134 A 
ATOM     58  C   UNL A   1      36.290  34.246  29.168  1.00  0.00     0.134 A 
ATOM     59  F   UNL A   1      34.377  32.449  31.680  1.00  0.00    -0.206 F 
ATOM     60  C   UNL A   1      33.650  33.819  29.919  1.00  0.00     0.040 A 
ATOM     61  C   UNL A   1      35.260  34.858  28.456  1.00  0.00     0.040 A 
ATOM     62  F   UNL A   1      37.552  34.472  28.769  1.00  0.00    -0.206 F 
ATOM     63  C   UNL A   1      33.934  34.639  28.828  1.00  0.00     0.006 A 
ENDBRANCH  39  56
ENDBRANCH  13  14
ENDBRANCH   6   8
ENDBRANCH   3   4
ENDBRANCH   2   3
ENDBRANCH   1   2
BRANCH   1  64
ATOM     64  N   UNL A   1      45.410  26.125  32.243  1.00  0.00    -0.352 N 
ATOM     65  C   UNL A   1      45.784  25.805  30.973  1.00  0.00     0.251 C 
ATOM     66  H   UNL A   1      45.669  27.001  32.611  1.00  0.00     0.163 HD
ATOM     67  O   UNL A   1      46.954  25.930  30.632  1.00  0.00    -0.269 OA
BRANCH  65  68
ATOM     68  C   UNL A   1      44.726  25.299  30.059  1.00  0.00     0.047 A 
ATOM     69  C   UNL A   1      44.264  24.000  30.323  1.00  0.00     0.014 A 
ATOM     70  C   UNL A   1      44.220  26.054  28.967  1.00  0.00    -0.005 A 
ATOM     71  C   UNL A   1      43.261  23.441  29.539  1.00  0.00     0.001 A 
ATOM     72  C   UNL A   1      43.188  25.462  28.209  1.00  0.00     0.009 A 
ATOM     73  C   UNL A   1      42.713  24.177  28.493  1.00  0.00     0.001 A 
BRANCH  70  74
ATOM     74  C   UNL A   1      44.647  27.443  28.623  1.00  0.00    -0.005 A 
ATOM     75  C   UNL A   1      43.908  28.486  29.249  1.00  0.00     0.009 A 
ATOM     76  C   UNL A   1      45.798  27.814  27.882  1.00  0.00     0.047 A 
ATOM     77  C   UNL A   1      44.333  29.817  29.240  1.00  0.00     0.001 A 
ATOM     78  C   UNL A   1      46.195  29.175  27.869  1.00  0.00     0.014 A 
ATOM     79  C   UNL A   1      45.487  30.160  28.559  1.00  0.00     0.001 A 
BRANCH  76  80
ATOM     80  C   UNL A   1      46.809  26.872  27.287  1.00  0.00     0.254 C 
ATOM     81  O   UNL A   1      48.000  27.076  27.537  1.00  0.00    -0.269 OA
ATOM     82  N   UNL A   1      46.413  25.745  26.577  1.00  0.00    -0.327 N 
ATOM     83  C   UNL A   1      47.322  24.607  26.573  1.00  0.00     0.181 C 
ATOM     84  C   UNL A   1      45.523  25.791  25.426  1.00  0.00     0.181 C 
ATOM     85  C   UNL A   1      46.584  23.262  26.405  1.00  0.00     0.284 C 
ATOM     86  C   UNL A   1      44.831  24.436  25.127  1.00  0.00     0.284 C 
ATOM     87  N   UNL A   1      45.570  23.182  25.339  1.00  0.00    -0.328 N 
ATOM     88  H   UNL A   1      44.859  22.553  25.712  1.00  0.00     0.348 HD
BRANCH  87  89
ATOM     89  C   UNL A   1      45.974  22.448  24.134  1.00  0.00     0.299 C 
BRANCH  89  90
ATOM     90  C   UNL A   1      45.631  20.977  24.213  1.00  0.00     0.010 A 
ATOM     91  C   UNL A   1      46.589  20.075  24.732  1.00  0.00     0.013 A 
ATOM     92  C   UNL A   1      44.285  20.601  24.104  1.00  0.00     0.060 A 
ATOM     93  C   UNL A   1      46.177  18.908  25.370  1.00  0.00     0.051 A 
ATOM     94  C   UNL A   1      43.905  19.483  24.804  1.00  0.00     0.166 A 
ATOM     95  C   UNL A   1      44.820  18.688  25.459  1.00  0.00     0.165 A 
ATOM     96  O   UNL A   1      42.621  19.181  25.145  1.00  0.00    -0.454 OA
ATOM     97  O   UNL A   1      44.211  17.804  26.298  1.00  0.00    -0.454 OA
ATOM     98  C   UNL A   1      42.874  18.351  26.298  1.00  0.00     0.468 C 
ENDBRANCH  89  90
ENDBRANCH  87  89
ENDBRANCH  76  80
ENDBRANCH  70  74
ENDBRANCH  65  68
ENDBRANCH   1  64
TORSDOF 14
ENDMDL
