MODEL 1
REMARK VINA RESULT:      -8.4      0.000      0.000
REMARK SMILES C#CC[N@H+](CC(=O)NCCCNC(=O)c1ccc(-c2c3nc(c(-c4c(F)cccc4F)c4ccc([nH]4)c(-c4c(F)cccc4F)c4nc(c(-c5c(F)cccc5F)c5ccc2[nH]5)C=C4)C=C3)cc1)[C@H](C)C(=O)NCCC
REMARK SMILES IDX 6 1 7 2 8 3 5 5 4 6 3 8 2 9 1 10 69 11 70 12 71 13 72 14
REMARK SMILES IDX 73 15 74 17 75 18 76 19 9 20 10 21 11 22 12 23 13 24 14 26
REMARK SMILES IDX 15 27 16 28 68 29 17 30 67 31 18 32 19 33 20 34 61 35 21 36
REMARK SMILES IDX 66 37 60 38 62 39 22 40 65 41 59 42 58 43 23 45 49 46 32 47
REMARK SMILES IDX 48 48 33 49 36 50 47 51 63 52 34 53 35 54 46 56 64 57 37 58
REMARK SMILES IDX 24 59 25 60 30 61 26 62 27 63 29 64 31 65 28 66 50 67 51 68
REMARK SMILES IDX 56 69 52 70 53 71 55 72 57 73 54 74 38 75 39 76 44 77 40 78
REMARK SMILES IDX 41 79 43 80 45 81 42 82
REMARK H PARENT 8 4 4 7 73 16 12 25 62 44 36 55
REMARK Flexibility Score: inf
ROOT
ATOM      1  C   UNL A   1      35.630  33.596  33.813  1.00  0.00     0.275 C 
ATOM      2  O   UNL A   1      35.123  33.789  34.919  1.00  0.00    -0.269 OA
ATOM      3  N   UNL A   1      34.952  32.783  32.935  1.00  0.00    -0.351 N 
ATOM      4  H   UNL A   1      34.097  32.439  33.280  1.00  0.00     0.163 HD
ENDROOT
BRANCH   1   5
ATOM      5  C   UNL A   1      36.963  34.245  33.400  1.00  0.00     0.364 C 
BRANCH   5   6
ATOM      6  N   UNL A   1      38.135  33.322  33.260  1.00  0.00    -0.307 N 
ATOM      7  H   UNL A   1      37.840  32.436  32.851  1.00  0.00     0.350 HD
BRANCH   6   8
ATOM      8  C   UNL A   1      39.086  33.806  32.273  1.00  0.00     0.355 C 
BRANCH   8   9
ATOM      9  C   UNL A   1      38.659  34.145  30.912  1.00  0.00    -0.047 C 
ATOM     10  C   UNL A   1      38.259  34.193  29.782  1.00  0.00     0.010 C 
ENDBRANCH   8   9
ENDBRANCH   6   8
BRANCH   6  11
ATOM     11  C   UNL A   1      38.662  32.903  34.603  1.00  0.00     0.272 C 
ATOM     12  C   UNL A   1      40.184  32.841  34.834  1.00  0.00     0.086 C 
BRANCH  11  13
ATOM     13  C   UNL A   1      37.984  31.687  35.273  1.00  0.00     0.278 C 
ATOM     14  O   UNL A   1      37.434  31.798  36.374  1.00  0.00    -0.268 OA
ATOM     15  N   UNL A   1      38.005  30.434  34.724  1.00  0.00    -0.351 N 
ATOM     16  H   UNL A   1      37.730  29.718  35.340  1.00  0.00     0.163 HD
BRANCH  15  17
ATOM     17  C   UNL A   1      38.361  29.972  33.394  1.00  0.00     0.116 C 
BRANCH  17  18
ATOM     18  C   UNL A   1      39.800  29.480  33.303  1.00  0.00     0.018 C 
ATOM     19  C   UNL A   1      39.891  28.073  32.729  1.00  0.00     0.006 C 
ENDBRANCH  17  18
ENDBRANCH  15  17
ENDBRANCH  11  13
ENDBRANCH   6  11
ENDBRANCH   5   6
ENDBRANCH   1   5
BRANCH   3  20
ATOM     20  C   UNL A   1      35.279  32.340  31.584  1.00  0.00     0.118 C 
BRANCH  20  21
ATOM     21  C   UNL A   1      34.591  33.173  30.497  1.00  0.00     0.042 C 
BRANCH  21  22
ATOM     22  C   UNL A   1      34.957  32.793  29.076  1.00  0.00     0.118 C 
BRANCH  22  23
ATOM     23  N   UNL A   1      34.192  31.655  28.615  1.00  0.00    -0.352 N 
ATOM     24  C   UNL A   1      34.633  30.430  28.177  1.00  0.00     0.251 C 
ATOM     25  H   UNL A   1      33.214  31.775  28.615  1.00  0.00     0.163 HD
ATOM     26  O   UNL A   1      33.863  29.702  27.556  1.00  0.00    -0.269 OA
BRANCH  24  27
ATOM     27  C   UNL A   1      36.028  29.987  28.425  1.00  0.00     0.039 A 
ATOM     28  C   UNL A   1      36.954  30.080  27.383  1.00  0.00     0.014 A 
ATOM     29  C   UNL A   1      36.423  29.440  29.649  1.00  0.00     0.014 A 
ATOM     30  C   UNL A   1      38.275  29.669  27.581  1.00  0.00     0.010 A 
ATOM     31  C   UNL A   1      37.762  29.124  29.878  1.00  0.00     0.010 A 
ATOM     32  C   UNL A   1      38.701  29.218  28.842  1.00  0.00    -0.014 A 
BRANCH  32  33
ATOM     33  C   UNL A   1      40.116  28.827  29.080  1.00  0.00     0.031 A 
ATOM     34  C   UNL A   1      41.078  29.795  29.718  1.00  0.00     0.074 A 
ATOM     35  C   UNL A   1      40.547  27.612  28.685  1.00  0.00     0.049 A 
ATOM     36  N   UNL A   1      42.355  29.649  29.965  1.00  0.00    -0.248 NA
ATOM     37  C   UNL A   1      40.541  31.109  30.111  1.00  0.00     0.031 C 
ATOM     38  C   UNL A   1      39.726  26.597  28.022  1.00  0.00     0.029 A 
ATOM     39  N   UNL A   1      41.785  27.024  28.781  1.00  0.00    -0.354 N 
ATOM     40  C   UNL A   1      42.774  30.849  30.529  1.00  0.00     0.074 A 
ATOM     41  C   UNL A   1      41.629  31.731  30.540  1.00  0.00     0.031 C 
ATOM     42  C   UNL A   1      40.474  25.506  27.793  1.00  0.00     0.029 A 
ATOM     43  C   UNL A   1      41.838  25.759  28.245  1.00  0.00     0.049 A 
ATOM     44  H   UNL A   1      42.561  27.466  29.194  1.00  0.00     0.167 HD
ATOM     45  C   UNL A   1      43.994  31.176  31.015  1.00  0.00     0.037 A 
ATOM     46  C   UNL A   1      42.872  24.906  28.114  1.00  0.00     0.037 A 
ATOM     47  C   UNL A   1      45.128  30.288  31.019  1.00  0.00     0.049 A 
ATOM     48  C   UNL A   1      44.226  25.311  28.633  1.00  0.00     0.074 A 
ATOM     49  C   UNL A   1      46.390  30.509  31.541  1.00  0.00     0.029 A 
ATOM     50  N   UNL A   1      45.139  29.017  30.467  1.00  0.00    -0.354 N 
ATOM     51  N   UNL A   1      44.584  26.420  29.233  1.00  0.00    -0.248 NA
ATOM     52  C   UNL A   1      45.319  24.343  28.460  1.00  0.00     0.031 C 
ATOM     53  C   UNL A   1      47.187  29.401  31.242  1.00  0.00     0.029 A 
ATOM     54  C   UNL A   1      46.399  28.457  30.604  1.00  0.00     0.049 A 
ATOM     55  H   UNL A   1      44.368  28.578  30.040  1.00  0.00     0.167 HD
ATOM     56  C   UNL A   1      45.931  26.269  29.541  1.00  0.00     0.074 A 
ATOM     57  C   UNL A   1      46.320  24.954  29.078  1.00  0.00     0.031 C 
ATOM     58  C   UNL A   1      46.771  27.141  30.150  1.00  0.00     0.037 A 
BRANCH  45  59
ATOM     59  C   UNL A   1      44.180  32.555  31.581  1.00  0.00     0.057 A 
ATOM     60  C   UNL A   1      43.958  32.839  32.935  1.00  0.00     0.134 A 
ATOM     61  C   UNL A   1      44.659  33.598  30.776  1.00  0.00     0.134 A 
ATOM     62  F   UNL A   1      43.492  31.890  33.762  1.00  0.00    -0.206 F 
ATOM     63  C   UNL A   1      44.187  34.112  33.463  1.00  0.00     0.040 A 
ATOM     64  C   UNL A   1      44.921  34.866  31.298  1.00  0.00     0.040 A 
ATOM     65  F   UNL A   1      44.901  33.395  29.472  1.00  0.00    -0.206 F 
ATOM     66  C   UNL A   1      44.681  35.126  32.645  1.00  0.00     0.006 A 
ENDBRANCH  45  59
BRANCH  46  67
ATOM     67  C   UNL A   1      42.682  23.587  27.454  1.00  0.00     0.057 A 
ATOM     68  C   UNL A   1      42.794  23.442  26.065  1.00  0.00     0.134 A 
ATOM     69  C   UNL A   1      42.338  22.445  28.191  1.00  0.00     0.134 A 
ATOM     70  F   UNL A   1      43.105  24.500  25.300  1.00  0.00    -0.206 F 
ATOM     71  C   UNL A   1      42.534  22.226  25.431  1.00  0.00     0.040 A 
ATOM     72  C   UNL A   1      42.110  21.215  27.574  1.00  0.00     0.040 A 
ATOM     73  F   UNL A   1      42.225  22.509  29.526  1.00  0.00    -0.206 F 
ATOM     74  C   UNL A   1      42.193  21.106  26.187  1.00  0.00     0.006 A 
ENDBRANCH  46  67
BRANCH  58  75
ATOM     75  C   UNL A   1      48.182  26.685  30.398  1.00  0.00     0.057 A 
ATOM     76  C   UNL A   1      49.225  26.968  29.508  1.00  0.00     0.134 A 
ATOM     77  C   UNL A   1      48.506  25.988  31.570  1.00  0.00     0.134 A 
ATOM     78  F   UNL A   1      48.984  27.624  28.361  1.00  0.00    -0.206 F 
ATOM     79  C   UNL A   1      50.533  26.548  29.758  1.00  0.00     0.040 A 
ATOM     80  C   UNL A   1      49.815  25.595  31.848  1.00  0.00     0.040 A 
ATOM     81  F   UNL A   1      47.558  25.694  32.473  1.00  0.00    -0.206 F 
ATOM     82  C   UNL A   1      50.832  25.867  30.936  1.00  0.00     0.006 A 
ENDBRANCH  58  75
ENDBRANCH  32  33
ENDBRANCH  24  27
ENDBRANCH  22  23
ENDBRANCH  21  22
ENDBRANCH  20  21
ENDBRANCH   3  20
TORSDOF 17
ENDMDL
MODEL 2
REMARK VINA RESULT:      -8.3      3.710      9.579
REMARK SMILES C#CC[N@H+](CC(=O)NCCCNC(=O)c1ccc(-c2c3nc(c(-c4c(F)cccc4F)c4ccc([nH]4)c(-c4c(F)cccc4F)c4nc(c(-c5c(F)cccc5F)c5ccc2[nH]5)C=C4)C=C3)cc1)[C@H](C)C(=O)NCCC
REMARK SMILES IDX 6 1 7 2 8 3 5 5 4 6 3 8 2 9 1 10 69 11 70 12 71 13 72 14
REMARK SMILES IDX 73 15 74 17 75 18 76 19 9 20 10 21 11 22 12 23 13 24 14 26
REMARK SMILES IDX 15 27 16 28 68 29 17 30 67 31 18 32 19 33 20 34 61 35 21 36
REMARK SMILES IDX 66 37 60 38 62 39 22 40 65 41 59 42 58 43 23 45 49 46 32 47
REMARK SMILES IDX 48 48 33 49 36 50 47 51 63 52 34 53 35 54 46 56 64 57 37 58
REMARK SMILES IDX 24 59 25 60 30 61 26 62 27 63 29 64 31 65 28 66 50 67 51 68
REMARK SMILES IDX 56 69 52 70 53 71 55 72 57 73 54 74 38 75 39 76 44 77 40 78
REMARK SMILES IDX 41 79 43 80 45 81 42 82
REMARK H PARENT 8 4 4 7 73 16 12 25 62 44 36 55
REMARK Flexibility Score: inf
ROOT
ATOM      1  C   UNL A   1      31.601  28.341  27.181  1.00  0.00     0.275 C 
ATOM      2  O   UNL A   1      31.706  27.776  28.270  1.00  0.00    -0.269 OA
ATOM      3  N   UNL A   1      31.675  29.714  27.166  1.00  0.00    -0.351 N 
ATOM      4  H   UNL A   1      31.826  30.122  28.050  1.00  0.00     0.163 HD
ENDROOT
BRANCH   1   5
ATOM      5  C   UNL A   1      31.412  27.559  25.869  1.00  0.00     0.364 C 
BRANCH   5   6
ATOM      6  N   UNL A   1      32.654  27.277  25.080  1.00  0.00    -0.307 N 
ATOM      7  H   UNL A   1      33.341  28.016  25.226  1.00  0.00     0.350 HD
BRANCH   6   8
ATOM      8  C   UNL A   1      33.358  26.108  25.582  1.00  0.00     0.355 C 
BRANCH   8   9
ATOM      9  C   UNL A   1      32.626  24.967  26.141  1.00  0.00    -0.047 C 
ATOM     10  C   UNL A   1      31.855  24.189  26.630  1.00  0.00     0.010 C 
ENDBRANCH   8   9
ENDBRANCH   6   8
BRANCH   6  11
ATOM     11  C   UNL A   1      32.393  27.363  23.603  1.00  0.00     0.272 C 
ATOM     12  C   UNL A   1      32.970  26.285  22.667  1.00  0.00     0.086 C 
BRANCH  11  13
ATOM     13  C   UNL A   1      32.537  28.754  22.946  1.00  0.00     0.278 C 
ATOM     14  O   UNL A   1      33.630  29.333  22.928  1.00  0.00    -0.268 OA
ATOM     15  N   UNL A   1      31.476  29.433  22.413  1.00  0.00    -0.351 N 
ATOM     16  H   UNL A   1      31.657  30.381  22.222  1.00  0.00     0.163 HD
BRANCH  15  17
ATOM     17  C   UNL A   1      30.130  29.004  22.075  1.00  0.00     0.116 C 
BRANCH  17  18
ATOM     18  C   UNL A   1      29.117  29.322  23.167  1.00  0.00     0.018 C 
ATOM     19  C   UNL A   1      29.047  30.812  23.471  1.00  0.00     0.006 C 
ENDBRANCH  17  18
ENDBRANCH  15  17
ENDBRANCH  11  13
ENDBRANCH   6  11
ENDBRANCH   5   6
ENDBRANCH   1   5
BRANCH   3  20
ATOM     20  C   UNL A   1      31.568  30.673  26.072  1.00  0.00     0.118 C 
BRANCH  20  21
ATOM     21  C   UNL A   1      31.414  32.120  26.554  1.00  0.00     0.042 C 
BRANCH  21  22
ATOM     22  C   UNL A   1      32.706  32.798  26.962  1.00  0.00     0.118 C 
BRANCH  22  23
ATOM     23  N   UNL A   1      32.459  34.057  27.631  1.00  0.00    -0.352 N 
ATOM     24  C   UNL A   1      33.067  34.584  28.745  1.00  0.00     0.251 C 
ATOM     25  H   UNL A   1      31.754  34.617  27.231  1.00  0.00     0.163 HD
ATOM     26  O   UNL A   1      32.531  35.520  29.333  1.00  0.00    -0.269 OA
BRANCH  24  27
ATOM     27  C   UNL A   1      34.345  34.026  29.254  1.00  0.00     0.039 A 
ATOM     28  C   UNL A   1      34.308  33.177  30.364  1.00  0.00     0.014 A 
ATOM     29  C   UNL A   1      35.577  34.363  28.687  1.00  0.00     0.014 A 
ATOM     30  C   UNL A   1      35.492  32.637  30.871  1.00  0.00     0.010 A 
ATOM     31  C   UNL A   1      36.746  33.746  29.129  1.00  0.00     0.010 A 
ATOM     32  C   UNL A   1      36.721  32.889  30.239  1.00  0.00    -0.014 A 
BRANCH  32  33
ATOM     33  C   UNL A   1      37.981  32.278  30.737  1.00  0.00     0.031 A 
ATOM     34  C   UNL A   1      38.523  31.022  30.106  1.00  0.00     0.074 A 
ATOM     35  C   UNL A   1      38.621  32.832  31.788  1.00  0.00     0.049 A 
ATOM     36  N   UNL A   1      39.580  30.323  30.431  1.00  0.00    -0.248 NA
ATOM     37  C   UNL A   1      37.766  30.465  28.972  1.00  0.00     0.031 C 
ATOM     38  C   UNL A   1      38.180  34.025  32.513  1.00  0.00     0.029 A 
ATOM     39  N   UNL A   1      39.776  32.462  32.432  1.00  0.00    -0.354 N 
ATOM     40  C   UNL A   1      39.609  29.244  29.555  1.00  0.00     0.074 A 
ATOM     41  C   UNL A   1      38.435  29.350  28.718  1.00  0.00     0.031 C 
ATOM     42  C   UNL A   1      39.065  34.303  33.484  1.00  0.00     0.029 A 
ATOM     43  C   UNL A   1      40.107  33.282  33.486  1.00  0.00     0.049 A 
ATOM     44  H   UNL A   1      40.316  31.684  32.166  1.00  0.00     0.167 HD
ATOM     45  C   UNL A   1      40.540  28.268  29.443  1.00  0.00     0.037 A 
ATOM     46  C   UNL A   1      41.123  33.209  34.366  1.00  0.00     0.037 A 
ATOM     47  C   UNL A   1      41.717  28.175  30.267  1.00  0.00     0.049 A 
ATOM     48  C   UNL A   1      42.125  32.093  34.238  1.00  0.00     0.074 A 
ATOM     49  C   UNL A   1      42.748  27.254  30.192  1.00  0.00     0.029 A 
ATOM     50  N   UNL A   1      42.015  29.024  31.322  1.00  0.00    -0.354 N 
ATOM     51  N   UNL A   1      42.178  31.126  33.353  1.00  0.00    -0.248 NA
ATOM     52  C   UNL A   1      43.212  32.059  35.227  1.00  0.00     0.031 C 
ATOM     53  C   UNL A   1      43.633  27.502  31.244  1.00  0.00     0.029 A 
ATOM     54  C   UNL A   1      43.195  28.626  31.928  1.00  0.00     0.049 A 
ATOM     55  H   UNL A   1      41.468  29.795  31.599  1.00  0.00     0.167 HD
ATOM     56  C   UNL A   1      43.319  30.392  33.659  1.00  0.00     0.074 A 
ATOM     57  C   UNL A   1      43.939  31.038  34.796  1.00  0.00     0.031 C 
ATOM     58  C   UNL A   1      43.809  29.284  33.053  1.00  0.00     0.037 A 
BRANCH  45  59
ATOM     59  C   UNL A   1      40.331  27.211  28.397  1.00  0.00     0.057 A 
ATOM     60  C   UNL A   1      40.961  27.266  27.147  1.00  0.00     0.134 A 
ATOM     61  C   UNL A   1      39.544  26.084  28.670  1.00  0.00     0.134 A 
ATOM     62  F   UNL A   1      41.722  28.321  26.815  1.00  0.00    -0.206 F 
ATOM     63  C   UNL A   1      40.803  26.250  26.201  1.00  0.00     0.040 A 
ATOM     64  C   UNL A   1      39.403  25.046  27.746  1.00  0.00     0.040 A 
ATOM     65  F   UNL A   1      38.916  25.960  29.850  1.00  0.00    -0.206 F 
ATOM     66  C   UNL A   1      40.031  25.131  26.505  1.00  0.00     0.006 A 
ENDBRANCH  45  59
BRANCH  46  67
ATOM     67  C   UNL A   1      41.248  34.212  35.457  1.00  0.00     0.057 A 
ATOM     68  C   UNL A   1      40.637  34.015  36.703  1.00  0.00     0.134 A 
ATOM     69  C   UNL A   1      41.944  35.414  35.269  1.00  0.00     0.134 A 
ATOM     70  F   UNL A   1      39.943  32.892  36.943  1.00  0.00    -0.206 F 
ATOM     71  C   UNL A   1      40.679  34.988  37.702  1.00  0.00     0.040 A 
ATOM     72  C   UNL A   1      42.023  36.380  36.272  1.00  0.00     0.040 A 
ATOM     73  F   UNL A   1      42.563  35.663  34.105  1.00  0.00    -0.206 F 
ATOM     74  C   UNL A   1      41.377  36.175  37.489  1.00  0.00     0.006 A 
ENDBRANCH  46  67
BRANCH  58  75
ATOM     75  C   UNL A   1      45.104  28.725  33.573  1.00  0.00     0.057 A 
ATOM     76  C   UNL A   1      45.145  27.744  34.571  1.00  0.00     0.134 A 
ATOM     77  C   UNL A   1      46.326  29.148  33.033  1.00  0.00     0.134 A 
ATOM     78  F   UNL A   1      44.012  27.302  35.139  1.00  0.00    -0.206 F 
ATOM     79  C   UNL A   1      46.355  27.226  35.037  1.00  0.00     0.040 A 
ATOM     80  C   UNL A   1      47.540  28.612  33.464  1.00  0.00     0.040 A 
ATOM     81  F   UNL A   1      46.360  30.076  32.064  1.00  0.00    -0.206 F 
ATOM     82  C   UNL A   1      47.557  27.654  34.475  1.00  0.00     0.006 A 
ENDBRANCH  58  75
ENDBRANCH  32  33
ENDBRANCH  24  27
ENDBRANCH  22  23
ENDBRANCH  21  22
ENDBRANCH  20  21
ENDBRANCH   3  20
TORSDOF 17
ENDMDL
MODEL 3
REMARK VINA RESULT:      -8.3      4.139     10.002
REMARK SMILES C#CC[N@H+](CC(=O)NCCCNC(=O)c1ccc(-c2c3nc(c(-c4c(F)cccc4F)c4ccc([nH]4)c(-c4c(F)cccc4F)c4nc(c(-c5c(F)cccc5F)c5ccc2[nH]5)C=C4)C=C3)cc1)[C@H](C)C(=O)NCCC
REMARK SMILES IDX 6 1 7 2 8 3 5 5 4 6 3 8 2 9 1 10 69 11 70 12 71 13 72 14
REMARK SMILES IDX 73 15 74 17 75 18 76 19 9 20 10 21 11 22 12 23 13 24 14 26
REMARK SMILES IDX 15 27 16 28 68 29 17 30 67 31 18 32 19 33 20 34 61 35 21 36
REMARK SMILES IDX 66 37 60 38 62 39 22 40 65 41 59 42 58 43 23 45 49 46 32 47
REMARK SMILES IDX 48 48 33 49 36 50 47 51 63 52 34 53 35 54 46 56 64 57 37 58
REMARK SMILES IDX 24 59 25 60 30 61 26 62 27 63 29 64 31 65 28 66 50 67 51 68
REMARK SMILES IDX 56 69 52 70 53 71 55 72 57 73 54 74 38 75 39 76 44 77 40 78
REMARK SMILES IDX 41 79 43 80 45 81 42 82
REMARK H PARENT 8 4 4 7 73 16 12 25 62 44 36 55
REMARK Flexibility Score: inf
ROOT
ATOM      1  C   UNL A   1      32.870  28.840  26.887  1.00  0.00     0.275 C 
ATOM      2  O   UNL A   1      33.866  28.516  27.536  1.00  0.00    -0.269 OA
ATOM      3  N   UNL A   1      32.536  30.173  26.856  1.00  0.00    -0.351 N 
ATOM      4  H   UNL A   1      33.151  30.757  27.355  1.00  0.00     0.163 HD
ENDROOT
BRANCH   1   5
ATOM      5  C   UNL A   1      32.027  27.809  26.116  1.00  0.00     0.364 C 
BRANCH   5   6
ATOM      6  N   UNL A   1      32.155  27.830  24.623  1.00  0.00    -0.307 N 
ATOM      7  H   UNL A   1      32.266  28.788  24.291  1.00  0.00     0.350 HD
BRANCH   6   8
ATOM      8  C   UNL A   1      33.395  27.213  24.180  1.00  0.00     0.355 C 
BRANCH   8   9
ATOM      9  C   UNL A   1      33.858  25.948  24.758  1.00  0.00    -0.047 C 
ATOM     10  C   UNL A   1      34.162  25.004  25.433  1.00  0.00     0.010 C 
ENDBRANCH   8   9
ENDBRANCH   6   8
BRANCH   6  11
ATOM     11  C   UNL A   1      30.877  27.401  23.960  1.00  0.00     0.272 C 
ATOM     12  C   UNL A   1      30.289  26.012  24.273  1.00  0.00     0.086 C 
BRANCH  11  13
ATOM     13  C   UNL A   1      30.739  27.697  22.449  1.00  0.00     0.278 C 
ATOM     14  O   UNL A   1      31.024  26.836  21.609  1.00  0.00    -0.268 OA
ATOM     15  N   UNL A   1      30.359  28.919  21.968  1.00  0.00    -0.351 N 
ATOM     16  H   UNL A   1      30.515  29.041  21.004  1.00  0.00     0.163 HD
BRANCH  15  17
ATOM     17  C   UNL A   1      29.767  30.071  22.624  1.00  0.00     0.116 C 
BRANCH  17  18
ATOM     18  C   UNL A   1      28.244  30.028  22.636  1.00  0.00     0.018 C 
ATOM     19  C   UNL A   1      27.644  31.123  23.506  1.00  0.00     0.006 C 
ENDBRANCH  17  18
ENDBRANCH  15  17
ENDBRANCH  11  13
ENDBRANCH   6  11
ENDBRANCH   5   6
ENDBRANCH   1   5
BRANCH   3  20
ATOM     20  C   UNL A   1      31.429  30.874  26.213  1.00  0.00     0.118 C 
BRANCH  20  21
ATOM     21  C   UNL A   1      31.409  32.375  26.523  1.00  0.00     0.042 C 
BRANCH  21  22
ATOM     22  C   UNL A   1      32.664  32.907  27.185  1.00  0.00     0.118 C 
BRANCH  22  23
ATOM     23  N   UNL A   1      32.488  34.268  27.645  1.00  0.00    -0.352 N 
ATOM     24  C   UNL A   1      33.057  34.902  28.723  1.00  0.00     0.251 C 
ATOM     25  H   UNL A   1      31.872  34.818  27.109  1.00  0.00     0.163 HD
ATOM     26  O   UNL A   1      32.570  35.956  29.123  1.00  0.00    -0.269 OA
BRANCH  24  27
ATOM     27  C   UNL A   1      34.234  34.321  29.417  1.00  0.00     0.039 A 
ATOM     28  C   UNL A   1      34.018  33.516  30.538  1.00  0.00     0.014 A 
ATOM     29  C   UNL A   1      35.542  34.597  29.009  1.00  0.00     0.014 A 
ATOM     30  C   UNL A   1      35.103  32.956  31.218  1.00  0.00     0.010 A 
ATOM     31  C   UNL A   1      36.619  33.958  29.625  1.00  0.00     0.010 A 
ATOM     32  C   UNL A   1      36.414  33.144  30.748  1.00  0.00    -0.014 A 
BRANCH  32  33
ATOM     33  C   UNL A   1      37.573  32.511  31.431  1.00  0.00     0.031 A 
ATOM     34  C   UNL A   1      38.273  31.330  30.810  1.00  0.00     0.074 A 
ATOM     35  C   UNL A   1      37.974  32.975  32.632  1.00  0.00     0.049 A 
ATOM     36  N   UNL A   1      39.270  30.622  31.276  1.00  0.00    -0.248 NA
ATOM     37  C   UNL A   1      37.774  30.870  29.504  1.00  0.00     0.031 C 
ATOM     38  C   UNL A   1      37.357  34.087  33.359  1.00  0.00     0.029 A 
ATOM     39  N   UNL A   1      38.992  32.566  33.458  1.00  0.00    -0.354 N 
ATOM     40  C   UNL A   1      39.509  29.631  30.330  1.00  0.00     0.074 A 
ATOM     41  C   UNL A   1      38.519  29.796  29.289  1.00  0.00     0.031 C 
ATOM     42  C   UNL A   1      38.023  34.287  34.507  1.00  0.00     0.029 A 
ATOM     43  C   UNL A   1      39.080  33.288  34.625  1.00  0.00     0.049 A 
ATOM     44  H   UNL A   1      39.602  31.826  33.236  1.00  0.00     0.167 HD
ATOM     45  C   UNL A   1      40.479  28.686  30.319  1.00  0.00     0.037 A 
ATOM     46  C   UNL A   1      39.906  33.151  35.679  1.00  0.00     0.037 A 
ATOM     47  C   UNL A   1      41.473  28.537  31.349  1.00  0.00     0.049 A 
ATOM     48  C   UNL A   1      40.953  32.069  35.654  1.00  0.00     0.074 A 
ATOM     49  C   UNL A   1      42.531  27.646  31.399  1.00  0.00     0.029 A 
ATOM     50  N   UNL A   1      41.527  29.288  32.513  1.00  0.00    -0.354 N 
ATOM     51  N   UNL A   1      41.213  31.191  34.715  1.00  0.00    -0.248 NA
ATOM     52  C   UNL A   1      41.825  31.962  36.833  1.00  0.00     0.031 C 
ATOM     53  C   UNL A   1      43.183  27.809  32.624  1.00  0.00     0.029 A 
ATOM     54  C   UNL A   1      42.579  28.855  33.304  1.00  0.00     0.049 A 
ATOM     55  H   UNL A   1      40.910  30.019  32.744  1.00  0.00     0.167 HD
ATOM     56  C   UNL A   1      42.297  30.452  35.175  1.00  0.00     0.074 A 
ATOM     57  C   UNL A   1      42.658  30.999  36.466  1.00  0.00     0.031 C 
ATOM     58  C   UNL A   1      42.936  29.415  34.582  1.00  0.00     0.037 A 
BRANCH  45  59
ATOM     59  C   UNL A   1      40.516  27.729  29.162  1.00  0.00     0.057 A 
ATOM     60  C   UNL A   1      39.692  26.597  29.106  1.00  0.00     0.134 A 
ATOM     61  C   UNL A   1      41.337  27.981  28.055  1.00  0.00     0.134 A 
ATOM     62  F   UNL A   1      38.887  26.290  30.136  1.00  0.00    -0.206 F 
ATOM     63  C   UNL A   1      39.695  25.743  28.001  1.00  0.00     0.040 A 
ATOM     64  C   UNL A   1      41.326  27.153  26.931  1.00  0.00     0.040 A 
ATOM     65  F   UNL A   1      42.147  29.051  28.037  1.00  0.00    -0.206 F 
ATOM     66  C   UNL A   1      40.506  26.027  26.904  1.00  0.00     0.006 A 
ENDBRANCH  45  59
BRANCH  46  67
ATOM     67  C   UNL A   1      39.778  34.048  36.859  1.00  0.00     0.057 A 
ATOM     68  C   UNL A   1      40.481  35.258  36.935  1.00  0.00     0.134 A 
ATOM     69  C   UNL A   1      38.985  33.698  37.960  1.00  0.00     0.134 A 
ATOM     70  F   UNL A   1      41.270  35.644  35.921  1.00  0.00    -0.206 F 
ATOM     71  C   UNL A   1      40.431  36.064  38.073  1.00  0.00     0.040 A 
ATOM     72  C   UNL A   1      38.899  34.512  39.090  1.00  0.00     0.040 A 
ATOM     73  F   UNL A   1      38.276  32.560  37.949  1.00  0.00    -0.206 F 
ATOM     74  C   UNL A   1      39.635  35.693  39.155  1.00  0.00     0.006 A 
ENDBRANCH  46  67
BRANCH  58  75
ATOM     75  C   UNL A   1      44.123  28.832  35.297  1.00  0.00     0.057 A 
ATOM     76  C   UNL A   1      44.004  27.757  36.187  1.00  0.00     0.134 A 
ATOM     77  C   UNL A   1      45.411  29.331  35.057  1.00  0.00     0.134 A 
ATOM     78  F   UNL A   1      42.799  27.238  36.471  1.00  0.00    -0.206 F 
ATOM     79  C   UNL A   1      45.117  27.219  36.836  1.00  0.00     0.040 A 
ATOM     80  C   UNL A   1      46.535  28.778  35.671  1.00  0.00     0.040 A 
ATOM     81  F   UNL A   1      45.600  30.351  34.207  1.00  0.00    -0.206 F 
ATOM     82  C   UNL A   1      46.388  27.724  36.571  1.00  0.00     0.006 A 
ENDBRANCH  58  75
ENDBRANCH  32  33
ENDBRANCH  24  27
ENDBRANCH  22  23
ENDBRANCH  21  22
ENDBRANCH  20  21
ENDBRANCH   3  20
TORSDOF 17
ENDMDL
