MODEL 1
REMARK VINA RESULT:     -12.8      0.000      0.000
REMARK SMILES CCOc1ccc2[nH]c(C)c/c(=N\c3cccc(C(=O)NCCCNC(=O)c4ccc(-c5c6nc(c(-c7c(F)cccc7F)c7ccc([nH]7)c(-c7c(F)cccc7F)c7nc(c(-c8c(F)cccc8F)c8ccc5[nH]8)C=C7)C=C6)cc4)c3)c2c1
REMARK SMILES IDX 22 1 21 2 19 3 20 4 18 6 14 7 15 8 82 9 16 10 17 11 13 12
REMARK SMILES IDX 4 13 5 14 84 15 6 16 83 17 7 18 12 19 8 20 11 21 9 22 10 24
REMARK SMILES IDX 3 25 2 26 1 27 23 28 24 29 25 30 26 31 27 33 28 34 29 35
REMARK SMILES IDX 81 36 30 37 80 38 31 39 32 40 33 41 74 42 34 43 79 44 73 45
REMARK SMILES IDX 75 46 35 47 78 48 72 49 71 50 36 52 62 53 45 54 61 55 46 56
REMARK SMILES IDX 49 57 60 58 76 59 47 60 48 61 59 63 77 64 50 65 37 66 38 67
REMARK SMILES IDX 43 68 39 69 40 70 42 71 44 72 41 73 63 74 64 75 69 76 65 77
REMARK SMILES IDX 66 78 68 79 70 80 67 81 51 82 52 83 57 84 53 85 54 86 56 87
REMARK SMILES IDX 58 88 55 89
REMARK H PARENT 21 5 8 23 25 32 75 51 49 62
REMARK Flexibility Score: inf
ROOT
ATOM      1  C   UNL A   1      33.034  29.398  24.883  1.00  0.00     0.118 C 
ENDROOT
BRANCH   1   2
ATOM      2  N   UNL A   1      32.802  28.484  23.772  1.00  0.00    -0.352 N 
ATOM      3  C   UNL A   1      32.627  27.131  23.626  1.00  0.00     0.251 C 
ATOM      4  O   UNL A   1      32.444  26.735  22.471  1.00  0.00    -0.269 OA
ATOM      5  H   UNL A   1      32.759  28.957  22.910  1.00  0.00     0.163 HD
BRANCH   3   6
ATOM      6  C   UNL A   1      32.691  26.118  24.720  1.00  0.00     0.041 A 
ATOM      7  C   UNL A   1      33.806  24.396  26.021  1.00  0.00     0.064 A 
ATOM      8  C   UNL A   1      32.613  24.085  26.672  1.00  0.00     0.028 A 
ATOM      9  C   UNL A   1      33.849  25.490  25.157  1.00  0.00     0.042 A 
ATOM     10  C   UNL A   1      31.446  24.768  26.332  1.00  0.00     0.003 A 
ATOM     11  C   UNL A   1      31.480  25.748  25.334  1.00  0.00     0.014 A 
BRANCH   7  12
ATOM     12  N   UNL A   1      34.961  23.596  26.088  1.00  0.00    -0.248 NA
ATOM     13  C   UNL A   1      38.612  21.407  25.576  1.00  0.00     0.120 A 
ATOM     14  C   UNL A   1      38.515  20.050  25.273  1.00  0.00     0.048 A 
ATOM     15  C   UNL A   1      37.461  22.188  25.696  1.00  0.00     0.059 A 
ATOM     16  C   UNL A   1      37.273  19.480  25.004  1.00  0.00     0.030 A 
ATOM     17  C   UNL A   1      36.207  21.611  25.442  1.00  0.00     0.027 A 
ATOM     18  C   UNL A   1      36.113  20.255  25.070  1.00  0.00     0.048 A 
ATOM     19  C   UNL A   1      34.944  22.417  25.523  1.00  0.00     0.075 A 
ATOM     20  N   UNL A   1      34.878  19.692  24.733  1.00  0.00    -0.359 N 
ATOM     21  C   UNL A   1      33.732  21.763  24.911  1.00  0.00     0.050 A 
ATOM     22  C   UNL A   1      33.745  20.455  24.611  1.00  0.00     0.014 A 
ATOM     23  H   UNL A   1      34.821  18.721  24.578  1.00  0.00     0.166 HD
ATOM     24  C   UNL A   1      32.499  19.762  24.137  1.00  0.00     0.064 C 
BRANCH  13  25
ATOM     25  O   UNL A   1      39.826  21.963  25.874  1.00  0.00    -0.494 OA
BRANCH  25  26
ATOM     26  C   UNL A   1      40.616  21.165  26.768  1.00  0.00     0.226 C 
ATOM     27  C   UNL A   1      42.109  21.402  26.589  1.00  0.00     0.049 C 
ENDBRANCH  25  26
ENDBRANCH  13  25
ENDBRANCH   7  12
ENDBRANCH   3   6
ENDBRANCH   1   2
BRANCH   1  28
ATOM     28  C   UNL A   1      31.766  30.057  25.398  1.00  0.00     0.042 C 
BRANCH  28  29
ATOM     29  C   UNL A   1      31.865  30.535  26.836  1.00  0.00     0.118 C 
BRANCH  29  30
ATOM     30  N   UNL A   1      31.919  31.990  26.954  1.00  0.00    -0.352 N 
ATOM     31  C   UNL A   1      32.855  32.833  27.507  1.00  0.00     0.251 C 
ATOM     32  H   UNL A   1      31.140  32.453  26.567  1.00  0.00     0.163 HD
ATOM     33  O   UNL A   1      32.590  34.021  27.648  1.00  0.00    -0.269 OA
BRANCH  31  34
ATOM     34  C   UNL A   1      34.164  32.315  27.970  1.00  0.00     0.039 A 
ATOM     35  C   UNL A   1      34.347  30.963  28.237  1.00  0.00     0.014 A 
ATOM     36  C   UNL A   1      35.236  33.200  28.131  1.00  0.00     0.014 A 
ATOM     37  C   UNL A   1      35.494  30.538  28.891  1.00  0.00     0.010 A 
ATOM     38  C   UNL A   1      36.447  32.742  28.663  1.00  0.00     0.010 A 
ATOM     39  C   UNL A   1      36.563  31.419  29.114  1.00  0.00    -0.014 A 
BRANCH  39  40
ATOM     40  C   UNL A   1      37.772  30.918  29.819  1.00  0.00     0.031 A 
ATOM     41  C   UNL A   1      38.012  31.234  31.272  1.00  0.00     0.074 A 
ATOM     42  C   UNL A   1      38.624  30.104  29.164  1.00  0.00     0.049 A 
ATOM     43  N   UNL A   1      38.983  30.834  32.056  1.00  0.00    -0.248 NA
ATOM     44  C   UNL A   1      37.046  32.127  31.931  1.00  0.00     0.031 C 
ATOM     45  C   UNL A   1      38.512  29.729  27.753  1.00  0.00     0.029 A 
ATOM     46  N   UNL A   1      39.727  29.418  29.602  1.00  0.00    -0.354 N 
ATOM     47  C   UNL A   1      38.763  31.446  33.284  1.00  0.00     0.074 A 
ATOM     48  C   UNL A   1      37.583  32.272  33.134  1.00  0.00     0.031 C 
ATOM     49  C   UNL A   1      39.463  28.832  27.458  1.00  0.00     0.029 A 
ATOM     50  C   UNL A   1      40.296  28.624  28.636  1.00  0.00     0.049 A 
ATOM     51  H   UNL A   1      40.079  29.490  30.519  1.00  0.00     0.167 HD
ATOM     52  C   UNL A   1      39.469  31.326  34.434  1.00  0.00     0.037 A 
ATOM     53  C   UNL A   1      41.378  27.827  28.684  1.00  0.00     0.037 A 
ATOM     54  C   UNL A   1      40.629  30.486  34.591  1.00  0.00     0.049 A 
ATOM     55  C   UNL A   1      42.148  27.716  29.965  1.00  0.00     0.074 A 
ATOM     56  C   UNL A   1      41.389  30.263  35.725  1.00  0.00     0.029 A 
ATOM     57  N   UNL A   1      41.197  29.728  33.576  1.00  0.00    -0.354 N 
ATOM     58  N   UNL A   1      41.909  28.282  31.123  1.00  0.00    -0.248 NA
ATOM     59  C   UNL A   1      43.342  26.861  29.944  1.00  0.00     0.031 C 
ATOM     60  C   UNL A   1      42.444  29.407  35.387  1.00  0.00     0.029 A 
ATOM     61  C   UNL A   1      42.314  29.059  34.052  1.00  0.00     0.049 A 
ATOM     62  H   UNL A   1      40.858  29.674  32.654  1.00  0.00     0.167 HD
ATOM     63  C   UNL A   1      42.923  27.853  31.970  1.00  0.00     0.074 A 
ATOM     64  C   UNL A   1      43.757  26.953  31.200  1.00  0.00     0.031 C 
ATOM     65  C   UNL A   1      43.145  28.181  33.266  1.00  0.00     0.037 A 
BRANCH  52  66
ATOM     66  C   UNL A   1      39.019  32.153  35.605  1.00  0.00     0.057 A 
ATOM     67  C   UNL A   1      38.214  31.591  36.605  1.00  0.00     0.134 A 
ATOM     68  C   UNL A   1      39.381  33.499  35.752  1.00  0.00     0.134 A 
ATOM     69  F   UNL A   1      37.822  30.311  36.524  1.00  0.00    -0.206 F 
ATOM     70  C   UNL A   1      37.793  32.334  37.710  1.00  0.00     0.040 A 
ATOM     71  C   UNL A   1      38.990  34.244  36.867  1.00  0.00     0.040 A 
ATOM     72  F   UNL A   1      40.163  34.097  34.840  1.00  0.00    -0.206 F 
ATOM     73  C   UNL A   1      38.192  33.662  37.849  1.00  0.00     0.006 A 
ENDBRANCH  52  66
BRANCH  53  74
ATOM     74  C   UNL A   1      41.800  27.090  27.467  1.00  0.00     0.057 A 
ATOM     75  C   UNL A   1      41.405  25.763  27.251  1.00  0.00     0.134 A 
ATOM     76  C   UNL A   1      42.621  27.685  26.504  1.00  0.00     0.134 A 
ATOM     77  F   UNL A   1      40.625  25.136  28.142  1.00  0.00    -0.206 F 
ATOM     78  C   UNL A   1      41.829  25.048  26.132  1.00  0.00     0.040 A 
ATOM     79  C   UNL A   1      43.030  26.990  25.365  1.00  0.00     0.040 A 
ATOM     80  F   UNL A   1      43.017  28.959  26.646  1.00  0.00    -0.206 F 
ATOM     81  C   UNL A   1      42.640  25.664  25.181  1.00  0.00     0.006 A 
ENDBRANCH  53  74
BRANCH  65  82
ATOM     82  C   UNL A   1      44.340  27.554  33.922  1.00  0.00     0.057 A 
ATOM     83  C   UNL A   1      44.229  26.328  34.588  1.00  0.00     0.134 A 
ATOM     84  C   UNL A   1      45.601  28.164  33.891  1.00  0.00     0.134 A 
ATOM     85  F   UNL A   1      43.049  25.694  34.658  1.00  0.00    -0.206 F 
ATOM     86  C   UNL A   1      45.333  25.727  35.196  1.00  0.00     0.040 A 
ATOM     87  C   UNL A   1      46.717  27.561  34.474  1.00  0.00     0.040 A 
ATOM     88  F   UNL A   1      45.776  29.331  33.253  1.00  0.00    -0.206 F 
ATOM     89  C   UNL A   1      46.583  26.341  35.132  1.00  0.00     0.006 A 
ENDBRANCH  65  82
ENDBRANCH  39  40
ENDBRANCH  31  34
ENDBRANCH  29  30
ENDBRANCH  28  29
ENDBRANCH   1  28
TORSDOF 13
ENDMDL
MODEL 2
REMARK VINA RESULT:     -12.6      3.584      9.538
REMARK SMILES CCOc1ccc2[nH]c(C)c/c(=N\c3cccc(C(=O)NCCCNC(=O)c4ccc(-c5c6nc(c(-c7c(F)cccc7F)c7ccc([nH]7)c(-c7c(F)cccc7F)c7nc(c(-c8c(F)cccc8F)c8ccc5[nH]8)C=C7)C=C6)cc4)c3)c2c1
REMARK SMILES IDX 22 1 21 2 19 3 20 4 18 6 14 7 15 8 82 9 16 10 17 11 13 12
REMARK SMILES IDX 4 13 5 14 84 15 6 16 83 17 7 18 12 19 8 20 11 21 9 22 10 24
REMARK SMILES IDX 3 25 2 26 1 27 23 28 24 29 25 30 26 31 27 33 28 34 29 35
REMARK SMILES IDX 81 36 30 37 80 38 31 39 32 40 33 41 74 42 34 43 79 44 73 45
REMARK SMILES IDX 75 46 35 47 78 48 72 49 71 50 36 52 62 53 45 54 61 55 46 56
REMARK SMILES IDX 49 57 60 58 76 59 47 60 48 61 59 63 77 64 50 65 37 66 38 67
REMARK SMILES IDX 43 68 39 69 40 70 42 71 44 72 41 73 63 74 64 75 69 76 65 77
REMARK SMILES IDX 66 78 68 79 70 80 67 81 51 82 52 83 57 84 53 85 54 86 56 87
REMARK SMILES IDX 58 88 55 89
REMARK H PARENT 21 5 8 23 25 32 75 51 49 62
REMARK Flexibility Score: inf
ROOT
ATOM      1  C   UNL A   1      35.152  21.412  26.211  1.00  0.00     0.118 C 
ENDROOT
BRANCH   1   2
ATOM      2  N   UNL A   1      33.708  21.442  26.026  1.00  0.00    -0.352 N 
ATOM      3  C   UNL A   1      32.821  22.190  25.293  1.00  0.00     0.251 C 
ATOM      4  O   UNL A   1      31.631  21.882  25.415  1.00  0.00    -0.269 OA
ATOM      5  H   UNL A   1      33.254  20.752  26.562  1.00  0.00     0.163 HD
BRANCH   3   6
ATOM      6  C   UNL A   1      33.167  23.350  24.423  1.00  0.00     0.041 A 
ATOM      7  C   UNL A   1      33.673  25.694  24.029  1.00  0.00     0.064 A 
ATOM      8  C   UNL A   1      33.599  25.500  22.650  1.00  0.00     0.028 A 
ATOM      9  C   UNL A   1      33.586  24.592  24.880  1.00  0.00     0.042 A 
ATOM     10  C   UNL A   1      33.281  24.239  22.149  1.00  0.00     0.003 A 
ATOM     11  C   UNL A   1      33.027  23.184  23.033  1.00  0.00     0.014 A 
BRANCH   7  12
ATOM     12  N   UNL A   1      33.713  26.962  24.636  1.00  0.00    -0.248 NA
ATOM     13  C   UNL A   1      33.524  30.471  27.093  1.00  0.00     0.120 A 
ATOM     14  C   UNL A   1      32.482  31.368  26.860  1.00  0.00     0.048 A 
ATOM     15  C   UNL A   1      33.607  29.281  26.368  1.00  0.00     0.059 A 
ATOM     16  C   UNL A   1      31.469  31.044  25.961  1.00  0.00     0.030 A 
ATOM     17  C   UNL A   1      32.595  28.962  25.450  1.00  0.00     0.027 A 
ATOM     18  C   UNL A   1      31.506  29.837  25.262  1.00  0.00     0.048 A 
ATOM     19  C   UNL A   1      32.621  27.679  24.672  1.00  0.00     0.075 A 
ATOM     20  N   UNL A   1      30.450  29.490  24.412  1.00  0.00    -0.359 N 
ATOM     21  C   UNL A   1      31.326  27.324  23.987  1.00  0.00     0.050 A 
ATOM     22  C   UNL A   1      30.358  28.244  23.847  1.00  0.00     0.014 A 
ATOM     23  H   UNL A   1      29.754  30.158  24.217  1.00  0.00     0.166 HD
ATOM     24  C   UNL A   1      29.125  27.946  23.041  1.00  0.00     0.064 C 
BRANCH  13  25
ATOM     25  O   UNL A   1      34.539  30.799  27.950  1.00  0.00    -0.494 OA
BRANCH  25  26
ATOM     26  C   UNL A   1      34.460  32.145  28.441  1.00  0.00     0.226 C 
ATOM     27  C   UNL A   1      35.634  32.999  27.981  1.00  0.00     0.049 C 
ENDBRANCH  25  26
ENDBRANCH  13  25
ENDBRANCH   7  12
ENDBRANCH   3   6
ENDBRANCH   1   2
BRANCH   1  28
ATOM     28  C   UNL A   1      35.905  20.886  25.001  1.00  0.00     0.042 C 
BRANCH  28  29
ATOM     29  C   UNL A   1      37.343  21.367  24.919  1.00  0.00     0.118 C 
BRANCH  29  30
ATOM     30  N   UNL A   1      38.309  20.364  25.361  1.00  0.00    -0.352 N 
ATOM     31  C   UNL A   1      39.510  20.474  26.024  1.00  0.00     0.251 C 
ATOM     32  H   UNL A   1      38.053  19.437  25.145  1.00  0.00     0.163 HD
ATOM     33  O   UNL A   1      40.235  19.492  26.128  1.00  0.00    -0.269 OA
BRANCH  31  34
ATOM     34  C   UNL A   1      39.954  21.773  26.580  1.00  0.00     0.039 A 
ATOM     35  C   UNL A   1      39.392  22.969  26.147  1.00  0.00     0.014 A 
ATOM     36  C   UNL A   1      40.948  21.796  27.564  1.00  0.00     0.014 A 
ATOM     37  C   UNL A   1      39.980  24.175  26.498  1.00  0.00     0.010 A 
ATOM     38  C   UNL A   1      41.448  23.020  28.025  1.00  0.00     0.010 A 
ATOM     39  C   UNL A   1      41.016  24.221  27.443  1.00  0.00    -0.014 A 
BRANCH  39  40
ATOM     40  C   UNL A   1      41.616  25.537  27.788  1.00  0.00     0.031 A 
ATOM     41  C   UNL A   1      42.962  25.945  27.246  1.00  0.00     0.074 A 
ATOM     42  C   UNL A   1      40.906  26.407  28.534  1.00  0.00     0.049 A 
ATOM     43  N   UNL A   1      43.607  27.075  27.400  1.00  0.00    -0.248 NA
ATOM     44  C   UNL A   1      43.686  24.952  26.438  1.00  0.00     0.031 C 
ATOM     45  C   UNL A   1      39.596  26.131  29.129  1.00  0.00     0.029 A 
ATOM     46  N   UNL A   1      41.164  27.705  28.890  1.00  0.00    -0.354 N 
ATOM     47  C   UNL A   1      44.818  26.919  26.737  1.00  0.00     0.074 A 
ATOM     48  C   UNL A   1      44.833  25.573  26.206  1.00  0.00     0.031 C 
ATOM     49  C   UNL A   1      39.136  27.244  29.717  1.00  0.00     0.029 A 
ATOM     50  C   UNL A   1      40.147  28.288  29.606  1.00  0.00     0.049 A 
ATOM     51  H   UNL A   1      41.999  28.173  28.657  1.00  0.00     0.167 HD
ATOM     52  C   UNL A   1      45.821  27.815  26.576  1.00  0.00     0.037 A 
ATOM     53  C   UNL A   1      40.043  29.522  30.131  1.00  0.00     0.037 A 
ATOM     54  C   UNL A   1      45.796  29.163  27.083  1.00  0.00     0.049 A 
ATOM     55  C   UNL A   1      41.169  30.493  29.946  1.00  0.00     0.074 A 
ATOM     56  C   UNL A   1      46.743  30.161  26.937  1.00  0.00     0.029 A 
ATOM     57  N   UNL A   1      44.764  29.702  27.839  1.00  0.00    -0.354 N 
ATOM     58  N   UNL A   1      42.295  30.337  29.294  1.00  0.00    -0.248 NA
ATOM     59  C   UNL A   1      41.012  31.811  30.576  1.00  0.00     0.031 C 
ATOM     60  C   UNL A   1      46.307  31.289  27.643  1.00  0.00     0.029 A 
ATOM     61  C   UNL A   1      45.065  31.010  28.189  1.00  0.00     0.049 A 
ATOM     62  H   UNL A   1      43.940  29.227  28.090  1.00  0.00     0.167 HD
ATOM     63  C   UNL A   1      42.984  31.534  29.435  1.00  0.00     0.074 A 
ATOM     64  C   UNL A   1      42.131  32.418  30.205  1.00  0.00     0.031 C 
ATOM     65  C   UNL A   1      44.213  31.869  28.974  1.00  0.00     0.037 A 
BRANCH  52  66
ATOM     66  C   UNL A   1      47.048  27.348  25.843  1.00  0.00     0.057 A 
ATOM     67  C   UNL A   1      48.096  26.727  26.535  1.00  0.00     0.134 A 
ATOM     68  C   UNL A   1      47.194  27.503  24.458  1.00  0.00     0.134 A 
ATOM     69  F   UNL A   1      48.026  26.553  27.864  1.00  0.00    -0.206 F 
ATOM     70  C   UNL A   1      49.240  26.271  25.877  1.00  0.00     0.040 A 
ATOM     71  C   UNL A   1      48.321  27.026  23.784  1.00  0.00     0.040 A 
ATOM     72  F   UNL A   1      46.223  28.075  23.730  1.00  0.00    -0.206 F 
ATOM     73  C   UNL A   1      49.349  26.410  24.494  1.00  0.00     0.006 A 
ENDBRANCH  52  66
BRANCH  53  74
ATOM     74  C   UNL A   1      38.827  29.890  30.899  1.00  0.00     0.057 A 
ATOM     75  C   UNL A   1      37.741  30.518  30.276  1.00  0.00     0.134 A 
ATOM     76  C   UNL A   1      38.731  29.644  32.272  1.00  0.00     0.134 A 
ATOM     77  F   UNL A   1      37.777  30.788  28.963  1.00  0.00    -0.206 F 
ATOM     78  C   UNL A   1      36.610  30.906  30.994  1.00  0.00     0.040 A 
ATOM     79  C   UNL A   1      37.593  30.002  32.998  1.00  0.00     0.040 A 
ATOM     80  F   UNL A   1      39.731  29.030  32.921  1.00  0.00    -0.206 F 
ATOM     81  C   UNL A   1      36.533  30.643  32.360  1.00  0.00     0.006 A 
ENDBRANCH  53  74
BRANCH  65  82
ATOM     82  C   UNL A   1      44.697  33.252  29.294  1.00  0.00     0.057 A 
ATOM     83  C   UNL A   1      45.462  33.495  30.440  1.00  0.00     0.134 A 
ATOM     84  C   UNL A   1      44.408  34.343  28.464  1.00  0.00     0.134 A 
ATOM     85  F   UNL A   1      45.770  32.495  31.280  1.00  0.00    -0.206 F 
ATOM     86  C   UNL A   1      45.927  34.775  30.748  1.00  0.00     0.040 A 
ATOM     87  C   UNL A   1      44.889  35.623  28.747  1.00  0.00     0.040 A 
ATOM     88  F   UNL A   1      43.695  34.173  27.340  1.00  0.00    -0.206 F 
ATOM     89  C   UNL A   1      45.648  35.842  29.895  1.00  0.00     0.006 A 
ENDBRANCH  65  82
ENDBRANCH  39  40
ENDBRANCH  31  34
ENDBRANCH  29  30
ENDBRANCH  28  29
ENDBRANCH   1  28
TORSDOF 13
ENDMDL
MODEL 3
REMARK VINA RESULT:     -12.4      1.558      2.541
REMARK SMILES CCOc1ccc2[nH]c(C)c/c(=N\c3cccc(C(=O)NCCCNC(=O)c4ccc(-c5c6nc(c(-c7c(F)cccc7F)c7ccc([nH]7)c(-c7c(F)cccc7F)c7nc(c(-c8c(F)cccc8F)c8ccc5[nH]8)C=C7)C=C6)cc4)c3)c2c1
REMARK SMILES IDX 22 1 21 2 19 3 20 4 18 6 14 7 15 8 82 9 16 10 17 11 13 12
REMARK SMILES IDX 4 13 5 14 84 15 6 16 83 17 7 18 12 19 8 20 11 21 9 22 10 24
REMARK SMILES IDX 3 25 2 26 1 27 23 28 24 29 25 30 26 31 27 33 28 34 29 35
REMARK SMILES IDX 81 36 30 37 80 38 31 39 32 40 33 41 74 42 34 43 79 44 73 45
REMARK SMILES IDX 75 46 35 47 78 48 72 49 71 50 36 52 62 53 45 54 61 55 46 56
REMARK SMILES IDX 49 57 60 58 76 59 47 60 48 61 59 63 77 64 50 65 37 66 38 67
REMARK SMILES IDX 43 68 39 69 40 70 42 71 44 72 41 73 63 74 64 75 69 76 65 77
REMARK SMILES IDX 66 78 68 79 70 80 67 81 51 82 52 83 57 84 53 85 54 86 56 87
REMARK SMILES IDX 58 88 55 89
REMARK H PARENT 21 5 8 23 25 32 75 51 49 62
REMARK Flexibility Score: inf
ROOT
ATOM      1  C   UNL A   1      31.662  30.452  26.449  1.00  0.00     0.118 C 
ENDROOT
BRANCH   1   2
ATOM      2  N   UNL A   1      32.318  30.052  25.212  1.00  0.00    -0.352 N 
ATOM      3  C   UNL A   1      32.680  28.865  24.625  1.00  0.00     0.251 C 
ATOM      4  O   UNL A   1      33.233  28.957  23.525  1.00  0.00    -0.269 OA
ATOM      5  H   UNL A   1      32.562  30.827  24.657  1.00  0.00     0.163 HD
BRANCH   3   6
ATOM      6  C   UNL A   1      32.510  27.508  25.221  1.00  0.00     0.041 A 
ATOM      7  C   UNL A   1      33.341  25.373  26.030  1.00  0.00     0.064 A 
ATOM      8  C   UNL A   1      32.040  24.885  26.143  1.00  0.00     0.028 A 
ATOM      9  C   UNL A   1      33.544  26.712  25.698  1.00  0.00     0.042 A 
ATOM     10  C   UNL A   1      30.968  25.694  25.771  1.00  0.00     0.003 A 
ATOM     11  C   UNL A   1      31.207  26.981  25.275  1.00  0.00     0.014 A 
BRANCH   7  12
ATOM     12  N   UNL A   1      34.486  24.561  26.113  1.00  0.00    -0.248 NA
ATOM     13  C   UNL A   1      38.161  22.393  25.687  1.00  0.00     0.120 A 
ATOM     14  C   UNL A   1      38.083  21.065  25.269  1.00  0.00     0.048 A 
ATOM     15  C   UNL A   1      37.006  23.170  25.787  1.00  0.00     0.059 A 
ATOM     16  C   UNL A   1      36.863  20.528  24.867  1.00  0.00     0.030 A 
ATOM     17  C   UNL A   1      35.773  22.625  25.398  1.00  0.00     0.027 A 
ATOM     18  C   UNL A   1      35.703  21.304  24.912  1.00  0.00     0.048 A 
ATOM     19  C   UNL A   1      34.509  23.432  25.454  1.00  0.00     0.075 A 
ATOM     20  N   UNL A   1      34.494  20.779  24.444  1.00  0.00    -0.359 N 
ATOM     21  C   UNL A   1      33.342  22.839  24.707  1.00  0.00     0.050 A 
ATOM     22  C   UNL A   1      33.374  21.559  24.304  1.00  0.00     0.014 A 
ATOM     23  H   UNL A   1      34.447  19.825  24.207  1.00  0.00     0.166 HD
ATOM     24  C   UNL A   1      32.164  20.916  23.687  1.00  0.00     0.064 C 
BRANCH  13  25
ATOM     25  O   UNL A   1      39.352  22.914  26.114  1.00  0.00    -0.494 OA
BRANCH  25  26
ATOM     26  C   UNL A   1      40.318  21.914  26.469  1.00  0.00     0.226 C 
ATOM     27  C   UNL A   1      40.742  22.011  27.929  1.00  0.00     0.049 C 
ENDBRANCH  25  26
ENDBRANCH  13  25
ENDBRANCH   7  12
ENDBRANCH   3   6
ENDBRANCH   1   2
BRANCH   1  28
ATOM     28  C   UNL A   1      31.511  31.958  26.592  1.00  0.00     0.042 C 
BRANCH  28  29
ATOM     29  C   UNL A   1      32.705  32.632  27.247  1.00  0.00     0.118 C 
BRANCH  29  30
ATOM     30  N   UNL A   1      32.437  34.012  27.644  1.00  0.00    -0.352 N 
ATOM     31  C   UNL A   1      33.022  34.828  28.585  1.00  0.00     0.251 C 
ATOM     32  H   UNL A   1      31.701  34.438  27.145  1.00  0.00     0.163 HD
ATOM     33  O   UNL A   1      32.500  35.900  28.863  1.00  0.00    -0.269 OA
BRANCH  31  34
ATOM     34  C   UNL A   1      34.254  34.408  29.293  1.00  0.00     0.039 A 
ATOM     35  C   UNL A   1      35.509  34.606  28.728  1.00  0.00     0.014 A 
ATOM     36  C   UNL A   1      34.153  33.812  30.555  1.00  0.00     0.014 A 
ATOM     37  C   UNL A   1      36.622  33.997  29.289  1.00  0.00     0.010 A 
ATOM     38  C   UNL A   1      35.299  33.320  31.190  1.00  0.00     0.010 A 
ATOM     39  C   UNL A   1      36.536  33.345  30.529  1.00  0.00    -0.014 A 
BRANCH  39  40
ATOM     40  C   UNL A   1      37.756  32.707  31.091  1.00  0.00     0.031 A 
ATOM     41  C   UNL A   1      38.321  33.142  32.418  1.00  0.00     0.074 A 
ATOM     42  C   UNL A   1      38.315  31.670  30.435  1.00  0.00     0.049 A 
ATOM     43  N   UNL A   1      39.343  32.657  33.080  1.00  0.00    -0.248 NA
ATOM     44  C   UNL A   1      37.665  34.278  33.084  1.00  0.00     0.031 C 
ATOM     45  C   UNL A   1      37.872  31.159  29.137  1.00  0.00     0.029 A 
ATOM     46  N   UNL A   1      39.350  30.841  30.782  1.00  0.00    -0.354 N 
ATOM     47  C   UNL A   1      39.469  33.443  34.219  1.00  0.00     0.074 A 
ATOM     48  C   UNL A   1      38.440  34.458  34.144  1.00  0.00     0.031 C 
ATOM     49  C   UNL A   1      38.582  30.065  28.828  1.00  0.00     0.029 A 
ATOM     50  C   UNL A   1      39.579  29.841  29.868  1.00  0.00     0.049 A 
ATOM     51  H   UNL A   1      39.878  30.951  31.606  1.00  0.00     0.167 HD
ATOM     52  C   UNL A   1      40.353  33.325  35.240  1.00  0.00     0.037 A 
ATOM     53  C   UNL A   1      40.499  28.860  29.856  1.00  0.00     0.037 A 
ATOM     54  C   UNL A   1      41.362  32.301  35.328  1.00  0.00     0.049 A 
ATOM     55  C   UNL A   1      41.471  28.756  30.992  1.00  0.00     0.074 A 
ATOM     56  C   UNL A   1      42.277  32.071  36.340  1.00  0.00     0.029 A 
ATOM     57  N   UNL A   1      41.588  31.331  34.360  1.00  0.00    -0.354 N 
ATOM     58  N   UNL A   1      41.559  29.492  32.073  1.00  0.00    -0.248 NA
ATOM     59  C   UNL A   1      42.476  27.689  30.903  1.00  0.00     0.031 C 
ATOM     60  C   UNL A   1      43.087  30.993  35.964  1.00  0.00     0.029 A 
ATOM     61  C   UNL A   1      42.645  30.519  34.739  1.00  0.00     0.049 A 
ATOM     62  H   UNL A   1      41.073  31.234  33.527  1.00  0.00     0.167 HD
ATOM     63  C   UNL A   1      42.629  28.979  32.794  1.00  0.00     0.074 A 
ATOM     64  C   UNL A   1      43.135  27.848  32.042  1.00  0.00     0.031 C 
ATOM     65  C   UNL A   1      43.149  29.410  33.969  1.00  0.00     0.037 A 
BRANCH  52  66
ATOM     66  C   UNL A   1      40.284  34.359  36.330  1.00  0.00     0.057 A 
ATOM     67  C   UNL A   1      40.976  35.570  36.206  1.00  0.00     0.134 A 
ATOM     68  C   UNL A   1      39.533  34.163  37.497  1.00  0.00     0.134 A 
ATOM     69  F   UNL A   1      41.721  35.821  35.119  1.00  0.00    -0.206 F 
ATOM     70  C   UNL A   1      40.917  36.552  37.197  1.00  0.00     0.040 A 
ATOM     71  C   UNL A   1      39.443  35.149  38.482  1.00  0.00     0.040 A 
ATOM     72  F   UNL A   1      38.833  33.033  37.675  1.00  0.00    -0.206 F 
ATOM     73  C   UNL A   1      40.139  36.347  38.335  1.00  0.00     0.006 A 
ENDBRANCH  52  66
BRANCH  53  74
ATOM     74  C   UNL A   1      40.548  27.916  28.712  1.00  0.00     0.057 A 
ATOM     75  C   UNL A   1      41.345  28.179  27.590  1.00  0.00     0.134 A 
ATOM     76  C   UNL A   1      39.786  26.744  28.703  1.00  0.00     0.134 A 
ATOM     77  F   UNL A   1      42.090  29.292  27.537  1.00  0.00    -0.206 F 
ATOM     78  C   UNL A   1      41.367  27.321  26.492  1.00  0.00     0.040 A 
ATOM     79  C   UNL A   1      39.820  25.861  27.622  1.00  0.00     0.040 A 
ATOM     80  F   UNL A   1      39.017  26.428  29.755  1.00  0.00    -0.206 F 
ATOM     81  C   UNL A   1      40.606  26.154  26.509  1.00  0.00     0.006 A 
ENDBRANCH  53  74
BRANCH  65  82
ATOM     82  C   UNL A   1      44.324  28.645  34.504  1.00  0.00     0.057 A 
ATOM     83  C   UNL A   1      45.632  29.030  34.189  1.00  0.00     0.134 A 
ATOM     84  C   UNL A   1      44.159  27.530  35.336  1.00  0.00     0.134 A 
ATOM     85  F   UNL A   1      45.859  30.086  33.394  1.00  0.00    -0.206 F 
ATOM     86  C   UNL A   1      46.736  28.335  34.686  1.00  0.00     0.040 A 
ATOM     87  C   UNL A   1      45.255  26.842  35.859  1.00  0.00     0.040 A 
ATOM     88  F   UNL A   1      42.930  27.122  35.690  1.00  0.00    -0.206 F 
ATOM     89  C   UNL A   1      46.548  27.242  35.531  1.00  0.00     0.006 A 
ENDBRANCH  65  82
ENDBRANCH  39  40
ENDBRANCH  31  34
ENDBRANCH  29  30
ENDBRANCH  28  29
ENDBRANCH   1  28
TORSDOF 13
ENDMDL
