MODEL 1
REMARK VINA RESULT:     -12.2      0.000      0.000
REMARK SMILES O=C(CCc1nc(-c2ccccc2)c(-c2ccccc2)o1)NCCCNC(=O)c1ccc(-c2c3nc(c(-c4c(F)cccc4F)c4ccc([nH]4)c(-c4c(F)cccc4F)c4nc(c(-c5c(F)cccc5F)c5ccc2[nH]5)C=C4)C=C3)cc1
REMARK SMILES IDX 23 1 22 2 1 3 2 4 3 6 4 7 5 8 6 9 21 10 7 11 14 12 8 13 9 14
REMARK SMILES IDX 13 15 10 16 12 17 11 18 15 19 16 20 20 21 17 22 19 23 18 24
REMARK SMILES IDX 24 25 25 26 26 27 27 28 28 30 29 31 30 32 82 33 31 34 81 35
REMARK SMILES IDX 32 36 33 37 34 38 75 39 35 40 80 41 74 42 76 43 36 44 79 45
REMARK SMILES IDX 73 46 72 47 37 49 63 50 46 51 62 52 47 53 50 54 61 55 77 56
REMARK SMILES IDX 48 57 49 58 60 60 78 61 51 62 38 63 39 64 44 65 40 66 41 67
REMARK SMILES IDX 43 68 45 69 42 70 64 71 65 72 70 73 66 74 67 75 69 76 71 77
REMARK SMILES IDX 68 78 52 79 53 80 58 81 54 82 55 83 57 84 59 85 56 86
REMARK H PARENT 22 5 26 29 76 48 50 59
REMARK Flexibility Score: inf
ROOT
ATOM      1  C   UNL A   1      35.642  22.257  25.681  1.00  0.00     0.117 C 
ENDROOT
BRANCH   1   2
ATOM      2  N   UNL A   1      34.482  22.466  24.840  1.00  0.00    -0.356 N 
ATOM      3  O   UNL A   1      35.520  23.659  23.178  1.00  0.00    -0.275 OA
ATOM      4  C   UNL A   1      34.511  23.125  23.637  1.00  0.00     0.220 C 
ATOM      5  H   UNL A   1      33.616  22.115  25.152  1.00  0.00     0.163 HD
BRANCH   4   6
ATOM      6  C   UNL A   1      33.179  23.186  22.908  1.00  0.00     0.110 C 
BRANCH   6   7
ATOM      7  C   UNL A   1      33.106  24.299  21.861  1.00  0.00     0.107 C 
BRANCH   7   8
ATOM      8  C   UNL A   1      32.466  25.530  22.404  1.00  0.00     0.196 A 
ATOM      9  N   UNL A   1      31.404  26.157  21.930  1.00  0.00    -0.213 NA
ATOM     10  O   UNL A   1      32.973  26.055  23.569  1.00  0.00    -0.440 OA
ATOM     11  C   UNL A   1      31.192  27.157  22.834  1.00  0.00     0.117 A 
ATOM     12  C   UNL A   1      32.129  27.097  23.843  1.00  0.00     0.162 A 
BRANCH  11  13
ATOM     13  C   UNL A   1      30.123  28.121  22.781  1.00  0.00     0.004 A 
ATOM     14  C   UNL A   1      28.854  27.794  23.265  1.00  0.00     0.010 A 
ATOM     15  C   UNL A   1      30.328  29.338  22.122  1.00  0.00     0.010 A 
ATOM     16  C   UNL A   1      27.790  28.671  23.059  1.00  0.00     0.001 A 
ATOM     17  C   UNL A   1      29.256  30.196  21.891  1.00  0.00     0.001 A 
ATOM     18  C   UNL A   1      27.988  29.864  22.363  1.00  0.00     0.000 A 
ENDBRANCH  11  13
BRANCH  12  19
ATOM     19  C   UNL A   1      32.324  27.879  25.046  1.00  0.00     0.020 A 
ATOM     20  C   UNL A   1      32.853  29.171  24.981  1.00  0.00     0.012 A 
ATOM     21  C   UNL A   1      31.780  27.424  26.256  1.00  0.00     0.012 A 
ATOM     22  C   UNL A   1      32.784  30.011  26.098  1.00  0.00     0.001 A 
ATOM     23  C   UNL A   1      31.699  28.265  27.364  1.00  0.00     0.001 A 
ATOM     24  C   UNL A   1      32.192  29.564  27.279  1.00  0.00     0.000 A 
ENDBRANCH  12  19
ENDBRANCH   7   8
ENDBRANCH   6   7
ENDBRANCH   4   6
ENDBRANCH   1   2
BRANCH   1  25
ATOM     25  C   UNL A   1      36.502  21.085  25.213  1.00  0.00     0.042 C 
BRANCH  25  26
ATOM     26  C   UNL A   1      38.006  21.350  25.163  1.00  0.00     0.118 C 
BRANCH  26  27
ATOM     27  N   UNL A   1      38.816  20.150  25.305  1.00  0.00    -0.352 N 
ATOM     28  C   UNL A   1      40.077  19.962  25.817  1.00  0.00     0.251 C 
ATOM     29  H   UNL A   1      38.384  19.328  24.978  1.00  0.00     0.163 HD
ATOM     30  O   UNL A   1      40.609  18.858  25.673  1.00  0.00    -0.269 OA
BRANCH  28  31
ATOM     31  C   UNL A   1      40.841  21.045  26.494  1.00  0.00     0.039 A 
ATOM     32  C   UNL A   1      41.599  21.910  25.690  1.00  0.00     0.014 A 
ATOM     33  C   UNL A   1      40.859  21.225  27.881  1.00  0.00     0.014 A 
ATOM     34  C   UNL A   1      42.254  23.009  26.250  1.00  0.00     0.010 A 
ATOM     35  C   UNL A   1      41.473  22.347  28.442  1.00  0.00     0.010 A 
ATOM     36  C   UNL A   1      42.130  23.272  27.622  1.00  0.00    -0.014 A 
BRANCH  36  37
ATOM     37  C   UNL A   1      42.485  24.602  28.173  1.00  0.00     0.031 A 
ATOM     38  C   UNL A   1      41.468  25.686  28.350  1.00  0.00     0.074 A 
ATOM     39  C   UNL A   1      43.790  24.844  28.403  1.00  0.00     0.049 A 
ATOM     40  N   UNL A   1      41.643  26.916  28.762  1.00  0.00    -0.248 NA
ATOM     41  C   UNL A   1      40.079  25.358  28.001  1.00  0.00     0.031 C 
ATOM     42  C   UNL A   1      44.873  23.877  28.194  1.00  0.00     0.029 A 
ATOM     43  N   UNL A   1      44.435  25.974  28.834  1.00  0.00    -0.354 N 
ATOM     44  C   UNL A   1      40.389  27.510  28.730  1.00  0.00     0.074 A 
ATOM     45  C   UNL A   1      39.468  26.517  28.217  1.00  0.00     0.031 C 
ATOM     46  C   UNL A   1      46.044  24.453  28.500  1.00  0.00     0.029 A 
ATOM     47  C   UNL A   1      45.800  25.834  28.896  1.00  0.00     0.049 A 
ATOM     48  H   UNL A   1      43.965  26.805  29.077  1.00  0.00     0.167 HD
ATOM     49  C   UNL A   1      40.045  28.766  29.106  1.00  0.00     0.037 A 
ATOM     50  C   UNL A   1      46.754  26.724  29.223  1.00  0.00     0.037 A 
ATOM     51  C   UNL A   1      40.980  29.746  29.603  1.00  0.00     0.049 A 
ATOM     52  C   UNL A   1      46.346  28.110  29.623  1.00  0.00     0.074 A 
ATOM     53  C   UNL A   1      40.723  31.023  30.075  1.00  0.00     0.029 A 
ATOM     54  N   UNL A   1      42.353  29.565  29.676  1.00  0.00    -0.354 N 
ATOM     55  N   UNL A   1      45.144  28.629  29.683  1.00  0.00    -0.248 NA
ATOM     56  C   UNL A   1      47.423  29.030  30.009  1.00  0.00     0.031 C 
ATOM     57  C   UNL A   1      41.945  31.630  30.388  1.00  0.00     0.029 A 
ATOM     58  C   UNL A   1      42.960  30.716  30.154  1.00  0.00     0.049 A 
ATOM     59  H   UNL A   1      42.829  28.741  29.423  1.00  0.00     0.167 HD
ATOM     60  C   UNL A   1      45.315  29.929  30.133  1.00  0.00     0.074 A 
ATOM     61  C   UNL A   1      46.737  30.113  30.345  1.00  0.00     0.031 C 
ATOM     62  C   UNL A   1      44.379  30.884  30.350  1.00  0.00     0.037 A 
BRANCH  49  63
ATOM     63  C   UNL A   1      38.598  29.154  28.998  1.00  0.00     0.057 A 
ATOM     64  C   UNL A   1      37.732  29.080  30.098  1.00  0.00     0.134 A 
ATOM     65  C   UNL A   1      38.076  29.660  27.801  1.00  0.00     0.134 A 
ATOM     66  F   UNL A   1      38.166  28.602  31.274  1.00  0.00    -0.206 F 
ATOM     67  C   UNL A   1      36.396  29.472  30.004  1.00  0.00     0.040 A 
ATOM     68  C   UNL A   1      36.747  30.076  27.701  1.00  0.00     0.040 A 
ATOM     69  F   UNL A   1      38.851  29.767  26.711  1.00  0.00    -0.206 F 
ATOM     70  C   UNL A   1      35.901  29.978  28.804  1.00  0.00     0.006 A 
ENDBRANCH  49  63
BRANCH  50  71
ATOM     71  C   UNL A   1      48.179  26.311  29.208  1.00  0.00     0.057 A 
ATOM     72  C   UNL A   1      48.969  26.492  28.068  1.00  0.00     0.134 A 
ATOM     73  C   UNL A   1      48.792  25.756  30.338  1.00  0.00     0.134 A 
ATOM     74  F   UNL A   1      48.432  27.009  26.952  1.00  0.00    -0.206 F 
ATOM     75  C   UNL A   1      50.314  26.125  28.045  1.00  0.00     0.040 A 
ATOM     76  C   UNL A   1      50.143  25.406  30.337  1.00  0.00     0.040 A 
ATOM     77  F   UNL A   1      48.092  25.570  31.467  1.00  0.00    -0.206 F 
ATOM     78  C   UNL A   1      50.906  25.586  29.185  1.00  0.00     0.006 A 
ENDBRANCH  50  71
BRANCH  62  79
ATOM     79  C   UNL A   1      44.869  32.208  30.856  1.00  0.00     0.057 A 
ATOM     80  C   UNL A   1      45.017  32.462  32.226  1.00  0.00     0.134 A 
ATOM     81  C   UNL A   1      45.214  33.231  29.964  1.00  0.00     0.134 A 
ATOM     82  F   UNL A   1      44.687  31.528  33.130  1.00  0.00    -0.206 F 
ATOM     83  C   UNL A   1      45.473  33.696  32.691  1.00  0.00     0.040 A 
ATOM     84  C   UNL A   1      45.694  34.461  30.417  1.00  0.00     0.040 A 
ATOM     85  F   UNL A   1      45.098  33.049  28.640  1.00  0.00    -0.206 F 
ATOM     86  C   UNL A   1      45.819  34.697  31.785  1.00  0.00     0.006 A 
ENDBRANCH  62  79
ENDBRANCH  36  37
ENDBRANCH  28  31
ENDBRANCH  26  27
ENDBRANCH  25  26
ENDBRANCH   1  25
TORSDOF 14
ENDMDL
MODEL 2
REMARK VINA RESULT:     -12.1      1.130      2.508
REMARK SMILES O=C(CCc1nc(-c2ccccc2)c(-c2ccccc2)o1)NCCCNC(=O)c1ccc(-c2c3nc(c(-c4c(F)cccc4F)c4ccc([nH]4)c(-c4c(F)cccc4F)c4nc(c(-c5c(F)cccc5F)c5ccc2[nH]5)C=C4)C=C3)cc1
REMARK SMILES IDX 23 1 22 2 1 3 2 4 3 6 4 7 5 8 6 9 21 10 7 11 14 12 8 13 9 14
REMARK SMILES IDX 13 15 10 16 12 17 11 18 15 19 16 20 20 21 17 22 19 23 18 24
REMARK SMILES IDX 24 25 25 26 26 27 27 28 28 30 29 31 30 32 82 33 31 34 81 35
REMARK SMILES IDX 32 36 33 37 34 38 75 39 35 40 80 41 74 42 76 43 36 44 79 45
REMARK SMILES IDX 73 46 72 47 37 49 63 50 46 51 62 52 47 53 50 54 61 55 77 56
REMARK SMILES IDX 48 57 49 58 60 60 78 61 51 62 38 63 39 64 44 65 40 66 41 67
REMARK SMILES IDX 43 68 45 69 42 70 64 71 65 72 70 73 66 74 67 75 69 76 71 77
REMARK SMILES IDX 68 78 52 79 53 80 58 81 54 82 55 83 57 84 59 85 56 86
REMARK H PARENT 22 5 26 29 76 48 50 59
REMARK Flexibility Score: inf
ROOT
ATOM      1  C   UNL A   1      35.984  20.211  24.985  1.00  0.00     0.117 C 
ENDROOT
BRANCH   1   2
ATOM      2  N   UNL A   1      34.679  20.832  24.898  1.00  0.00    -0.356 N 
ATOM      3  O   UNL A   1      33.440  18.912  24.691  1.00  0.00    -0.275 OA
ATOM      4  C   UNL A   1      33.502  20.137  24.787  1.00  0.00     0.220 C 
ATOM      5  H   UNL A   1      34.634  21.815  24.918  1.00  0.00     0.163 HD
BRANCH   4   6
ATOM      6  C   UNL A   1      32.250  20.999  24.754  1.00  0.00     0.110 C 
BRANCH   6   7
ATOM      7  C   UNL A   1      32.218  21.988  23.588  1.00  0.00     0.107 C 
BRANCH   7   8
ATOM      8  C   UNL A   1      31.941  23.378  24.047  1.00  0.00     0.196 A 
ATOM      9  N   UNL A   1      32.539  24.032  25.028  1.00  0.00    -0.213 NA
ATOM     10  O   UNL A   1      31.014  24.112  23.346  1.00  0.00    -0.440 OA
ATOM     11  C   UNL A   1      31.976  25.273  24.974  1.00  0.00     0.117 A 
ATOM     12  C   UNL A   1      31.059  25.341  23.948  1.00  0.00     0.162 A 
BRANCH  11  13
ATOM     13  C   UNL A   1      32.308  26.382  25.833  1.00  0.00     0.004 A 
ATOM     14  C   UNL A   1      31.331  26.964  26.643  1.00  0.00     0.010 A 
ATOM     15  C   UNL A   1      33.581  26.955  25.751  1.00  0.00     0.010 A 
ATOM     16  C   UNL A   1      31.621  28.135  27.343  1.00  0.00     0.001 A 
ATOM     17  C   UNL A   1      33.857  28.142  26.425  1.00  0.00     0.001 A 
ATOM     18  C   UNL A   1      32.878  28.729  27.224  1.00  0.00     0.000 A 
ENDBRANCH  11  13
BRANCH  12  19
ATOM     19  C   UNL A   1      30.233  26.417  23.441  1.00  0.00     0.020 A 
ATOM     20  C   UNL A   1      28.891  26.526  23.818  1.00  0.00     0.012 A 
ATOM     21  C   UNL A   1      30.835  27.474  22.742  1.00  0.00     0.012 A 
ATOM     22  C   UNL A   1      28.184  27.702  23.549  1.00  0.00     0.001 A 
ATOM     23  C   UNL A   1      30.134  28.650  22.486  1.00  0.00     0.001 A 
ATOM     24  C   UNL A   1      28.810  28.768  22.901  1.00  0.00     0.000 A 
ENDBRANCH  12  19
ENDBRANCH   7   8
ENDBRANCH   6   7
ENDBRANCH   4   6
ENDBRANCH   1   2
BRANCH   1  25
ATOM     25  C   UNL A   1      37.115  21.167  24.615  1.00  0.00     0.042 C 
BRANCH  25  26
ATOM     26  C   UNL A   1      38.249  21.274  25.636  1.00  0.00     0.118 C 
BRANCH  26  27
ATOM     27  N   UNL A   1      39.163  20.144  25.614  1.00  0.00    -0.352 N 
ATOM     28  C   UNL A   1      40.487  20.042  25.968  1.00  0.00     0.251 C 
ATOM     29  H   UNL A   1      38.764  19.305  25.289  1.00  0.00     0.163 HD
ATOM     30  O   UNL A   1      41.086  18.996  25.700  1.00  0.00    -0.269 OA
BRANCH  28  31
ATOM     31  C   UNL A   1      41.235  21.152  26.619  1.00  0.00     0.039 A 
ATOM     32  C   UNL A   1      41.926  22.047  25.790  1.00  0.00     0.014 A 
ATOM     33  C   UNL A   1      41.300  21.329  28.005  1.00  0.00     0.014 A 
ATOM     34  C   UNL A   1      42.560  23.169  26.328  1.00  0.00     0.010 A 
ATOM     35  C   UNL A   1      41.893  22.472  28.545  1.00  0.00     0.010 A 
ATOM     36  C   UNL A   1      42.480  23.424  27.704  1.00  0.00    -0.014 A 
BRANCH  36  37
ATOM     37  C   UNL A   1      42.805  24.766  28.246  1.00  0.00     0.031 A 
ATOM     38  C   UNL A   1      41.762  25.824  28.423  1.00  0.00     0.074 A 
ATOM     39  C   UNL A   1      44.105  25.041  28.466  1.00  0.00     0.049 A 
ATOM     40  N   UNL A   1      41.909  27.061  28.828  1.00  0.00    -0.248 NA
ATOM     41  C   UNL A   1      40.380  25.460  28.086  1.00  0.00     0.031 C 
ATOM     42  C   UNL A   1      45.211  24.102  28.255  1.00  0.00     0.029 A 
ATOM     43  N   UNL A   1      44.724  26.189  28.887  1.00  0.00    -0.354 N 
ATOM     44  C   UNL A   1      40.640  27.623  28.801  1.00  0.00     0.074 A 
ATOM     45  C   UNL A   1      39.741  26.604  28.299  1.00  0.00     0.031 C 
ATOM     46  C   UNL A   1      46.369  24.708  28.550  1.00  0.00     0.029 A 
ATOM     47  C   UNL A   1      46.093  26.085  28.940  1.00  0.00     0.049 A 
ATOM     48  H   UNL A   1      44.235  27.010  29.128  1.00  0.00     0.167 HD
ATOM     49  C   UNL A   1      40.267  28.872  29.173  1.00  0.00     0.037 A 
ATOM     50  C   UNL A   1      47.026  27.000  29.257  1.00  0.00     0.037 A 
ATOM     51  C   UNL A   1      41.180  29.878  29.659  1.00  0.00     0.049 A 
ATOM     52  C   UNL A   1      46.586  28.377  29.652  1.00  0.00     0.074 A 
ATOM     53  C   UNL A   1      40.894  31.151  30.125  1.00  0.00     0.029 A 
ATOM     54  N   UNL A   1      42.558  29.732  29.723  1.00  0.00    -0.354 N 
ATOM     55  N   UNL A   1      45.372  28.866  29.717  1.00  0.00    -0.248 NA
ATOM     56  C   UNL A   1      47.642  29.326  30.027  1.00  0.00     0.031 C 
ATOM     57  C   UNL A   1      42.103  31.789  30.427  1.00  0.00     0.029 A 
ATOM     58  C   UNL A   1      43.139  30.900  30.192  1.00  0.00     0.049 A 
ATOM     59  H   UNL A   1      43.053  28.919  29.471  1.00  0.00     0.167 HD
ATOM     60  C   UNL A   1      45.512  30.172  30.159  1.00  0.00     0.074 A 
ATOM     61  C   UNL A   1      46.931  30.393  30.362  1.00  0.00     0.031 C 
ATOM     62  C   UNL A   1      44.555  31.105  30.377  1.00  0.00     0.037 A 
BRANCH  49  63
ATOM     63  C   UNL A   1      38.810  29.223  29.072  1.00  0.00     0.057 A 
ATOM     64  C   UNL A   1      38.228  29.611  27.858  1.00  0.00     0.134 A 
ATOM     65  C   UNL A   1      37.967  29.119  30.186  1.00  0.00     0.134 A 
ATOM     66  F   UNL A   1      38.979  29.735  26.753  1.00  0.00    -0.206 F 
ATOM     67  C   UNL A   1      36.867  29.905  27.761  1.00  0.00     0.040 A 
ATOM     68  C   UNL A   1      36.600  29.388  30.096  1.00  0.00     0.040 A 
ATOM     69  F   UNL A   1      38.455  28.744  31.378  1.00  0.00    -0.206 F 
ATOM     70  C   UNL A   1      36.047  29.787  28.880  1.00  0.00     0.006 A 
ENDBRANCH  49  63
BRANCH  50  71
ATOM     71  C   UNL A   1      48.460  26.623  29.235  1.00  0.00     0.057 A 
ATOM     72  C   UNL A   1      49.255  26.882  28.113  1.00  0.00     0.134 A 
ATOM     73  C   UNL A   1      49.077  26.026  30.341  1.00  0.00     0.134 A 
ATOM     74  F   UNL A   1      48.716  27.441  27.020  1.00  0.00    -0.206 F 
ATOM     75  C   UNL A   1      50.610  26.549  28.085  1.00  0.00     0.040 A 
ATOM     76  C   UNL A   1      50.436  25.709  30.336  1.00  0.00     0.040 A 
ATOM     77  F   UNL A   1      48.373  25.765  31.452  1.00  0.00    -0.206 F 
ATOM     78  C   UNL A   1      51.205  25.966  29.202  1.00  0.00     0.006 A 
ENDBRANCH  50  71
BRANCH  62  79
ATOM     79  C   UNL A   1      45.014  32.444  30.873  1.00  0.00     0.057 A 
ATOM     80  C   UNL A   1      45.165  32.709  32.241  1.00  0.00     0.134 A 
ATOM     81  C   UNL A   1      45.327  33.470  29.974  1.00  0.00     0.134 A 
ATOM     82  F   UNL A   1      44.864  31.772  33.152  1.00  0.00    -0.206 F 
ATOM     83  C   UNL A   1      45.592  33.956  32.696  1.00  0.00     0.040 A 
ATOM     84  C   UNL A   1      45.779  34.714  30.417  1.00  0.00     0.040 A 
ATOM     85  F   UNL A   1      45.207  33.279  28.652  1.00  0.00    -0.206 F 
ATOM     86  C   UNL A   1      45.907  34.961  31.783  1.00  0.00     0.006 A 
ENDBRANCH  62  79
ENDBRANCH  36  37
ENDBRANCH  28  31
ENDBRANCH  26  27
ENDBRANCH  25  26
ENDBRANCH   1  25
TORSDOF 14
ENDMDL
MODEL 3
REMARK VINA RESULT:     -12.1      2.338      7.524
REMARK SMILES O=C(CCc1nc(-c2ccccc2)c(-c2ccccc2)o1)NCCCNC(=O)c1ccc(-c2c3nc(c(-c4c(F)cccc4F)c4ccc([nH]4)c(-c4c(F)cccc4F)c4nc(c(-c5c(F)cccc5F)c5ccc2[nH]5)C=C4)C=C3)cc1
REMARK SMILES IDX 23 1 22 2 1 3 2 4 3 6 4 7 5 8 6 9 21 10 7 11 14 12 8 13 9 14
REMARK SMILES IDX 13 15 10 16 12 17 11 18 15 19 16 20 20 21 17 22 19 23 18 24
REMARK SMILES IDX 24 25 25 26 26 27 27 28 28 30 29 31 30 32 82 33 31 34 81 35
REMARK SMILES IDX 32 36 33 37 34 38 75 39 35 40 80 41 74 42 76 43 36 44 79 45
REMARK SMILES IDX 73 46 72 47 37 49 63 50 46 51 62 52 47 53 50 54 61 55 77 56
REMARK SMILES IDX 48 57 49 58 60 60 78 61 51 62 38 63 39 64 44 65 40 66 41 67
REMARK SMILES IDX 43 68 45 69 42 70 64 71 65 72 70 73 66 74 67 75 69 76 71 77
REMARK SMILES IDX 68 78 52 79 53 80 58 81 54 82 55 83 57 84 59 85 56 86
REMARK H PARENT 22 5 26 29 76 48 50 59
REMARK Flexibility Score: inf
ROOT
ATOM      1  C   UNL A   1      31.975  29.692  25.270  1.00  0.00     0.117 C 
ENDROOT
BRANCH   1   2
ATOM      2  N   UNL A   1      31.450  28.499  24.639  1.00  0.00    -0.356 N 
ATOM      3  O   UNL A   1      29.871  29.520  23.325  1.00  0.00    -0.275 OA
ATOM      4  C   UNL A   1      30.458  28.503  23.691  1.00  0.00     0.220 C 
ATOM      5  H   UNL A   1      31.828  27.630  24.907  1.00  0.00     0.163 HD
BRANCH   4   6
ATOM      6  C   UNL A   1      30.098  27.134  23.136  1.00  0.00     0.110 C 
BRANCH   6   7
ATOM      7  C   UNL A   1      29.975  26.051  24.210  1.00  0.00     0.107 C 
BRANCH   7   8
ATOM      8  C   UNL A   1      31.109  25.086  24.154  1.00  0.00     0.196 A 
ATOM      9  N   UNL A   1      32.400  25.362  24.221  1.00  0.00    -0.213 NA
ATOM     10  O   UNL A   1      30.807  23.746  24.099  1.00  0.00    -0.440 OA
ATOM     11  C   UNL A   1      32.990  24.131  24.210  1.00  0.00     0.117 A 
ATOM     12  C   UNL A   1      32.034  23.141  24.152  1.00  0.00     0.162 A 
BRANCH  11  13
ATOM     13  C   UNL A   1      34.407  23.882  24.290  1.00  0.00     0.004 A 
ATOM     14  C   UNL A   1      35.083  23.310  23.209  1.00  0.00     0.010 A 
ATOM     15  C   UNL A   1      35.074  24.091  25.501  1.00  0.00     0.010 A 
ATOM     16  C   UNL A   1      36.415  22.922  23.355  1.00  0.00     0.001 A 
ATOM     17  C   UNL A   1      36.393  23.672  25.653  1.00  0.00     0.001 A 
ATOM     18  C   UNL A   1      37.065  23.091  24.578  1.00  0.00     0.000 A 
ENDBRANCH  11  13
BRANCH  12  19
ATOM     19  C   UNL A   1      32.119  21.695  24.161  1.00  0.00     0.020 A 
ATOM     20  C   UNL A   1      32.100  20.970  22.966  1.00  0.00     0.012 A 
ATOM     21  C   UNL A   1      32.439  21.034  25.356  1.00  0.00     0.012 A 
ATOM     22  C   UNL A   1      32.453  19.617  22.965  1.00  0.00     0.001 A 
ATOM     23  C   UNL A   1      32.803  19.689  25.352  1.00  0.00     0.001 A 
ATOM     24  C   UNL A   1      32.822  18.984  24.153  1.00  0.00     0.000 A 
ENDBRANCH  12  19
ENDBRANCH   7   8
ENDBRANCH   6   7
ENDBRANCH   4   6
ENDBRANCH   1   2
BRANCH   1  25
ATOM     25  C   UNL A   1      33.393  29.498  25.803  1.00  0.00     0.042 C 
BRANCH  25  26
ATOM     26  C   UNL A   1      33.514  29.366  27.322  1.00  0.00     0.118 C 
BRANCH  26  27
ATOM     27  N   UNL A   1      33.779  30.625  27.998  1.00  0.00    -0.352 N 
ATOM     28  C   UNL A   1      34.868  31.057  28.717  1.00  0.00     0.251 C 
ATOM     29  H   UNL A   1      33.052  31.285  27.929  1.00  0.00     0.163 HD
ATOM     30  O   UNL A   1      34.778  32.122  29.334  1.00  0.00    -0.269 OA
BRANCH  28  31
ATOM     31  C   UNL A   1      36.129  30.273  28.818  1.00  0.00     0.039 A 
ATOM     32  C   UNL A   1      36.966  30.237  27.693  1.00  0.00     0.014 A 
ATOM     33  C   UNL A   1      36.503  29.557  29.960  1.00  0.00     0.014 A 
ATOM     34  C   UNL A   1      38.212  29.608  27.754  1.00  0.00     0.010 A 
ATOM     35  C   UNL A   1      37.766  28.967  30.043  1.00  0.00     0.010 A 
ATOM     36  C   UNL A   1      38.647  29.035  28.957  1.00  0.00    -0.014 A 
BRANCH  36  37
ATOM     37  C   UNL A   1      40.077  28.703  29.165  1.00  0.00     0.031 A 
ATOM     38  C   UNL A   1      41.060  29.709  29.675  1.00  0.00     0.074 A 
ATOM     39  C   UNL A   1      40.490  27.485  28.764  1.00  0.00     0.049 A 
ATOM     40  N   UNL A   1      42.351  29.580  29.849  1.00  0.00    -0.248 NA
ATOM     41  C   UNL A   1      40.536  31.038  30.016  1.00  0.00     0.031 C 
ATOM     42  C   UNL A   1      39.624  26.453  28.184  1.00  0.00     0.029 A 
ATOM     43  N   UNL A   1      41.736  26.914  28.754  1.00  0.00    -0.354 N 
ATOM     44  C   UNL A   1      42.796  30.806  30.325  1.00  0.00     0.074 A 
ATOM     45  C   UNL A   1      41.641  31.680  30.373  1.00  0.00     0.031 C 
ATOM     46  C   UNL A   1      40.363  25.376  27.879  1.00  0.00     0.029 A 
ATOM     47  C   UNL A   1      41.754  25.651  28.211  1.00  0.00     0.049 A 
ATOM     48  H   UNL A   1      42.540  27.364  29.102  1.00  0.00     0.167 HD
ATOM     49  C   UNL A   1      44.051  31.157  30.696  1.00  0.00     0.037 A 
ATOM     50  C   UNL A   1      42.781  24.811  27.993  1.00  0.00     0.037 A 
ATOM     51  C   UNL A   1      45.191  30.276  30.629  1.00  0.00     0.049 A 
ATOM     52  C   UNL A   1      44.161  25.230  28.402  1.00  0.00     0.074 A 
ATOM     53  C   UNL A   1      46.491  30.513  31.044  1.00  0.00     0.029 A 
ATOM     54  N   UNL A   1      45.172  28.995  30.097  1.00  0.00    -0.354 N 
ATOM     55  N   UNL A   1      44.552  26.358  28.943  1.00  0.00    -0.248 NA
ATOM     56  C   UNL A   1      45.240  24.261  28.179  1.00  0.00     0.031 C 
ATOM     57  C   UNL A   1      47.267  29.393  30.720  1.00  0.00     0.029 A 
ATOM     58  C   UNL A   1      46.442  28.441  30.144  1.00  0.00     0.049 A 
ATOM     59  H   UNL A   1      44.373  28.545  29.736  1.00  0.00     0.167 HD
ATOM     60  C   UNL A   1      45.917  26.229  29.146  1.00  0.00     0.074 A 
ATOM     61  C   UNL A   1      46.283  24.904  28.683  1.00  0.00     0.031 C 
ATOM     62  C   UNL A   1      46.789  27.125  29.668  1.00  0.00     0.037 A 
BRANCH  49  63
ATOM     63  C   UNL A   1      44.260  32.553  31.210  1.00  0.00     0.057 A 
ATOM     64  C   UNL A   1      44.229  32.845  32.580  1.00  0.00     0.134 A 
ATOM     65  C   UNL A   1      44.551  33.607  30.334  1.00  0.00     0.134 A 
ATOM     66  F   UNL A   1      43.953  31.883  33.474  1.00  0.00    -0.206 F 
ATOM     67  C   UNL A   1      44.457  34.137  33.058  1.00  0.00     0.040 A 
ATOM     68  C   UNL A   1      44.803  34.898  30.801  1.00  0.00     0.040 A 
ATOM     69  F   UNL A   1      44.606  33.397  29.010  1.00  0.00    -0.206 F 
ATOM     70  C   UNL A   1      44.751  35.167  32.168  1.00  0.00     0.006 A 
ENDBRANCH  49  63
BRANCH  50  71
ATOM     71  C   UNL A   1      42.526  23.484  27.382  1.00  0.00     0.057 A 
ATOM     72  C   UNL A   1      42.664  23.288  26.004  1.00  0.00     0.134 A 
ATOM     73  C   UNL A   1      42.170  22.376  28.161  1.00  0.00     0.134 A 
ATOM     74  F   UNL A   1      42.992  24.316  25.207  1.00  0.00    -0.206 F 
ATOM     75  C   UNL A   1      42.444  22.041  25.418  1.00  0.00     0.040 A 
ATOM     76  C   UNL A   1      41.970  21.118  27.591  1.00  0.00     0.040 A 
ATOM     77  F   UNL A   1      42.035  22.496  29.490  1.00  0.00    -0.206 F 
ATOM     78  C   UNL A   1      42.102  20.950  26.214  1.00  0.00     0.006 A 
ENDBRANCH  50  71
BRANCH  62  79
ATOM     79  C   UNL A   1      48.220  26.691  29.776  1.00  0.00     0.057 A 
ATOM     80  C   UNL A   1      48.689  25.971  30.883  1.00  0.00     0.134 A 
ATOM     81  C   UNL A   1      49.133  26.980  28.754  1.00  0.00     0.134 A 
ATOM     82  F   UNL A   1      47.867  25.679  31.901  1.00  0.00    -0.206 F 
ATOM     83  C   UNL A   1      50.022  25.571  30.978  1.00  0.00     0.040 A 
ATOM     84  C   UNL A   1      50.463  26.564  28.827  1.00  0.00     0.040 A 
ATOM     85  F   UNL A   1      48.746  27.663  27.667  1.00  0.00    -0.206 F 
ATOM     86  C   UNL A   1      50.912  25.861  29.945  1.00  0.00     0.006 A 
ENDBRANCH  62  79
ENDBRANCH  36  37
ENDBRANCH  28  31
ENDBRANCH  26  27
ENDBRANCH  25  26
ENDBRANCH   1  25
TORSDOF 14
ENDMDL
