MODEL 1
REMARK VINA RESULT:     -11.3      0.000      0.000
REMARK SMILES COc1cccc(OC)c1[C@@H](C(=O)NCCCNC(=O)c1ccc(-c2c3nc(c(-c4c(F)cccc4F)c4ccc([nH]4)c(-c4c(F)cccc4F)c4nc(c(-c5c(F)cccc5F)c5ccc2[nH]5)C=C4)C=C3)cc1)[N@@H+](C)Cc1c(C)n[nH]c1C
REMARK SMILES IDX 15 1 14 2 12 3 13 4 11 6 10 7 3 8 4 9 5 10 7 11 6 12 2 13
REMARK SMILES IDX 1 14 8 15 9 16 75 17 76 18 77 20 78 21 79 22 83 23 80 24
REMARK SMILES IDX 81 25 82 26 84 27 16 29 17 30 18 31 19 32 20 34 21 35 22 36
REMARK SMILES IDX 74 37 23 38 73 39 24 40 25 41 26 42 67 43 27 44 72 45 66 46
REMARK SMILES IDX 68 47 28 48 71 49 65 50 64 51 29 53 55 54 38 55 54 56 39 57
REMARK SMILES IDX 42 58 53 59 69 60 40 61 41 62 52 64 70 65 43 66 30 67 31 68
REMARK SMILES IDX 36 69 32 70 33 71 35 72 37 73 34 74 56 75 57 76 62 77 58 78
REMARK SMILES IDX 59 79 61 80 63 81 60 82 44 83 45 84 50 85 46 86 47 87 49 88
REMARK SMILES IDX 51 89 48 90
REMARK H PARENT 14 5 75 19 82 28 18 33 68 52 42 63
REMARK Flexibility Score: inf
ROOT
ATOM      1  C   UNL A   1      35.713  21.333  24.869  1.00  0.00     0.118 C 
ENDROOT
BRANCH   1   2
ATOM      2  N   UNL A   1      35.221  21.776  26.155  1.00  0.00    -0.351 N 
ATOM      3  C   UNL A   1      34.009  21.642  26.756  1.00  0.00     0.283 C 
ATOM      4  O   UNL A   1      34.125  21.442  27.973  1.00  0.00    -0.268 OA
ATOM      5  H   UNL A   1      35.885  22.265  26.693  1.00  0.00     0.163 HD
BRANCH   3   6
ATOM      6  C   UNL A   1      32.633  21.572  26.038  1.00  0.00     0.313 C 
BRANCH   6   7
ATOM      7  C   UNL A   1      32.492  20.699  24.779  1.00  0.00     0.103 A 
ATOM      8  C   UNL A   1      32.588  19.275  24.770  1.00  0.00     0.132 A 
ATOM      9  C   UNL A   1      32.473  18.556  23.554  1.00  0.00     0.047 A 
ATOM     10  C   UNL A   1      32.222  19.180  22.345  1.00  0.00     0.008 A 
ATOM     11  C   UNL A   1      32.316  21.296  23.507  1.00  0.00     0.132 A 
ATOM     12  C   UNL A   1      32.128  20.555  22.326  1.00  0.00     0.047 A 
BRANCH   8  13
ATOM     13  O   UNL A   1      32.895  18.363  25.744  1.00  0.00    -0.496 OA
ATOM     14  C   UNL A   1      32.882  16.960  25.598  1.00  0.00     0.278 C 
ENDBRANCH   8  13
BRANCH  11  15
ATOM     15  O   UNL A   1      32.314  22.654  23.330  1.00  0.00    -0.496 OA
ATOM     16  C   UNL A   1      33.334  23.042  22.414  1.00  0.00     0.278 C 
ENDBRANCH  11  15
ENDBRANCH   6   7
BRANCH   6  17
ATOM     17  N   UNL A   1      31.832  22.851  26.096  1.00  0.00    -0.319 N 
ATOM     18  C   UNL A   1      30.414  22.631  26.359  1.00  0.00     0.333 C 
ATOM     19  H   UNL A   1      32.039  23.096  25.128  1.00  0.00     0.349 HD
BRANCH  17  20
ATOM     20  C   UNL A   1      32.324  24.134  26.629  1.00  0.00     0.303 C 
BRANCH  20  21
ATOM     21  C   UNL A   1      32.541  25.308  25.706  1.00  0.00     0.050 A 
ATOM     22  C   UNL A   1      33.794  25.689  25.102  1.00  0.00     0.068 A 
ATOM     23  C   UNL A   1      31.643  26.091  24.985  1.00  0.00     0.041 A 
ATOM     24  C   UNL A   1      35.094  24.966  25.055  1.00  0.00     0.069 C 
ATOM     25  N   UNL A   1      33.697  26.831  24.409  1.00  0.00    -0.180 NA
ATOM     26  N   UNL A   1      32.386  27.080  24.406  1.00  0.00    -0.282 N 
ATOM     27  C   UNL A   1      30.184  26.037  24.742  1.00  0.00     0.066 C 
ATOM     28  H   UNL A   1      31.993  27.898  24.023  1.00  0.00     0.190 HD
ENDBRANCH  20  21
ENDBRANCH  17  20
ENDBRANCH   6  17
ENDBRANCH   3   6
ENDBRANCH   1   2
BRANCH   1  29
ATOM     29  C   UNL A   1      36.761  20.237  24.967  1.00  0.00     0.042 C 
BRANCH  29  30
ATOM     30  C   UNL A   1      38.147  20.748  25.348  1.00  0.00     0.118 C 
BRANCH  30  31
ATOM     31  N   UNL A   1      39.119  19.671  25.487  1.00  0.00    -0.352 N 
ATOM     32  C   UNL A   1      40.434  19.700  25.880  1.00  0.00     0.251 C 
ATOM     33  H   UNL A   1      38.776  18.776  25.262  1.00  0.00     0.163 HD
ATOM     34  O   UNL A   1      41.139  18.710  25.715  1.00  0.00    -0.269 OA
BRANCH  32  35
ATOM     35  C   UNL A   1      41.011  20.919  26.485  1.00  0.00     0.039 A 
ATOM     36  C   UNL A   1      41.667  21.836  25.659  1.00  0.00     0.014 A 
ATOM     37  C   UNL A   1      40.933  21.151  27.860  1.00  0.00     0.014 A 
ATOM     38  C   UNL A   1      42.170  23.021  26.199  1.00  0.00     0.010 A 
ATOM     39  C   UNL A   1      41.358  22.370  28.384  1.00  0.00     0.010 A 
ATOM     40  C   UNL A   1      41.977  23.319  27.558  1.00  0.00    -0.014 A 
BRANCH  40  41
ATOM     41  C   UNL A   1      42.386  24.629  28.125  1.00  0.00     0.031 A 
ATOM     42  C   UNL A   1      41.373  25.722  28.331  1.00  0.00     0.074 A 
ATOM     43  C   UNL A   1      43.688  24.858  28.386  1.00  0.00     0.049 A 
ATOM     44  N   UNL A   1      41.557  26.950  28.745  1.00  0.00    -0.248 NA
ATOM     45  C   UNL A   1      39.975  25.401  28.006  1.00  0.00     0.031 C 
ATOM     46  C   UNL A   1      44.774  23.897  28.184  1.00  0.00     0.029 A 
ATOM     47  N   UNL A   1      44.323  25.976  28.868  1.00  0.00    -0.354 N 
ATOM     48  C   UNL A   1      40.305  27.551  28.720  1.00  0.00     0.074 A 
ATOM     49  C   UNL A   1      39.378  26.569  28.199  1.00  0.00     0.031 C 
ATOM     50  C   UNL A   1      45.934  24.456  28.561  1.00  0.00     0.029 A 
ATOM     51  C   UNL A   1      45.684  25.829  28.985  1.00  0.00     0.049 A 
ATOM     52  H   UNL A   1      43.847  26.805  29.106  1.00  0.00     0.167 HD
ATOM     53  C   UNL A   1      39.955  28.798  29.115  1.00  0.00     0.037 A 
ATOM     54  C   UNL A   1      46.628  26.705  29.378  1.00  0.00     0.037 A 
ATOM     55  C   UNL A   1      40.879  29.768  29.643  1.00  0.00     0.049 A 
ATOM     56  C   UNL A   1      46.216  28.091  29.788  1.00  0.00     0.074 A 
ATOM     57  C   UNL A   1      40.612  31.038  30.123  1.00  0.00     0.029 A 
ATOM     58  N   UNL A   1      42.248  29.579  29.754  1.00  0.00    -0.354 N 
ATOM     59  N   UNL A   1      45.018  28.621  29.827  1.00  0.00    -0.248 NA
ATOM     60  C   UNL A   1      47.289  29.001  30.214  1.00  0.00     0.031 C 
ATOM     61  C   UNL A   1      41.827  31.638  30.472  1.00  0.00     0.029 A 
ATOM     62  C   UNL A   1      42.844  30.720  30.268  1.00  0.00     0.049 A 
ATOM     63  H   UNL A   1      42.727  28.755  29.505  1.00  0.00     0.167 HD
ATOM     64  C   UNL A   1      45.187  29.913  30.308  1.00  0.00     0.074 A 
ATOM     65  C   UNL A   1      46.602  30.080  30.562  1.00  0.00     0.031 C 
ATOM     66  C   UNL A   1      44.254  30.873  30.520  1.00  0.00     0.037 A 
BRANCH  53  67
ATOM     67  C   UNL A   1      38.510  29.188  28.988  1.00  0.00     0.057 A 
ATOM     68  C   UNL A   1      37.623  29.110  30.070  1.00  0.00     0.134 A 
ATOM     69  C   UNL A   1      38.007  29.689  27.779  1.00  0.00     0.134 A 
ATOM     70  F   UNL A   1      38.035  28.630  31.253  1.00  0.00    -0.206 F 
ATOM     71  C   UNL A   1      36.285  29.490  29.949  1.00  0.00     0.040 A 
ATOM     72  C   UNL A   1      36.679  30.101  27.654  1.00  0.00     0.040 A 
ATOM     73  F   UNL A   1      38.801  29.799  26.704  1.00  0.00    -0.206 F 
ATOM     74  C   UNL A   1      35.812  29.995  28.739  1.00  0.00     0.006 A 
ENDBRANCH  53  67
BRANCH  54  75
ATOM     75  C   UNL A   1      48.055  26.295  29.414  1.00  0.00     0.057 A 
ATOM     76  C   UNL A   1      48.881  26.456  28.295  1.00  0.00     0.134 A 
ATOM     77  C   UNL A   1      48.626  25.724  30.557  1.00  0.00     0.134 A 
ATOM     78  F   UNL A   1      48.389  26.980  27.163  1.00  0.00    -0.206 F 
ATOM     79  C   UNL A   1      50.215  26.044  28.304  1.00  0.00     0.040 A 
ATOM     80  C   UNL A   1      49.965  25.333  30.591  1.00  0.00     0.040 A 
ATOM     81  F   UNL A   1      47.891  25.551  31.666  1.00  0.00    -0.206 F 
ATOM     82  C   UNL A   1      50.761  25.485  29.457  1.00  0.00     0.006 A 
ENDBRANCH  54  75
BRANCH  66  83
ATOM     83  C   UNL A   1      44.729  32.179  31.089  1.00  0.00     0.057 A 
ATOM     84  C   UNL A   1      44.827  32.396  32.470  1.00  0.00     0.134 A 
ATOM     85  C   UNL A   1      45.125  33.223  30.241  1.00  0.00     0.134 A 
ATOM     86  F   UNL A   1      44.451  31.444  33.336  1.00  0.00    -0.206 F 
ATOM     87  C   UNL A   1      45.277  33.612  32.986  1.00  0.00     0.040 A 
ATOM     88  C   UNL A   1      45.606  34.432  30.746  1.00  0.00     0.040 A 
ATOM     89  F   UNL A   1      45.066  33.079  28.908  1.00  0.00    -0.206 F 
ATOM     90  C   UNL A   1      45.676  34.631  32.123  1.00  0.00     0.006 A 
ENDBRANCH  66  83
ENDBRANCH  40  41
ENDBRANCH  32  35
ENDBRANCH  30  31
ENDBRANCH  29  30
ENDBRANCH   1  29
TORSDOF 16
ENDMDL
MODEL 2
REMARK VINA RESULT:     -11.1      3.502      8.243
REMARK SMILES COc1cccc(OC)c1[C@@H](C(=O)NCCCNC(=O)c1ccc(-c2c3nc(c(-c4c(F)cccc4F)c4ccc([nH]4)c(-c4c(F)cccc4F)c4nc(c(-c5c(F)cccc5F)c5ccc2[nH]5)C=C4)C=C3)cc1)[N@@H+](C)Cc1c(C)n[nH]c1C
REMARK SMILES IDX 15 1 14 2 12 3 13 4 11 6 10 7 3 8 4 9 5 10 7 11 6 12 2 13
REMARK SMILES IDX 1 14 8 15 9 16 75 17 76 18 77 20 78 21 79 22 83 23 80 24
REMARK SMILES IDX 81 25 82 26 84 27 16 29 17 30 18 31 19 32 20 34 21 35 22 36
REMARK SMILES IDX 74 37 23 38 73 39 24 40 25 41 26 42 67 43 27 44 72 45 66 46
REMARK SMILES IDX 68 47 28 48 71 49 65 50 64 51 29 53 55 54 38 55 54 56 39 57
REMARK SMILES IDX 42 58 53 59 69 60 40 61 41 62 52 64 70 65 43 66 30 67 31 68
REMARK SMILES IDX 36 69 32 70 33 71 35 72 37 73 34 74 56 75 57 76 62 77 58 78
REMARK SMILES IDX 59 79 61 80 63 81 60 82 44 83 45 84 50 85 46 86 47 87 49 88
REMARK SMILES IDX 51 89 48 90
REMARK H PARENT 14 5 75 19 82 28 18 33 68 52 42 63
REMARK Flexibility Score: inf
ROOT
ATOM      1  C   UNL A   1      31.630  28.833  27.288  1.00  0.00     0.118 C 
ENDROOT
BRANCH   1   2
ATOM      2  N   UNL A   1      32.948  28.266  27.099  1.00  0.00    -0.351 N 
ATOM      3  C   UNL A   1      33.395  27.265  26.296  1.00  0.00     0.283 C 
ATOM      4  O   UNL A   1      34.516  27.519  25.833  1.00  0.00    -0.268 OA
ATOM      5  H   UNL A   1      33.648  28.681  27.653  1.00  0.00     0.163 HD
BRANCH   3   6
ATOM      6  C   UNL A   1      32.584  26.018  25.846  1.00  0.00     0.313 C 
BRANCH   6   7
ATOM      7  C   UNL A   1      33.056  24.622  26.288  1.00  0.00     0.103 A 
ATOM      8  C   UNL A   1      34.342  24.076  25.998  1.00  0.00     0.132 A 
ATOM      9  C   UNL A   1      34.679  22.767  26.422  1.00  0.00     0.047 A 
ATOM     10  C   UNL A   1      33.812  21.983  27.164  1.00  0.00     0.008 A 
ATOM     11  C   UNL A   1      32.177  23.752  26.978  1.00  0.00     0.132 A 
ATOM     12  C   UNL A   1      32.562  22.486  27.456  1.00  0.00     0.047 A 
BRANCH   8  13
ATOM     13  O   UNL A   1      35.391  24.531  25.243  1.00  0.00    -0.496 OA
ATOM     14  C   UNL A   1      36.536  23.789  24.887  1.00  0.00     0.278 C 
ENDBRANCH   8  13
BRANCH  11  15
ATOM     15  O   UNL A   1      30.874  24.082  27.237  1.00  0.00    -0.496 OA
ATOM     16  C   UNL A   1      30.003  23.019  26.863  1.00  0.00     0.278 C 
ENDBRANCH  11  15
ENDBRANCH   6   7
BRANCH   6  17
ATOM     17  N   UNL A   1      31.951  26.143  24.480  1.00  0.00    -0.319 N 
ATOM     18  C   UNL A   1      32.095  24.941  23.666  1.00  0.00     0.333 C 
ATOM     19  H   UNL A   1      32.565  26.908  24.199  1.00  0.00     0.349 HD
BRANCH  17  20
ATOM     20  C   UNL A   1      30.718  26.894  24.185  1.00  0.00     0.303 C 
BRANCH  20  21
ATOM     21  C   UNL A   1      30.735  28.021  23.181  1.00  0.00     0.050 A 
ATOM     22  C   UNL A   1      29.578  28.699  22.649  1.00  0.00     0.068 A 
ATOM     23  C   UNL A   1      31.761  28.865  22.762  1.00  0.00     0.041 A 
ATOM     24  C   UNL A   1      28.151  28.625  23.063  1.00  0.00     0.069 C 
ATOM     25  N   UNL A   1      29.903  29.590  21.703  1.00  0.00    -0.180 NA
ATOM     26  N   UNL A   1      31.235  29.625  21.755  1.00  0.00    -0.282 N 
ATOM     27  C   UNL A   1      33.164  29.078  23.181  1.00  0.00     0.066 C 
ATOM     28  H   UNL A   1      31.787  30.148  21.129  1.00  0.00     0.190 HD
ENDBRANCH  20  21
ENDBRANCH  17  20
ENDBRANCH   6  17
ENDBRANCH   3   6
ENDBRANCH   1   2
BRANCH   1  29
ATOM     29  C   UNL A   1      31.492  30.241  26.735  1.00  0.00     0.042 C 
BRANCH  29  30
ATOM     30  C   UNL A   1      32.745  31.094  26.913  1.00  0.00     0.118 C 
BRANCH  30  31
ATOM     31  N   UNL A   1      32.434  32.485  27.216  1.00  0.00    -0.352 N 
ATOM     32  C   UNL A   1      33.073  33.387  28.030  1.00  0.00     0.251 C 
ATOM     33  H   UNL A   1      31.634  32.835  26.762  1.00  0.00     0.163 HD
ATOM     34  O   UNL A   1      32.519  34.442  28.320  1.00  0.00    -0.269 OA
BRANCH  32  35
ATOM     35  C   UNL A   1      34.415  33.087  28.575  1.00  0.00     0.039 A 
ATOM     36  C   UNL A   1      34.512  32.413  29.795  1.00  0.00     0.014 A 
ATOM     37  C   UNL A   1      35.573  33.490  27.906  1.00  0.00     0.014 A 
ATOM     38  C   UNL A   1      35.767  32.070  30.300  1.00  0.00     0.010 A 
ATOM     39  C   UNL A   1      36.820  33.075  28.366  1.00  0.00     0.010 A 
ATOM     40  C   UNL A   1      36.930  32.357  29.566  1.00  0.00    -0.014 A 
BRANCH  40  41
ATOM     41  C   UNL A   1      38.263  31.885  30.019  1.00  0.00     0.031 A 
ATOM     42  C   UNL A   1      38.826  30.585  29.516  1.00  0.00     0.074 A 
ATOM     43  C   UNL A   1      38.936  32.599  30.944  1.00  0.00     0.049 A 
ATOM     44  N   UNL A   1      39.937  29.980  29.854  1.00  0.00    -0.248 NA
ATOM     45  C   UNL A   1      38.024  29.856  28.521  1.00  0.00     0.031 C 
ATOM     46  C   UNL A   1      38.475  33.852  31.546  1.00  0.00     0.029 A 
ATOM     47  N   UNL A   1      40.146  32.367  31.549  1.00  0.00    -0.354 N 
ATOM     48  C   UNL A   1      39.962  28.798  29.125  1.00  0.00     0.074 A 
ATOM     49  C   UNL A   1      38.731  28.745  28.366  1.00  0.00     0.031 C 
ATOM     50  C   UNL A   1      39.401  34.290  32.414  1.00  0.00     0.029 A 
ATOM     51  C   UNL A   1      40.496  33.328  32.468  1.00  0.00     0.049 A 
ATOM     52  H   UNL A   1      40.710  31.586  31.344  1.00  0.00     0.167 HD
ATOM     53  C   UNL A   1      40.932  27.854  29.075  1.00  0.00     0.037 A 
ATOM     54  C   UNL A   1      41.571  33.418  33.272  1.00  0.00     0.037 A 
ATOM     55  C   UNL A   1      42.162  27.918  29.823  1.00  0.00     0.049 A 
ATOM     56  C   UNL A   1      42.621  32.345  33.215  1.00  0.00     0.074 A 
ATOM     57  C   UNL A   1      43.230  27.039  29.797  1.00  0.00     0.029 A 
ATOM     58  N   UNL A   1      42.483  28.910  30.735  1.00  0.00    -0.354 N 
ATOM     59  N   UNL A   1      42.665  31.269  32.467  1.00  0.00    -0.248 NA
ATOM     60  C   UNL A   1      43.776  32.500  34.111  1.00  0.00     0.031 C 
ATOM     61  C   UNL A   1      44.173  27.470  30.736  1.00  0.00     0.029 A 
ATOM     62  C   UNL A   1      43.721  28.650  31.302  1.00  0.00     0.049 A 
ATOM     63  H   UNL A   1      41.915  29.686  30.951  1.00  0.00     0.167 HD
ATOM     64  C   UNL A   1      43.862  30.636  32.780  1.00  0.00     0.074 A 
ATOM     65  C   UNL A   1      44.521  31.457  33.773  1.00  0.00     0.031 C 
ATOM     66  C   UNL A   1      44.368  29.479  32.288  1.00  0.00     0.037 A 
BRANCH  53  67
ATOM     67  C   UNL A   1      40.703  26.668  28.182  1.00  0.00     0.057 A 
ATOM     68  C   UNL A   1      39.792  25.656  28.514  1.00  0.00     0.134 A 
ATOM     69  C   UNL A   1      41.371  26.556  26.955  1.00  0.00     0.134 A 
ATOM     70  F   UNL A   1      39.126  25.695  29.678  1.00  0.00    -0.206 F 
ATOM     71  C   UNL A   1      39.572  24.565  27.670  1.00  0.00     0.040 A 
ATOM     72  C   UNL A   1      41.137  25.486  26.090  1.00  0.00     0.040 A 
ATOM     73  F   UNL A   1      42.251  27.491  26.571  1.00  0.00    -0.206 F 
ATOM     74  C   UNL A   1      40.240  24.482  26.451  1.00  0.00     0.006 A 
ENDBRANCH  53  67
BRANCH  54  75
ATOM     75  C   UNL A   1      41.716  34.574  34.194  1.00  0.00     0.057 A 
ATOM     76  C   UNL A   1      41.210  34.524  35.499  1.00  0.00     0.134 A 
ATOM     77  C   UNL A   1      42.349  35.756  33.795  1.00  0.00     0.134 A 
ATOM     78  F   UNL A   1      40.577  33.426  35.936  1.00  0.00    -0.206 F 
ATOM     79  C   UNL A   1      41.309  35.615  36.364  1.00  0.00     0.040 A 
ATOM     80  C   UNL A   1      42.481  36.845  34.657  1.00  0.00     0.040 A 
ATOM     81  F   UNL A   1      42.864  35.865  32.561  1.00  0.00    -0.206 F 
ATOM     82  C   UNL A   1      41.951  36.778  35.945  1.00  0.00     0.006 A 
ENDBRANCH  54  75
BRANCH  66  83
ATOM     83  C   UNL A   1      45.718  29.051  32.789  1.00  0.00     0.057 A 
ATOM     84  C   UNL A   1      46.905  29.475  32.178  1.00  0.00     0.134 A 
ATOM     85  C   UNL A   1      45.830  28.230  33.919  1.00  0.00     0.134 A 
ATOM     86  F   UNL A   1      46.868  30.251  31.084  1.00  0.00    -0.206 F 
ATOM     87  C   UNL A   1      48.154  29.076  32.658  1.00  0.00     0.040 A 
ATOM     88  C   UNL A   1      47.074  27.850  34.426  1.00  0.00     0.040 A 
ATOM     89  F   UNL A   1      44.732  27.796  34.558  1.00  0.00    -0.206 F 
ATOM     90  C   UNL A   1      48.240  28.268  33.790  1.00  0.00     0.006 A 
ENDBRANCH  66  83
ENDBRANCH  40  41
ENDBRANCH  32  35
ENDBRANCH  30  31
ENDBRANCH  29  30
ENDBRANCH   1  29
TORSDOF 16
ENDMDL
MODEL 3
REMARK VINA RESULT:     -11.0      3.342      7.698
REMARK SMILES COc1cccc(OC)c1[C@@H](C(=O)NCCCNC(=O)c1ccc(-c2c3nc(c(-c4c(F)cccc4F)c4ccc([nH]4)c(-c4c(F)cccc4F)c4nc(c(-c5c(F)cccc5F)c5ccc2[nH]5)C=C4)C=C3)cc1)[N@@H+](C)Cc1c(C)n[nH]c1C
REMARK SMILES IDX 15 1 14 2 12 3 13 4 11 6 10 7 3 8 4 9 5 10 7 11 6 12 2 13
REMARK SMILES IDX 1 14 8 15 9 16 75 17 76 18 77 20 78 21 79 22 83 23 80 24
REMARK SMILES IDX 81 25 82 26 84 27 16 29 17 30 18 31 19 32 20 34 21 35 22 36
REMARK SMILES IDX 74 37 23 38 73 39 24 40 25 41 26 42 67 43 27 44 72 45 66 46
REMARK SMILES IDX 68 47 28 48 71 49 65 50 64 51 29 53 55 54 38 55 54 56 39 57
REMARK SMILES IDX 42 58 53 59 69 60 40 61 41 62 52 64 70 65 43 66 30 67 31 68
REMARK SMILES IDX 36 69 32 70 33 71 35 72 37 73 34 74 56 75 57 76 62 77 58 78
REMARK SMILES IDX 59 79 61 80 63 81 60 82 44 83 45 84 50 85 46 86 47 87 49 88
REMARK SMILES IDX 51 89 48 90
REMARK H PARENT 14 5 75 19 82 28 18 33 68 52 42 63
REMARK Flexibility Score: inf
ROOT
ATOM      1  C   UNL A   1      33.612  28.668  26.025  1.00  0.00     0.118 C 
ENDROOT
BRANCH   1   2
ATOM      2  N   UNL A   1      32.248  28.572  26.498  1.00  0.00    -0.351 N 
ATOM      3  C   UNL A   1      31.397  27.517  26.597  1.00  0.00     0.283 C 
ATOM      4  O   UNL A   1      30.707  27.583  27.624  1.00  0.00    -0.268 OA
ATOM      5  H   UNL A   1      31.867  29.427  26.804  1.00  0.00     0.163 HD
BRANCH   3   6
ATOM      6  C   UNL A   1      31.363  26.275  25.664  1.00  0.00     0.313 C 
BRANCH   6   7
ATOM      7  C   UNL A   1      32.559  25.307  25.668  1.00  0.00     0.103 A 
ATOM      8  C   UNL A   1      33.651  25.369  24.750  1.00  0.00     0.132 A 
ATOM      9  C   UNL A   1      34.696  24.414  24.813  1.00  0.00     0.047 A 
ATOM     10  C   UNL A   1      34.735  23.420  25.775  1.00  0.00     0.008 A 
ATOM     11  C   UNL A   1      32.604  24.225  26.581  1.00  0.00     0.132 A 
ATOM     12  C   UNL A   1      33.692  23.337  26.672  1.00  0.00     0.047 A 
BRANCH   8  13
ATOM     13  O   UNL A   1      33.892  26.153  23.653  1.00  0.00    -0.496 OA
ATOM     14  C   UNL A   1      33.732  25.763  22.307  1.00  0.00     0.278 C 
ENDBRANCH   8  13
BRANCH  11  15
ATOM     15  O   UNL A   1      31.583  23.961  27.454  1.00  0.00    -0.496 OA
ATOM     16  C   UNL A   1      30.580  23.167  26.827  1.00  0.00     0.278 C 
ENDBRANCH  11  15
ENDBRANCH   6   7
BRANCH   6  17
ATOM     17  N   UNL A   1      30.647  26.497  24.353  1.00  0.00    -0.319 N 
ATOM     18  C   UNL A   1      30.365  25.259  23.633  1.00  0.00     0.333 C 
ATOM     19  H   UNL A   1      31.414  27.039  23.956  1.00  0.00     0.349 HD
BRANCH  17  20
ATOM     20  C   UNL A   1      29.645  27.548  24.104  1.00  0.00     0.303 C 
BRANCH  20  21
ATOM     21  C   UNL A   1      29.870  28.572  23.018  1.00  0.00     0.050 A 
ATOM     22  C   UNL A   1      28.871  29.457  22.469  1.00  0.00     0.068 A 
ATOM     23  C   UNL A   1      31.038  29.132  22.508  1.00  0.00     0.041 A 
ATOM     24  C   UNL A   1      27.483  29.736  22.927  1.00  0.00     0.069 C 
ATOM     25  N   UNL A   1      29.345  30.186  21.450  1.00  0.00    -0.180 NA
ATOM     26  N   UNL A   1      30.653  29.922  21.463  1.00  0.00    -0.282 N 
ATOM     27  C   UNL A   1      32.471  29.049  22.871  1.00  0.00     0.066 C 
ATOM     28  H   UNL A   1      31.279  30.263  20.784  1.00  0.00     0.190 HD
ENDBRANCH  20  21
ENDBRANCH  17  20
ENDBRANCH   6  17
ENDBRANCH   3   6
ENDBRANCH   1   2
BRANCH   1  29
ATOM     29  C   UNL A   1      34.647  28.509  27.125  1.00  0.00     0.042 C 
BRANCH  29  30
ATOM     30  C   UNL A   1      35.311  29.820  27.535  1.00  0.00     0.118 C 
BRANCH  30  31
ATOM     31  N   UNL A   1      35.263  30.044  28.974  1.00  0.00    -0.352 N 
ATOM     32  C   UNL A   1      36.230  29.888  29.936  1.00  0.00     0.251 C 
ATOM     33  H   UNL A   1      34.393  30.359  29.312  1.00  0.00     0.163 HD
ATOM     34  O   UNL A   1      35.917  29.918  31.121  1.00  0.00    -0.269 OA
BRANCH  32  35
ATOM     35  C   UNL A   1      37.641  29.668  29.554  1.00  0.00     0.039 A 
ATOM     36  C   UNL A   1      38.554  29.284  30.539  1.00  0.00     0.014 A 
ATOM     37  C   UNL A   1      38.073  29.863  28.240  1.00  0.00     0.014 A 
ATOM     38  C   UNL A   1      39.879  29.016  30.191  1.00  0.00     0.010 A 
ATOM     39  C   UNL A   1      39.372  29.514  27.877  1.00  0.00     0.010 A 
ATOM     40  C   UNL A   1      40.287  29.083  28.848  1.00  0.00    -0.014 A 
BRANCH  40  41
ATOM     41  C   UNL A   1      41.654  28.675  28.437  1.00  0.00     0.031 A 
ATOM     42  C   UNL A   1      41.946  27.248  28.064  1.00  0.00     0.074 A 
ATOM     43  C   UNL A   1      42.652  29.581  28.471  1.00  0.00     0.049 A 
ATOM     44  N   UNL A   1      43.091  26.693  27.751  1.00  0.00    -0.248 NA
ATOM     45  C   UNL A   1      40.809  26.314  28.069  1.00  0.00     0.031 C 
ATOM     46  C   UNL A   1      42.507  30.985  28.861  1.00  0.00     0.029 A 
ATOM     47  N   UNL A   1      43.988  29.454  28.183  1.00  0.00    -0.354 N 
ATOM     48  C   UNL A   1      42.814  25.350  27.532  1.00  0.00     0.074 A 
ATOM     49  C   UNL A   1      41.405  25.161  27.800  1.00  0.00     0.031 C 
ATOM     50  C   UNL A   1      43.699  31.594  28.765  1.00  0.00     0.029 A 
ATOM     51  C   UNL A   1      44.701  30.617  28.354  1.00  0.00     0.049 A 
ATOM     52  H   UNL A   1      44.397  28.610  27.883  1.00  0.00     0.167 HD
ATOM     53  C   UNL A   1      43.653  24.368  27.123  1.00  0.00     0.037 A 
ATOM     54  C   UNL A   1      46.015  30.865  28.210  1.00  0.00     0.037 A 
ATOM     55  C   UNL A   1      45.053  24.563  26.846  1.00  0.00     0.049 A 
ATOM     56  C   UNL A   1      46.929  29.752  27.779  1.00  0.00     0.074 A 
ATOM     57  C   UNL A   1      45.973  23.644  26.373  1.00  0.00     0.029 A 
ATOM     58  N   UNL A   1      45.736  25.757  27.023  1.00  0.00    -0.354 N 
ATOM     59  N   UNL A   1      46.640  28.504  27.506  1.00  0.00    -0.248 NA
ATOM     60  C   UNL A   1      48.354  30.085  27.631  1.00  0.00     0.031 C 
ATOM     61  C   UNL A   1      47.224  24.267  26.318  1.00  0.00     0.029 A 
ATOM     62  C   UNL A   1      47.073  25.590  26.697  1.00  0.00     0.049 A 
ATOM     63  H   UNL A   1      45.331  26.599  27.334  1.00  0.00     0.167 HD
ATOM     64  C   UNL A   1      47.837  27.909  27.127  1.00  0.00     0.074 A 
ATOM     65  C   UNL A   1      48.852  28.939  27.189  1.00  0.00     0.031 C 
ATOM     66  C   UNL A   1      48.073  26.625  26.760  1.00  0.00     0.037 A 
BRANCH  53  67
ATOM     67  C   UNL A   1      43.080  22.990  26.954  1.00  0.00     0.057 A 
ATOM     68  C   UNL A   1      42.797  22.455  25.689  1.00  0.00     0.134 A 
ATOM     69  C   UNL A   1      42.847  22.170  28.066  1.00  0.00     0.134 A 
ATOM     70  F   UNL A   1      42.987  23.189  24.583  1.00  0.00    -0.206 F 
ATOM     71  C   UNL A   1      42.281  21.167  25.539  1.00  0.00     0.040 A 
ATOM     72  C   UNL A   1      42.359  20.869  27.926  1.00  0.00     0.040 A 
ATOM     73  F   UNL A   1      43.102  22.613  29.305  1.00  0.00    -0.206 F 
ATOM     74  C   UNL A   1      42.067  20.367  26.660  1.00  0.00     0.006 A 
ENDBRANCH  53  67
BRANCH  54  75
ATOM     75  C   UNL A   1      46.548  32.229  28.464  1.00  0.00     0.057 A 
ATOM     76  C   UNL A   1      47.010  32.599  29.732  1.00  0.00     0.134 A 
ATOM     77  C   UNL A   1      46.597  33.197  27.454  1.00  0.00     0.134 A 
ATOM     78  F   UNL A   1      46.973  31.723  30.746  1.00  0.00    -0.206 F 
ATOM     79  C   UNL A   1      47.481  33.888  29.993  1.00  0.00     0.040 A 
ATOM     80  C   UNL A   1      47.091  34.480  27.691  1.00  0.00     0.040 A 
ATOM     81  F   UNL A   1      46.178  32.904  26.214  1.00  0.00    -0.206 F 
ATOM     82  C   UNL A   1      47.526  34.831  28.968  1.00  0.00     0.006 A 
ENDBRANCH  54  75
BRANCH  66  83
ATOM     83  C   UNL A   1      49.477  26.272  26.361  1.00  0.00     0.057 A 
ATOM     84  C   UNL A   1      49.961  26.501  25.066  1.00  0.00     0.134 A 
ATOM     85  C   UNL A   1      50.366  25.724  27.295  1.00  0.00     0.134 A 
ATOM     86  F   UNL A   1      49.158  27.010  24.120  1.00  0.00    -0.206 F 
ATOM     87  C   UNL A   1      51.271  26.175  24.709  1.00  0.00     0.040 A 
ATOM     88  C   UNL A   1      51.686  25.423  26.958  1.00  0.00     0.040 A 
ATOM     89  F   UNL A   1      49.970  25.488  28.556  1.00  0.00    -0.206 F 
ATOM     90  C   UNL A   1      52.139  25.641  25.660  1.00  0.00     0.006 A 
ENDBRANCH  66  83
ENDBRANCH  40  41
ENDBRANCH  32  35
ENDBRANCH  30  31
ENDBRANCH  29  30
ENDBRANCH   1  29
TORSDOF 16
ENDMDL
