MODEL 1
REMARK VINA RESULT:     -12.0      0.000      0.000
REMARK SMILES O=C(CS(=O)(=O)NCc1ccc(N2CCOCC2)nc1)NCCCNC(=O)c1ccc(-c2c3nc(c(-c4c(F)cccc4F)c4ccc([nH]4)c(-c4c(F)cccc4F)c4nc(c(-c5c(F)cccc5F)c5ccc2[nH]5)C=C4)C=C3)cc1
REMARK SMILES IDX 1 1 2 2 21 3 3 5 4 6 5 7 6 8 7 9 8 11 9 12 10 13 20 14 11 15
REMARK SMILES IDX 19 16 12 17 13 18 14 19 18 20 15 21 17 22 16 23 22 24 23 25
REMARK SMILES IDX 24 26 25 27 26 28 27 30 28 31 29 32 81 33 30 34 80 35 31 36
REMARK SMILES IDX 32 37 33 38 74 39 34 40 79 41 73 42 75 43 35 44 78 45 72 46
REMARK SMILES IDX 71 47 36 49 62 50 45 51 61 52 46 53 49 54 60 55 76 56 47 57
REMARK SMILES IDX 48 58 59 60 77 61 50 62 37 63 38 64 43 65 39 66 40 67 42 68
REMARK SMILES IDX 44 69 41 70 63 71 64 72 69 73 65 74 66 75 68 76 70 77 67 78
REMARK SMILES IDX 51 79 52 80 57 81 53 82 54 83 56 84 58 85 55 86
REMARK H PARENT 21 4 7 10 25 29 75 48 49 59
REMARK Flexibility Score: inf
ROOT
ATOM      1  O   UNL A   1      32.743  27.533  24.328  1.00  0.00    -0.274 OA
ATOM      2  C   UNL A   1      32.236  27.648  25.443  1.00  0.00     0.236 C 
ATOM      3  N   UNL A   1      31.492  28.750  25.807  1.00  0.00    -0.355 N 
ATOM      4  H   UNL A   1      31.130  28.800  26.722  1.00  0.00     0.163 HD
ENDROOT
BRANCH   2   5
ATOM      5  C   UNL A   1      32.325  26.545  26.451  1.00  0.00     0.253 C 
BRANCH   5   6
ATOM      6  S   UNL A   1      31.162  25.254  26.128  1.00  0.00     0.220 S 
ATOM      7  O   UNL A   1      31.165  24.351  27.256  1.00  0.00    -0.212 OA
ATOM      8  O   UNL A   1      29.924  25.891  25.724  1.00  0.00    -0.212 OA
BRANCH   6   9
ATOM      9  N   UNL A   1      31.699  24.486  24.749  1.00  0.00    -0.210 NA
ATOM     10  H   UNL A   1      31.580  25.159  23.992  1.00  0.00     0.141 HD
BRANCH   9  11
ATOM     11  C   UNL A   1      33.055  23.942  24.593  1.00  0.00     0.135 C 
BRANCH  11  12
ATOM     12  C   UNL A   1      33.156  22.460  24.767  1.00  0.00    -0.015 A 
ATOM     13  C   UNL A   1      34.357  21.781  24.599  1.00  0.00     0.010 A 
ATOM     14  C   UNL A   1      32.027  21.689  25.023  1.00  0.00     0.118 A 
ATOM     15  C   UNL A   1      34.350  20.393  24.601  1.00  0.00     0.047 A 
ATOM     16  N   UNL A   1      31.987  20.335  24.994  1.00  0.00    -0.239 NA
ATOM     17  C   UNL A   1      33.151  19.700  24.760  1.00  0.00     0.128 A 
BRANCH  17  18
ATOM     18  N   UNL A   1      33.200  18.337  24.636  1.00  0.00    -0.352 N 
ATOM     19  C   UNL A   1      32.647  17.489  25.683  1.00  0.00     0.146 C 
ATOM     20  C   UNL A   1      33.207  17.731  23.312  1.00  0.00     0.146 C 
ATOM     21  C   UNL A   1      33.501  16.207  25.708  1.00  0.00     0.181 C 
ATOM     22  C   UNL A   1      34.032  16.436  23.401  1.00  0.00     0.181 C 
ATOM     23  O   UNL A   1      33.535  15.550  24.424  1.00  0.00    -0.378 OA
ENDBRANCH  17  18
ENDBRANCH  11  12
ENDBRANCH   9  11
ENDBRANCH   6   9
ENDBRANCH   5   6
ENDBRANCH   2   5
BRANCH   3  24
ATOM     24  C   UNL A   1      31.227  29.842  24.885  1.00  0.00     0.117 C 
BRANCH  24  25
ATOM     25  C   UNL A   1      30.989  31.173  25.577  1.00  0.00     0.042 C 
BRANCH  25  26
ATOM     26  C   UNL A   1      31.809  31.406  26.843  1.00  0.00     0.118 C 
BRANCH  26  27
ATOM     27  N   UNL A   1      32.075  32.806  27.144  1.00  0.00    -0.352 N 
ATOM     28  C   UNL A   1      33.158  33.403  27.752  1.00  0.00     0.251 C 
ATOM     29  H   UNL A   1      31.364  33.428  26.869  1.00  0.00     0.163 HD
ATOM     30  O   UNL A   1      33.091  34.584  28.086  1.00  0.00    -0.269 OA
BRANCH  28  31
ATOM     31  C   UNL A   1      34.405  32.654  28.051  1.00  0.00     0.039 A 
ATOM     32  C   UNL A   1      35.584  33.390  28.215  1.00  0.00     0.014 A 
ATOM     33  C   UNL A   1      34.447  31.265  28.180  1.00  0.00     0.014 A 
ATOM     34  C   UNL A   1      36.748  32.760  28.656  1.00  0.00     0.010 A 
ATOM     35  C   UNL A   1      35.575  30.651  28.723  1.00  0.00     0.010 A 
ATOM     36  C   UNL A   1      36.723  31.402  29.007  1.00  0.00    -0.014 A 
BRANCH  36  37
ATOM     37  C   UNL A   1      37.840  30.798  29.778  1.00  0.00     0.031 A 
ATOM     38  C   UNL A   1      38.076  31.149  31.218  1.00  0.00     0.074 A 
ATOM     39  C   UNL A   1      38.702  29.985  29.132  1.00  0.00     0.049 A 
ATOM     40  N   UNL A   1      39.041  30.760  32.013  1.00  0.00    -0.248 NA
ATOM     41  C   UNL A   1      37.122  32.080  31.841  1.00  0.00     0.031 C 
ATOM     42  C   UNL A   1      38.623  29.626  27.713  1.00  0.00     0.029 A 
ATOM     43  N   UNL A   1      39.816  29.320  29.577  1.00  0.00    -0.354 N 
ATOM     44  C   UNL A   1      38.821  31.404  33.221  1.00  0.00     0.074 A 
ATOM     45  C   UNL A   1      37.657  32.247  33.043  1.00  0.00     0.031 C 
ATOM     46  C   UNL A   1      39.620  28.779  27.415  1.00  0.00     0.029 A 
ATOM     47  C   UNL A   1      40.435  28.571  28.605  1.00  0.00     0.049 A 
ATOM     48  H   UNL A   1      40.142  29.374  30.505  1.00  0.00     0.167 HD
ATOM     49  C   UNL A   1      39.513  31.289  34.380  1.00  0.00     0.037 A 
ATOM     50  C   UNL A   1      41.540  27.806  28.660  1.00  0.00     0.037 A 
ATOM     51  C   UNL A   1      40.657  30.432  34.560  1.00  0.00     0.049 A 
ATOM     52  C   UNL A   1      42.284  27.689  29.957  1.00  0.00     0.074 A 
ATOM     53  C   UNL A   1      41.383  30.192  35.714  1.00  0.00     0.029 A 
ATOM     54  N   UNL A   1      41.244  29.676  33.555  1.00  0.00    -0.354 N 
ATOM     55  N   UNL A   1      42.019  28.248  31.112  1.00  0.00    -0.248 NA
ATOM     56  C   UNL A   1      43.481  26.836  29.960  1.00  0.00     0.031 C 
ATOM     57  C   UNL A   1      42.432  29.322  35.400  1.00  0.00     0.029 A 
ATOM     58  C   UNL A   1      42.337  28.989  34.058  1.00  0.00     0.049 A 
ATOM     59  H   UNL A   1      40.931  29.635  32.623  1.00  0.00     0.167 HD
ATOM     60  C   UNL A   1      43.002  27.804  31.984  1.00  0.00     0.074 A 
ATOM     61  C   UNL A   1      43.860  26.913  31.228  1.00  0.00     0.031 C 
ATOM     62  C   UNL A   1      43.183  28.110  33.291  1.00  0.00     0.037 A 
BRANCH  49  63
ATOM     63  C   UNL A   1      39.047  32.106  35.549  1.00  0.00     0.057 A 
ATOM     64  C   UNL A   1      38.236  31.560  36.552  1.00  0.00     0.134 A 
ATOM     65  C   UNL A   1      39.442  33.443  35.691  1.00  0.00     0.134 A 
ATOM     66  F   UNL A   1      37.816  30.289  36.470  1.00  0.00    -0.206 F 
ATOM     67  C   UNL A   1      37.814  32.322  37.644  1.00  0.00     0.040 A 
ATOM     68  C   UNL A   1      39.044  34.206  36.791  1.00  0.00     0.040 A 
ATOM     69  F   UNL A   1      40.222  34.026  34.771  1.00  0.00    -0.206 F 
ATOM     70  C   UNL A   1      38.223  33.647  37.768  1.00  0.00     0.006 A 
ENDBRANCH  49  63
BRANCH  50  71
ATOM     71  C   UNL A   1      41.998  27.078  27.451  1.00  0.00     0.057 A 
ATOM     72  C   UNL A   1      42.785  27.714  26.483  1.00  0.00     0.134 A 
ATOM     73  C   UNL A   1      41.670  25.734  27.235  1.00  0.00     0.134 A 
ATOM     74  F   UNL A   1      43.117  29.006  26.626  1.00  0.00    -0.206 F 
ATOM     75  C   UNL A   1      43.217  27.045  25.337  1.00  0.00     0.040 A 
ATOM     76  C   UNL A   1      42.115  25.046  26.105  1.00  0.00     0.040 A 
ATOM     77  F   UNL A   1      40.926  25.067  28.129  1.00  0.00    -0.206 F 
ATOM     78  C   UNL A   1      42.886  25.705  25.149  1.00  0.00     0.006 A 
ENDBRANCH  50  71
BRANCH  62  79
ATOM     79  C   UNL A   1      44.343  27.463  33.986  1.00  0.00     0.057 A 
ATOM     80  C   UNL A   1      45.610  28.059  34.008  1.00  0.00     0.134 A 
ATOM     81  C   UNL A   1      44.184  26.247  34.660  1.00  0.00     0.134 A 
ATOM     82  F   UNL A   1      45.829  29.216  33.366  1.00  0.00    -0.206 F 
ATOM     83  C   UNL A   1      46.685  27.456  34.661  1.00  0.00     0.040 A 
ATOM     84  C   UNL A   1      45.246  25.646  35.336  1.00  0.00     0.040 A 
ATOM     85  F   UNL A   1      42.994  25.628  34.680  1.00  0.00    -0.206 F 
ATOM     86  C   UNL A   1      46.504  26.249  35.333  1.00  0.00     0.006 A 
ENDBRANCH  62  79
ENDBRANCH  36  37
ENDBRANCH  28  31
ENDBRANCH  26  27
ENDBRANCH  25  26
ENDBRANCH  24  25
ENDBRANCH   3  24
TORSDOF 15
ENDMDL
MODEL 2
REMARK VINA RESULT:     -12.0      0.765      6.216
REMARK SMILES O=C(CS(=O)(=O)NCc1ccc(N2CCOCC2)nc1)NCCCNC(=O)c1ccc(-c2c3nc(c(-c4c(F)cccc4F)c4ccc([nH]4)c(-c4c(F)cccc4F)c4nc(c(-c5c(F)cccc5F)c5ccc2[nH]5)C=C4)C=C3)cc1
REMARK SMILES IDX 1 1 2 2 21 3 3 5 4 6 5 7 6 8 7 9 8 11 9 12 10 13 20 14 11 15
REMARK SMILES IDX 19 16 12 17 13 18 14 19 18 20 15 21 17 22 16 23 22 24 23 25
REMARK SMILES IDX 24 26 25 27 26 28 27 30 28 31 29 32 81 33 30 34 80 35 31 36
REMARK SMILES IDX 32 37 33 38 74 39 34 40 79 41 73 42 75 43 35 44 78 45 72 46
REMARK SMILES IDX 71 47 36 49 62 50 45 51 61 52 46 53 49 54 60 55 76 56 47 57
REMARK SMILES IDX 48 58 59 60 77 61 50 62 37 63 38 64 43 65 39 66 40 67 42 68
REMARK SMILES IDX 44 69 41 70 63 71 64 72 69 73 65 74 66 75 68 76 70 77 67 78
REMARK SMILES IDX 51 79 52 80 57 81 53 82 54 83 56 84 58 85 55 86
REMARK H PARENT 21 4 7 10 25 29 75 48 49 59
REMARK Flexibility Score: inf
ROOT
ATOM      1  O   UNL A   1      33.769  27.520  26.322  1.00  0.00    -0.274 OA
ATOM      2  C   UNL A   1      32.937  27.130  25.506  1.00  0.00     0.236 C 
ATOM      3  N   UNL A   1      32.256  27.992  24.672  1.00  0.00    -0.355 N 
ATOM      4  H   UNL A   1      31.583  27.626  24.054  1.00  0.00     0.163 HD
ENDROOT
BRANCH   2   5
ATOM      5  C   UNL A   1      32.674  25.669  25.306  1.00  0.00     0.253 C 
BRANCH   5   6
ATOM      6  S   UNL A   1      31.208  25.138  26.139  1.00  0.00     0.220 S 
ATOM      7  O   UNL A   1      31.601  24.391  27.312  1.00  0.00    -0.212 OA
ATOM      8  O   UNL A   1      30.358  26.303  26.284  1.00  0.00    -0.212 OA
BRANCH   6   9
ATOM      9  N   UNL A   1      30.393  24.165  25.058  1.00  0.00    -0.210 NA
ATOM     10  H   UNL A   1      29.558  24.686  24.791  1.00  0.00     0.141 HD
BRANCH   9  11
ATOM     11  C   UNL A   1      30.976  23.671  23.804  1.00  0.00     0.135 C 
BRANCH  11  12
ATOM     12  C   UNL A   1      31.627  22.328  23.903  1.00  0.00    -0.015 A 
ATOM     13  C   UNL A   1      32.063  21.638  22.779  1.00  0.00     0.010 A 
ATOM     14  C   UNL A   1      31.745  21.679  25.127  1.00  0.00     0.118 A 
ATOM     15  C   UNL A   1      32.496  20.327  22.922  1.00  0.00     0.047 A 
ATOM     16  N   UNL A   1      32.130  20.390  25.289  1.00  0.00    -0.239 NA
ATOM     17  C   UNL A   1      32.481  19.719  24.176  1.00  0.00     0.128 A 
BRANCH  17  18
ATOM     18  N   UNL A   1      32.812  18.390  24.227  1.00  0.00    -0.352 N 
ATOM     19  C   UNL A   1      32.462  17.595  25.395  1.00  0.00     0.146 C 
ATOM     20  C   UNL A   1      32.928  17.627  22.992  1.00  0.00     0.146 C 
ATOM     21  C   UNL A   1      33.564  16.530  25.550  1.00  0.00     0.181 C 
ATOM     22  C   UNL A   1      34.006  16.552  23.213  1.00  0.00     0.181 C 
ATOM     23  O   UNL A   1      33.718  15.728  24.361  1.00  0.00    -0.378 OA
ENDBRANCH  17  18
ENDBRANCH  11  12
ENDBRANCH   9  11
ENDBRANCH   6   9
ENDBRANCH   5   6
ENDBRANCH   2   5
BRANCH   3  24
ATOM     24  C   UNL A   1      32.501  29.425  24.678  1.00  0.00     0.117 C 
BRANCH  24  25
ATOM     25  C   UNL A   1      31.435  30.217  25.418  1.00  0.00     0.042 C 
BRANCH  25  26
ATOM     26  C   UNL A   1      31.800  30.630  26.840  1.00  0.00     0.118 C 
BRANCH  26  27
ATOM     27  N   UNL A   1      31.905  32.068  27.046  1.00  0.00    -0.352 N 
ATOM     28  C   UNL A   1      32.923  32.828  27.578  1.00  0.00     0.251 C 
ATOM     29  H   UNL A   1      31.116  32.583  26.758  1.00  0.00     0.163 HD
ATOM     30  O   UNL A   1      32.724  34.012  27.841  1.00  0.00    -0.269 OA
BRANCH  28  31
ATOM     31  C   UNL A   1      34.259  32.253  27.878  1.00  0.00     0.039 A 
ATOM     32  C   UNL A   1      35.325  33.140  28.061  1.00  0.00     0.014 A 
ATOM     33  C   UNL A   1      34.491  30.881  27.991  1.00  0.00     0.014 A 
ATOM     34  C   UNL A   1      36.562  32.671  28.504  1.00  0.00     0.010 A 
ATOM     35  C   UNL A   1      35.689  30.420  28.536  1.00  0.00     0.010 A 
ATOM     36  C   UNL A   1      36.721  31.317  28.839  1.00  0.00    -0.014 A 
BRANCH  36  37
ATOM     37  C   UNL A   1      37.905  30.862  29.612  1.00  0.00     0.031 A 
ATOM     38  C   UNL A   1      38.914  29.925  29.018  1.00  0.00     0.074 A 
ATOM     39  C   UNL A   1      38.014  31.242  30.902  1.00  0.00     0.049 A 
ATOM     40  N   UNL A   1      39.967  29.384  29.579  1.00  0.00    -0.248 NA
ATOM     41  C   UNL A   1      38.702  29.517  27.621  1.00  0.00     0.031 C 
ATOM     42  C   UNL A   1      37.058  32.092  31.618  1.00  0.00     0.029 A 
ATOM     43  N   UNL A   1      38.970  30.958  31.845  1.00  0.00    -0.354 N 
ATOM     44  C   UNL A   1      40.534  28.565  28.613  1.00  0.00     0.074 A 
ATOM     45  C   UNL A   1      39.683  28.642  27.444  1.00  0.00     0.031 C 
ATOM     46  C   UNL A   1      37.494  32.290  32.872  1.00  0.00     0.029 A 
ATOM     47  C   UNL A   1      38.732  31.546  33.064  1.00  0.00     0.049 A 
ATOM     48  H   UNL A   1      39.752  30.387  31.666  1.00  0.00     0.167 HD
ATOM     49  C   UNL A   1      41.670  27.832  28.688  1.00  0.00     0.037 A 
ATOM     50  C   UNL A   1      39.428  31.491  34.215  1.00  0.00     0.037 A 
ATOM     51  C   UNL A   1      42.525  27.776  29.845  1.00  0.00     0.049 A 
ATOM     52  C   UNL A   1      40.687  30.678  34.268  1.00  0.00     0.074 A 
ATOM     53  C   UNL A   1      43.735  27.118  29.994  1.00  0.00     0.029 A 
ATOM     54  N   UNL A   1      42.259  28.399  31.056  1.00  0.00    -0.354 N 
ATOM     55  N   UNL A   1      41.250  29.967  33.321  1.00  0.00    -0.248 NA
ATOM     56  C   UNL A   1      41.409  30.657  35.547  1.00  0.00     0.031 C 
ATOM     57  C   UNL A   1      44.181  27.311  31.305  1.00  0.00     0.029 A 
ATOM     58  C   UNL A   1      43.269  28.121  31.963  1.00  0.00     0.049 A 
ATOM     59  H   UNL A   1      41.470  28.956  31.243  1.00  0.00     0.167 HD
ATOM     60  C   UNL A   1      42.398  29.428  33.882  1.00  0.00     0.074 A 
ATOM     61  C   UNL A   1      42.462  29.910  35.248  1.00  0.00     0.031 C 
ATOM     62  C   UNL A   1      43.315  28.605  33.319  1.00  0.00     0.037 A 
BRANCH  49  63
ATOM     63  C   UNL A   1      42.059  27.034  27.478  1.00  0.00     0.057 A 
ATOM     64  C   UNL A   1      41.609  25.721  27.285  1.00  0.00     0.134 A 
ATOM     65  C   UNL A   1      42.863  27.596  26.477  1.00  0.00     0.134 A 
ATOM     66  F   UNL A   1      40.845  25.123  28.210  1.00  0.00    -0.206 F 
ATOM     67  C   UNL A   1      41.965  24.987  26.152  1.00  0.00     0.040 A 
ATOM     68  C   UNL A   1      43.205  26.879  25.329  1.00  0.00     0.040 A 
ATOM     69  F   UNL A   1      43.322  28.850  26.595  1.00  0.00    -0.206 F 
ATOM     70  C   UNL A   1      42.760  25.568  25.167  1.00  0.00     0.006 A 
ENDBRANCH  49  63
BRANCH  50  71
ATOM     71  C   UNL A   1      38.955  32.242  35.404  1.00  0.00     0.057 A 
ATOM     72  C   UNL A   1      38.201  31.611  36.400  1.00  0.00     0.134 A 
ATOM     73  C   UNL A   1      39.250  33.599  35.579  1.00  0.00     0.134 A 
ATOM     74  F   UNL A   1      37.874  30.315  36.279  1.00  0.00    -0.206 F 
ATOM     75  C   UNL A   1      37.743  32.305  37.520  1.00  0.00     0.040 A 
ATOM     76  C   UNL A   1      38.818  34.301  36.705  1.00  0.00     0.040 A 
ATOM     77  F   UNL A   1      39.975  34.258  34.663  1.00  0.00    -0.206 F 
ATOM     78  C   UNL A   1      38.056  33.654  37.678  1.00  0.00     0.006 A 
ENDBRANCH  50  71
BRANCH  62  79
ATOM     79  C   UNL A   1      44.470  28.187  34.179  1.00  0.00     0.057 A 
ATOM     80  C   UNL A   1      45.619  28.978  34.299  1.00  0.00     0.134 A 
ATOM     81  C   UNL A   1      44.422  26.995  34.911  1.00  0.00     0.134 A 
ATOM     82  F   UNL A   1      45.731  30.123  33.609  1.00  0.00    -0.206 F 
ATOM     83  C   UNL A   1      46.689  28.589  35.105  1.00  0.00     0.040 A 
ATOM     84  C   UNL A   1      45.476  26.606  35.739  1.00  0.00     0.040 A 
ATOM     85  F   UNL A   1      43.347  26.195  34.843  1.00  0.00    -0.206 F 
ATOM     86  C   UNL A   1      46.617  27.402  35.833  1.00  0.00     0.006 A 
ENDBRANCH  62  79
ENDBRANCH  36  37
ENDBRANCH  28  31
ENDBRANCH  26  27
ENDBRANCH  25  26
ENDBRANCH  24  25
ENDBRANCH   3  24
TORSDOF 15
ENDMDL
MODEL 3
REMARK VINA RESULT:     -12.0      3.457      5.705
REMARK SMILES O=C(CS(=O)(=O)NCc1ccc(N2CCOCC2)nc1)NCCCNC(=O)c1ccc(-c2c3nc(c(-c4c(F)cccc4F)c4ccc([nH]4)c(-c4c(F)cccc4F)c4nc(c(-c5c(F)cccc5F)c5ccc2[nH]5)C=C4)C=C3)cc1
REMARK SMILES IDX 1 1 2 2 21 3 3 5 4 6 5 7 6 8 7 9 8 11 9 12 10 13 20 14 11 15
REMARK SMILES IDX 19 16 12 17 13 18 14 19 18 20 15 21 17 22 16 23 22 24 23 25
REMARK SMILES IDX 24 26 25 27 26 28 27 30 28 31 29 32 81 33 30 34 80 35 31 36
REMARK SMILES IDX 32 37 33 38 74 39 34 40 79 41 73 42 75 43 35 44 78 45 72 46
REMARK SMILES IDX 71 47 36 49 62 50 45 51 61 52 46 53 49 54 60 55 76 56 47 57
REMARK SMILES IDX 48 58 59 60 77 61 50 62 37 63 38 64 43 65 39 66 40 67 42 68
REMARK SMILES IDX 44 69 41 70 63 71 64 72 69 73 65 74 66 75 68 76 70 77 67 78
REMARK SMILES IDX 51 79 52 80 57 81 53 82 54 83 56 84 58 85 55 86
REMARK H PARENT 21 4 7 10 25 29 75 48 49 59
REMARK Flexibility Score: inf
ROOT
ATOM      1  O   UNL A   1      34.418  28.143  26.878  1.00  0.00    -0.274 OA
ATOM      2  C   UNL A   1      33.613  27.558  26.154  1.00  0.00     0.236 C 
ATOM      3  N   UNL A   1      32.763  28.229  25.300  1.00  0.00    -0.355 N 
ATOM      4  H   UNL A   1      32.122  27.710  24.761  1.00  0.00     0.163 HD
ENDROOT
BRANCH   2   5
ATOM      5  C   UNL A   1      33.570  26.063  26.095  1.00  0.00     0.253 C 
BRANCH   5   6
ATOM      6  S   UNL A   1      31.914  25.445  26.106  1.00  0.00     0.220 S 
ATOM      7  O   UNL A   1      31.942  24.089  26.604  1.00  0.00    -0.212 OA
ATOM      8  O   UNL A   1      31.096  26.437  26.776  1.00  0.00    -0.212 OA
BRANCH   6   9
ATOM      9  N   UNL A   1      31.397  25.488  24.522  1.00  0.00    -0.210 NA
ATOM     10  H   UNL A   1      31.758  24.639  24.088  1.00  0.00     0.141 HD
BRANCH   9  11
ATOM     11  C   UNL A   1      29.984  25.570  24.126  1.00  0.00     0.135 C 
BRANCH  11  12
ATOM     12  C   UNL A   1      29.585  26.870  23.502  1.00  0.00    -0.015 A 
ATOM     13  C   UNL A   1      30.521  27.743  22.962  1.00  0.00     0.010 A 
ATOM     14  C   UNL A   1      28.260  27.293  23.514  1.00  0.00     0.118 A 
ATOM     15  C   UNL A   1      30.106  29.006  22.559  1.00  0.00     0.047 A 
ATOM     16  N   UNL A   1      27.836  28.530  23.161  1.00  0.00    -0.239 NA
ATOM     17  C   UNL A   1      28.773  29.384  22.706  1.00  0.00     0.128 A 
BRANCH  17  18
ATOM     18  N   UNL A   1      28.456  30.680  22.396  1.00  0.00    -0.352 N 
ATOM     19  C   UNL A   1      27.708  30.979  21.184  1.00  0.00     0.146 C 
ATOM     20  C   UNL A   1      28.290  31.658  23.463  1.00  0.00     0.146 C 
ATOM     21  C   UNL A   1      28.190  32.358  20.696  1.00  0.00     0.181 C 
ATOM     22  C   UNL A   1      28.741  33.022  22.913  1.00  0.00     0.181 C 
ATOM     23  O   UNL A   1      28.036  33.377  21.706  1.00  0.00    -0.378 OA
ENDBRANCH  17  18
ENDBRANCH  11  12
ENDBRANCH   9  11
ENDBRANCH   6   9
ENDBRANCH   5   6
ENDBRANCH   2   5
BRANCH   3  24
ATOM     24  C   UNL A   1      32.782  29.676  25.171  1.00  0.00     0.117 C 
BRANCH  24  25
ATOM     25  C   UNL A   1      31.986  30.390  26.250  1.00  0.00     0.042 C 
BRANCH  25  26
ATOM     26  C   UNL A   1      32.816  31.170  27.265  1.00  0.00     0.118 C 
BRANCH  26  27
ATOM     27  N   UNL A   1      32.446  32.572  27.403  1.00  0.00    -0.352 N 
ATOM     28  C   UNL A   1      33.058  33.599  28.087  1.00  0.00     0.251 C 
ATOM     29  H   UNL A   1      31.623  32.827  26.929  1.00  0.00     0.163 HD
ATOM     30  O   UNL A   1      32.468  34.667  28.233  1.00  0.00    -0.269 OA
BRANCH  28  31
ATOM     31  C   UNL A   1      34.407  33.449  28.690  1.00  0.00     0.039 A 
ATOM     32  C   UNL A   1      34.486  32.936  29.990  1.00  0.00     0.014 A 
ATOM     33  C   UNL A   1      35.583  33.788  28.020  1.00  0.00     0.014 A 
ATOM     34  C   UNL A   1      35.727  32.621  30.546  1.00  0.00     0.010 A 
ATOM     35  C   UNL A   1      36.816  33.376  28.527  1.00  0.00     0.010 A 
ATOM     36  C   UNL A   1      36.894  32.748  29.777  1.00  0.00    -0.014 A 
BRANCH  36  37
ATOM     37  C   UNL A   1      38.165  32.119  30.220  1.00  0.00     0.031 A 
ATOM     38  C   UNL A   1      39.085  32.810  31.183  1.00  0.00     0.074 A 
ATOM     39  C   UNL A   1      38.524  30.941  29.671  1.00  0.00     0.049 A 
ATOM     40  N   UNL A   1      40.258  32.426  31.620  1.00  0.00    -0.248 NA
ATOM     41  C   UNL A   1      38.647  34.115  31.703  1.00  0.00     0.031 C 
ATOM     42  C   UNL A   1      37.750  30.204  28.667  1.00  0.00     0.029 A 
ATOM     43  N   UNL A   1      39.633  30.157  29.869  1.00  0.00    -0.354 N 
ATOM     44  C   UNL A   1      40.705  33.442  32.452  1.00  0.00     0.074 A 
ATOM     45  C   UNL A   1      39.697  34.482  32.424  1.00  0.00     0.031 C 
ATOM     46  C   UNL A   1      38.388  29.062  28.366  1.00  0.00     0.029 A 
ATOM     47  C   UNL A   1      39.635  29.006  29.118  1.00  0.00     0.049 A 
ATOM     48  H   UNL A   1      40.359  30.397  30.490  1.00  0.00     0.167 HD
ATOM     49  C   UNL A   1      41.841  33.495  33.189  1.00  0.00     0.037 A 
ATOM     50  C   UNL A   1      40.542  28.015  29.035  1.00  0.00     0.037 A 
ATOM     51  C   UNL A   1      42.828  32.448  33.232  1.00  0.00     0.049 A 
ATOM     52  C   UNL A   1      41.787  28.094  29.868  1.00  0.00     0.074 A 
ATOM     53  C   UNL A   1      43.978  32.377  34.001  1.00  0.00     0.029 A 
ATOM     54  N   UNL A   1      42.787  31.290  32.469  1.00  0.00    -0.354 N 
ATOM     55  N   UNL A   1      42.159  29.029  30.708  1.00  0.00    -0.248 NA
ATOM     56  C   UNL A   1      42.740  26.983  29.742  1.00  0.00     0.031 C 
ATOM     57  C   UNL A   1      44.651  31.194  33.676  1.00  0.00     0.029 A 
ATOM     58  C   UNL A   1      43.902  30.510  32.732  1.00  0.00     0.049 A 
ATOM     59  H   UNL A   1      42.072  31.056  31.835  1.00  0.00     0.167 HD
ATOM     60  C   UNL A   1      43.378  28.614  31.222  1.00  0.00     0.074 A 
ATOM     61  C   UNL A   1      43.674  27.332  30.614  1.00  0.00     0.031 C 
ATOM     62  C   UNL A   1      44.183  29.239  32.115  1.00  0.00     0.037 A 
BRANCH  49  63
ATOM     63  C   UNL A   1      42.072  34.725  34.016  1.00  0.00     0.057 A 
ATOM     64  C   UNL A   1      42.689  35.865  33.484  1.00  0.00     0.134 A 
ATOM     65  C   UNL A   1      41.642  34.784  35.348  1.00  0.00     0.134 A 
ATOM     66  F   UNL A   1      43.133  35.869  32.218  1.00  0.00    -0.206 F 
ATOM     67  C   UNL A   1      42.893  37.011  34.255  1.00  0.00     0.040 A 
ATOM     68  C   UNL A   1      41.819  35.933  36.121  1.00  0.00     0.040 A 
ATOM     69  F   UNL A   1      41.039  33.731  35.917  1.00  0.00    -0.206 F 
ATOM     70  C   UNL A   1      42.452  37.049  35.575  1.00  0.00     0.006 A 
ENDBRANCH  49  63
BRANCH  50  71
ATOM     71  C   UNL A   1      40.294  26.856  28.143  1.00  0.00     0.057 A 
ATOM     72  C   UNL A   1      39.497  25.784  28.561  1.00  0.00     0.134 A 
ATOM     73  C   UNL A   1      40.836  26.794  26.854  1.00  0.00     0.134 A 
ATOM     74  F   UNL A   1      38.964  25.780  29.792  1.00  0.00    -0.206 F 
ATOM     75  C   UNL A   1      39.261  24.683  27.736  1.00  0.00     0.040 A 
ATOM     76  C   UNL A   1      40.590  25.710  26.009  1.00  0.00     0.040 A 
ATOM     77  F   UNL A   1      41.602  27.794  26.392  1.00  0.00    -0.206 F 
ATOM     78  C   UNL A   1      39.804  24.648  26.454  1.00  0.00     0.006 A 
ENDBRANCH  50  71
BRANCH  62  79
ATOM     79  C   UNL A   1      45.451  28.535  32.495  1.00  0.00     0.057 A 
ATOM     80  C   UNL A   1      46.653  28.770  31.816  1.00  0.00     0.134 A 
ATOM     81  C   UNL A   1      45.475  27.634  33.566  1.00  0.00     0.134 A 
ATOM     82  F   UNL A   1      46.690  29.610  30.770  1.00  0.00    -0.206 F 
ATOM     83  C   UNL A   1      47.832  28.117  32.177  1.00  0.00     0.040 A 
ATOM     84  C   UNL A   1      46.653  26.993  33.951  1.00  0.00     0.040 A 
ATOM     85  F   UNL A   1      44.358  27.370  34.260  1.00  0.00    -0.206 F 
ATOM     86  C   UNL A   1      47.835  27.230  33.252  1.00  0.00     0.006 A 
ENDBRANCH  62  79
ENDBRANCH  36  37
ENDBRANCH  28  31
ENDBRANCH  26  27
ENDBRANCH  25  26
ENDBRANCH  24  25
ENDBRANCH   3  24
TORSDOF 15
ENDMDL
