MODEL 1
REMARK VINA RESULT:     -10.5      0.000      0.000
REMARK SMILES O=C(CN1C(=O)c2ccccc2[C@@H]1O)NCCCNC(=O)c1ccc(-c2c3nc(c(-c4c(F)cccc4F)c4ccc([nH]4)c(-c4c(F)cccc4F)c4nc(c(-c5c(F)cccc5F)c5ccc2[nH]5)C=C4)C=C3)cc1
REMARK SMILES IDX 17 1 16 2 15 3 1 4 2 5 3 7 4 8 5 9 13 10 6 11 7 12 12 13
REMARK SMILES IDX 8 14 11 15 9 16 10 17 14 18 18 20 19 21 20 22 21 24 22 25
REMARK SMILES IDX 23 26 75 27 24 28 74 29 25 30 26 31 27 32 68 33 28 34 73 35
REMARK SMILES IDX 67 36 69 37 29 38 72 39 66 40 65 41 30 43 56 44 39 45 55 46
REMARK SMILES IDX 40 47 43 48 54 49 70 50 41 51 42 52 53 54 71 55 44 56 31 57
REMARK SMILES IDX 32 58 37 59 33 60 34 61 36 62 38 63 35 64 57 65 58 66 63 67
REMARK SMILES IDX 59 68 60 69 62 70 64 71 61 72 45 73 46 74 51 75 47 76 48 77
REMARK SMILES IDX 50 78 52 79 49 80
REMARK H PARENT 15 6 14 19 19 23 69 42 43 53
REMARK Flexibility Score: inf
ROOT
ATOM      1  C   UNL A   1      44.240  18.793  24.649  1.00  0.00     0.042 C 
ENDROOT
BRANCH   1   2
ATOM      2  C   UNL A   1      45.697  19.214  24.778  1.00  0.00     0.117 C 
BRANCH   2   3
ATOM      3  N   UNL A   1      45.935  20.530  24.224  1.00  0.00    -0.354 N 
ATOM      4  O   UNL A   1      45.916  21.654  26.228  1.00  0.00    -0.273 OA
ATOM      5  C   UNL A   1      46.075  21.657  25.012  1.00  0.00     0.239 C 
ATOM      6  H   UNL A   1      46.001  20.627  23.246  1.00  0.00     0.163 HD
BRANCH   5   7
ATOM      7  C   UNL A   1      46.479  22.906  24.226  1.00  0.00     0.222 C 
BRANCH   7   8
ATOM      8  N   UNL A   1      45.730  24.089  24.633  1.00  0.00    -0.299 N 
ATOM      9  C   UNL A   1      44.354  24.185  24.589  1.00  0.00     0.257 C 
ATOM     10  C   UNL A   1      46.343  25.253  25.216  1.00  0.00     0.247 C 
ATOM     11  O   UNL A   1      43.548  23.365  24.195  1.00  0.00    -0.269 OA
ATOM     12  C   UNL A   1      44.009  25.527  25.081  1.00  0.00     0.047 A 
ATOM     13  C   UNL A   1      45.195  26.185  25.402  1.00  0.00     0.014 A 
ATOM     14  C   UNL A   1      42.768  26.115  25.228  1.00  0.00     0.014 A 
ATOM     15  C   UNL A   1      45.172  27.484  25.880  1.00  0.00     0.009 A 
ATOM     16  C   UNL A   1      42.735  27.421  25.720  1.00  0.00     0.001 A 
ATOM     17  C   UNL A   1      43.926  28.101  26.038  1.00  0.00     0.001 A 
BRANCH  10  18
ATOM     18  O   UNL A   1      47.319  25.726  24.318  1.00  0.00    -0.369 OA
ATOM     19  H   UNL A   1      47.016  25.582  23.408  1.00  0.00     0.213 HD
ENDBRANCH  10  18
ENDBRANCH   7   8
ENDBRANCH   5   7
ENDBRANCH   2   3
ENDBRANCH   1   2
BRANCH   1  20
ATOM     20  C   UNL A   1      43.419  18.949  25.926  1.00  0.00     0.118 C 
BRANCH  20  21
ATOM     21  N   UNL A   1      41.995  18.720  25.730  1.00  0.00    -0.352 N 
ATOM     22  C   UNL A   1      40.917  19.490  26.100  1.00  0.00     0.251 C 
ATOM     23  H   UNL A   1      41.768  17.885  25.262  1.00  0.00     0.163 HD
ATOM     24  O   UNL A   1      39.779  19.054  25.954  1.00  0.00    -0.269 OA
BRANCH  22  25
ATOM     25  C   UNL A   1      41.119  20.824  26.705  1.00  0.00     0.039 A 
ATOM     26  C   UNL A   1      41.630  20.899  28.005  1.00  0.00     0.014 A 
ATOM     27  C   UNL A   1      40.817  21.996  26.007  1.00  0.00     0.014 A 
ATOM     28  C   UNL A   1      41.918  22.145  28.567  1.00  0.00     0.010 A 
ATOM     29  C   UNL A   1      41.176  23.233  26.538  1.00  0.00     0.010 A 
ATOM     30  C   UNL A   1      41.744  23.320  27.818  1.00  0.00    -0.014 A 
BRANCH  30  31
ATOM     31  C   UNL A   1      42.196  24.638  28.338  1.00  0.00     0.031 A 
ATOM     32  C   UNL A   1      41.220  25.767  28.521  1.00  0.00     0.074 A 
ATOM     33  C   UNL A   1      43.506  24.838  28.580  1.00  0.00     0.049 A 
ATOM     34  N   UNL A   1      41.446  27.003  28.889  1.00  0.00    -0.248 NA
ATOM     35  C   UNL A   1      39.807  25.475  28.234  1.00  0.00     0.031 C 
ATOM     36  C   UNL A   1      44.561  23.837  28.405  1.00  0.00     0.029 A 
ATOM     37  N   UNL A   1      44.179  25.955  29.011  1.00  0.00    -0.354 N 
ATOM     38  C   UNL A   1      40.211  27.637  28.871  1.00  0.00     0.074 A 
ATOM     39  C   UNL A   1      39.246  26.663  28.406  1.00  0.00     0.031 C 
ATOM     40  C   UNL A   1      45.741  24.378  28.745  1.00  0.00     0.029 A 
ATOM     41  C   UNL A   1      45.537  25.775  29.113  1.00  0.00     0.049 A 
ATOM     42  H   UNL A   1      43.731  26.804  29.227  1.00  0.00     0.167 HD
ATOM     43  C   UNL A   1      39.906  28.909  29.226  1.00  0.00     0.037 A 
ATOM     44  C   UNL A   1      46.514  26.640  29.445  1.00  0.00     0.037 A 
ATOM     45  C   UNL A   1      40.868  29.874  29.694  1.00  0.00     0.049 A 
ATOM     46  C   UNL A   1      46.154  28.059  29.792  1.00  0.00     0.074 A 
ATOM     47  C   UNL A   1      40.646  31.169  30.129  1.00  0.00     0.029 A 
ATOM     48  N   UNL A   1      42.235  29.655  29.776  1.00  0.00    -0.354 N 
ATOM     49  N   UNL A   1      44.971  28.623  29.838  1.00  0.00    -0.248 NA
ATOM     50  C   UNL A   1      47.263  28.959  30.135  1.00  0.00     0.031 C 
ATOM     51  C   UNL A   1      41.884  31.754  30.413  1.00  0.00     0.029 A 
ATOM     52  C   UNL A   1      42.872  30.804  30.219  1.00  0.00     0.049 A 
ATOM     53  H   UNL A   1      42.686  28.810  29.553  1.00  0.00     0.167 HD
ATOM     54  C   UNL A   1      45.193  29.936  30.238  1.00  0.00     0.074 A 
ATOM     55  C   UNL A   1      46.619  30.075  30.443  1.00  0.00     0.031 C 
ATOM     56  C   UNL A   1      44.294  30.935  30.417  1.00  0.00     0.037 A 
BRANCH  43  57
ATOM     57  C   UNL A   1      38.469  29.336  29.115  1.00  0.00     0.057 A 
ATOM     58  C   UNL A   1      37.909  29.746  27.897  1.00  0.00     0.134 A 
ATOM     59  C   UNL A   1      37.622  29.291  30.229  1.00  0.00     0.134 A 
ATOM     60  F   UNL A   1      38.666  29.820  26.791  1.00  0.00    -0.206 F 
ATOM     61  C   UNL A   1      36.569  30.122  27.799  1.00  0.00     0.040 A 
ATOM     62  C   UNL A   1      36.272  29.636  30.137  1.00  0.00     0.040 A 
ATOM     63  F   UNL A   1      38.088  28.899  31.425  1.00  0.00    -0.206 F 
ATOM     64  C   UNL A   1      35.744  30.060  28.920  1.00  0.00     0.006 A 
ENDBRANCH  43  57
BRANCH  44  65
ATOM     65  C   UNL A   1      47.931  26.193  29.465  1.00  0.00     0.057 A 
ATOM     66  C   UNL A   1      48.508  25.667  30.627  1.00  0.00     0.134 A 
ATOM     67  C   UNL A   1      48.747  26.295  28.331  1.00  0.00     0.134 A 
ATOM     68  F   UNL A   1      47.785  25.564  31.751  1.00  0.00    -0.206 F 
ATOM     69  C   UNL A   1      49.848  25.281  30.668  1.00  0.00     0.040 A 
ATOM     70  C   UNL A   1      50.080  25.883  28.349  1.00  0.00     0.040 A 
ATOM     71  F   UNL A   1      48.255  26.784  27.183  1.00  0.00    -0.206 F 
ATOM     72  C   UNL A   1      50.637  25.383  29.524  1.00  0.00     0.006 A 
ENDBRANCH  44  65
BRANCH  56  73
ATOM     73  C   UNL A   1      44.824  32.262  30.881  1.00  0.00     0.057 A 
ATOM     74  C   UNL A   1      45.192  33.270  29.980  1.00  0.00     0.134 A 
ATOM     75  C   UNL A   1      44.938  32.547  32.248  1.00  0.00     0.134 A 
ATOM     76  F   UNL A   1      45.121  33.059  28.657  1.00  0.00    -0.206 F 
ATOM     77  C   UNL A   1      45.678  34.502  30.421  1.00  0.00     0.040 A 
ATOM     78  C   UNL A   1      45.393  33.786  32.702  1.00  0.00     0.040 A 
ATOM     79  F   UNL A   1      44.595  31.631  33.167  1.00  0.00    -0.206 F 
ATOM     80  C   UNL A   1      45.773  34.765  31.787  1.00  0.00     0.006 A 
ENDBRANCH  56  73
ENDBRANCH  30  31
ENDBRANCH  22  25
ENDBRANCH  20  21
ENDBRANCH   1  20
TORSDOF 12
ENDMDL
MODEL 2
REMARK VINA RESULT:      -9.7      1.100      2.167
REMARK SMILES O=C(CN1C(=O)c2ccccc2[C@@H]1O)NCCCNC(=O)c1ccc(-c2c3nc(c(-c4c(F)cccc4F)c4ccc([nH]4)c(-c4c(F)cccc4F)c4nc(c(-c5c(F)cccc5F)c5ccc2[nH]5)C=C4)C=C3)cc1
REMARK SMILES IDX 17 1 16 2 15 3 1 4 2 5 3 7 4 8 5 9 13 10 6 11 7 12 12 13
REMARK SMILES IDX 8 14 11 15 9 16 10 17 14 18 18 20 19 21 20 22 21 24 22 25
REMARK SMILES IDX 23 26 75 27 24 28 74 29 25 30 26 31 27 32 68 33 28 34 73 35
REMARK SMILES IDX 67 36 69 37 29 38 72 39 66 40 65 41 30 43 56 44 39 45 55 46
REMARK SMILES IDX 40 47 43 48 54 49 70 50 41 51 42 52 53 54 71 55 44 56 31 57
REMARK SMILES IDX 32 58 37 59 33 60 34 61 36 62 38 63 35 64 57 65 58 66 63 67
REMARK SMILES IDX 59 68 60 69 62 70 64 71 61 72 45 73 46 74 51 75 47 76 48 77
REMARK SMILES IDX 50 78 52 79 49 80
REMARK H PARENT 15 6 14 19 19 23 69 42 43 53
REMARK Flexibility Score: inf
ROOT
ATOM      1  C   UNL A   1      44.738  20.985  24.847  1.00  0.00     0.042 C 
ENDROOT
BRANCH   1   2
ATOM      2  C   UNL A   1      45.580  21.916  25.708  1.00  0.00     0.117 C 
BRANCH   2   3
ATOM      3  N   UNL A   1      45.700  23.237  25.126  1.00  0.00    -0.354 N 
ATOM      4  O   UNL A   1      47.475  23.920  26.415  1.00  0.00    -0.273 OA
ATOM      5  C   UNL A   1      46.686  24.130  25.501  1.00  0.00     0.239 C 
ATOM      6  H   UNL A   1      45.054  23.510  24.434  1.00  0.00     0.163 HD
BRANCH   5   7
ATOM      7  C   UNL A   1      46.721  25.397  24.643  1.00  0.00     0.222 C 
BRANCH   7   8
ATOM      8  N   UNL A   1      45.999  26.506  25.254  1.00  0.00    -0.299 N 
ATOM      9  C   UNL A   1      44.622  26.580  25.338  1.00  0.00     0.257 C 
ATOM     10  C   UNL A   1      46.648  27.601  25.925  1.00  0.00     0.247 C 
ATOM     11  O   UNL A   1      43.793  25.798  24.913  1.00  0.00    -0.269 OA
ATOM     12  C   UNL A   1      44.309  27.843  26.019  1.00  0.00     0.047 A 
ATOM     13  C   UNL A   1      45.512  28.480  26.320  1.00  0.00     0.014 A 
ATOM     14  C   UNL A   1      43.080  28.384  26.341  1.00  0.00     0.014 A 
ATOM     15  C   UNL A   1      45.517  29.709  26.956  1.00  0.00     0.009 A 
ATOM     16  C   UNL A   1      43.076  29.618  26.993  1.00  0.00     0.001 A 
ATOM     17  C   UNL A   1      44.284  30.277  27.293  1.00  0.00     0.001 A 
BRANCH  10  18
ATOM     18  O   UNL A   1      47.539  28.200  25.014  1.00  0.00    -0.369 OA
ATOM     19  H   UNL A   1      47.826  27.542  24.362  1.00  0.00     0.213 HD
ENDBRANCH  10  18
ENDBRANCH   7   8
ENDBRANCH   5   7
ENDBRANCH   2   3
ENDBRANCH   1   2
BRANCH   1  20
ATOM     20  C   UNL A   1      44.458  19.623  25.473  1.00  0.00     0.118 C 
BRANCH  20  21
ATOM     21  N   UNL A   1      43.073  19.194  25.331  1.00  0.00    -0.352 N 
ATOM     22  C   UNL A   1      41.916  19.776  25.792  1.00  0.00     0.251 C 
ATOM     23  H   UNL A   1      42.946  18.358  24.828  1.00  0.00     0.163 HD
ATOM     24  O   UNL A   1      40.848  19.183  25.676  1.00  0.00    -0.269 OA
BRANCH  22  25
ATOM     25  C   UNL A   1      41.954  21.095  26.461  1.00  0.00     0.039 A 
ATOM     26  C   UNL A   1      42.084  21.137  27.852  1.00  0.00     0.014 A 
ATOM     27  C   UNL A   1      41.866  22.284  25.733  1.00  0.00     0.014 A 
ATOM     28  C   UNL A   1      42.215  22.366  28.501  1.00  0.00     0.010 A 
ATOM     29  C   UNL A   1      42.074  23.506  26.372  1.00  0.00     0.010 A 
ATOM     30  C   UNL A   1      42.265  23.559  27.761  1.00  0.00    -0.014 A 
BRANCH  30  31
ATOM     31  C   UNL A   1      42.566  24.860  28.416  1.00  0.00     0.031 A 
ATOM     32  C   UNL A   1      41.499  25.907  28.570  1.00  0.00     0.074 A 
ATOM     33  C   UNL A   1      43.826  25.123  28.812  1.00  0.00     0.049 A 
ATOM     34  N   UNL A   1      41.597  27.124  29.044  1.00  0.00    -0.248 NA
ATOM     35  C   UNL A   1      40.148  25.549  28.111  1.00  0.00     0.031 C 
ATOM     36  C   UNL A   1      44.962  24.208  28.684  1.00  0.00     0.029 A 
ATOM     37  N   UNL A   1      44.370  26.245  29.389  1.00  0.00    -0.354 N 
ATOM     38  C   UNL A   1      40.328  27.678  28.935  1.00  0.00     0.074 A 
ATOM     39  C   UNL A   1      39.488  26.683  28.303  1.00  0.00     0.031 C 
ATOM     40  C   UNL A   1      46.060  24.795  29.187  1.00  0.00     0.029 A 
ATOM     41  C   UNL A   1      45.720  26.144  29.625  1.00  0.00     0.049 A 
ATOM     42  H   UNL A   1      43.842  27.045  29.613  1.00  0.00     0.167 HD
ATOM     43  C   UNL A   1      39.898  28.897  29.342  1.00  0.00     0.037 A 
ATOM     44  C   UNL A   1      46.593  27.042  30.119  1.00  0.00     0.037 A 
ATOM     45  C   UNL A   1      40.735  29.882  29.977  1.00  0.00     0.049 A 
ATOM     46  C   UNL A   1      46.098  28.404  30.522  1.00  0.00     0.074 A 
ATOM     47  C   UNL A   1      40.378  31.125  30.473  1.00  0.00     0.029 A 
ATOM     48  N   UNL A   1      42.099  29.745  30.191  1.00  0.00    -0.354 N 
ATOM     49  N   UNL A   1      44.880  28.888  30.479  1.00  0.00    -0.248 NA
ATOM     50  C   UNL A   1      47.099  29.344  31.044  1.00  0.00     0.031 C 
ATOM     51  C   UNL A   1      41.534  31.764  30.929  1.00  0.00     0.029 A 
ATOM     52  C   UNL A   1      42.603  30.896  30.779  1.00  0.00     0.049 A 
ATOM     53  H   UNL A   1      42.630  28.950  29.961  1.00  0.00     0.167 HD
ATOM     54  C   UNL A   1      44.965  30.177  30.989  1.00  0.00     0.074 A 
ATOM     55  C   UNL A   1      46.349  30.392  31.357  1.00  0.00     0.031 C 
ATOM     56  C   UNL A   1      43.984  31.101  31.138  1.00  0.00     0.037 A 
BRANCH  43  57
ATOM     57  C   UNL A   1      38.454  29.238  29.106  1.00  0.00     0.057 A 
ATOM     58  C   UNL A   1      37.503  29.198  30.136  1.00  0.00     0.134 A 
ATOM     59  C   UNL A   1      38.015  29.658  27.844  1.00  0.00     0.134 A 
ATOM     60  F   UNL A   1      37.853  28.797  31.368  1.00  0.00    -0.206 F 
ATOM     61  C   UNL A   1      36.168  29.536  29.912  1.00  0.00     0.040 A 
ATOM     62  C   UNL A   1      36.689  30.027  27.615  1.00  0.00     0.040 A 
ATOM     63  F   UNL A   1      38.872  29.730  26.813  1.00  0.00    -0.206 F 
ATOM     64  C   UNL A   1      35.759  29.959  28.650  1.00  0.00     0.006 A 
ENDBRANCH  43  57
BRANCH  44  65
ATOM     65  C   UNL A   1      48.028  26.686  30.263  1.00  0.00     0.057 A 
ATOM     66  C   UNL A   1      48.975  27.098  29.318  1.00  0.00     0.134 A 
ATOM     67  C   UNL A   1      48.487  25.915  31.339  1.00  0.00     0.134 A 
ATOM     68  F   UNL A   1      48.595  27.821  28.254  1.00  0.00    -0.206 F 
ATOM     69  C   UNL A   1      50.319  26.737  29.422  1.00  0.00     0.040 A 
ATOM     70  C   UNL A   1      49.833  25.573  31.473  1.00  0.00     0.040 A 
ATOM     71  F   UNL A   1      47.633  25.493  32.283  1.00  0.00    -0.206 F 
ATOM     72  C   UNL A   1      50.752  25.977  30.506  1.00  0.00     0.006 A 
ENDBRANCH  44  65
BRANCH  56  73
ATOM     73  C   UNL A   1      44.367  32.420  31.747  1.00  0.00     0.057 A 
ATOM     74  C   UNL A   1      44.349  32.630  33.133  1.00  0.00     0.134 A 
ATOM     75  C   UNL A   1      44.792  33.483  30.940  1.00  0.00     0.134 A 
ATOM     76  F   UNL A   1      43.939  31.659  33.963  1.00  0.00    -0.206 F 
ATOM     77  C   UNL A   1      44.712  33.858  33.690  1.00  0.00     0.040 A 
ATOM     78  C   UNL A   1      45.188  34.704  31.487  1.00  0.00     0.040 A 
ATOM     79  F   UNL A   1      44.844  33.349  29.606  1.00  0.00    -0.206 F 
ATOM     80  C   UNL A   1      45.140  34.897  32.866  1.00  0.00     0.006 A 
ENDBRANCH  56  73
ENDBRANCH  30  31
ENDBRANCH  22  25
ENDBRANCH  20  21
ENDBRANCH   1  20
TORSDOF 12
ENDMDL
MODEL 3
REMARK VINA RESULT:      -9.6      3.257      6.061
REMARK SMILES O=C(CN1C(=O)c2ccccc2[C@@H]1O)NCCCNC(=O)c1ccc(-c2c3nc(c(-c4c(F)cccc4F)c4ccc([nH]4)c(-c4c(F)cccc4F)c4nc(c(-c5c(F)cccc5F)c5ccc2[nH]5)C=C4)C=C3)cc1
REMARK SMILES IDX 17 1 16 2 15 3 1 4 2 5 3 7 4 8 5 9 13 10 6 11 7 12 12 13
REMARK SMILES IDX 8 14 11 15 9 16 10 17 14 18 18 20 19 21 20 22 21 24 22 25
REMARK SMILES IDX 23 26 75 27 24 28 74 29 25 30 26 31 27 32 68 33 28 34 73 35
REMARK SMILES IDX 67 36 69 37 29 38 72 39 66 40 65 41 30 43 56 44 39 45 55 46
REMARK SMILES IDX 40 47 43 48 54 49 70 50 41 51 42 52 53 54 71 55 44 56 31 57
REMARK SMILES IDX 32 58 37 59 33 60 34 61 36 62 38 63 35 64 57 65 58 66 63 67
REMARK SMILES IDX 59 68 60 69 62 70 64 71 61 72 45 73 46 74 51 75 47 76 48 77
REMARK SMILES IDX 50 78 52 79 49 80
REMARK H PARENT 15 6 14 19 19 23 69 42 43 53
REMARK Flexibility Score: inf
ROOT
ATOM      1  C   UNL A   1      36.806  20.675  24.976  1.00  0.00     0.042 C 
ENDROOT
BRANCH   1   2
ATOM      2  C   UNL A   1      35.744  21.222  25.919  1.00  0.00     0.117 C 
BRANCH   2   3
ATOM      3  N   UNL A   1      34.730  21.980  25.216  1.00  0.00    -0.354 N 
ATOM      4  O   UNL A   1      33.094  21.753  26.813  1.00  0.00    -0.273 OA
ATOM      5  C   UNL A   1      33.480  22.228  25.751  1.00  0.00     0.239 C 
ATOM      6  H   UNL A   1      34.939  22.334  24.321  1.00  0.00     0.163 HD
BRANCH   5   7
ATOM      7  C   UNL A   1      32.632  23.181  24.907  1.00  0.00     0.222 C 
BRANCH   7   8
ATOM      8  N   UNL A   1      32.616  24.538  25.441  1.00  0.00    -0.299 N 
ATOM      9  C   UNL A   1      33.658  25.434  25.307  1.00  0.00     0.257 C 
ATOM     10  C   UNL A   1      31.471  25.122  26.086  1.00  0.00     0.247 C 
ATOM     11  O   UNL A   1      34.740  25.266  24.778  1.00  0.00    -0.269 OA
ATOM     12  C   UNL A   1      33.240  26.671  25.981  1.00  0.00     0.047 A 
ATOM     13  C   UNL A   1      31.960  26.469  26.495  1.00  0.00     0.014 A 
ATOM     14  C   UNL A   1      33.923  27.861  26.132  1.00  0.00     0.014 A 
ATOM     15  C   UNL A   1      31.318  27.473  27.199  1.00  0.00     0.009 A 
ATOM     16  C   UNL A   1      33.279  28.883  26.831  1.00  0.00     0.001 A 
ATOM     17  C   UNL A   1      31.990  28.689  27.364  1.00  0.00     0.001 A 
BRANCH  10  18
ATOM     18  O   UNL A   1      31.113  24.296  27.169  1.00  0.00    -0.369 OA
ATOM     19  H   UNL A   1      30.881  23.414  26.839  1.00  0.00     0.213 HD
ENDBRANCH  10  18
ENDBRANCH   7   8
ENDBRANCH   5   7
ENDBRANCH   2   3
ENDBRANCH   1   2
BRANCH   1  20
ATOM     20  C   UNL A   1      38.236  21.063  25.337  1.00  0.00     0.118 C 
BRANCH  20  21
ATOM     21  N   UNL A   1      39.139  19.924  25.435  1.00  0.00    -0.352 N 
ATOM     22  C   UNL A   1      40.429  19.856  25.905  1.00  0.00     0.251 C 
ATOM     23  H   UNL A   1      38.768  19.071  25.112  1.00  0.00     0.163 HD
ATOM     24  O   UNL A   1      41.068  18.815  25.781  1.00  0.00    -0.269 OA
BRANCH  22  25
ATOM     25  C   UNL A   1      41.065  21.038  26.527  1.00  0.00     0.039 A 
ATOM     26  C   UNL A   1      41.699  21.969  25.699  1.00  0.00     0.014 A 
ATOM     27  C   UNL A   1      41.039  21.238  27.909  1.00  0.00     0.014 A 
ATOM     28  C   UNL A   1      42.227  23.140  26.248  1.00  0.00     0.010 A 
ATOM     29  C   UNL A   1      41.496  22.441  28.445  1.00  0.00     0.010 A 
ATOM     30  C   UNL A   1      42.082  23.411  27.619  1.00  0.00    -0.014 A 
BRANCH  30  31
ATOM     31  C   UNL A   1      42.492  24.720  28.192  1.00  0.00     0.031 A 
ATOM     32  C   UNL A   1      41.483  25.813  28.412  1.00  0.00     0.074 A 
ATOM     33  C   UNL A   1      43.795  24.948  28.449  1.00  0.00     0.049 A 
ATOM     34  N   UNL A   1      41.671  27.040  28.829  1.00  0.00    -0.248 NA
ATOM     35  C   UNL A   1      40.081  25.492  28.105  1.00  0.00     0.031 C 
ATOM     36  C   UNL A   1      44.879  23.986  28.243  1.00  0.00     0.029 A 
ATOM     37  N   UNL A   1      44.433  26.067  28.927  1.00  0.00    -0.354 N 
ATOM     38  C   UNL A   1      40.418  27.638  28.827  1.00  0.00     0.074 A 
ATOM     39  C   UNL A   1      39.485  26.655  28.319  1.00  0.00     0.031 C 
ATOM     40  C   UNL A   1      46.042  24.547  28.611  1.00  0.00     0.029 A 
ATOM     41  C   UNL A   1      45.795  25.922  29.030  1.00  0.00     0.049 A 
ATOM     42  H   UNL A   1      43.959  26.894  29.173  1.00  0.00     0.167 HD
ATOM     43  C   UNL A   1      40.074  28.886  29.229  1.00  0.00     0.037 A 
ATOM     44  C   UNL A   1      46.745  26.802  29.401  1.00  0.00     0.037 A 
ATOM     45  C   UNL A   1      41.006  29.859  29.740  1.00  0.00     0.049 A 
ATOM     46  C   UNL A   1      46.341  28.195  29.800  1.00  0.00     0.074 A 
ATOM     47  C   UNL A   1      40.744  31.130  30.222  1.00  0.00     0.029 A 
ATOM     48  N   UNL A   1      42.378  29.677  29.821  1.00  0.00    -0.354 N 
ATOM     49  N   UNL A   1      45.143  28.723  29.861  1.00  0.00    -0.248 NA
ATOM     50  C   UNL A   1      47.422  29.113  30.185  1.00  0.00     0.031 C 
ATOM     51  C   UNL A   1      41.962  31.739  30.537  1.00  0.00     0.029 A 
ATOM     52  C   UNL A   1      42.979  30.827  30.312  1.00  0.00     0.049 A 
ATOM     53  H   UNL A   1      42.855  28.854  29.569  1.00  0.00     0.167 HD
ATOM     54  C   UNL A   1      45.324  30.025  30.312  1.00  0.00     0.074 A 
ATOM     55  C   UNL A   1      46.744  30.198  30.531  1.00  0.00     0.031 C 
ATOM     56  C   UNL A   1      44.396  30.990  30.524  1.00  0.00     0.037 A 
BRANCH  43  57
ATOM     57  C   UNL A   1      38.626  29.275  29.126  1.00  0.00     0.057 A 
ATOM     58  C   UNL A   1      37.775  29.270  30.240  1.00  0.00     0.134 A 
ATOM     59  C   UNL A   1      38.086  29.704  27.907  1.00  0.00     0.134 A 
ATOM     60  F   UNL A   1      38.225  28.862  31.437  1.00  0.00    -0.206 F 
ATOM     61  C   UNL A   1      36.436  29.651  30.139  1.00  0.00     0.040 A 
ATOM     62  C   UNL A   1      36.757  30.116  27.800  1.00  0.00     0.040 A 
ATOM     63  F   UNL A   1      38.845  29.743  26.801  1.00  0.00    -0.206 F 
ATOM     64  C   UNL A   1      35.926  30.083  28.917  1.00  0.00     0.006 A 
ENDBRANCH  43  57
BRANCH  44  65
ATOM     65  C   UNL A   1      48.174  26.397  29.413  1.00  0.00     0.057 A 
ATOM     66  C   UNL A   1      48.995  26.601  28.299  1.00  0.00     0.134 A 
ATOM     67  C   UNL A   1      48.751  25.782  30.533  1.00  0.00     0.134 A 
ATOM     68  F   UNL A   1      48.497  27.165  27.189  1.00  0.00    -0.206 F 
ATOM     69  C   UNL A   1      50.328  26.189  28.285  1.00  0.00     0.040 A 
ATOM     70  C   UNL A   1      50.091  25.393  30.545  1.00  0.00     0.040 A 
ATOM     71  F   UNL A   1      48.021  25.563  31.637  1.00  0.00    -0.206 F 
ATOM     72  C   UNL A   1      50.881  25.588  29.414  1.00  0.00     0.006 A 
ENDBRANCH  44  65
BRANCH  56  73
ATOM     73  C   UNL A   1      44.884  32.313  31.042  1.00  0.00     0.057 A 
ATOM     74  C   UNL A   1      45.016  32.570  32.414  1.00  0.00     0.134 A 
ATOM     75  C   UNL A   1      45.260  33.332  30.158  1.00  0.00     0.134 A 
ATOM     76  F   UNL A   1      44.661  31.642  33.317  1.00  0.00    -0.206 F 
ATOM     77  C   UNL A   1      45.476  33.800  32.886  1.00  0.00     0.040 A 
ATOM     78  C   UNL A   1      45.752  34.555  30.616  1.00  0.00     0.040 A 
ATOM     79  F   UNL A   1      45.170  33.152  28.831  1.00  0.00    -0.206 F 
ATOM     80  C   UNL A   1      45.853  34.795  31.986  1.00  0.00     0.006 A 
ENDBRANCH  56  73
ENDBRANCH  30  31
ENDBRANCH  22  25
ENDBRANCH  20  21
ENDBRANCH   1  20
TORSDOF 12
ENDMDL
