MODEL 1
REMARK VINA RESULT:     -13.5      0.000      0.000
REMARK SMILES C[C@@H](C(=O)NCCCNC(=O)c1ccc(-c2c3nc(c(-c4c(F)cccc4F)c4ccc([nH]4)c(-c4c(F)cccc4F)c4nc(c(-c5c(F)cccc5F)c5ccc2[nH]5)C=C4)C=C3)cc1)N1C(=O)/C(=C/c2ccc(-c3ccc([N+](=O)[O-])cc3Cl)o2)SC1=S
REMARK SMILES IDX 6 1 5 2 3 3 4 4 2 6 1 7 66 8 67 9 87 10 68 11 69 12 86 13
REMARK SMILES IDX 88 14 70 15 71 16 72 17 85 18 73 19 74 20 75 21 76 22 83 23
REMARK SMILES IDX 77 24 82 25 84 26 78 27 79 28 80 29 81 30 7 31 8 32 9 33
REMARK SMILES IDX 10 34 11 36 12 37 13 38 65 39 14 40 64 41 15 42 16 43 17 44
REMARK SMILES IDX 58 45 18 46 63 47 57 48 59 49 19 50 62 51 56 52 55 53 20 55
REMARK SMILES IDX 46 56 29 57 45 58 30 59 33 60 44 61 60 62 31 63 32 64 43 66
REMARK SMILES IDX 61 67 34 68 21 69 22 70 27 71 23 72 24 73 26 74 28 75 25 76
REMARK SMILES IDX 47 77 48 78 53 79 49 80 50 81 52 82 54 83 51 84 35 85 36 86
REMARK SMILES IDX 41 87 37 88 38 89 40 90 42 91 39 92
REMARK H PARENT 5 5 9 35 59 54 33 65
REMARK Flexibility Score: inf
ROOT
ATOM      1  C   UNL A   1      36.047  20.861  24.935  1.00  0.00     0.117 C 
ENDROOT
BRANCH   1   2
ATOM      2  N   UNL A   1      35.522  21.082  26.268  1.00  0.00    -0.354 N 
ATOM      3  C   UNL A   1      34.293  21.509  26.672  1.00  0.00     0.242 C 
ATOM      4  O   UNL A   1      34.094  21.559  27.889  1.00  0.00    -0.273 OA
ATOM      5  H   UNL A   1      36.155  20.892  26.997  1.00  0.00     0.163 HD
BRANCH   3   6
ATOM      6  C   UNL A   1      33.196  21.859  25.644  1.00  0.00     0.178 C 
ATOM      7  C   UNL A   1      33.260  21.101  24.318  1.00  0.00     0.042 C 
BRANCH   6   8
ATOM      8  N   UNL A   1      33.167  23.329  25.475  1.00  0.00    -0.281 N 
ATOM      9  C   UNL A   1      32.341  24.057  26.321  1.00  0.00     0.267 C 
ATOM     10  C   UNL A   1      33.966  24.070  24.622  1.00  0.00     0.149 C 
ATOM     11  O   UNL A   1      31.617  23.597  27.193  1.00  0.00    -0.268 OA
ATOM     12  C   UNL A   1      32.396  25.504  25.989  1.00  0.00     0.084 C 
ATOM     13  S   UNL A   1      33.524  25.768  24.721  1.00  0.00    -0.054 SA
ATOM     14  S   UNL A   1      35.172  23.578  23.579  1.00  0.00    -0.052 S 
ATOM     15  C   UNL A   1      31.626  26.409  26.609  1.00  0.00     0.068 C 
BRANCH  15  16
ATOM     16  C   UNL A   1      31.564  27.762  26.182  1.00  0.00     0.128 A 
ATOM     17  C   UNL A   1      32.122  28.883  26.787  1.00  0.00     0.051 A 
ATOM     18  O   UNL A   1      30.908  28.182  25.046  1.00  0.00    -0.457 OA
ATOM     19  C   UNL A   1      31.749  30.014  26.034  1.00  0.00     0.051 A 
ATOM     20  C   UNL A   1      30.983  29.542  24.993  1.00  0.00     0.136 A 
BRANCH  20  21
ATOM     21  C   UNL A   1      30.297  30.211  23.900  1.00  0.00     0.036 A 
ATOM     22  C   UNL A   1      29.634  31.421  24.182  1.00  0.00     0.020 A 
ATOM     23  C   UNL A   1      30.182  29.663  22.609  1.00  0.00     0.058 A 
ATOM     24  C   UNL A   1      28.857  32.060  23.214  1.00  0.00     0.086 A 
ATOM     25  C   UNL A   1      29.403  30.298  21.632  1.00  0.00     0.106 A 
ATOM     26  Cl  UNL A   1      30.912  28.156  22.171  1.00  0.00    -0.083 Cl
ATOM     27  C   UNL A   1      28.735  31.487  21.944  1.00  0.00     0.270 A 
BRANCH  27  28
ATOM     28  N   UNL A   1      27.872  32.124  20.941  1.00  0.00     0.062 N 
ATOM     29  O   UNL A   1      27.570  33.313  21.115  1.00  0.00    -0.258 OA
ATOM     30  O   UNL A   1      27.491  31.434  19.987  1.00  0.00    -0.258 OA
ENDBRANCH  27  28
ENDBRANCH  20  21
ENDBRANCH  15  16
ENDBRANCH   6   8
ENDBRANCH   3   6
ENDBRANCH   1   2
BRANCH   1  31
ATOM     31  C   UNL A   1      37.215  19.879  24.946  1.00  0.00     0.042 C 
BRANCH  31  32
ATOM     32  C   UNL A   1      38.505  20.462  25.520  1.00  0.00     0.118 C 
BRANCH  32  33
ATOM     33  N   UNL A   1      39.560  19.466  25.641  1.00  0.00    -0.352 N 
ATOM     34  C   UNL A   1      40.871  19.608  26.023  1.00  0.00     0.251 C 
ATOM     35  H   UNL A   1      39.291  18.547  25.414  1.00  0.00     0.163 HD
ATOM     36  O   UNL A   1      41.649  18.670  25.873  1.00  0.00    -0.269 OA
BRANCH  34  37
ATOM     37  C   UNL A   1      41.357  20.881  26.597  1.00  0.00     0.039 A 
ATOM     38  C   UNL A   1      42.020  21.785  25.763  1.00  0.00     0.014 A 
ATOM     39  C   UNL A   1      41.199  21.171  27.955  1.00  0.00     0.014 A 
ATOM     40  C   UNL A   1      42.469  23.005  26.275  1.00  0.00     0.010 A 
ATOM     41  C   UNL A   1      41.575  22.418  28.447  1.00  0.00     0.010 A 
ATOM     42  C   UNL A   1      42.220  23.346  27.615  1.00  0.00    -0.014 A 
BRANCH  42  43
ATOM     43  C   UNL A   1      42.631  24.662  28.166  1.00  0.00     0.031 A 
ATOM     44  C   UNL A   1      41.609  25.745  28.381  1.00  0.00     0.074 A 
ATOM     45  C   UNL A   1      43.933  24.908  28.405  1.00  0.00     0.049 A 
ATOM     46  N   UNL A   1      41.784  26.983  28.769  1.00  0.00    -0.248 NA
ATOM     47  C   UNL A   1      40.209  25.397  28.097  1.00  0.00     0.031 C 
ATOM     48  C   UNL A   1      45.027  23.956  28.201  1.00  0.00     0.029 A 
ATOM     49  N   UNL A   1      44.560  26.041  28.862  1.00  0.00    -0.354 N 
ATOM     50  C   UNL A   1      40.523  27.563  28.760  1.00  0.00     0.074 A 
ATOM     51  C   UNL A   1      39.600  26.560  28.274  1.00  0.00     0.031 C 
ATOM     52  C   UNL A   1      46.186  24.537  28.547  1.00  0.00     0.029 A 
ATOM     53  C   UNL A   1      45.925  25.914  28.955  1.00  0.00     0.049 A 
ATOM     54  H   UNL A   1      44.078  26.865  29.099  1.00  0.00     0.167 HD
ATOM     55  C   UNL A   1      40.160  28.812  29.141  1.00  0.00     0.037 A 
ATOM     56  C   UNL A   1      46.863  26.811  29.315  1.00  0.00     0.037 A 
ATOM     57  C   UNL A   1      41.079  29.804  29.637  1.00  0.00     0.049 A 
ATOM     58  C   UNL A   1      46.441  28.198  29.713  1.00  0.00     0.074 A 
ATOM     59  C   UNL A   1      40.804  31.078  30.100  1.00  0.00     0.029 A 
ATOM     60  N   UNL A   1      42.453  29.634  29.728  1.00  0.00    -0.354 N 
ATOM     61  N   UNL A   1      45.237  28.714  29.761  1.00  0.00    -0.248 NA
ATOM     62  C   UNL A   1      47.509  29.126  30.112  1.00  0.00     0.031 C 
ATOM     63  C   UNL A   1      42.017  31.699  30.419  1.00  0.00     0.029 A 
ATOM     64  C   UNL A   1      43.042  30.790  30.213  1.00  0.00     0.049 A 
ATOM     65  H   UNL A   1      42.938  28.812  29.483  1.00  0.00     0.167 HD
ATOM     66  C   UNL A   1      45.397  30.014  30.225  1.00  0.00     0.074 A 
ATOM     67  C   UNL A   1      46.814  30.203  30.454  1.00  0.00     0.031 C 
ATOM     68  C   UNL A   1      44.455  30.964  30.442  1.00  0.00     0.037 A 
BRANCH  55  69
ATOM     69  C   UNL A   1      38.706  29.176  29.027  1.00  0.00     0.057 A 
ATOM     70  C   UNL A   1      37.832  29.088  30.119  1.00  0.00     0.134 A 
ATOM     71  C   UNL A   1      38.178  29.638  27.815  1.00  0.00     0.134 A 
ATOM     72  F   UNL A   1      38.269  28.643  31.307  1.00  0.00    -0.206 F 
ATOM     73  C   UNL A   1      36.479  29.412  30.002  1.00  0.00     0.040 A 
ATOM     74  C   UNL A   1      36.833  29.996  27.693  1.00  0.00     0.040 A 
ATOM     75  F   UNL A   1      38.958  29.756  26.730  1.00  0.00    -0.206 F 
ATOM     76  C   UNL A   1      35.977  29.873  28.786  1.00  0.00     0.006 A 
ENDBRANCH  55  69
BRANCH  56  77
ATOM     77  C   UNL A   1      48.295  26.416  29.334  1.00  0.00     0.057 A 
ATOM     78  C   UNL A   1      49.091  26.531  28.188  1.00  0.00     0.134 A 
ATOM     79  C   UNL A   1      48.902  25.918  30.493  1.00  0.00     0.134 A 
ATOM     80  F   UNL A   1      48.562  26.984  27.043  1.00  0.00    -0.206 F 
ATOM     81  C   UNL A   1      50.433  26.147  28.189  1.00  0.00     0.040 A 
ATOM     82  C   UNL A   1      50.250  25.557  30.516  1.00  0.00     0.040 A 
ATOM     83  F   UNL A   1      48.197  25.792  31.627  1.00  0.00    -0.206 F 
ATOM     84  C   UNL A   1      51.017  25.664  29.357  1.00  0.00     0.006 A 
ENDBRANCH  56  77
BRANCH  68  85
ATOM     85  C   UNL A   1      44.918  32.281  30.995  1.00  0.00     0.057 A 
ATOM     86  C   UNL A   1      45.261  33.357  30.166  1.00  0.00     0.134 A 
ATOM     87  C   UNL A   1      44.981  32.488  32.380  1.00  0.00     0.134 A 
ATOM     88  F   UNL A   1      45.235  33.223  28.832  1.00  0.00    -0.206 F 
ATOM     89  C   UNL A   1      45.672  34.582  30.694  1.00  0.00     0.040 A 
ATOM     90  C   UNL A   1      45.362  33.717  32.919  1.00  0.00     0.040 A 
ATOM     91  F   UNL A   1      44.658  31.502  33.232  1.00  0.00    -0.206 F 
ATOM     92  C   UNL A   1      45.715  34.767  32.074  1.00  0.00     0.006 A 
ENDBRANCH  68  85
ENDBRANCH  42  43
ENDBRANCH  34  37
ENDBRANCH  32  33
ENDBRANCH  31  32
ENDBRANCH   1  31
TORSDOF 14
ENDMDL
MODEL 2
REMARK VINA RESULT:     -13.4      0.333      5.986
REMARK SMILES C[C@@H](C(=O)NCCCNC(=O)c1ccc(-c2c3nc(c(-c4c(F)cccc4F)c4ccc([nH]4)c(-c4c(F)cccc4F)c4nc(c(-c5c(F)cccc5F)c5ccc2[nH]5)C=C4)C=C3)cc1)N1C(=O)/C(=C/c2ccc(-c3ccc([N+](=O)[O-])cc3Cl)o2)SC1=S
REMARK SMILES IDX 6 1 5 2 3 3 4 4 2 6 1 7 66 8 67 9 87 10 68 11 69 12 86 13
REMARK SMILES IDX 88 14 70 15 71 16 72 17 85 18 73 19 74 20 75 21 76 22 83 23
REMARK SMILES IDX 77 24 82 25 84 26 78 27 79 28 80 29 81 30 7 31 8 32 9 33
REMARK SMILES IDX 10 34 11 36 12 37 13 38 65 39 14 40 64 41 15 42 16 43 17 44
REMARK SMILES IDX 58 45 18 46 63 47 57 48 59 49 19 50 62 51 56 52 55 53 20 55
REMARK SMILES IDX 46 56 29 57 45 58 30 59 33 60 44 61 60 62 31 63 32 64 43 66
REMARK SMILES IDX 61 67 34 68 21 69 22 70 27 71 23 72 24 73 26 74 28 75 25 76
REMARK SMILES IDX 47 77 48 78 53 79 49 80 50 81 52 82 54 83 51 84 35 85 36 86
REMARK SMILES IDX 41 87 37 88 38 89 40 90 42 91 39 92
REMARK H PARENT 5 5 9 35 59 54 33 65
REMARK Flexibility Score: inf
ROOT
ATOM      1  C   UNL A   1      35.977  20.667  24.937  1.00  0.00     0.117 C 
ENDROOT
BRANCH   1   2
ATOM      2  N   UNL A   1      35.497  20.986  26.267  1.00  0.00    -0.354 N 
ATOM      3  C   UNL A   1      34.303  21.504  26.673  1.00  0.00     0.242 C 
ATOM      4  O   UNL A   1      34.137  21.627  27.890  1.00  0.00    -0.273 OA
ATOM      5  H   UNL A   1      36.135  20.798  26.992  1.00  0.00     0.163 HD
BRANCH   3   6
ATOM      6  C   UNL A   1      33.204  21.863  25.651  1.00  0.00     0.178 C 
ATOM      7  C   UNL A   1      33.256  21.106  24.324  1.00  0.00     0.042 C 
BRANCH   6   8
ATOM      8  N   UNL A   1      33.183  23.333  25.484  1.00  0.00    -0.281 N 
ATOM      9  C   UNL A   1      32.350  24.063  26.322  1.00  0.00     0.267 C 
ATOM     10  C   UNL A   1      33.997  24.072  24.643  1.00  0.00     0.149 C 
ATOM     11  O   UNL A   1      31.612  23.604  27.183  1.00  0.00    -0.268 OA
ATOM     12  C   UNL A   1      32.417  25.510  25.993  1.00  0.00     0.084 C 
ATOM     13  S   UNL A   1      33.561  25.772  24.740  1.00  0.00    -0.054 SA
ATOM     14  S   UNL A   1      35.214  23.576  23.615  1.00  0.00    -0.052 S 
ATOM     15  C   UNL A   1      31.643  26.417  26.604  1.00  0.00     0.068 C 
BRANCH  15  16
ATOM     16  C   UNL A   1      31.592  27.772  26.180  1.00  0.00     0.128 A 
ATOM     17  C   UNL A   1      32.176  28.884  26.775  1.00  0.00     0.051 A 
ATOM     18  O   UNL A   1      30.923  28.202  25.055  1.00  0.00    -0.457 OA
ATOM     19  C   UNL A   1      31.806  30.021  26.029  1.00  0.00     0.051 A 
ATOM     20  C   UNL A   1      31.016  29.560  25.001  1.00  0.00     0.136 A 
BRANCH  20  21
ATOM     21  C   UNL A   1      30.320  30.240  23.921  1.00  0.00     0.036 A 
ATOM     22  C   UNL A   1      29.635  31.431  24.226  1.00  0.00     0.020 A 
ATOM     23  C   UNL A   1      30.218  29.717  22.618  1.00  0.00     0.058 A 
ATOM     24  C   UNL A   1      28.849  32.077  23.270  1.00  0.00     0.086 A 
ATOM     25  C   UNL A   1      29.431  30.358  21.652  1.00  0.00     0.106 A 
ATOM     26  Cl  UNL A   1      30.977  28.234  22.151  1.00  0.00    -0.083 Cl
ATOM     27  C   UNL A   1      28.741  31.529  21.988  1.00  0.00     0.270 A 
BRANCH  27  28
ATOM     28  N   UNL A   1      27.869  32.171  20.996  1.00  0.00     0.062 N 
ATOM     29  O   UNL A   1      27.605  33.372  21.154  1.00  0.00    -0.258 OA
ATOM     30  O   UNL A   1      27.442  31.474  20.066  1.00  0.00    -0.258 OA
ENDBRANCH  27  28
ENDBRANCH  20  21
ENDBRANCH  15  16
ENDBRANCH   6   8
ENDBRANCH   3   6
ENDBRANCH   1   2
BRANCH   1  31
ATOM     31  C   UNL A   1      37.168  19.714  24.982  1.00  0.00     0.042 C 
BRANCH  31  32
ATOM     32  C   UNL A   1      38.474  20.380  25.410  1.00  0.00     0.118 C 
BRANCH  32  33
ATOM     33  N   UNL A   1      39.548  19.420  25.613  1.00  0.00    -0.352 N 
ATOM     34  C   UNL A   1      40.842  19.613  26.028  1.00  0.00     0.251 C 
ATOM     35  H   UNL A   1      39.310  18.483  25.423  1.00  0.00     0.163 HD
ATOM     36  O   UNL A   1      41.647  18.690  25.949  1.00  0.00    -0.269 OA
BRANCH  34  37
ATOM     37  C   UNL A   1      41.279  20.925  26.553  1.00  0.00     0.039 A 
ATOM     38  C   UNL A   1      41.829  21.855  25.667  1.00  0.00     0.014 A 
ATOM     39  C   UNL A   1      41.185  21.227  27.914  1.00  0.00     0.014 A 
ATOM     40  C   UNL A   1      42.228  23.110  26.134  1.00  0.00     0.010 A 
ATOM     41  C   UNL A   1      41.510  22.505  28.365  1.00  0.00     0.010 A 
ATOM     42  C   UNL A   1      42.040  23.457  27.482  1.00  0.00    -0.014 A 
BRANCH  42  43
ATOM     43  C   UNL A   1      42.397  24.807  27.988  1.00  0.00     0.031 A 
ATOM     44  C   UNL A   1      43.815  25.116  28.383  1.00  0.00     0.074 A 
ATOM     45  C   UNL A   1      41.433  25.732  28.160  1.00  0.00     0.049 A 
ATOM     46  N   UNL A   1      44.306  26.202  28.925  1.00  0.00    -0.248 NA
ATOM     47  C   UNL A   1      44.809  24.054  28.164  1.00  0.00     0.031 C 
ATOM     48  C   UNL A   1      40.015  25.544  27.852  1.00  0.00     0.029 A 
ATOM     49  N   UNL A   1      41.500  27.013  28.649  1.00  0.00    -0.354 N 
ATOM     50  C   UNL A   1      45.656  25.948  29.125  1.00  0.00     0.074 A 
ATOM     51  C   UNL A   1      45.897  24.586  28.699  1.00  0.00     0.031 C 
ATOM     52  C   UNL A   1      39.349  26.672  28.142  1.00  0.00     0.029 A 
ATOM     53  C   UNL A   1      40.282  27.648  28.697  1.00  0.00     0.049 A 
ATOM     54  H   UNL A   1      42.340  27.436  28.938  1.00  0.00     0.167 HD
ATOM     55  C   UNL A   1      46.615  26.779  29.601  1.00  0.00     0.037 A 
ATOM     56  C   UNL A   1      39.953  28.872  29.149  1.00  0.00     0.037 A 
ATOM     57  C   UNL A   1      46.375  28.139  30.012  1.00  0.00     0.049 A 
ATOM     58  C   UNL A   1      41.028  29.770  29.694  1.00  0.00     0.074 A 
ATOM     59  C   UNL A   1      47.287  29.079  30.457  1.00  0.00     0.029 A 
ATOM     60  N   UNL A   1      45.129  28.749  30.034  1.00  0.00    -0.354 N 
ATOM     61  N   UNL A   1      42.313  29.540  29.818  1.00  0.00    -0.248 NA
ATOM     62  C   UNL A   1      40.610  31.100  30.157  1.00  0.00     0.031 C 
ATOM     63  C   UNL A   1      46.586  30.240  30.800  1.00  0.00     0.029 A 
ATOM     64  C   UNL A   1      45.246  30.045  30.512  1.00  0.00     0.049 A 
ATOM     65  H   UNL A   1      44.286  28.324  29.753  1.00  0.00     0.167 HD
ATOM     66  C   UNL A   1      42.861  30.704  30.342  1.00  0.00     0.074 A 
ATOM     67  C   UNL A   1      41.769  31.642  30.502  1.00  0.00     0.031 C 
ATOM     68  C   UNL A   1      44.151  30.972  30.661  1.00  0.00     0.037 A 
BRANCH  55  69
ATOM     69  C   UNL A   1      48.011  26.234  29.710  1.00  0.00     0.057 A 
ATOM     70  C   UNL A   1      48.895  26.234  28.622  1.00  0.00     0.134 A 
ATOM     71  C   UNL A   1      48.486  25.721  30.924  1.00  0.00     0.134 A 
ATOM     72  F   UNL A   1      48.501  26.701  27.427  1.00  0.00    -0.206 F 
ATOM     73  C   UNL A   1      50.184  25.711  28.726  1.00  0.00     0.040 A 
ATOM     74  C   UNL A   1      49.785  25.225  31.050  1.00  0.00     0.040 A 
ATOM     75  F   UNL A   1      47.699  25.698  32.010  1.00  0.00    -0.206 F 
ATOM     76  C   UNL A   1      50.635  25.209  29.946  1.00  0.00     0.006 A 
ENDBRANCH  55  69
BRANCH  56  77
ATOM     77  C   UNL A   1      38.540  29.328  29.087  1.00  0.00     0.057 A 
ATOM     78  C   UNL A   1      37.730  29.325  30.229  1.00  0.00     0.134 A 
ATOM     79  C   UNL A   1      37.967  29.777  27.892  1.00  0.00     0.134 A 
ATOM     80  F   UNL A   1      38.216  28.889  31.400  1.00  0.00    -0.206 F 
ATOM     81  C   UNL A   1      36.397  29.734  30.180  1.00  0.00     0.040 A 
ATOM     82  C   UNL A   1      36.643  30.216  27.834  1.00  0.00     0.040 A 
ATOM     83  F   UNL A   1      38.693  29.813  26.764  1.00  0.00    -0.206 F 
ATOM     84  C   UNL A   1      35.852  30.187  28.981  1.00  0.00     0.006 A 
ENDBRANCH  56  77
BRANCH  68  85
ATOM     85  C   UNL A   1      44.464  32.348  31.174  1.00  0.00     0.057 A 
ATOM     86  C   UNL A   1      44.767  33.411  30.314  1.00  0.00     0.134 A 
ATOM     87  C   UNL A   1      44.419  32.621  32.548  1.00  0.00     0.134 A 
ATOM     88  F   UNL A   1      44.840  33.215  28.990  1.00  0.00    -0.206 F 
ATOM     89  C   UNL A   1      45.038  34.690  30.804  1.00  0.00     0.040 A 
ATOM     90  C   UNL A   1      44.658  33.902  33.047  1.00  0.00     0.040 A 
ATOM     91  F   UNL A   1      44.125  31.651  33.427  1.00  0.00    -0.206 F 
ATOM     92  C   UNL A   1      44.976  34.940  32.174  1.00  0.00     0.006 A 
ENDBRANCH  68  85
ENDBRANCH  42  43
ENDBRANCH  34  37
ENDBRANCH  32  33
ENDBRANCH  31  32
ENDBRANCH   1  31
TORSDOF 14
ENDMDL
MODEL 3
REMARK VINA RESULT:     -12.6      4.574      7.611
REMARK SMILES C[C@@H](C(=O)NCCCNC(=O)c1ccc(-c2c3nc(c(-c4c(F)cccc4F)c4ccc([nH]4)c(-c4c(F)cccc4F)c4nc(c(-c5c(F)cccc5F)c5ccc2[nH]5)C=C4)C=C3)cc1)N1C(=O)/C(=C/c2ccc(-c3ccc([N+](=O)[O-])cc3Cl)o2)SC1=S
REMARK SMILES IDX 6 1 5 2 3 3 4 4 2 6 1 7 66 8 67 9 87 10 68 11 69 12 86 13
REMARK SMILES IDX 88 14 70 15 71 16 72 17 85 18 73 19 74 20 75 21 76 22 83 23
REMARK SMILES IDX 77 24 82 25 84 26 78 27 79 28 80 29 81 30 7 31 8 32 9 33
REMARK SMILES IDX 10 34 11 36 12 37 13 38 65 39 14 40 64 41 15 42 16 43 17 44
REMARK SMILES IDX 58 45 18 46 63 47 57 48 59 49 19 50 62 51 56 52 55 53 20 55
REMARK SMILES IDX 46 56 29 57 45 58 30 59 33 60 44 61 60 62 31 63 32 64 43 66
REMARK SMILES IDX 61 67 34 68 21 69 22 70 27 71 23 72 24 73 26 74 28 75 25 76
REMARK SMILES IDX 47 77 48 78 53 79 49 80 50 81 52 82 54 83 51 84 35 85 36 86
REMARK SMILES IDX 41 87 37 88 38 89 40 90 42 91 39 92
REMARK H PARENT 5 5 9 35 59 54 33 65
REMARK Flexibility Score: inf
ROOT
ATOM      1  C   UNL A   1      43.386  22.642  25.458  1.00  0.00     0.117 C 
ENDROOT
BRANCH   1   2
ATOM      2  N   UNL A   1      43.466  21.234  25.123  1.00  0.00    -0.354 N 
ATOM      3  C   UNL A   1      42.930  20.147  25.747  1.00  0.00     0.242 C 
ATOM      4  O   UNL A   1      43.115  19.051  25.209  1.00  0.00    -0.273 OA
ATOM      5  H   UNL A   1      43.991  21.031  24.316  1.00  0.00     0.163 HD
BRANCH   3   6
ATOM      6  C   UNL A   1      42.092  20.302  27.033  1.00  0.00     0.178 C 
ATOM      7  C   UNL A   1      41.860  19.023  27.834  1.00  0.00     0.042 C 
BRANCH   6   8
ATOM      8  N   UNL A   1      40.840  21.013  26.691  1.00  0.00    -0.281 N 
ATOM      9  C   UNL A   1      39.910  20.338  25.911  1.00  0.00     0.267 C 
ATOM     10  C   UNL A   1      40.450  22.254  27.163  1.00  0.00     0.149 C 
ATOM     11  O   UNL A   1      40.032  19.207  25.461  1.00  0.00    -0.268 OA
ATOM     12  C   UNL A   1      38.739  21.206  25.626  1.00  0.00     0.084 C 
ATOM     13  S   UNL A   1      38.920  22.713  26.429  1.00  0.00    -0.054 SA
ATOM     14  S   UNL A   1      41.212  23.288  28.228  1.00  0.00    -0.052 S 
ATOM     15  C   UNL A   1      37.739  20.815  24.824  1.00  0.00     0.068 C 
BRANCH  15  16
ATOM     16  C   UNL A   1      36.703  21.701  24.425  1.00  0.00     0.128 A 
ATOM     17  C   UNL A   1      36.707  22.616  23.378  1.00  0.00     0.051 A 
ATOM     18  O   UNL A   1      35.478  21.786  25.049  1.00  0.00    -0.457 OA
ATOM     19  C   UNL A   1      35.482  23.311  23.404  1.00  0.00     0.051 A 
ATOM     20  C   UNL A   1      34.771  22.790  24.460  1.00  0.00     0.136 A 
BRANCH  20  21
ATOM     21  C   UNL A   1      33.460  23.102  25.007  1.00  0.00     0.036 A 
ATOM     22  C   UNL A   1      33.397  23.991  26.096  1.00  0.00     0.020 A 
ATOM     23  C   UNL A   1      32.273  22.487  24.567  1.00  0.00     0.058 A 
ATOM     24  C   UNL A   1      32.190  24.247  26.750  1.00  0.00     0.086 A 
ATOM     25  C   UNL A   1      31.057  22.738  25.217  1.00  0.00     0.106 A 
ATOM     26  Cl  UNL A   1      32.247  21.340  23.271  1.00  0.00    -0.083 Cl
ATOM     27  C   UNL A   1      31.025  23.608  26.312  1.00  0.00     0.270 A 
BRANCH  27  28
ATOM     28  N   UNL A   1      29.763  23.828  27.032  1.00  0.00     0.062 N 
ATOM     29  O   UNL A   1      29.342  22.908  27.747  1.00  0.00    -0.258 OA
ATOM     30  O   UNL A   1      29.193  24.915  26.874  1.00  0.00    -0.258 OA
ENDBRANCH  27  28
ENDBRANCH  20  21
ENDBRANCH  15  16
ENDBRANCH   6   8
ENDBRANCH   3   6
ENDBRANCH   1   2
BRANCH   1  31
ATOM     31  C   UNL A   1      44.426  23.032  26.504  1.00  0.00     0.042 C 
BRANCH  31  32
ATOM     32  C   UNL A   1      44.511  24.535  26.757  1.00  0.00     0.118 C 
BRANCH  32  33
ATOM     33  N   UNL A   1      43.970  25.317  25.655  1.00  0.00    -0.352 N 
ATOM     34  C   UNL A   1      43.125  26.399  25.669  1.00  0.00     0.251 C 
ATOM     35  H   UNL A   1      44.255  25.025  24.759  1.00  0.00     0.163 HD
ATOM     36  O   UNL A   1      42.634  26.795  24.616  1.00  0.00    -0.269 OA
BRANCH  34  37
ATOM     37  C   UNL A   1      42.789  27.080  26.937  1.00  0.00     0.039 A 
ATOM     38  C   UNL A   1      43.377  28.316  27.214  1.00  0.00     0.014 A 
ATOM     39  C   UNL A   1      41.930  26.491  27.869  1.00  0.00     0.014 A 
ATOM     40  C   UNL A   1      43.058  28.991  28.395  1.00  0.00     0.010 A 
ATOM     41  C   UNL A   1      41.551  27.198  29.008  1.00  0.00     0.010 A 
ATOM     42  C   UNL A   1      42.116  28.452  29.287  1.00  0.00    -0.014 A 
BRANCH  42  43
ATOM     43  C   UNL A   1      41.712  29.180  30.517  1.00  0.00     0.031 A 
ATOM     44  C   UNL A   1      40.484  30.048  30.515  1.00  0.00     0.074 A 
ATOM     45  C   UNL A   1      42.490  29.117  31.615  1.00  0.00     0.049 A 
ATOM     46  N   UNL A   1      40.018  30.826  31.458  1.00  0.00    -0.248 NA
ATOM     47  C   UNL A   1      39.688  30.062  29.278  1.00  0.00     0.031 C 
ATOM     48  C   UNL A   1      43.726  28.342  31.733  1.00  0.00     0.029 A 
ATOM     49  N   UNL A   1      42.360  29.725  32.838  1.00  0.00    -0.354 N 
ATOM     50  C   UNL A   1      38.888  31.432  30.925  1.00  0.00     0.074 A 
ATOM     51  C   UNL A   1      38.770  30.976  29.557  1.00  0.00     0.031 C 
ATOM     52  C   UNL A   1      44.232  28.508  32.965  1.00  0.00     0.029 A 
ATOM     53  C   UNL A   1      43.383  29.433  33.709  1.00  0.00     0.049 A 
ATOM     54  H   UNL A   1      41.608  30.315  33.070  1.00  0.00     0.167 HD
ATOM     55  C   UNL A   1      38.015  32.277  31.524  1.00  0.00     0.037 A 
ATOM     56  C   UNL A   1      43.617  29.871  34.960  1.00  0.00     0.037 A 
ATOM     57  C   UNL A   1      38.128  32.719  32.891  1.00  0.00     0.049 A 
ATOM     58  C   UNL A   1      42.647  30.826  35.599  1.00  0.00     0.074 A 
ATOM     59  C   UNL A   1      37.267  33.531  33.608  1.00  0.00     0.029 A 
ATOM     60  N   UNL A   1      39.172  32.392  33.744  1.00  0.00    -0.354 N 
ATOM     61  N   UNL A   1      41.548  31.342  35.105  1.00  0.00    -0.248 NA
ATOM     62  C   UNL A   1      42.948  31.255  36.972  1.00  0.00     0.031 C 
ATOM     63  C   UNL A   1      37.817  33.739  34.878  1.00  0.00     0.029 A 
ATOM     64  C   UNL A   1      38.990  33.008  34.972  1.00  0.00     0.049 A 
ATOM     65  H   UNL A   1      39.931  31.809  33.511  1.00  0.00     0.167 HD
ATOM     66  C   UNL A   1      41.009  32.130  36.114  1.00  0.00     0.074 A 
ATOM     67  C   UNL A   1      41.898  32.015  37.252  1.00  0.00     0.031 C 
ATOM     68  C   UNL A   1      39.880  32.880  36.100  1.00  0.00     0.037 A 
BRANCH  55  69
ATOM     69  C   UNL A   1      36.865  32.785  30.701  1.00  0.00     0.057 A 
ATOM     70  C   UNL A   1      37.013  33.842  29.792  1.00  0.00     0.134 A 
ATOM     71  C   UNL A   1      35.599  32.195  30.802  1.00  0.00     0.134 A 
ATOM     72  F   UNL A   1      38.196  34.459  29.653  1.00  0.00    -0.206 F 
ATOM     73  C   UNL A   1      35.936  34.318  29.043  1.00  0.00     0.040 A 
ATOM     74  C   UNL A   1      34.521  32.642  30.035  1.00  0.00     0.040 A 
ATOM     75  F   UNL A   1      35.386  31.173  31.645  1.00  0.00    -0.206 F 
ATOM     76  C   UNL A   1      34.685  33.714  29.159  1.00  0.00     0.006 A 
ENDBRANCH  55  69
BRANCH  56  77
ATOM     77  C   UNL A   1      44.814  29.395  35.699  1.00  0.00     0.057 A 
ATOM     78  C   UNL A   1      44.751  28.266  36.525  1.00  0.00     0.134 A 
ATOM     79  C   UNL A   1      46.046  30.051  35.598  1.00  0.00     0.134 A 
ATOM     80  F   UNL A   1      43.595  27.604  36.676  1.00  0.00    -0.206 F 
ATOM     81  C   UNL A   1      45.864  27.818  37.237  1.00  0.00     0.040 A 
ATOM     82  C   UNL A   1      47.175  29.599  36.284  1.00  0.00     0.040 A 
ATOM     83  F   UNL A   1      46.176  31.134  34.817  1.00  0.00    -0.206 F 
ATOM     84  C   UNL A   1      47.083  28.482  37.112  1.00  0.00     0.006 A 
ENDBRANCH  56  77
BRANCH  68  85
ATOM     85  C   UNL A   1      39.515  33.602  37.365  1.00  0.00     0.057 A 
ATOM     86  C   UNL A   1      39.996  34.886  37.655  1.00  0.00     0.134 A 
ATOM     87  C   UNL A   1      38.635  33.020  38.287  1.00  0.00     0.134 A 
ATOM     88  F   UNL A   1      40.852  35.495  36.821  1.00  0.00    -0.206 F 
ATOM     89  C   UNL A   1      39.633  35.553  38.826  1.00  0.00     0.040 A 
ATOM     90  C   UNL A   1      38.242  33.688  39.447  1.00  0.00     0.040 A 
ATOM     91  F   UNL A   1      38.129  31.796  38.067  1.00  0.00    -0.206 F 
ATOM     92  C   UNL A   1      38.747  34.957  39.722  1.00  0.00     0.006 A 
ENDBRANCH  68  85
ENDBRANCH  42  43
ENDBRANCH  34  37
ENDBRANCH  32  33
ENDBRANCH  31  32
ENDBRANCH   1  31
TORSDOF 14
ENDMDL
