MODEL 1
REMARK VINA RESULT:      -9.9      0.000      0.000
REMARK SMILES O=C(CNS(=O)(=O)c1ccc(F)c(F)c1)NCCCNC(=O)c1ccc(-c2c3nc(c(-c4c(F)cccc4F)c4ccc([nH]4)c(-c4c(F)cccc4F)c4nc(c(-c5c(F)cccc5F)c5ccc2[nH]5)C=C4)C=C3)cc1
REMARK SMILES IDX 17 1 16 2 1 3 2 4 3 6 4 7 5 9 6 10 7 11 8 12 9 13 15 14
REMARK SMILES IDX 10 15 13 16 11 17 14 18 12 19 18 20 19 21 20 22 21 23 22 25
REMARK SMILES IDX 23 26 24 27 76 28 25 29 75 30 26 31 27 32 28 33 69 34 29 35
REMARK SMILES IDX 74 36 68 37 70 38 30 39 73 40 67 41 66 42 31 44 57 45 40 46
REMARK SMILES IDX 56 47 41 48 44 49 55 50 71 51 42 52 43 53 54 55 72 56 45 57
REMARK SMILES IDX 32 58 33 59 38 60 34 61 35 62 37 63 39 64 36 65 58 66 59 67
REMARK SMILES IDX 64 68 60 69 61 70 63 71 65 72 62 73 46 74 47 75 52 76 48 77
REMARK SMILES IDX 49 78 51 79 53 80 50 81
REMARK H PARENT 16 5 4 8 20 24 70 43 44 54
REMARK Flexibility Score: inf
ROOT
ATOM      1  C   UNL A   1      45.846  19.383  24.782  1.00  0.00     0.117 C 
ENDROOT
BRANCH   1   2
ATOM      2  N   UNL A   1      46.209  20.658  24.192  1.00  0.00    -0.355 N 
ATOM      3  O   UNL A   1      45.771  21.912  26.067  1.00  0.00    -0.274 OA
ATOM      4  C   UNL A   1      46.157  21.839  24.904  1.00  0.00     0.235 C 
ATOM      5  H   UNL A   1      46.501  20.681  23.253  1.00  0.00     0.163 HD
BRANCH   4   6
ATOM      6  C   UNL A   1      46.562  23.072  24.109  1.00  0.00     0.198 C 
BRANCH   6   7
ATOM      7  N   UNL A   1      45.861  24.282  24.600  1.00  0.00    -0.202 NA
ATOM      8  H   UNL A   1      45.318  24.018  25.423  1.00  0.00     0.141 HD
BRANCH   7   9
ATOM      9  S   UNL A   1      46.858  25.581  25.028  1.00  0.00     0.241 S 
ATOM     10  O   UNL A   1      47.693  25.156  26.124  1.00  0.00    -0.207 OA
ATOM     11  O   UNL A   1      47.416  26.088  23.793  1.00  0.00    -0.207 OA
BRANCH   9  12
ATOM     12  C   UNL A   1      45.688  26.770  25.623  1.00  0.00     0.085 A 
ATOM     13  C   UNL A   1      46.121  27.808  26.457  1.00  0.00     0.025 A 
ATOM     14  C   UNL A   1      44.342  26.651  25.260  1.00  0.00     0.064 A 
ATOM     15  C   UNL A   1      45.198  28.755  26.907  1.00  0.00     0.044 A 
ATOM     16  C   UNL A   1      43.439  27.603  25.714  1.00  0.00     0.160 A 
ATOM     17  C   UNL A   1      43.863  28.650  26.527  1.00  0.00     0.158 A 
ATOM     18  F   UNL A   1      42.152  27.510  25.351  1.00  0.00    -0.204 F 
ATOM     19  F   UNL A   1      42.986  29.571  26.950  1.00  0.00    -0.204 F 
ENDBRANCH   9  12
ENDBRANCH   7   9
ENDBRANCH   6   7
ENDBRANCH   4   6
ENDBRANCH   1   2
BRANCH   1  20
ATOM     20  C   UNL A   1      44.376  19.035  24.576  1.00  0.00     0.042 C 
BRANCH  20  21
ATOM     21  C   UNL A   1      43.641  18.631  25.851  1.00  0.00     0.118 C 
BRANCH  21  22
ATOM     22  N   UNL A   1      42.190  18.679  25.719  1.00  0.00    -0.352 N 
ATOM     23  C   UNL A   1      41.301  19.660  26.091  1.00  0.00     0.251 C 
ATOM     24  H   UNL A   1      41.784  17.888  25.297  1.00  0.00     0.163 HD
ATOM     25  O   UNL A   1      40.094  19.454  26.013  1.00  0.00    -0.269 OA
BRANCH  23  26
ATOM     26  C   UNL A   1      41.792  20.953  26.617  1.00  0.00     0.039 A 
ATOM     27  C   UNL A   1      42.167  21.952  25.715  1.00  0.00     0.014 A 
ATOM     28  C   UNL A   1      41.876  21.182  27.991  1.00  0.00     0.014 A 
ATOM     29  C   UNL A   1      42.535  23.215  26.191  1.00  0.00     0.010 A 
ATOM     30  C   UNL A   1      42.169  22.459  28.461  1.00  0.00     0.010 A 
ATOM     31  C   UNL A   1      42.489  23.493  27.567  1.00  0.00    -0.014 A 
BRANCH  31  32
ATOM     32  C   UNL A   1      42.746  24.855  28.101  1.00  0.00     0.031 A 
ATOM     33  C   UNL A   1      44.102  25.210  28.642  1.00  0.00     0.074 A 
ATOM     34  C   UNL A   1      41.732  25.739  28.197  1.00  0.00     0.049 A 
ATOM     35  N   UNL A   1      44.481  26.280  29.293  1.00  0.00    -0.248 NA
ATOM     36  C   UNL A   1      45.167  24.212  28.451  1.00  0.00     0.031 C 
ATOM     37  C   UNL A   1      40.361  25.511  27.736  1.00  0.00     0.029 A 
ATOM     38  N   UNL A   1      41.692  27.000  28.740  1.00  0.00    -0.354 N 
ATOM     39  C   UNL A   1      45.820  26.078  29.606  1.00  0.00     0.074 A 
ATOM     40  C   UNL A   1      46.173  24.762  29.116  1.00  0.00     0.031 C 
ATOM     41  C   UNL A   1      39.619  26.596  28.007  1.00  0.00     0.029 A 
ATOM     42  C   UNL A   1      40.444  27.576  28.707  1.00  0.00     0.049 A 
ATOM     43  H   UNL A   1      42.482  27.449  29.117  1.00  0.00     0.167 HD
ATOM     44  C   UNL A   1      46.679  26.919  30.228  1.00  0.00     0.037 A 
ATOM     45  C   UNL A   1      40.007  28.749  29.205  1.00  0.00     0.037 A 
ATOM     46  C   UNL A   1      46.328  28.233  30.699  1.00  0.00     0.049 A 
ATOM     47  C   UNL A   1      40.972  29.649  29.925  1.00  0.00     0.074 A 
ATOM     48  C   UNL A   1      47.142  29.178  31.300  1.00  0.00     0.029 A 
ATOM     49  N   UNL A   1      45.058  28.786  30.627  1.00  0.00    -0.354 N 
ATOM     50  N   UNL A   1      42.247  29.468  30.169  1.00  0.00    -0.248 NA
ATOM     51  C   UNL A   1      40.439  30.920  30.438  1.00  0.00     0.031 C 
ATOM     52  C   UNL A   1      46.353  30.280  31.640  1.00  0.00     0.029 A 
ATOM     53  C   UNL A   1      45.062  30.050  31.193  1.00  0.00     0.049 A 
ATOM     54  H   UNL A   1      44.272  28.345  30.232  1.00  0.00     0.167 HD
ATOM     55  C   UNL A   1      42.677  30.615  30.823  1.00  0.00     0.074 A 
ATOM     56  C   UNL A   1      41.528  31.488  30.939  1.00  0.00     0.031 C 
ATOM     57  C   UNL A   1      43.916  30.920  31.280  1.00  0.00     0.037 A 
BRANCH  44  58
ATOM     58  C   UNL A   1      48.086  26.438  30.446  1.00  0.00     0.057 A 
ATOM     59  C   UNL A   1      48.462  25.742  31.602  1.00  0.00     0.134 A 
ATOM     60  C   UNL A   1      49.069  26.639  29.467  1.00  0.00     0.134 A 
ATOM     61  F   UNL A   1      47.572  25.523  32.583  1.00  0.00    -0.206 F 
ATOM     62  C   UNL A   1      49.768  25.287  31.791  1.00  0.00     0.040 A 
ATOM     63  C   UNL A   1      50.371  26.162  29.630  1.00  0.00     0.040 A 
ATOM     64  F   UNL A   1      48.777  27.291  28.331  1.00  0.00    -0.206 F 
ATOM     65  C   UNL A   1      50.725  25.491  30.798  1.00  0.00     0.006 A 
ENDBRANCH  44  58
BRANCH  45  66
ATOM     66  C   UNL A   1      38.585  29.146  29.035  1.00  0.00     0.057 A 
ATOM     67  C   UNL A   1      38.113  29.631  27.810  1.00  0.00     0.134 A 
ATOM     68  C   UNL A   1      37.668  29.063  30.091  1.00  0.00     0.134 A 
ATOM     69  F   UNL A   1      38.946  29.752  26.766  1.00  0.00    -0.206 F 
ATOM     70  C   UNL A   1      36.788  30.043  27.645  1.00  0.00     0.040 A 
ATOM     71  C   UNL A   1      36.334  29.444  29.933  1.00  0.00     0.040 A 
ATOM     72  F   UNL A   1      38.053  28.600  31.289  1.00  0.00    -0.206 F 
ATOM     73  C   UNL A   1      35.893  29.943  28.709  1.00  0.00     0.006 A 
ENDBRANCH  45  66
BRANCH  57  74
ATOM     74  C   UNL A   1      44.122  32.276  31.890  1.00  0.00     0.057 A 
ATOM     75  C   UNL A   1      44.462  33.397  31.122  1.00  0.00     0.134 A 
ATOM     76  C   UNL A   1      43.903  32.473  33.260  1.00  0.00     0.134 A 
ATOM     77  F   UNL A   1      44.698  33.275  29.808  1.00  0.00    -0.206 F 
ATOM     78  C   UNL A   1      44.590  34.662  31.699  1.00  0.00     0.040 A 
ATOM     79  C   UNL A   1      44.000  33.737  33.842  1.00  0.00     0.040 A 
ATOM     80  F   UNL A   1      43.566  31.443  34.051  1.00  0.00    -0.206 F 
ATOM     81  C   UNL A   1      44.348  34.836  33.061  1.00  0.00     0.006 A 
ENDBRANCH  57  74
ENDBRANCH  31  32
ENDBRANCH  23  26
ENDBRANCH  21  22
ENDBRANCH  20  21
ENDBRANCH   1  20
TORSDOF 13
ENDMDL
MODEL 2
REMARK VINA RESULT:      -9.9      0.560      6.520
REMARK SMILES O=C(CNS(=O)(=O)c1ccc(F)c(F)c1)NCCCNC(=O)c1ccc(-c2c3nc(c(-c4c(F)cccc4F)c4ccc([nH]4)c(-c4c(F)cccc4F)c4nc(c(-c5c(F)cccc5F)c5ccc2[nH]5)C=C4)C=C3)cc1
REMARK SMILES IDX 17 1 16 2 1 3 2 4 3 6 4 7 5 9 6 10 7 11 8 12 9 13 15 14
REMARK SMILES IDX 10 15 13 16 11 17 14 18 12 19 18 20 19 21 20 22 21 23 22 25
REMARK SMILES IDX 23 26 24 27 76 28 25 29 75 30 26 31 27 32 28 33 69 34 29 35
REMARK SMILES IDX 74 36 68 37 70 38 30 39 73 40 67 41 66 42 31 44 57 45 40 46
REMARK SMILES IDX 56 47 41 48 44 49 55 50 71 51 42 52 43 53 54 55 72 56 45 57
REMARK SMILES IDX 32 58 33 59 38 60 34 61 35 62 37 63 39 64 36 65 58 66 59 67
REMARK SMILES IDX 64 68 60 69 61 70 63 71 65 72 62 73 46 74 47 75 52 76 48 77
REMARK SMILES IDX 49 78 51 79 53 80 50 81
REMARK H PARENT 16 5 4 8 20 24 70 43 44 54
REMARK Flexibility Score: inf
ROOT
ATOM      1  C   UNL A   1      45.688  19.532  24.814  1.00  0.00     0.117 C 
ENDROOT
BRANCH   1   2
ATOM      2  N   UNL A   1      45.976  20.813  24.195  1.00  0.00    -0.355 N 
ATOM      3  O   UNL A   1      45.956  22.021  26.149  1.00  0.00    -0.274 OA
ATOM      4  C   UNL A   1      46.107  21.973  24.932  1.00  0.00     0.235 C 
ATOM      5  H   UNL A   1      46.081  20.856  23.218  1.00  0.00     0.163 HD
BRANCH   4   6
ATOM      6  C   UNL A   1      46.394  23.216  24.104  1.00  0.00     0.198 C 
BRANCH   6   7
ATOM      7  N   UNL A   1      45.645  24.388  24.617  1.00  0.00    -0.202 NA
ATOM      8  H   UNL A   1      45.108  24.086  25.430  1.00  0.00     0.141 HD
BRANCH   7   9
ATOM      9  S   UNL A   1      46.590  25.714  25.079  1.00  0.00     0.241 S 
ATOM     10  O   UNL A   1      47.388  25.315  26.212  1.00  0.00    -0.207 OA
ATOM     11  O   UNL A   1      47.187  26.229  23.866  1.00  0.00    -0.207 OA
BRANCH   9  12
ATOM     12  C   UNL A   1      45.366  26.876  25.617  1.00  0.00     0.085 A 
ATOM     13  C   UNL A   1      45.763  28.030  26.304  1.00  0.00     0.025 A 
ATOM     14  C   UNL A   1      44.015  26.620  25.358  1.00  0.00     0.064 A 
ATOM     15  C   UNL A   1      44.796  28.953  26.708  1.00  0.00     0.044 A 
ATOM     16  C   UNL A   1      43.067  27.551  25.764  1.00  0.00     0.160 A 
ATOM     17  C   UNL A   1      43.454  28.710  26.429  1.00  0.00     0.158 A 
ATOM     18  F   UNL A   1      41.774  27.325  25.498  1.00  0.00    -0.204 F 
ATOM     19  F   UNL A   1      42.533  29.608  26.807  1.00  0.00    -0.204 F 
ENDBRANCH   9  12
ENDBRANCH   7   9
ENDBRANCH   6   7
ENDBRANCH   4   6
ENDBRANCH   1   2
BRANCH   1  20
ATOM     20  C   UNL A   1      44.253  19.073  24.579  1.00  0.00     0.042 C 
BRANCH  20  21
ATOM     21  C   UNL A   1      43.459  18.817  25.856  1.00  0.00     0.118 C 
BRANCH  21  22
ATOM     22  N   UNL A   1      42.019  18.960  25.678  1.00  0.00    -0.352 N 
ATOM     23  C   UNL A   1      41.174  19.966  26.086  1.00  0.00     0.251 C 
ATOM     24  H   UNL A   1      41.585  18.224  25.190  1.00  0.00     0.163 HD
ATOM     25  O   UNL A   1      39.961  19.837  25.952  1.00  0.00    -0.269 OA
BRANCH  23  26
ATOM     26  C   UNL A   1      41.718  21.189  26.715  1.00  0.00     0.039 A 
ATOM     27  C   UNL A   1      42.187  22.220  25.898  1.00  0.00     0.014 A 
ATOM     28  C   UNL A   1      41.759  21.322  28.104  1.00  0.00     0.014 A 
ATOM     29  C   UNL A   1      42.608  23.425  26.471  1.00  0.00     0.010 A 
ATOM     30  C   UNL A   1      42.106  22.546  28.670  1.00  0.00     0.010 A 
ATOM     31  C   UNL A   1      42.523  23.614  27.859  1.00  0.00    -0.014 A 
BRANCH  31  32
ATOM     32  C   UNL A   1      42.836  24.921  28.494  1.00  0.00     0.031 A 
ATOM     33  C   UNL A   1      41.761  25.961  28.646  1.00  0.00     0.074 A 
ATOM     34  C   UNL A   1      44.107  25.213  28.835  1.00  0.00     0.049 A 
ATOM     35  N   UNL A   1      41.865  27.211  29.022  1.00  0.00    -0.248 NA
ATOM     36  C   UNL A   1      40.392  25.548  28.301  1.00  0.00     0.031 C 
ATOM     37  C   UNL A   1      45.248  24.304  28.712  1.00  0.00     0.029 A 
ATOM     38  N   UNL A   1      44.658  26.369  29.332  1.00  0.00    -0.354 N 
ATOM     39  C   UNL A   1      40.582  27.737  28.941  1.00  0.00     0.074 A 
ATOM     40  C   UNL A   1      39.726  26.685  28.433  1.00  0.00     0.031 C 
ATOM     41  C   UNL A   1      46.358  24.932  29.129  1.00  0.00     0.029 A 
ATOM     42  C   UNL A   1      46.021  26.303  29.500  1.00  0.00     0.049 A 
ATOM     43  H   UNL A   1      44.127  27.169  29.547  1.00  0.00     0.167 HD
ATOM     44  C   UNL A   1      40.154  28.978  29.274  1.00  0.00     0.037 A 
ATOM     45  C   UNL A   1      46.903  27.245  29.884  1.00  0.00     0.037 A 
ATOM     46  C   UNL A   1      41.006  30.016  29.793  1.00  0.00     0.049 A 
ATOM     47  C   UNL A   1      46.409  28.627  30.215  1.00  0.00     0.074 A 
ATOM     48  C   UNL A   1      40.656  31.290  30.206  1.00  0.00     0.029 A 
ATOM     49  N   UNL A   1      42.377  29.900  29.968  1.00  0.00    -0.354 N 
ATOM     50  N   UNL A   1      45.185  29.096  30.182  1.00  0.00    -0.248 NA
ATOM     51  C   UNL A   1      47.416  29.611  30.637  1.00  0.00     0.031 C 
ATOM     52  C   UNL A   1      41.823  31.964  30.577  1.00  0.00     0.029 A 
ATOM     53  C   UNL A   1      42.891  31.089  30.460  1.00  0.00     0.049 A 
ATOM     54  H   UNL A   1      42.906  29.094  29.772  1.00  0.00     0.167 HD
ATOM     55  C   UNL A   1      45.269  30.412  30.619  1.00  0.00     0.074 A 
ATOM     56  C   UNL A   1      46.664  30.668  30.912  1.00  0.00     0.031 C 
ATOM     57  C   UNL A   1      44.278  31.323  30.771  1.00  0.00     0.037 A 
BRANCH  44  58
ATOM     58  C   UNL A   1      38.696  29.286  29.079  1.00  0.00     0.057 A 
ATOM     59  C   UNL A   1      38.168  29.604  27.821  1.00  0.00     0.134 A 
ATOM     60  C   UNL A   1      37.802  29.223  30.155  1.00  0.00     0.134 A 
ATOM     61  F   UNL A   1      38.971  29.691  26.748  1.00  0.00    -0.206 F 
ATOM     62  C   UNL A   1      36.810  29.876  27.645  1.00  0.00     0.040 A 
ATOM     63  C   UNL A   1      36.437  29.462  29.987  1.00  0.00     0.040 A 
ATOM     64  F   UNL A   1      38.238  28.915  31.387  1.00  0.00    -0.206 F 
ATOM     65  C   UNL A   1      35.939  29.798  28.730  1.00  0.00     0.006 A 
ENDBRANCH  44  58
BRANCH  45  66
ATOM     66  C   UNL A   1      48.348  26.915  29.986  1.00  0.00     0.057 A 
ATOM     67  C   UNL A   1      48.880  26.357  31.154  1.00  0.00     0.134 A 
ATOM     68  C   UNL A   1      49.234  27.161  28.929  1.00  0.00     0.134 A 
ATOM     69  F   UNL A   1      48.087  26.116  32.208  1.00  0.00    -0.206 F 
ATOM     70  C   UNL A   1      50.243  26.075  31.278  1.00  0.00     0.040 A 
ATOM     71  C   UNL A   1      50.594  26.858  29.028  1.00  0.00     0.040 A 
ATOM     72  F   UNL A   1      48.788  27.688  27.779  1.00  0.00    -0.206 F 
ATOM     73  C   UNL A   1      51.102  26.321  30.209  1.00  0.00     0.006 A 
ENDBRANCH  45  66
BRANCH  57  74
ATOM     74  C   UNL A   1      44.643  32.664  31.338  1.00  0.00     0.057 A 
ATOM     75  C   UNL A   1      44.655  32.915  32.716  1.00  0.00     0.134 A 
ATOM     76  C   UNL A   1      45.058  33.700  30.489  1.00  0.00     0.134 A 
ATOM     77  F   UNL A   1      44.257  31.972  33.582  1.00  0.00    -0.206 F 
ATOM     78  C   UNL A   1      45.056  34.151  33.228  1.00  0.00     0.040 A 
ATOM     79  C   UNL A   1      45.487  34.929  30.990  1.00  0.00     0.040 A 
ATOM     80  F   UNL A   1      45.078  33.523  29.159  1.00  0.00    -0.206 F 
ATOM     81  C   UNL A   1      45.484  35.158  32.363  1.00  0.00     0.006 A 
ENDBRANCH  57  74
ENDBRANCH  31  32
ENDBRANCH  23  26
ENDBRANCH  21  22
ENDBRANCH  20  21
ENDBRANCH   1  20
TORSDOF 13
ENDMDL
MODEL 3
REMARK VINA RESULT:      -9.5      5.332     10.599
REMARK SMILES O=C(CNS(=O)(=O)c1ccc(F)c(F)c1)NCCCNC(=O)c1ccc(-c2c3nc(c(-c4c(F)cccc4F)c4ccc([nH]4)c(-c4c(F)cccc4F)c4nc(c(-c5c(F)cccc5F)c5ccc2[nH]5)C=C4)C=C3)cc1
REMARK SMILES IDX 17 1 16 2 1 3 2 4 3 6 4 7 5 9 6 10 7 11 8 12 9 13 15 14
REMARK SMILES IDX 10 15 13 16 11 17 14 18 12 19 18 20 19 21 20 22 21 23 22 25
REMARK SMILES IDX 23 26 24 27 76 28 25 29 75 30 26 31 27 32 28 33 69 34 29 35
REMARK SMILES IDX 74 36 68 37 70 38 30 39 73 40 67 41 66 42 31 44 57 45 40 46
REMARK SMILES IDX 56 47 41 48 44 49 55 50 71 51 42 52 43 53 54 55 72 56 45 57
REMARK SMILES IDX 32 58 33 59 38 60 34 61 35 62 37 63 39 64 36 65 58 66 59 67
REMARK SMILES IDX 64 68 60 69 61 70 63 71 65 72 62 73 46 74 47 75 52 76 48 77
REMARK SMILES IDX 49 78 51 79 53 80 50 81
REMARK H PARENT 16 5 4 8 20 24 70 43 44 54
REMARK Flexibility Score: inf
ROOT
ATOM      1  C   UNL A   1      34.358  34.674  28.010  1.00  0.00     0.117 C 
ENDROOT
BRANCH   1   2
ATOM      2  N   UNL A   1      34.132  35.254  29.321  1.00  0.00    -0.355 N 
ATOM      3  O   UNL A   1      32.208  36.372  28.751  1.00  0.00    -0.274 OA
ATOM      4  C   UNL A   1      33.043  36.057  29.593  1.00  0.00     0.235 C 
ATOM      5  H   UNL A   1      34.778  35.068  30.041  1.00  0.00     0.163 HD
BRANCH   4   6
ATOM      6  C   UNL A   1      32.988  36.582  31.020  1.00  0.00     0.198 C 
BRANCH   6   7
ATOM      7  N   UNL A   1      34.259  36.321  31.738  1.00  0.00    -0.202 NA
ATOM      8  H   UNL A   1      34.584  37.204  32.133  1.00  0.00     0.141 HD
BRANCH   7   9
ATOM      9  S   UNL A   1      34.169  35.191  32.995  1.00  0.00     0.241 S 
ATOM     10  O   UNL A   1      34.478  35.874  34.227  1.00  0.00    -0.207 OA
ATOM     11  O   UNL A   1      32.925  34.475  32.809  1.00  0.00    -0.207 OA
BRANCH   9  12
ATOM     12  C   UNL A   1      35.495  34.086  32.600  1.00  0.00     0.085 A 
ATOM     13  C   UNL A   1      36.674  34.594  32.039  1.00  0.00     0.025 A 
ATOM     14  C   UNL A   1      35.345  32.717  32.844  1.00  0.00     0.064 A 
ATOM     15  C   UNL A   1      37.725  33.721  31.749  1.00  0.00     0.044 A 
ATOM     16  C   UNL A   1      36.401  31.864  32.551  1.00  0.00     0.160 A 
ATOM     17  C   UNL A   1      37.584  32.361  32.013  1.00  0.00     0.158 A 
ATOM     18  F   UNL A   1      36.274  30.554  32.805  1.00  0.00    -0.204 F 
ATOM     19  F   UNL A   1      38.603  31.532  31.745  1.00  0.00    -0.204 F 
ENDBRANCH   9  12
ENDBRANCH   7   9
ENDBRANCH   6   7
ENDBRANCH   4   6
ENDBRANCH   1   2
BRANCH   1  20
ATOM     20  C   UNL A   1      35.232  33.426  28.060  1.00  0.00     0.042 C 
BRANCH  20  21
ATOM     21  C   UNL A   1      34.824  32.416  29.127  1.00  0.00     0.118 C 
BRANCH  21  22
ATOM     22  N   UNL A   1      34.239  31.200  28.575  1.00  0.00    -0.352 N 
ATOM     23  C   UNL A   1      34.840  30.023  28.193  1.00  0.00     0.251 C 
ATOM     24  H   UNL A   1      33.261  31.224  28.459  1.00  0.00     0.163 HD
ATOM     25  O   UNL A   1      34.184  29.157  27.624  1.00  0.00    -0.269 OA
BRANCH  23  26
ATOM     26  C   UNL A   1      36.284  29.810  28.435  1.00  0.00     0.039 A 
ATOM     27  C   UNL A   1      36.697  29.326  29.679  1.00  0.00     0.014 A 
ATOM     28  C   UNL A   1      37.225  30.078  27.440  1.00  0.00     0.014 A 
ATOM     29  C   UNL A   1      38.045  29.020  29.892  1.00  0.00     0.010 A 
ATOM     30  C   UNL A   1      38.552  29.704  27.626  1.00  0.00     0.010 A 
ATOM     31  C   UNL A   1      38.975  29.159  28.849  1.00  0.00    -0.014 A 
BRANCH  31  32
ATOM     32  C   UNL A   1      40.388  28.722  28.994  1.00  0.00     0.031 A 
ATOM     33  C   UNL A   1      41.438  29.702  29.439  1.00  0.00     0.074 A 
ATOM     34  C   UNL A   1      40.746  27.476  28.624  1.00  0.00     0.049 A 
ATOM     35  N   UNL A   1      42.739  29.564  29.473  1.00  0.00    -0.248 NA
ATOM     36  C   UNL A   1      40.960  31.024  29.875  1.00  0.00     0.031 C 
ATOM     37  C   UNL A   1      39.831  26.437  28.149  1.00  0.00     0.029 A 
ATOM     38  N   UNL A   1      41.981  26.879  28.568  1.00  0.00    -0.354 N 
ATOM     39  C   UNL A   1      43.236  30.784  29.915  1.00  0.00     0.074 A 
ATOM     40  C   UNL A   1      42.100  31.665  30.089  1.00  0.00     0.031 C 
ATOM     41  C   UNL A   1      40.533  25.331  27.857  1.00  0.00     0.029 A 
ATOM     42  C   UNL A   1      41.952  25.596  28.074  1.00  0.00     0.049 A 
ATOM     43  H   UNL A   1      42.810  27.327  28.853  1.00  0.00     0.167 HD
ATOM     44  C   UNL A   1      44.520  31.132  30.168  1.00  0.00     0.037 A 
ATOM     45  C   UNL A   1      42.955  24.738  27.803  1.00  0.00     0.037 A 
ATOM     46  C   UNL A   1      45.645  30.248  30.009  1.00  0.00     0.049 A 
ATOM     47  C   UNL A   1      44.375  25.161  28.058  1.00  0.00     0.074 A 
ATOM     48  C   UNL A   1      46.979  30.493  30.286  1.00  0.00     0.029 A 
ATOM     49  N   UNL A   1      45.569  28.949  29.527  1.00  0.00    -0.354 N 
ATOM     50  N   UNL A   1      44.828  26.299  28.525  1.00  0.00    -0.248 NA
ATOM     51  C   UNL A   1      45.426  24.179  27.753  1.00  0.00     0.031 C 
ATOM     52  C   UNL A   1      47.716  29.364  29.920  1.00  0.00     0.029 A 
ATOM     53  C   UNL A   1      46.835  28.391  29.477  1.00  0.00     0.049 A 
ATOM     54  H   UNL A   1      44.739  28.493  29.261  1.00  0.00     0.167 HD
ATOM     55  C   UNL A   1      46.207  26.157  28.608  1.00  0.00     0.074 A 
ATOM     56  C   UNL A   1      46.519  24.821  28.145  1.00  0.00     0.031 C 
ATOM     57  C   UNL A   1      47.131  27.051  29.037  1.00  0.00     0.037 A 
BRANCH  44  58
ATOM     58  C   UNL A   1      44.780  32.535  30.637  1.00  0.00     0.057 A 
ATOM     59  C   UNL A   1      44.801  32.870  31.997  1.00  0.00     0.134 A 
ATOM     60  C   UNL A   1      45.054  33.557  29.718  1.00  0.00     0.134 A 
ATOM     61  F   UNL A   1      44.537  31.942  32.931  1.00  0.00    -0.206 F 
ATOM     62  C   UNL A   1      45.056  34.174  32.426  1.00  0.00     0.040 A 
ATOM     63  C   UNL A   1      45.342  34.858  30.136  1.00  0.00     0.040 A 
ATOM     64  F   UNL A   1      45.060  33.305  28.400  1.00  0.00    -0.206 F 
ATOM     65  C   UNL A   1      45.335  35.171  31.493  1.00  0.00     0.006 A 
ENDBRANCH  44  58
BRANCH  45  66
ATOM     66  C   UNL A   1      42.653  23.386  27.264  1.00  0.00     0.057 A 
ATOM     67  C   UNL A   1      42.328  22.326  28.117  1.00  0.00     0.134 A 
ATOM     68  C   UNL A   1      42.696  23.118  25.890  1.00  0.00     0.134 A 
ATOM     69  F   UNL A   1      42.289  22.515  29.444  1.00  0.00    -0.206 F 
ATOM     70  C   UNL A   1      42.077  21.042  27.628  1.00  0.00     0.040 A 
ATOM     71  C   UNL A   1      42.421  21.845  25.384  1.00  0.00     0.040 A 
ATOM     72  F   UNL A   1      42.994  24.091  25.017  1.00  0.00    -0.206 F 
ATOM     73  C   UNL A   1      42.118  20.801  26.256  1.00  0.00     0.006 A 
ENDBRANCH  45  66
BRANCH  57  74
ATOM     74  C   UNL A   1      48.562  26.603  29.093  1.00  0.00     0.057 A 
ATOM     75  C   UNL A   1      49.469  26.868  28.060  1.00  0.00     0.134 A 
ATOM     76  C   UNL A   1      49.055  25.958  30.236  1.00  0.00     0.134 A 
ATOM     77  F   UNL A   1      49.060  27.471  26.934  1.00  0.00    -0.206 F 
ATOM     78  C   UNL A   1      50.812  26.497  28.156  1.00  0.00     0.040 A 
ATOM     79  C   UNL A   1      50.400  25.607  30.356  1.00  0.00     0.040 A 
ATOM     80  F   UNL A   1      48.241  25.681  31.266  1.00  0.00    -0.206 F 
ATOM     81  C   UNL A   1      51.282  25.873  29.312  1.00  0.00     0.006 A 
ENDBRANCH  57  74
ENDBRANCH  31  32
ENDBRANCH  23  26
ENDBRANCH  21  22
ENDBRANCH  20  21
ENDBRANCH   1  20
TORSDOF 13
ENDMDL
