MODEL 1
REMARK VINA RESULT:     -13.5      0.000      0.000
REMARK SMILES Cc1ccc(S(=O)(=O)n2cc(C(=O)C(=O)NCC(=O)NCCCNC(=O)c3ccc(-c4c5nc(c(-c6c(F)cccc6F)c6ccc([nH]6)c(-c6c(F)cccc6F)c6nc(c(-c7c(F)cccc7F)c7ccc4[nH]7)C=C6)C=C5)cc3)c3ccccc32)cc1
REMARK SMILES IDX 18 1 19 2 20 3 17 5 16 6 14 7 15 8 12 10 13 11 11 12 9 13
REMARK SMILES IDX 10 14 86 15 81 16 85 17 82 18 84 19 83 20 6 21 7 22 8 23
REMARK SMILES IDX 5 24 1 25 2 26 3 27 88 28 4 29 87 30 21 31 22 32 23 33 24 34
REMARK SMILES IDX 25 35 26 37 27 38 28 39 80 40 29 41 79 42 30 43 31 44 32 45
REMARK SMILES IDX 73 46 33 47 78 48 72 49 74 50 34 51 77 52 71 53 70 54 35 56
REMARK SMILES IDX 61 57 44 58 60 59 45 60 48 61 59 62 75 63 46 64 47 65 58 67
REMARK SMILES IDX 76 68 49 69 36 70 37 71 42 72 38 73 39 74 41 75 43 76 40 77
REMARK SMILES IDX 62 78 63 79 68 80 64 81 65 82 67 83 69 84 66 85 50 86 51 87
REMARK SMILES IDX 56 88 52 89 53 90 55 91 57 92 54 93
REMARK H PARENT 20 4 16 9 24 36 74 55 48 66
REMARK Flexibility Score: inf
ROOT
ATOM      1  C   UNL A   1      40.889  20.651  27.333  1.00  0.00     0.239 C 
ATOM      2  O   UNL A   1      40.782  21.272  28.391  1.00  0.00    -0.273 OA
ATOM      3  N   UNL A   1      41.754  19.592  27.283  1.00  0.00    -0.355 N 
ATOM      4  H   UNL A   1      42.258  19.413  28.109  1.00  0.00     0.163 HD
ENDROOT
BRANCH   1   5
ATOM      5  C   UNL A   1      40.040  21.007  26.108  1.00  0.00     0.216 C 
BRANCH   5   6
ATOM      6  N   UNL A   1      39.335  22.275  26.266  1.00  0.00    -0.340 N 
ATOM      7  C   UNL A   1      38.137  22.726  25.753  1.00  0.00     0.292 C 
ATOM      8  O   UNL A   1      37.774  23.862  26.039  1.00  0.00    -0.265 OA
ATOM      9  H   UNL A   1      39.797  22.925  26.842  1.00  0.00     0.164 HD
BRANCH   7  10
ATOM     10  C   UNL A   1      37.282  21.846  24.804  1.00  0.00     0.252 C 
ATOM     11  O   UNL A   1      37.779  20.811  24.370  1.00  0.00    -0.283 OA
BRANCH  10  12
ATOM     12  C   UNL A   1      35.915  22.227  24.406  1.00  0.00     0.054 A 
ATOM     13  N   UNL A   1      34.146  23.369  23.654  1.00  0.00    -0.240 N 
ATOM     14  C   UNL A   1      35.513  23.390  23.773  1.00  0.00     0.117 A 
ATOM     15  C   UNL A   1      33.618  22.202  24.162  1.00  0.00     0.065 A 
ATOM     16  C   UNL A   1      34.711  21.466  24.643  1.00  0.00     0.012 A 
ATOM     17  C   UNL A   1      32.296  21.735  24.283  1.00  0.00     0.028 A 
ATOM     18  C   UNL A   1      34.457  20.212  25.246  1.00  0.00     0.011 A 
ATOM     19  C   UNL A   1      32.080  20.507  24.910  1.00  0.00     0.002 A 
ATOM     20  C   UNL A   1      33.145  19.749  25.378  1.00  0.00     0.001 A 
BRANCH  13  21
ATOM     21  S   UNL A   1      33.227  24.681  23.068  1.00  0.00     0.268 S 
ATOM     22  O   UNL A   1      32.060  24.085  22.456  1.00  0.00    -0.201 OA
ATOM     23  O   UNL A   1      34.159  25.504  22.312  1.00  0.00    -0.201 OA
BRANCH  21  24
ATOM     24  C   UNL A   1      32.686  25.642  24.457  1.00  0.00     0.088 A 
ATOM     25  C   UNL A   1      31.589  28.253  27.699  1.00  0.00     0.044 C 
ATOM     26  C   UNL A   1      31.969  27.326  26.581  1.00  0.00    -0.051 A 
ATOM     27  C   UNL A   1      33.309  27.210  26.194  1.00  0.00     0.005 A 
ATOM     28  C   UNL A   1      30.998  26.567  25.915  1.00  0.00     0.005 A 
ATOM     29  C   UNL A   1      33.668  26.378  25.133  1.00  0.00     0.022 A 
ATOM     30  C   UNL A   1      31.352  25.716  24.863  1.00  0.00     0.022 A 
ENDBRANCH  21  24
ENDBRANCH  13  21
ENDBRANCH  10  12
ENDBRANCH   7  10
ENDBRANCH   5   6
ENDBRANCH   1   5
BRANCH   3  31
ATOM     31  C   UNL A   1      42.023  18.700  26.171  1.00  0.00     0.117 C 
BRANCH  31  32
ATOM     32  C   UNL A   1      43.515  18.569  25.906  1.00  0.00     0.042 C 
BRANCH  32  33
ATOM     33  C   UNL A   1      43.958  19.320  24.662  1.00  0.00     0.118 C 
BRANCH  33  34
ATOM     34  N   UNL A   1      45.222  20.034  24.840  1.00  0.00    -0.352 N 
ATOM     35  C   UNL A   1      45.488  21.382  25.011  1.00  0.00     0.251 C 
ATOM     36  H   UNL A   1      46.020  19.457  24.839  1.00  0.00     0.163 HD
ATOM     37  O   UNL A   1      46.650  21.752  25.158  1.00  0.00    -0.269 OA
BRANCH  35  38
ATOM     38  C   UNL A   1      44.380  22.342  25.230  1.00  0.00     0.039 A 
ATOM     39  C   UNL A   1      44.437  23.516  24.467  1.00  0.00     0.014 A 
ATOM     40  C   UNL A   1      43.664  22.308  26.416  1.00  0.00     0.014 A 
ATOM     41  C   UNL A   1      44.135  24.720  25.080  1.00  0.00     0.010 A 
ATOM     42  C   UNL A   1      43.529  23.492  27.088  1.00  0.00     0.010 A 
ATOM     43  C   UNL A   1      43.847  24.685  26.435  1.00  0.00    -0.014 A 
BRANCH  43  44
ATOM     44  C   UNL A   1      43.760  25.853  27.275  1.00  0.00     0.031 A 
ATOM     45  C   UNL A   1      42.494  26.589  27.235  1.00  0.00     0.074 A 
ATOM     46  C   UNL A   1      44.744  26.089  28.171  1.00  0.00     0.049 A 
ATOM     47  N   UNL A   1      42.344  27.769  27.708  1.00  0.00    -0.248 NA
ATOM     48  C   UNL A   1      41.292  26.070  26.579  1.00  0.00     0.031 C 
ATOM     49  C   UNL A   1      44.716  26.958  29.341  1.00  0.00     0.029 A 
ATOM     50  N   UNL A   1      46.087  25.703  28.066  1.00  0.00    -0.354 N 
ATOM     51  C   UNL A   1      40.992  28.006  27.748  1.00  0.00     0.074 A 
ATOM     52  C   UNL A   1      40.409  27.029  26.871  1.00  0.00     0.031 C 
ATOM     53  C   UNL A   1      45.980  27.287  29.666  1.00  0.00     0.029 A 
ATOM     54  C   UNL A   1      46.836  26.779  28.607  1.00  0.00     0.049 A 
ATOM     55  H   UNL A   1      46.437  24.860  27.696  1.00  0.00     0.167 HD
ATOM     56  C   UNL A   1      40.542  28.900  28.668  1.00  0.00     0.037 A 
ATOM     57  C   UNL A   1      47.605  27.551  27.778  1.00  0.00     0.037 A 
ATOM     58  C   UNL A   1      41.674  29.623  29.257  1.00  0.00     0.049 A 
ATOM     59  C   UNL A   1      47.114  28.985  27.656  1.00  0.00     0.074 A 
ATOM     60  C   UNL A   1      42.361  29.564  30.456  1.00  0.00     0.029 A 
ATOM     61  N   UNL A   1      42.474  30.351  28.398  1.00  0.00    -0.354 N 
ATOM     62  N   UNL A   1      45.984  29.417  28.152  1.00  0.00    -0.248 NA
ATOM     63  C   UNL A   1      47.820  30.032  26.919  1.00  0.00     0.031 C 
ATOM     64  C   UNL A   1      43.622  30.221  30.266  1.00  0.00     0.029 A 
ATOM     65  C   UNL A   1      43.673  30.709  28.971  1.00  0.00     0.049 A 
ATOM     66  H   UNL A   1      42.216  30.588  27.479  1.00  0.00     0.167 HD
ATOM     67  C   UNL A   1      45.779  30.721  27.793  1.00  0.00     0.074 A 
ATOM     68  C   UNL A   1      46.953  31.059  27.006  1.00  0.00     0.031 C 
ATOM     69  C   UNL A   1      44.648  31.408  28.140  1.00  0.00     0.037 A 
BRANCH  56  70
ATOM     70  C   UNL A   1      39.125  29.028  29.167  1.00  0.00     0.057 A 
ATOM     71  C   UNL A   1      38.143  29.559  28.310  1.00  0.00     0.134 A 
ATOM     72  C   UNL A   1      38.671  28.763  30.474  1.00  0.00     0.134 A 
ATOM     73  F   UNL A   1      38.417  29.857  27.031  1.00  0.00    -0.206 F 
ATOM     74  C   UNL A   1      36.832  29.830  28.724  1.00  0.00     0.040 A 
ATOM     75  C   UNL A   1      37.351  28.987  30.888  1.00  0.00     0.040 A 
ATOM     76  F   UNL A   1      39.473  28.322  31.447  1.00  0.00    -0.206 F 
ATOM     77  C   UNL A   1      36.429  29.539  30.018  1.00  0.00     0.006 A 
ENDBRANCH  56  70
BRANCH  57  78
ATOM     78  C   UNL A   1      48.204  26.728  26.682  1.00  0.00     0.057 A 
ATOM     79  C   UNL A   1      47.623  26.825  25.401  1.00  0.00     0.134 A 
ATOM     80  C   UNL A   1      49.537  26.312  26.741  1.00  0.00     0.134 A 
ATOM     81  F   UNL A   1      46.338  27.193  25.270  1.00  0.00    -0.206 F 
ATOM     82  C   UNL A   1      48.387  26.719  24.234  1.00  0.00     0.040 A 
ATOM     83  C   UNL A   1      50.301  26.169  25.575  1.00  0.00     0.040 A 
ATOM     84  F   UNL A   1      50.162  26.183  27.921  1.00  0.00    -0.206 F 
ATOM     85  C   UNL A   1      49.746  26.441  24.325  1.00  0.00     0.006 A 
ENDBRANCH  57  78
BRANCH  69  86
ATOM     86  C   UNL A   1      44.347  32.816  27.691  1.00  0.00     0.057 A 
ATOM     87  C   UNL A   1      44.180  33.878  28.587  1.00  0.00     0.134 A 
ATOM     88  C   UNL A   1      44.103  33.132  26.334  1.00  0.00     0.134 A 
ATOM     89  F   UNL A   1      44.303  33.693  29.909  1.00  0.00    -0.206 F 
ATOM     90  C   UNL A   1      43.852  35.172  28.159  1.00  0.00     0.040 A 
ATOM     91  C   UNL A   1      43.707  34.399  25.903  1.00  0.00     0.040 A 
ATOM     92  F   UNL A   1      44.271  32.237  25.351  1.00  0.00    -0.206 F 
ATOM     93  C   UNL A   1      43.601  35.433  26.815  1.00  0.00     0.006 A 
ENDBRANCH  69  86
ENDBRANCH  43  44
ENDBRANCH  35  38
ENDBRANCH  33  34
ENDBRANCH  32  33
ENDBRANCH  31  32
ENDBRANCH   3  31
TORSDOF 15
ENDMDL
MODEL 2
REMARK VINA RESULT:     -13.4      3.859      9.394
REMARK SMILES Cc1ccc(S(=O)(=O)n2cc(C(=O)C(=O)NCC(=O)NCCCNC(=O)c3ccc(-c4c5nc(c(-c6c(F)cccc6F)c6ccc([nH]6)c(-c6c(F)cccc6F)c6nc(c(-c7c(F)cccc7F)c7ccc4[nH]7)C=C6)C=C5)cc3)c3ccccc32)cc1
REMARK SMILES IDX 18 1 19 2 20 3 17 5 16 6 14 7 15 8 12 10 13 11 11 12 9 13
REMARK SMILES IDX 10 14 86 15 81 16 85 17 82 18 84 19 83 20 6 21 7 22 8 23
REMARK SMILES IDX 5 24 1 25 2 26 3 27 88 28 4 29 87 30 21 31 22 32 23 33 24 34
REMARK SMILES IDX 25 35 26 37 27 38 28 39 80 40 29 41 79 42 30 43 31 44 32 45
REMARK SMILES IDX 73 46 33 47 78 48 72 49 74 50 34 51 77 52 71 53 70 54 35 56
REMARK SMILES IDX 61 57 44 58 60 59 45 60 48 61 59 62 75 63 46 64 47 65 58 67
REMARK SMILES IDX 76 68 49 69 36 70 37 71 42 72 38 73 39 74 41 75 43 76 40 77
REMARK SMILES IDX 62 78 63 79 68 80 64 81 65 82 67 83 69 84 66 85 50 86 51 87
REMARK SMILES IDX 56 88 52 89 53 90 55 91 57 92 54 93
REMARK H PARENT 20 4 16 9 24 36 74 55 48 66
REMARK Flexibility Score: inf
ROOT
ATOM      1  C   UNL A   1      32.871  29.226  24.569  1.00  0.00     0.239 C 
ATOM      2  O   UNL A   1      33.334  29.234  23.429  1.00  0.00    -0.273 OA
ATOM      3  N   UNL A   1      33.727  29.035  25.620  1.00  0.00    -0.355 N 
ATOM      4  H   UNL A   1      34.671  28.891  25.381  1.00  0.00     0.163 HD
ENDROOT
BRANCH   1   5
ATOM      5  C   UNL A   1      31.382  29.478  24.830  1.00  0.00     0.216 C 
BRANCH   5   6
ATOM      6  N   UNL A   1      30.624  29.672  23.598  1.00  0.00    -0.340 N 
ATOM      7  C   UNL A   1      29.712  28.868  22.948  1.00  0.00     0.292 C 
ATOM      8  O   UNL A   1      29.222  29.276  21.900  1.00  0.00    -0.265 OA
ATOM      9  H   UNL A   1      30.795  30.532  23.150  1.00  0.00     0.164 HD
BRANCH   7  10
ATOM     10  C   UNL A   1      29.338  27.466  23.494  1.00  0.00     0.252 C 
ATOM     11  O   UNL A   1      28.153  27.222  23.698  1.00  0.00    -0.283 OA
BRANCH  10  12
ATOM     12  C   UNL A   1      30.359  26.443  23.785  1.00  0.00     0.054 A 
ATOM     13  N   UNL A   1      31.693  24.991  24.839  1.00  0.00    -0.240 N 
ATOM     14  C   UNL A   1      30.613  25.823  24.996  1.00  0.00     0.117 A 
ATOM     15  C   UNL A   1      32.153  25.009  23.540  1.00  0.00     0.065 A 
ATOM     16  C   UNL A   1      31.331  25.916  22.856  1.00  0.00     0.012 A 
ATOM     17  C   UNL A   1      33.226  24.353  22.907  1.00  0.00     0.028 A 
ATOM     18  C   UNL A   1      31.591  26.150  21.486  1.00  0.00     0.011 A 
ATOM     19  C   UNL A   1      33.472  24.629  21.561  1.00  0.00     0.002 A 
ATOM     20  C   UNL A   1      32.662  25.509  20.855  1.00  0.00     0.001 A 
BRANCH  13  21
ATOM     21  S   UNL A   1      32.434  24.151  26.125  1.00  0.00     0.268 S 
ATOM     22  O   UNL A   1      31.413  24.035  27.143  1.00  0.00    -0.201 OA
ATOM     23  O   UNL A   1      33.692  24.840  26.369  1.00  0.00    -0.201 OA
BRANCH  21  24
ATOM     24  C   UNL A   1      32.832  22.517  25.560  1.00  0.00     0.088 A 
ATOM     25  C   UNL A   1      34.021  18.520  24.492  1.00  0.00     0.044 C 
ATOM     26  C   UNL A   1      33.603  19.918  24.844  1.00  0.00    -0.051 A 
ATOM     27  C   UNL A   1      34.563  20.854  25.246  1.00  0.00     0.005 A 
ATOM     28  C   UNL A   1      32.259  20.306  24.775  1.00  0.00     0.005 A 
ATOM     29  C   UNL A   1      34.181  22.146  25.610  1.00  0.00     0.022 A 
ATOM     30  C   UNL A   1      31.871  21.605  25.120  1.00  0.00     0.022 A 
ENDBRANCH  21  24
ENDBRANCH  13  21
ENDBRANCH  10  12
ENDBRANCH   7  10
ENDBRANCH   5   6
ENDBRANCH   1   5
BRANCH   3  31
ATOM     31  C   UNL A   1      33.424  29.017  27.038  1.00  0.00     0.117 C 
BRANCH  31  32
ATOM     32  C   UNL A   1      33.489  30.412  27.642  1.00  0.00     0.042 C 
BRANCH  32  33
ATOM     33  C   UNL A   1      34.771  31.146  27.289  1.00  0.00     0.118 C 
BRANCH  33  34
ATOM     34  N   UNL A   1      35.449  31.713  28.454  1.00  0.00    -0.352 N 
ATOM     35  C   UNL A   1      36.404  31.177  29.301  1.00  0.00     0.251 C 
ATOM     36  H   UNL A   1      35.181  32.635  28.674  1.00  0.00     0.163 HD
ATOM     37  O   UNL A   1      36.844  31.861  30.221  1.00  0.00    -0.269 OA
BRANCH  35  38
ATOM     38  C   UNL A   1      37.046  29.880  28.980  1.00  0.00     0.039 A 
ATOM     39  C   UNL A   1      37.127  28.966  30.040  1.00  0.00     0.014 A 
ATOM     40  C   UNL A   1      37.915  29.789  27.905  1.00  0.00     0.014 A 
ATOM     41  C   UNL A   1      38.300  28.251  30.211  1.00  0.00     0.010 A 
ATOM     42  C   UNL A   1      39.139  29.229  28.149  1.00  0.00     0.010 A 
ATOM     43  C   UNL A   1      39.343  28.534  29.343  1.00  0.00    -0.014 A 
BRANCH  43  44
ATOM     44  C   UNL A   1      40.698  28.077  29.530  1.00  0.00     0.031 A 
ATOM     45  C   UNL A   1      41.016  26.753  28.988  1.00  0.00     0.074 A 
ATOM     46  C   UNL A   1      41.620  28.942  30.004  1.00  0.00     0.049 A 
ATOM     47  N   UNL A   1      42.076  26.100  29.289  1.00  0.00    -0.248 NA
ATOM     48  C   UNL A   1      40.112  26.016  28.103  1.00  0.00     0.031 C 
ATOM     49  C   UNL A   1      43.073  28.844  29.941  1.00  0.00     0.029 A 
ATOM     50  N   UNL A   1      41.390  30.039  30.847  1.00  0.00    -0.354 N 
ATOM     51  C   UNL A   1      42.167  25.065  28.391  1.00  0.00     0.074 A 
ATOM     52  C   UNL A   1      40.853  24.941  27.821  1.00  0.00     0.031 C 
ATOM     53  C   UNL A   1      43.602  29.610  30.913  1.00  0.00     0.029 A 
ATOM     54  C   UNL A   1      42.496  30.077  31.733  1.00  0.00     0.049 A 
ATOM     55  H   UNL A   1      40.622  30.654  30.826  1.00  0.00     0.167 HD
ATOM     56  C   UNL A   1      43.406  24.571  28.132  1.00  0.00     0.037 A 
ATOM     57  C   UNL A   1      42.314  29.772  33.055  1.00  0.00     0.037 A 
ATOM     58  C   UNL A   1      44.369  25.106  29.099  1.00  0.00     0.049 A 
ATOM     59  C   UNL A   1      43.016  28.494  33.486  1.00  0.00     0.074 A 
ATOM     60  C   UNL A   1      45.351  26.079  29.072  1.00  0.00     0.029 A 
ATOM     61  N   UNL A   1      44.139  24.838  30.434  1.00  0.00    -0.354 N 
ATOM     62  N   UNL A   1      43.603  27.668  32.661  1.00  0.00    -0.248 NA
ATOM     63  C   UNL A   1      43.064  28.012  34.866  1.00  0.00     0.031 C 
ATOM     64  C   UNL A   1      45.650  26.432  30.430  1.00  0.00     0.029 A 
ATOM     65  C   UNL A   1      44.882  25.642  31.269  1.00  0.00     0.049 A 
ATOM     66  H   UNL A   1      43.513  24.149  30.754  1.00  0.00     0.167 HD
ATOM     67  C   UNL A   1      44.053  26.567  33.337  1.00  0.00     0.074 A 
ATOM     68  C   UNL A   1      43.678  26.823  34.718  1.00  0.00     0.031 C 
ATOM     69  C   UNL A   1      44.667  25.519  32.707  1.00  0.00     0.037 A 
BRANCH  56  70
ATOM     70  C   UNL A   1      43.803  23.745  26.935  1.00  0.00     0.057 A 
ATOM     71  C   UNL A   1      44.417  24.378  25.839  1.00  0.00     0.134 A 
ATOM     72  C   UNL A   1      43.529  22.377  26.734  1.00  0.00     0.134 A 
ATOM     73  F   UNL A   1      44.750  25.677  25.877  1.00  0.00    -0.206 F 
ATOM     74  C   UNL A   1      44.708  23.717  24.638  1.00  0.00     0.040 A 
ATOM     75  C   UNL A   1      43.855  21.694  25.555  1.00  0.00     0.040 A 
ATOM     76  F   UNL A   1      42.887  21.625  27.633  1.00  0.00    -0.206 F 
ATOM     77  C   UNL A   1      44.431  22.367  24.493  1.00  0.00     0.006 A 
ENDBRANCH  56  70
BRANCH  57  78
ATOM     78  C   UNL A   1      40.981  30.252  33.537  1.00  0.00     0.057 A 
ATOM     79  C   UNL A   1      40.812  31.643  33.706  1.00  0.00     0.134 A 
ATOM     80  C   UNL A   1      39.825  29.496  33.328  1.00  0.00     0.134 A 
ATOM     81  F   UNL A   1      41.876  32.428  33.936  1.00  0.00    -0.206 F 
ATOM     82  C   UNL A   1      39.584  32.269  33.469  1.00  0.00     0.040 A 
ATOM     83  C   UNL A   1      38.584  30.115  33.126  1.00  0.00     0.040 A 
ATOM     84  F   UNL A   1      39.897  28.166  33.169  1.00  0.00    -0.206 F 
ATOM     85  C   UNL A   1      38.476  31.505  33.127  1.00  0.00     0.006 A 
ENDBRANCH  57  78
BRANCH  69  86
ATOM     86  C   UNL A   1      45.100  24.253  33.404  1.00  0.00     0.057 A 
ATOM     87  C   UNL A   1      44.216  23.209  33.694  1.00  0.00     0.134 A 
ATOM     88  C   UNL A   1      46.410  24.089  33.910  1.00  0.00     0.134 A 
ATOM     89  F   UNL A   1      42.924  23.277  33.342  1.00  0.00    -0.206 F 
ATOM     90  C   UNL A   1      44.621  22.058  34.387  1.00  0.00     0.040 A 
ATOM     91  C   UNL A   1      46.807  22.982  34.661  1.00  0.00     0.040 A 
ATOM     92  F   UNL A   1      47.385  24.977  33.672  1.00  0.00    -0.206 F 
ATOM     93  C   UNL A   1      45.915  21.948  34.885  1.00  0.00     0.006 A 
ENDBRANCH  69  86
ENDBRANCH  43  44
ENDBRANCH  35  38
ENDBRANCH  33  34
ENDBRANCH  32  33
ENDBRANCH  31  32
ENDBRANCH   3  31
TORSDOF 15
ENDMDL
MODEL 3
REMARK VINA RESULT:     -13.3      4.529      9.775
REMARK SMILES Cc1ccc(S(=O)(=O)n2cc(C(=O)C(=O)NCC(=O)NCCCNC(=O)c3ccc(-c4c5nc(c(-c6c(F)cccc6F)c6ccc([nH]6)c(-c6c(F)cccc6F)c6nc(c(-c7c(F)cccc7F)c7ccc4[nH]7)C=C6)C=C5)cc3)c3ccccc32)cc1
REMARK SMILES IDX 18 1 19 2 20 3 17 5 16 6 14 7 15 8 12 10 13 11 11 12 9 13
REMARK SMILES IDX 10 14 86 15 81 16 85 17 82 18 84 19 83 20 6 21 7 22 8 23
REMARK SMILES IDX 5 24 1 25 2 26 3 27 88 28 4 29 87 30 21 31 22 32 23 33 24 34
REMARK SMILES IDX 25 35 26 37 27 38 28 39 80 40 29 41 79 42 30 43 31 44 32 45
REMARK SMILES IDX 73 46 33 47 78 48 72 49 74 50 34 51 77 52 71 53 70 54 35 56
REMARK SMILES IDX 61 57 44 58 60 59 45 60 48 61 59 62 75 63 46 64 47 65 58 67
REMARK SMILES IDX 76 68 49 69 36 70 37 71 42 72 38 73 39 74 41 75 43 76 40 77
REMARK SMILES IDX 62 78 63 79 68 80 64 81 65 82 67 83 69 84 66 85 50 86 51 87
REMARK SMILES IDX 56 88 52 89 53 90 55 91 57 92 54 93
REMARK H PARENT 20 4 16 9 24 36 74 55 48 66
REMARK Flexibility Score: inf
ROOT
ATOM      1  C   UNL A   1      33.193  28.896  24.571  1.00  0.00     0.239 C 
ATOM      2  O   UNL A   1      33.607  28.420  23.514  1.00  0.00    -0.273 OA
ATOM      3  N   UNL A   1      34.065  29.019  25.618  1.00  0.00    -0.355 N 
ATOM      4  H   UNL A   1      34.978  28.687  25.455  1.00  0.00     0.163 HD
ENDROOT
BRANCH   1   5
ATOM      5  C   UNL A   1      31.751  29.398  24.711  1.00  0.00     0.216 C 
BRANCH   5   6
ATOM      6  N   UNL A   1      31.120  29.653  23.421  1.00  0.00    -0.340 N 
ATOM      7  C   UNL A   1      30.163  28.955  22.716  1.00  0.00     0.292 C 
ATOM      8  O   UNL A   1      29.810  29.393  21.626  1.00  0.00    -0.265 OA
ATOM      9  H   UNL A   1      31.435  30.472  22.972  1.00  0.00     0.164 HD
BRANCH   7  10
ATOM     10  C   UNL A   1      29.569  27.628  23.257  1.00  0.00     0.252 C 
ATOM     11  O   UNL A   1      28.367  27.590  23.501  1.00  0.00    -0.283 OA
BRANCH  10  12
ATOM     12  C   UNL A   1      30.406  26.438  23.495  1.00  0.00     0.054 A 
ATOM     13  N   UNL A   1      31.868  24.766  23.242  1.00  0.00    -0.240 N 
ATOM     14  C   UNL A   1      31.390  25.919  22.672  1.00  0.00     0.117 A 
ATOM     15  C   UNL A   1      31.253  24.512  24.448  1.00  0.00     0.065 A 
ATOM     16  C   UNL A   1      30.327  25.550  24.630  1.00  0.00     0.012 A 
ATOM     17  C   UNL A   1      31.386  23.462  25.377  1.00  0.00     0.028 A 
ATOM     18  C   UNL A   1      29.527  25.533  25.797  1.00  0.00     0.011 A 
ATOM     19  C   UNL A   1      30.560  23.463  26.502  1.00  0.00     0.002 A 
ATOM     20  C   UNL A   1      29.648  24.487  26.717  1.00  0.00     0.001 A 
BRANCH  13  21
ATOM     21  S   UNL A   1      32.985  23.727  22.480  1.00  0.00     0.268 S 
ATOM     22  O   UNL A   1      33.278  24.350  21.207  1.00  0.00    -0.201 OA
ATOM     23  O   UNL A   1      32.407  22.396  22.571  1.00  0.00    -0.201 OA
BRANCH  21  24
ATOM     24  C   UNL A   1      34.476  23.719  23.441  1.00  0.00     0.088 A 
ATOM     25  C   UNL A   1      37.877  23.677  26.080  1.00  0.00     0.044 C 
ATOM     26  C   UNL A   1      36.702  23.703  25.146  1.00  0.00    -0.051 A 
ATOM     27  C   UNL A   1      35.602  24.521  25.429  1.00  0.00     0.005 A 
ATOM     28  C   UNL A   1      36.688  22.918  23.986  1.00  0.00     0.005 A 
ATOM     29  C   UNL A   1      34.490  24.526  24.586  1.00  0.00     0.022 A 
ATOM     30  C   UNL A   1      35.586  22.932  23.126  1.00  0.00     0.022 A 
ENDBRANCH  21  24
ENDBRANCH  13  21
ENDBRANCH  10  12
ENDBRANCH   7  10
ENDBRANCH   5   6
ENDBRANCH   1   5
BRANCH   3  31
ATOM     31  C   UNL A   1      33.821  29.573  26.935  1.00  0.00     0.117 C 
BRANCH  31  32
ATOM     32  C   UNL A   1      35.092  29.619  27.769  1.00  0.00     0.042 C 
BRANCH  32  33
ATOM     33  C   UNL A   1      35.630  31.029  27.942  1.00  0.00     0.118 C 
BRANCH  33  34
ATOM     34  N   UNL A   1      34.599  31.997  28.313  1.00  0.00    -0.352 N 
ATOM     35  C   UNL A   1      34.560  32.942  29.323  1.00  0.00     0.251 C 
ATOM     36  H   UNL A   1      33.793  31.973  27.746  1.00  0.00     0.163 HD
ATOM     37  O   UNL A   1      33.574  33.666  29.434  1.00  0.00    -0.269 OA
BRANCH  35  38
ATOM     38  C   UNL A   1      35.772  33.229  30.127  1.00  0.00     0.039 A 
ATOM     39  C   UNL A   1      36.821  33.854  29.439  1.00  0.00     0.014 A 
ATOM     40  C   UNL A   1      36.022  32.501  31.279  1.00  0.00     0.014 A 
ATOM     41  C   UNL A   1      38.115  33.417  29.665  1.00  0.00     0.010 A 
ATOM     42  C   UNL A   1      37.263  31.936  31.394  1.00  0.00     0.010 A 
ATOM     43  C   UNL A   1      38.278  32.343  30.526  1.00  0.00    -0.014 A 
BRANCH  43  44
ATOM     44  C   UNL A   1      39.508  31.607  30.678  1.00  0.00     0.031 A 
ATOM     45  C   UNL A   1      39.568  30.300  30.019  1.00  0.00     0.074 A 
ATOM     46  C   UNL A   1      40.575  32.222  31.235  1.00  0.00     0.049 A 
ATOM     47  N   UNL A   1      40.467  29.422  30.265  1.00  0.00    -0.248 NA
ATOM     48  C   UNL A   1      38.556  29.842  29.065  1.00  0.00     0.031 C 
ATOM     49  C   UNL A   1      41.979  31.839  31.171  1.00  0.00     0.029 A 
ATOM     50  N   UNL A   1      40.549  33.264  32.173  1.00  0.00    -0.354 N 
ATOM     51  C   UNL A   1      40.370  28.474  29.276  1.00  0.00     0.074 A 
ATOM     52  C   UNL A   1      39.072  28.669  28.689  1.00  0.00     0.031 C 
ATOM     53  C   UNL A   1      42.627  32.393  32.213  1.00  0.00     0.029 A 
ATOM     54  C   UNL A   1      41.618  32.999  33.065  1.00  0.00     0.049 A 
ATOM     55  H   UNL A   1      39.921  34.022  32.204  1.00  0.00     0.167 HD
ATOM     56  C   UNL A   1      41.490  27.764  28.980  1.00  0.00     0.037 A 
ATOM     57  C   UNL A   1      41.346  32.622  34.353  1.00  0.00     0.037 A 
ATOM     58  C   UNL A   1      42.518  28.005  29.998  1.00  0.00     0.049 A 
ATOM     59  C   UNL A   1      41.766  31.195  34.669  1.00  0.00     0.074 A 
ATOM     60  C   UNL A   1      43.675  28.759  30.066  1.00  0.00     0.029 A 
ATOM     61  N   UNL A   1      42.206  27.673  31.302  1.00  0.00    -0.354 N 
ATOM     62  N   UNL A   1      42.195  30.343  33.776  1.00  0.00    -0.248 NA
ATOM     63  C   UNL A   1      41.683  30.593  35.999  1.00  0.00     0.031 C 
ATOM     64  C   UNL A   1      44.006  28.921  31.452  1.00  0.00     0.029 A 
ATOM     65  C   UNL A   1      43.075  28.232  32.211  1.00  0.00     0.049 A 
ATOM     66  H   UNL A   1      41.446  27.099  31.553  1.00  0.00     0.167 HD
ATOM     67  C   UNL A   1      42.399  29.119  34.350  1.00  0.00     0.074 A 
ATOM     68  C   UNL A   1      42.049  29.322  35.746  1.00  0.00     0.031 C 
ATOM     69  C   UNL A   1      42.805  28.028  33.630  1.00  0.00     0.037 A 
BRANCH  56  70
ATOM     70  C   UNL A   1      41.742  26.984  27.715  1.00  0.00     0.057 A 
ATOM     71  C   UNL A   1      41.184  25.699  27.581  1.00  0.00     0.134 A 
ATOM     72  C   UNL A   1      42.585  27.363  26.652  1.00  0.00     0.134 A 
ATOM     73  F   UNL A   1      40.353  25.196  28.505  1.00  0.00    -0.206 F 
ATOM     74  C   UNL A   1      41.464  24.853  26.498  1.00  0.00     0.040 A 
ATOM     75  C   UNL A   1      42.838  26.545  25.542  1.00  0.00     0.040 A 
ATOM     76  F   UNL A   1      43.259  28.517  26.635  1.00  0.00    -0.206 F 
ATOM     77  C   UNL A   1      42.290  25.277  25.470  1.00  0.00     0.006 A 
ENDBRANCH  56  70
BRANCH  57  78
ATOM     78  C   UNL A   1      40.126  33.317  34.868  1.00  0.00     0.057 A 
ATOM     79  C   UNL A   1      38.937  32.564  34.962  1.00  0.00     0.134 A 
ATOM     80  C   UNL A   1      40.232  34.436  35.699  1.00  0.00     0.134 A 
ATOM     81  F   UNL A   1      38.756  31.491  34.176  1.00  0.00    -0.206 F 
ATOM     82  C   UNL A   1      37.999  32.790  35.975  1.00  0.00     0.040 A 
ATOM     83  C   UNL A   1      39.277  34.690  36.693  1.00  0.00     0.040 A 
ATOM     84  F   UNL A   1      41.325  35.213  35.664  1.00  0.00    -0.206 F 
ATOM     85  C   UNL A   1      38.197  33.827  36.877  1.00  0.00     0.006 A 
ENDBRANCH  57  78
BRANCH  69  86
ATOM     86  C   UNL A   1      42.957  26.644  34.211  1.00  0.00     0.057 A 
ATOM     87  C   UNL A   1      41.884  25.928  34.751  1.00  0.00     0.134 A 
ATOM     88  C   UNL A   1      44.222  26.027  34.348  1.00  0.00     0.134 A 
ATOM     89  F   UNL A   1      40.645  26.439  34.759  1.00  0.00    -0.206 F 
ATOM     90  C   UNL A   1      42.049  24.662  35.332  1.00  0.00     0.040 A 
ATOM     91  C   UNL A   1      44.408  24.800  34.987  1.00  0.00     0.040 A 
ATOM     92  F   UNL A   1      45.339  26.562  33.837  1.00  0.00    -0.206 F 
ATOM     93  C   UNL A   1      43.315  24.101  35.464  1.00  0.00     0.006 A 
ENDBRANCH  69  86
ENDBRANCH  43  44
ENDBRANCH  35  38
ENDBRANCH  33  34
ENDBRANCH  32  33
ENDBRANCH  31  32
ENDBRANCH   3  31
TORSDOF 15
ENDMDL
