MODEL 1
REMARK VINA RESULT:     -12.1      0.000      0.000
REMARK SMILES Cc1ccc(Cl)c(Nc2ccccc2C(=O)NCCCNC(=O)c2ccc(-c3c4nc(c(-c5c(F)cccc5F)c5ccc([nH]5)c(-c5c(F)cccc5F)c5nc(c(-c6c(F)cccc6F)c6ccc3[nH]6)C=C5)C=C4)cc2)c1Cl
REMARK SMILES IDX 19 1 18 2 17 3 15 4 16 5 14 7 9 8 10 9 11 10 13 11 12 12
REMARK SMILES IDX 8 13 7 15 1 16 2 17 3 18 78 19 4 20 79 21 5 22 6 23 20 24
REMARK SMILES IDX 21 25 22 26 23 28 24 29 25 30 77 31 26 32 76 33 27 34 28 35
REMARK SMILES IDX 29 36 70 37 30 38 75 39 69 40 71 41 31 42 74 43 68 44 67 45
REMARK SMILES IDX 32 47 58 48 41 49 57 50 42 51 45 52 56 53 72 54 43 55 44 56
REMARK SMILES IDX 55 58 73 59 46 60 33 61 34 62 39 63 35 64 36 65 38 66 40 67
REMARK SMILES IDX 37 68 59 69 60 70 65 71 61 72 62 73 64 74 66 75 63 76 47 77
REMARK SMILES IDX 48 78 53 79 49 80 50 81 52 82 54 83 51 84
REMARK H PARENT 17 6 8 14 21 27 71 46 45 57
REMARK Flexibility Score: inf
ROOT
ATOM      1  C   UNL A   1      31.456  29.105  26.329  1.00  0.00     0.042 C 
ENDROOT
BRANCH   1   2
ATOM      2  C   UNL A   1      32.078  27.801  26.773  1.00  0.00     0.118 C 
BRANCH   2   3
ATOM      3  N   UNL A   1      31.217  26.648  26.796  1.00  0.00    -0.352 N 
ATOM      4  C   UNL A   1      31.495  25.366  26.378  1.00  0.00     0.253 C 
ATOM      5  O   UNL A   1      30.693  24.490  26.709  1.00  0.00    -0.269 OA
ATOM      6  H   UNL A   1      30.314  26.795  27.156  1.00  0.00     0.163 HD
BRANCH   4   7
ATOM      7  C   UNL A   1      32.604  25.023  25.430  1.00  0.00     0.063 A 
ATOM      8  C   UNL A   1      32.639  25.115  24.021  1.00  0.00     0.051 A 
ATOM      9  C   UNL A   1      33.777  24.595  23.356  1.00  0.00     0.027 A 
ATOM     10  C   UNL A   1      34.874  24.076  24.041  1.00  0.00     0.002 A 
ATOM     11  C   UNL A   1      33.743  24.519  26.108  1.00  0.00     0.016 A 
ATOM     12  C   UNL A   1      34.869  24.061  25.425  1.00  0.00     0.001 A 
BRANCH   8  13
ATOM     13  N   UNL A   1      31.718  25.756  23.163  1.00  0.00    -0.352 N 
ATOM     14  H   UNL A   1      31.403  25.167  22.440  1.00  0.00     0.167 HD
BRANCH  13  15
ATOM     15  C   UNL A   1      31.142  27.049  23.099  1.00  0.00     0.077 A 
ATOM     16  C   UNL A   1      27.763  28.865  23.001  1.00  0.00     0.046 C 
ATOM     17  C   UNL A   1      29.239  28.587  22.918  1.00  0.00    -0.030 A 
ATOM     18  C   UNL A   1      30.096  29.598  22.457  1.00  0.00     0.006 A 
ATOM     19  C   UNL A   1      29.772  27.329  23.275  1.00  0.00     0.069 A 
ATOM     20  C   UNL A   1      31.466  29.377  22.376  1.00  0.00     0.023 A 
ATOM     21  Cl  UNL A   1      28.729  26.182  24.063  1.00  0.00    -0.082 Cl
ATOM     22  C   UNL A   1      31.981  28.124  22.700  1.00  0.00     0.066 A 
ATOM     23  Cl  UNL A   1      33.687  27.879  22.478  1.00  0.00    -0.082 Cl
ENDBRANCH  13  15
ENDBRANCH   8  13
ENDBRANCH   4   7
ENDBRANCH   2   3
ENDBRANCH   1   2
BRANCH   1  24
ATOM     24  C   UNL A   1      32.451  30.173  25.889  1.00  0.00     0.118 C 
BRANCH  24  25
ATOM     25  N   UNL A   1      32.172  31.525  26.378  1.00  0.00    -0.352 N 
ATOM     26  C   UNL A   1      32.860  32.376  27.218  1.00  0.00     0.251 C 
ATOM     27  H   UNL A   1      31.326  31.901  26.040  1.00  0.00     0.163 HD
ATOM     28  O   UNL A   1      32.354  33.441  27.548  1.00  0.00    -0.269 OA
BRANCH  26  29
ATOM     29  C   UNL A   1      34.187  32.000  27.757  1.00  0.00     0.039 A 
ATOM     30  C   UNL A   1      35.163  32.985  27.941  1.00  0.00     0.014 A 
ATOM     31  C   UNL A   1      34.474  30.681  28.087  1.00  0.00     0.014 A 
ATOM     32  C   UNL A   1      36.373  32.660  28.566  1.00  0.00     0.010 A 
ATOM     33  C   UNL A   1      35.602  30.388  28.838  1.00  0.00     0.010 A 
ATOM     34  C   UNL A   1      36.575  31.369  29.076  1.00  0.00    -0.014 A 
BRANCH  34  35
ATOM     35  C   UNL A   1      37.792  30.985  29.837  1.00  0.00     0.031 A 
ATOM     36  C   UNL A   1      38.796  30.053  29.211  1.00  0.00     0.074 A 
ATOM     37  C   UNL A   1      37.930  31.359  31.124  1.00  0.00     0.049 A 
ATOM     38  N   UNL A   1      39.814  29.438  29.756  1.00  0.00    -0.248 NA
ATOM     39  C   UNL A   1      38.583  29.717  27.793  1.00  0.00     0.031 C 
ATOM     40  C   UNL A   1      36.990  32.197  31.872  1.00  0.00     0.029 A 
ATOM     41  N   UNL A   1      38.906  31.059  32.040  1.00  0.00    -0.354 N 
ATOM     42  C   UNL A   1      40.330  28.615  28.762  1.00  0.00     0.074 A 
ATOM     43  C   UNL A   1      39.467  28.750  27.610  1.00  0.00     0.031 C 
ATOM     44  C   UNL A   1      37.446  32.359  33.124  1.00  0.00     0.029 A 
ATOM     45  C   UNL A   1      38.684  31.604  33.281  1.00  0.00     0.049 A 
ATOM     46  H   UNL A   1      39.692  30.504  31.829  1.00  0.00     0.167 HD
ATOM     47  C   UNL A   1      41.441  27.842  28.792  1.00  0.00     0.037 A 
ATOM     48  C   UNL A   1      39.393  31.498  34.420  1.00  0.00     0.037 A 
ATOM     49  C   UNL A   1      42.323  27.755  29.924  1.00  0.00     0.049 A 
ATOM     50  C   UNL A   1      40.654  30.680  34.422  1.00  0.00     0.074 A 
ATOM     51  C   UNL A   1      43.520  27.071  30.039  1.00  0.00     0.029 A 
ATOM     52  N   UNL A   1      42.102  28.386  31.140  1.00  0.00    -0.354 N 
ATOM     53  N   UNL A   1      41.170  29.960  33.455  1.00  0.00    -0.248 NA
ATOM     54  C   UNL A   1      41.436  30.669  35.665  1.00  0.00     0.031 C 
ATOM     55  C   UNL A   1      44.005  27.259  31.337  1.00  0.00     0.029 A 
ATOM     56  C   UNL A   1      43.135  28.098  32.017  1.00  0.00     0.049 A 
ATOM     57  H   UNL A   1      41.327  28.955  31.350  1.00  0.00     0.167 HD
ATOM     58  C   UNL A   1      42.346  29.425  33.963  1.00  0.00     0.074 A 
ATOM     59  C   UNL A   1      42.474  29.918  35.321  1.00  0.00     0.031 C 
ATOM     60  C   UNL A   1      43.241  28.601  33.363  1.00  0.00     0.037 A 
BRANCH  47  61
ATOM     61  C   UNL A   1      41.756  27.047  27.555  1.00  0.00     0.057 A 
ATOM     62  C   UNL A   1      41.341  25.716  27.402  1.00  0.00     0.134 A 
ATOM     63  C   UNL A   1      42.504  27.610  26.514  1.00  0.00     0.134 A 
ATOM     64  F   UNL A   1      40.633  25.109  28.367  1.00  0.00    -0.206 F 
ATOM     65  C   UNL A   1      41.701  24.961  26.284  1.00  0.00     0.040 A 
ATOM     66  C   UNL A   1      42.840  26.874  25.375  1.00  0.00     0.040 A 
ATOM     67  F   UNL A   1      42.929  28.880  26.586  1.00  0.00    -0.206 F 
ATOM     68  C   UNL A   1      42.450  25.541  25.265  1.00  0.00     0.006 A 
ENDBRANCH  47  61
BRANCH  48  69
ATOM     69  C   UNL A   1      38.943  32.221  35.636  1.00  0.00     0.057 A 
ATOM     70  C   UNL A   1      38.204  31.567  36.630  1.00  0.00     0.134 A 
ATOM     71  C   UNL A   1      39.270  33.564  35.854  1.00  0.00     0.134 A 
ATOM     72  F   UNL A   1      37.848  30.285  36.471  1.00  0.00    -0.206 F 
ATOM     73  C   UNL A   1      37.800  32.225  37.792  1.00  0.00     0.040 A 
ATOM     74  C   UNL A   1      38.891  34.228  37.022  1.00  0.00     0.040 A 
ATOM     75  F   UNL A   1      39.987  34.243  34.947  1.00  0.00    -0.206 F 
ATOM     76  C   UNL A   1      38.151  33.559  37.994  1.00  0.00     0.006 A 
ENDBRANCH  48  69
BRANCH  60  77
ATOM     77  C   UNL A   1      44.447  28.204  34.162  1.00  0.00     0.057 A 
ATOM     78  C   UNL A   1      44.472  27.035  34.932  1.00  0.00     0.134 A 
ATOM     79  C   UNL A   1      45.613  28.979  34.120  1.00  0.00     0.134 A 
ATOM     80  F   UNL A   1      43.383  26.257  35.022  1.00  0.00    -0.206 F 
ATOM     81  C   UNL A   1      45.608  26.662  35.651  1.00  0.00     0.040 A 
ATOM     82  C   UNL A   1      46.764  28.602  34.813  1.00  0.00     0.040 A 
ATOM     83  F   UNL A   1      45.657  30.106  33.393  1.00  0.00    -0.206 F 
ATOM     84  C   UNL A   1      46.761  27.442  35.586  1.00  0.00     0.006 A 
ENDBRANCH  60  77
ENDBRANCH  34  35
ENDBRANCH  26  29
ENDBRANCH  24  25
ENDBRANCH   1  24
TORSDOF 12
ENDMDL
MODEL 2
REMARK VINA RESULT:     -12.0      3.408      7.051
REMARK SMILES Cc1ccc(Cl)c(Nc2ccccc2C(=O)NCCCNC(=O)c2ccc(-c3c4nc(c(-c5c(F)cccc5F)c5ccc([nH]5)c(-c5c(F)cccc5F)c5nc(c(-c6c(F)cccc6F)c6ccc3[nH]6)C=C5)C=C4)cc2)c1Cl
REMARK SMILES IDX 19 1 18 2 17 3 15 4 16 5 14 7 9 8 10 9 11 10 13 11 12 12
REMARK SMILES IDX 8 13 7 15 1 16 2 17 3 18 78 19 4 20 79 21 5 22 6 23 20 24
REMARK SMILES IDX 21 25 22 26 23 28 24 29 25 30 77 31 26 32 76 33 27 34 28 35
REMARK SMILES IDX 29 36 70 37 30 38 75 39 69 40 71 41 31 42 74 43 68 44 67 45
REMARK SMILES IDX 32 47 58 48 41 49 57 50 42 51 45 52 56 53 72 54 43 55 44 56
REMARK SMILES IDX 55 58 73 59 46 60 33 61 34 62 39 63 35 64 36 65 38 66 40 67
REMARK SMILES IDX 37 68 59 69 60 70 65 71 61 72 62 73 64 74 66 75 63 76 47 77
REMARK SMILES IDX 48 78 53 79 49 80 50 81 52 82 54 83 51 84
REMARK H PARENT 17 6 8 14 21 27 71 46 45 57
REMARK Flexibility Score: inf
ROOT
ATOM      1  C   UNL A   1      32.274  27.942  27.148  1.00  0.00     0.042 C 
ENDROOT
BRANCH   1   2
ATOM      2  C   UNL A   1      32.204  26.573  26.513  1.00  0.00     0.118 C 
BRANCH   2   3
ATOM      3  N   UNL A   1      31.018  25.800  26.769  1.00  0.00    -0.352 N 
ATOM      4  C   UNL A   1      30.766  24.487  26.438  1.00  0.00     0.253 C 
ATOM      5  O   UNL A   1      29.780  23.963  26.962  1.00  0.00    -0.269 OA
ATOM      6  H   UNL A   1      30.294  26.269  27.241  1.00  0.00     0.163 HD
BRANCH   4   7
ATOM      7  C   UNL A   1      31.514  23.740  25.376  1.00  0.00     0.063 A 
ATOM      8  C   UNL A   1      31.476  23.900  23.973  1.00  0.00     0.051 A 
ATOM      9  C   UNL A   1      32.190  22.964  23.184  1.00  0.00     0.027 A 
ATOM     10  C   UNL A   1      32.975  21.956  23.744  1.00  0.00     0.002 A 
ATOM     11  C   UNL A   1      32.342  22.728  25.924  1.00  0.00     0.016 A 
ATOM     12  C   UNL A   1      33.073  21.853  25.121  1.00  0.00     0.001 A 
BRANCH   8  13
ATOM     13  N   UNL A   1      30.889  24.945  23.226  1.00  0.00    -0.352 N 
ATOM     14  H   UNL A   1      30.198  24.623  22.604  1.00  0.00     0.167 HD
BRANCH  13  15
ATOM     15  C   UNL A   1      31.065  26.350  23.162  1.00  0.00     0.077 A 
ATOM     16  C   UNL A   1      33.769  29.061  22.895  1.00  0.00     0.046 C 
ATOM     17  C   UNL A   1      32.444  28.379  23.104  1.00  0.00    -0.030 A 
ATOM     18  C   UNL A   1      31.354  29.136  23.559  1.00  0.00     0.006 A 
ATOM     19  C   UNL A   1      32.283  26.995  22.869  1.00  0.00     0.069 A 
ATOM     20  C   UNL A   1      30.114  28.540  23.753  1.00  0.00     0.023 A 
ATOM     21  Cl  UNL A   1      33.574  26.134  22.085  1.00  0.00    -0.082 Cl
ATOM     22  C   UNL A   1      29.970  27.169  23.550  1.00  0.00     0.066 A 
ATOM     23  Cl  UNL A   1      28.424  26.464  23.911  1.00  0.00    -0.082 Cl
ENDBRANCH  13  15
ENDBRANCH   8  13
ENDBRANCH   4   7
ENDBRANCH   2   3
ENDBRANCH   1   2
BRANCH   1  24
ATOM     24  C   UNL A   1      33.590  28.681  26.937  1.00  0.00     0.118 C 
BRANCH  24  25
ATOM     25  N   UNL A   1      33.671  30.004  27.563  1.00  0.00    -0.352 N 
ATOM     26  C   UNL A   1      34.680  30.657  28.238  1.00  0.00     0.251 C 
ATOM     27  H   UNL A   1      32.841  30.528  27.487  1.00  0.00     0.163 HD
ATOM     28  O   UNL A   1      34.458  31.745  28.755  1.00  0.00    -0.269 OA
BRANCH  26  29
ATOM     29  C   UNL A   1      36.020  30.043  28.379  1.00  0.00     0.039 A 
ATOM     30  C   UNL A   1      36.936  30.132  27.324  1.00  0.00     0.014 A 
ATOM     31  C   UNL A   1      36.383  29.384  29.547  1.00  0.00     0.014 A 
ATOM     32  C   UNL A   1      38.245  29.665  27.496  1.00  0.00     0.010 A 
ATOM     33  C   UNL A   1      37.712  29.060  29.772  1.00  0.00     0.010 A 
ATOM     34  C   UNL A   1      38.659  29.182  28.746  1.00  0.00    -0.014 A 
BRANCH  34  35
ATOM     35  C   UNL A   1      40.058  28.766  29.025  1.00  0.00     0.031 A 
ATOM     36  C   UNL A   1      41.022  29.758  29.621  1.00  0.00     0.074 A 
ATOM     37  C   UNL A   1      40.496  27.557  28.624  1.00  0.00     0.049 A 
ATOM     38  N   UNL A   1      42.320  29.675  29.764  1.00  0.00    -0.248 NA
ATOM     39  C   UNL A   1      40.454  31.045  30.056  1.00  0.00     0.031 C 
ATOM     40  C   UNL A   1      39.683  26.533  27.965  1.00  0.00     0.029 A 
ATOM     41  N   UNL A   1      41.746  26.994  28.691  1.00  0.00    -0.354 N 
ATOM     42  C   UNL A   1      42.722  30.909  30.260  1.00  0.00     0.074 A 
ATOM     43  C   UNL A   1      41.544  31.746  30.319  1.00  0.00     0.031 C 
ATOM     44  C   UNL A   1      40.449  25.461  27.706  1.00  0.00     0.029 A 
ATOM     45  C   UNL A   1      41.815  25.737  28.141  1.00  0.00     0.049 A 
ATOM     46  H   UNL A   1      42.521  27.448  29.094  1.00  0.00     0.167 HD
ATOM     47  C   UNL A   1      43.954  31.302  30.663  1.00  0.00     0.037 A 
ATOM     48  C   UNL A   1      42.862  24.905  27.995  1.00  0.00     0.037 A 
ATOM     49  C   UNL A   1      45.109  30.446  30.652  1.00  0.00     0.049 A 
ATOM     50  C   UNL A   1      44.212  25.335  28.497  1.00  0.00     0.074 A 
ATOM     51  C   UNL A   1      46.385  30.709  31.113  1.00  0.00     0.029 A 
ATOM     52  N   UNL A   1      45.119  29.150  30.156  1.00  0.00    -0.354 N 
ATOM     53  N   UNL A   1      44.567  26.480  29.028  1.00  0.00    -0.248 NA
ATOM     54  C   UNL A   1      45.301  24.356  28.392  1.00  0.00     0.031 C 
ATOM     55  C   UNL A   1      47.178  29.583  30.864  1.00  0.00     0.029 A 
ATOM     56  C   UNL A   1      46.384  28.602  30.289  1.00  0.00     0.049 A 
ATOM     57  H   UNL A   1      44.342  28.687  29.767  1.00  0.00     0.167 HD
ATOM     58  C   UNL A   1      45.914  26.356  29.339  1.00  0.00     0.074 A 
ATOM     59  C   UNL A   1      46.308  25.015  28.951  1.00  0.00     0.031 C 
ATOM     60  C   UNL A   1      46.751  27.266  29.896  1.00  0.00     0.037 A 
BRANCH  47  61
ATOM     61  C   UNL A   1      44.094  32.715  31.159  1.00  0.00     0.057 A 
ATOM     62  C   UNL A   1      43.893  33.053  32.505  1.00  0.00     0.134 A 
ATOM     63  C   UNL A   1      44.411  33.755  30.276  1.00  0.00     0.134 A 
ATOM     64  F   UNL A   1      43.572  32.108  33.403  1.00  0.00    -0.206 F 
ATOM     65  C   UNL A   1      43.950  34.377  32.944  1.00  0.00     0.040 A 
ATOM     66  C   UNL A   1      44.505  35.079  30.712  1.00  0.00     0.040 A 
ATOM     67  F   UNL A   1      44.624  33.507  28.976  1.00  0.00    -0.206 F 
ATOM     68  C   UNL A   1      44.260  35.395  32.047  1.00  0.00     0.006 A 
ENDBRANCH  47  61
BRANCH  48  69
ATOM     69  C   UNL A   1      42.659  23.569  27.381  1.00  0.00     0.057 A 
ATOM     70  C   UNL A   1      42.864  23.368  26.010  1.00  0.00     0.134 A 
ATOM     71  C   UNL A   1      42.295  22.456  28.148  1.00  0.00     0.134 A 
ATOM     72  F   UNL A   1      43.199  24.398  25.220  1.00  0.00    -0.206 F 
ATOM     73  C   UNL A   1      42.706  22.111  25.424  1.00  0.00     0.040 A 
ATOM     74  C   UNL A   1      42.156  21.190  27.579  1.00  0.00     0.040 A 
ATOM     75  F   UNL A   1      42.097  22.580  29.469  1.00  0.00    -0.206 F 
ATOM     76  C   UNL A   1      42.359  21.015  26.212  1.00  0.00     0.006 A 
ENDBRANCH  48  69
BRANCH  60  77
ATOM     77  C   UNL A   1      48.166  26.832  30.141  1.00  0.00     0.057 A 
ATOM     78  C   UNL A   1      48.536  26.136  31.299  1.00  0.00     0.134 A 
ATOM     79  C   UNL A   1      49.160  27.076  29.185  1.00  0.00     0.134 A 
ATOM     80  F   UNL A   1      47.631  25.882  32.257  1.00  0.00    -0.206 F 
ATOM     81  C   UNL A   1      49.849  25.714  31.506  1.00  0.00     0.040 A 
ATOM     82  C   UNL A   1      50.472  26.636  29.370  1.00  0.00     0.040 A 
ATOM     83  F   UNL A   1      48.870  27.730  28.050  1.00  0.00    -0.206 F 
ATOM     84  C   UNL A   1      50.820  25.958  30.536  1.00  0.00     0.006 A 
ENDBRANCH  60  77
ENDBRANCH  34  35
ENDBRANCH  26  29
ENDBRANCH  24  25
ENDBRANCH   1  24
TORSDOF 12
ENDMDL
MODEL 3
REMARK VINA RESULT:     -11.9      3.736      7.687
REMARK SMILES Cc1ccc(Cl)c(Nc2ccccc2C(=O)NCCCNC(=O)c2ccc(-c3c4nc(c(-c5c(F)cccc5F)c5ccc([nH]5)c(-c5c(F)cccc5F)c5nc(c(-c6c(F)cccc6F)c6ccc3[nH]6)C=C5)C=C4)cc2)c1Cl
REMARK SMILES IDX 19 1 18 2 17 3 15 4 16 5 14 7 9 8 10 9 11 10 13 11 12 12
REMARK SMILES IDX 8 13 7 15 1 16 2 17 3 18 78 19 4 20 79 21 5 22 6 23 20 24
REMARK SMILES IDX 21 25 22 26 23 28 24 29 25 30 77 31 26 32 76 33 27 34 28 35
REMARK SMILES IDX 29 36 70 37 30 38 75 39 69 40 71 41 31 42 74 43 68 44 67 45
REMARK SMILES IDX 32 47 58 48 41 49 57 50 42 51 45 52 56 53 72 54 43 55 44 56
REMARK SMILES IDX 55 58 73 59 46 60 33 61 34 62 39 63 35 64 36 65 38 66 40 67
REMARK SMILES IDX 37 68 59 69 60 70 65 71 61 72 62 73 64 74 66 75 63 76 47 77
REMARK SMILES IDX 48 78 53 79 49 80 50 81 52 82 54 83 51 84
REMARK H PARENT 17 6 8 14 21 27 71 46 45 57
REMARK Flexibility Score: inf
ROOT
ATOM      1  C   UNL A   1      32.249  28.197  27.580  1.00  0.00     0.042 C 
ENDROOT
BRANCH   1   2
ATOM      2  C   UNL A   1      31.484  27.731  26.363  1.00  0.00     0.118 C 
BRANCH   2   3
ATOM      3  N   UNL A   1      30.707  26.528  26.508  1.00  0.00    -0.352 N 
ATOM      4  C   UNL A   1      30.916  25.301  25.920  1.00  0.00     0.253 C 
ATOM      5  O   UNL A   1      30.266  24.354  26.369  1.00  0.00    -0.269 OA
ATOM      6  H   UNL A   1      29.926  26.592  27.102  1.00  0.00     0.163 HD
BRANCH   4   7
ATOM      7  C   UNL A   1      31.747  25.099  24.690  1.00  0.00     0.063 A 
ATOM      8  C   UNL A   1      33.039  24.542  24.562  1.00  0.00     0.051 A 
ATOM      9  C   UNL A   1      33.654  24.592  23.287  1.00  0.00     0.027 A 
ATOM     10  C   UNL A   1      33.005  25.094  22.160  1.00  0.00     0.002 A 
ATOM     11  C   UNL A   1      31.094  25.576  23.526  1.00  0.00     0.016 A 
ATOM     12  C   UNL A   1      31.708  25.565  22.274  1.00  0.00     0.001 A 
BRANCH   8  13
ATOM     13  N   UNL A   1      33.789  23.838  25.531  1.00  0.00    -0.352 N 
ATOM     14  H   UNL A   1      33.754  24.263  26.418  1.00  0.00     0.167 HD
BRANCH  13  15
ATOM     15  C   UNL A   1      34.581  22.663  25.523  1.00  0.00     0.077 A 
ATOM     16  C   UNL A   1      38.217  21.456  25.293  1.00  0.00     0.046 C 
ATOM     17  C   UNL A   1      36.712  21.467  25.309  1.00  0.00    -0.030 A 
ATOM     18  C   UNL A   1      36.022  20.286  25.000  1.00  0.00     0.006 A 
ATOM     19  C   UNL A   1      35.987  22.642  25.608  1.00  0.00     0.069 A 
ATOM     20  C   UNL A   1      34.632  20.258  25.015  1.00  0.00     0.023 A 
ATOM     21  Cl  UNL A   1      36.859  24.019  26.215  1.00  0.00    -0.082 Cl
ATOM     22  C   UNL A   1      33.923  21.428  25.280  1.00  0.00     0.066 A 
ATOM     23  Cl  UNL A   1      32.190  21.354  25.179  1.00  0.00    -0.082 Cl
ENDBRANCH  13  15
ENDBRANCH   8  13
ENDBRANCH   4   7
ENDBRANCH   2   3
ENDBRANCH   1   2
BRANCH   1  24
ATOM     24  C   UNL A   1      33.573  28.890  27.279  1.00  0.00     0.118 C 
BRANCH  24  25
ATOM     25  N   UNL A   1      33.732  30.218  27.877  1.00  0.00    -0.352 N 
ATOM     26  C   UNL A   1      34.797  30.844  28.491  1.00  0.00     0.251 C 
ATOM     27  H   UNL A   1      32.920  30.772  27.832  1.00  0.00     0.163 HD
ATOM     28  O   UNL A   1      34.640  31.947  28.998  1.00  0.00    -0.269 OA
BRANCH  26  29
ATOM     29  C   UNL A   1      36.119  30.182  28.578  1.00  0.00     0.039 A 
ATOM     30  C   UNL A   1      36.984  30.217  27.479  1.00  0.00     0.014 A 
ATOM     31  C   UNL A   1      36.514  29.531  29.740  1.00  0.00     0.014 A 
ATOM     32  C   UNL A   1      38.282  29.705  27.596  1.00  0.00     0.010 A 
ATOM     33  C   UNL A   1      37.840  29.160  29.907  1.00  0.00     0.010 A 
ATOM     34  C   UNL A   1      38.739  29.228  28.833  1.00  0.00    -0.014 A 
BRANCH  34  35
ATOM     35  C   UNL A   1      40.134  28.764  29.052  1.00  0.00     0.031 A 
ATOM     36  C   UNL A   1      41.158  29.725  29.597  1.00  0.00     0.074 A 
ATOM     37  C   UNL A   1      40.510  27.538  28.641  1.00  0.00     0.049 A 
ATOM     38  N   UNL A   1      42.457  29.597  29.681  1.00  0.00    -0.248 NA
ATOM     39  C   UNL A   1      40.655  31.034  30.047  1.00  0.00     0.031 C 
ATOM     40  C   UNL A   1      39.633  26.540  28.027  1.00  0.00     0.029 A 
ATOM     41  N   UNL A   1      41.742  26.932  28.656  1.00  0.00    -0.354 N 
ATOM     42  C   UNL A   1      42.924  30.819  30.150  1.00  0.00     0.074 A 
ATOM     43  C   UNL A   1      41.781  31.698  30.255  1.00  0.00     0.031 C 
ATOM     44  C   UNL A   1      40.348  25.440  27.742  1.00  0.00     0.029 A 
ATOM     45  C   UNL A   1      41.741  25.670  28.113  1.00  0.00     0.049 A 
ATOM     46  H   UNL A   1      42.549  27.361  29.020  1.00  0.00     0.167 HD
ATOM     47  C   UNL A   1      44.186  31.171  30.494  1.00  0.00     0.037 A 
ATOM     48  C   UNL A   1      42.751  24.801  27.925  1.00  0.00     0.037 A 
ATOM     49  C   UNL A   1      45.308  30.274  30.437  1.00  0.00     0.049 A 
ATOM     50  C   UNL A   1      44.136  25.186  28.363  1.00  0.00     0.074 A 
ATOM     51  C   UNL A   1      46.613  30.494  30.838  1.00  0.00     0.029 A 
ATOM     52  N   UNL A   1      45.251  28.975  29.951  1.00  0.00    -0.354 N 
ATOM     53  N   UNL A   1      44.555  26.320  28.869  1.00  0.00    -0.248 NA
ATOM     54  C   UNL A   1      45.185  24.168  28.216  1.00  0.00     0.031 C 
ATOM     55  C   UNL A   1      47.354  29.340  30.562  1.00  0.00     0.029 A 
ATOM     56  C   UNL A   1      46.501  28.384  30.031  1.00  0.00     0.049 A 
ATOM     57  H   UNL A   1      44.441  28.538  29.601  1.00  0.00     0.167 HD
ATOM     58  C   UNL A   1      45.910  26.150  29.120  1.00  0.00     0.074 A 
ATOM     59  C   UNL A   1      46.238  24.794  28.724  1.00  0.00     0.031 C 
ATOM     60  C   UNL A   1      46.803  27.033  29.631  1.00  0.00     0.037 A 
BRANCH  47  61
ATOM     61  C   UNL A   1      44.398  32.581  30.972  1.00  0.00     0.057 A 
ATOM     62  C   UNL A   1      44.266  32.934  32.323  1.00  0.00     0.134 A 
ATOM     63  C   UNL A   1      44.715  33.603  30.069  1.00  0.00     0.134 A 
ATOM     64  F   UNL A   1      43.950  32.007  33.241  1.00  0.00    -0.206 F 
ATOM     65  C   UNL A   1      44.390  34.258  32.749  1.00  0.00     0.040 A 
ATOM     66  C   UNL A   1      44.876  34.925  30.490  1.00  0.00     0.040 A 
ATOM     67  F   UNL A   1      44.865  33.338  28.763  1.00  0.00    -0.206 F 
ATOM     68  C   UNL A   1      44.699  35.258  31.831  1.00  0.00     0.006 A 
ENDBRANCH  47  61
BRANCH  48  69
ATOM     69  C   UNL A   1      42.473  23.469  27.331  1.00  0.00     0.057 A 
ATOM     70  C   UNL A   1      42.040  22.402  28.128  1.00  0.00     0.134 A 
ATOM     71  C   UNL A   1      42.591  23.240  25.955  1.00  0.00     0.134 A 
ATOM     72  F   UNL A   1      41.921  22.556  29.454  1.00  0.00    -0.206 F 
ATOM     73  C   UNL A   1      41.745  21.153  27.580  1.00  0.00     0.040 A 
ATOM     74  C   UNL A   1      42.277  22.003  25.391  1.00  0.00     0.040 A 
ATOM     75  F   UNL A   1      42.988  24.225  25.137  1.00  0.00    -0.206 F 
ATOM     76  C   UNL A   1      41.855  20.953  26.205  1.00  0.00     0.006 A 
ENDBRANCH  48  69
BRANCH  60  77
ATOM     77  C   UNL A   1      48.211  26.551  29.816  1.00  0.00     0.057 A 
ATOM     78  C   UNL A   1      49.190  26.735  28.832  1.00  0.00     0.134 A 
ATOM     79  C   UNL A   1      48.601  25.938  31.014  1.00  0.00     0.134 A 
ATOM     80  F   UNL A   1      48.877  27.307  27.659  1.00  0.00    -0.206 F 
ATOM     81  C   UNL A   1      50.504  26.307  29.024  1.00  0.00     0.040 A 
ATOM     82  C   UNL A   1      49.918  25.528  31.227  1.00  0.00     0.040 A 
ATOM     83  F   UNL A   1      47.712  25.740  31.999  1.00  0.00    -0.206 F 
ATOM     84  C   UNL A   1      50.872  25.708  30.228  1.00  0.00     0.006 A 
ENDBRANCH  60  77
ENDBRANCH  34  35
ENDBRANCH  26  29
ENDBRANCH  24  25
ENDBRANCH   1  24
TORSDOF 12
ENDMDL
