MODEL 1
REMARK VINA RESULT:     -12.4      0.000      0.000
REMARK SMILES CC1(C)CCN(C(=O)N[C@H]2COC[C@@]2(C)C(=O)NCCCNC(=O)c2ccc(-c3c4nc(c(-c5c(F)cccc5F)c5ccc([nH]5)c(-c5c(F)cccc5F)c5nc(c(-c6c(F)cccc6F)c6ccc3[nH]6)C=C5)C=C4)cc2)C1
REMARK SMILES IDX 20 1 19 2 18 3 16 4 17 5 14 7 10 8 11 9 12 10 13 11 15 12
REMARK SMILES IDX 9 13 7 14 8 15 6 17 1 18 2 19 3 20 4 21 79 22 5 23 21 24
REMARK SMILES IDX 22 25 23 26 24 28 25 29 26 30 78 31 27 32 77 33 28 34 29 35
REMARK SMILES IDX 30 36 71 37 31 38 76 39 70 40 72 41 32 42 75 43 69 44 68 45
REMARK SMILES IDX 33 47 59 48 42 49 58 50 43 51 46 52 57 53 73 54 44 55 45 56
REMARK SMILES IDX 56 58 74 59 47 60 34 61 35 62 40 63 36 64 37 65 39 66 41 67
REMARK SMILES IDX 38 68 60 69 61 70 66 71 62 72 63 73 65 74 67 75 64 76 48 77
REMARK SMILES IDX 49 78 54 79 50 80 51 81 53 82 55 83 52 84
REMARK H PARENT 18 6 9 16 22 27 72 46 46 57
REMARK Flexibility Score: inf
ROOT
ATOM      1  C   UNL A   1      31.560  31.966  26.522  1.00  0.00     0.042 C 
ENDROOT
BRANCH   1   2
ATOM      2  C   UNL A   1      31.775  30.478  26.331  1.00  0.00     0.117 C 
BRANCH   2   3
ATOM      3  N   UNL A   1      32.833  30.142  25.393  1.00  0.00    -0.355 N 
ATOM      4  C   UNL A   1      33.322  28.932  24.987  1.00  0.00     0.230 C 
ATOM      5  O   UNL A   1      34.169  28.942  24.090  1.00  0.00    -0.274 OA
ATOM      6  H   UNL A   1      33.273  30.920  24.980  1.00  0.00     0.163 HD
BRANCH   4   7
ATOM      7  C   UNL A   1      32.945  27.648  25.711  1.00  0.00     0.092 C 
ATOM      8  C   UNL A   1      31.639  26.965  25.289  1.00  0.00     0.127 C 
ATOM      9  C   UNL A   1      31.822  25.578  25.868  1.00  0.00     0.186 C 
ATOM     10  O   UNL A   1      33.225  25.278  25.754  1.00  0.00    -0.378 OA
ATOM     11  C   UNL A   1      33.914  26.506  25.404  1.00  0.00     0.179 C 
ATOM     12  C   UNL A   1      33.020  27.946  27.228  1.00  0.00     0.026 C 
BRANCH   8  13
ATOM     13  N   UNL A   1      31.290  27.150  23.857  1.00  0.00    -0.332 N 
ATOM     14  C   UNL A   1      30.426  27.645  22.966  1.00  0.00     0.317 C 
ATOM     15  O   UNL A   1      30.654  27.269  21.808  1.00  0.00    -0.249 OA
ATOM     16  H   UNL A   1      32.008  26.720  23.338  1.00  0.00     0.165 HD
BRANCH  14  17
ATOM     17  N   UNL A   1      29.427  28.513  23.210  1.00  0.00    -0.324 N 
ATOM     18  C   UNL A   1      28.229  30.445  21.225  1.00  0.00     0.013 C 
ATOM     19  C   UNL A   1      28.102  30.406  22.761  1.00  0.00    -0.016 C 
ATOM     20  C   UNL A   1      27.724  31.792  23.275  1.00  0.00     0.013 C 
ATOM     21  C   UNL A   1      27.163  29.289  23.223  1.00  0.00     0.030 C 
ATOM     22  C   UNL A   1      29.415  29.942  23.387  1.00  0.00     0.127 C 
ATOM     23  C   UNL A   1      28.043  28.035  23.163  1.00  0.00     0.122 C 
ENDBRANCH  14  17
ENDBRANCH   8  13
ENDBRANCH   4   7
ENDBRANCH   2   3
ENDBRANCH   1   2
BRANCH   1  24
ATOM     24  C   UNL A   1      32.683  32.670  27.261  1.00  0.00     0.118 C 
BRANCH  24  25
ATOM     25  N   UNL A   1      32.379  34.058  27.582  1.00  0.00    -0.352 N 
ATOM     26  C   UNL A   1      32.952  34.910  28.496  1.00  0.00     0.251 C 
ATOM     27  H   UNL A   1      31.642  34.449  27.060  1.00  0.00     0.163 HD
ATOM     28  O   UNL A   1      32.444  36.006  28.713  1.00  0.00    -0.269 OA
BRANCH  26  29
ATOM     29  C   UNL A   1      34.156  34.498  29.246  1.00  0.00     0.039 A 
ATOM     30  C   UNL A   1      34.010  33.966  30.531  1.00  0.00     0.014 A 
ATOM     31  C   UNL A   1      35.428  34.621  28.684  1.00  0.00     0.014 A 
ATOM     32  C   UNL A   1      35.127  33.473  31.209  1.00  0.00     0.010 A 
ATOM     33  C   UNL A   1      36.517  34.028  29.307  1.00  0.00     0.010 A 
ATOM     34  C   UNL A   1      36.382  33.453  30.580  1.00  0.00    -0.014 A 
BRANCH  34  35
ATOM     35  C   UNL A   1      37.578  32.858  31.227  1.00  0.00     0.031 A 
ATOM     36  C   UNL A   1      38.249  31.666  30.599  1.00  0.00     0.074 A 
ATOM     37  C   UNL A   1      38.001  33.321  32.420  1.00  0.00     0.049 A 
ATOM     38  N   UNL A   1      39.202  30.907  31.074  1.00  0.00    -0.248 NA
ATOM     39  C   UNL A   1      37.749  31.246  29.279  1.00  0.00     0.031 C 
ATOM     40  C   UNL A   1      37.408  34.439  33.156  1.00  0.00     0.029 A 
ATOM     41  N   UNL A   1      39.020  32.893  33.233  1.00  0.00    -0.354 N 
ATOM     42  C   UNL A   1      39.392  29.907  30.128  1.00  0.00     0.074 A 
ATOM     43  C   UNL A   1      38.419  30.122  29.080  1.00  0.00     0.031 C 
ATOM     44  C   UNL A   1      38.087  34.622  34.300  1.00  0.00     0.029 A 
ATOM     45  C   UNL A   1      39.132  33.608  34.401  1.00  0.00     0.049 A 
ATOM     46  H   UNL A   1      39.616  32.144  33.001  1.00  0.00     0.167 HD
ATOM     47  C   UNL A   1      40.312  28.914  30.119  1.00  0.00     0.037 A 
ATOM     48  C   UNL A   1      39.975  33.457  35.440  1.00  0.00     0.037 A 
ATOM     49  C   UNL A   1      41.309  28.730  31.138  1.00  0.00     0.049 A 
ATOM     50  C   UNL A   1      40.996  32.353  35.402  1.00  0.00     0.074 A 
ATOM     51  C   UNL A   1      42.329  27.797  31.189  1.00  0.00     0.029 A 
ATOM     52  N   UNL A   1      41.413  29.502  32.286  1.00  0.00    -0.354 N 
ATOM     53  N   UNL A   1      41.200  31.449  34.474  1.00  0.00    -0.248 NA
ATOM     54  C   UNL A   1      41.903  32.249  36.553  1.00  0.00     0.031 C 
ATOM     55  C   UNL A   1      43.030  27.981  32.385  1.00  0.00     0.029 A 
ATOM     56  C   UNL A   1      42.473  29.056  33.058  1.00  0.00     0.049 A 
ATOM     57  H   UNL A   1      40.823  30.255  32.517  1.00  0.00     0.167 HD
ATOM     58  C   UNL A   1      42.279  30.692  34.913  1.00  0.00     0.074 A 
ATOM     59  C   UNL A   1      42.689  31.246  36.186  1.00  0.00     0.031 C 
ATOM     60  C   UNL A   1      42.877  29.633  34.314  1.00  0.00     0.037 A 
BRANCH  47  61
ATOM     61  C   UNL A   1      40.286  27.957  28.963  1.00  0.00     0.057 A 
ATOM     62  C   UNL A   1      41.008  28.199  27.786  1.00  0.00     0.134 A 
ATOM     63  C   UNL A   1      39.549  26.769  29.034  1.00  0.00     0.134 A 
ATOM     64  F   UNL A   1      41.723  29.326  27.647  1.00  0.00    -0.206 F 
ATOM     65  C   UNL A   1      40.974  27.309  26.712  1.00  0.00     0.040 A 
ATOM     66  C   UNL A   1      39.531  25.856  27.978  1.00  0.00     0.040 A 
ATOM     67  F   UNL A   1      38.839  26.471  30.133  1.00  0.00    -0.206 F 
ATOM     68  C   UNL A   1      40.239  26.128  26.809  1.00  0.00     0.006 A 
ENDBRANCH  47  61
BRANCH  48  69
ATOM     69  C   UNL A   1      39.907  34.385  36.596  1.00  0.00     0.057 A 
ATOM     70  C   UNL A   1      39.154  34.066  37.731  1.00  0.00     0.134 A 
ATOM     71  C   UNL A   1      40.584  35.611  36.596  1.00  0.00     0.134 A 
ATOM     72  F   UNL A   1      38.469  32.913  37.784  1.00  0.00    -0.206 F 
ATOM     73  C   UNL A   1      39.059  34.939  38.817  1.00  0.00     0.040 A 
ATOM     74  C   UNL A   1      40.518  36.482  37.684  1.00  0.00     0.040 A 
ATOM     75  F   UNL A   1      41.331  35.972  35.542  1.00  0.00    -0.206 F 
ATOM     76  C   UNL A   1      39.747  36.150  38.796  1.00  0.00     0.006 A 
ENDBRANCH  48  69
BRANCH  60  77
ATOM     77  C   UNL A   1      44.067  29.034  35.002  1.00  0.00     0.057 A 
ATOM     78  C   UNL A   1      43.942  27.975  35.910  1.00  0.00     0.134 A 
ATOM     79  C   UNL A   1      45.359  29.486  34.706  1.00  0.00     0.134 A 
ATOM     80  F   UNL A   1      42.730  27.506  36.243  1.00  0.00    -0.206 F 
ATOM     81  C   UNL A   1      45.060  27.397  36.511  1.00  0.00     0.040 A 
ATOM     82  C   UNL A   1      46.486  28.900  35.282  1.00  0.00     0.040 A 
ATOM     83  F   UNL A   1      45.547  30.492  33.838  1.00  0.00    -0.206 F 
ATOM     84  C   UNL A   1      46.337  27.854  36.190  1.00  0.00     0.006 A 
ENDBRANCH  60  77
ENDBRANCH  34  35
ENDBRANCH  26  29
ENDBRANCH  24  25
ENDBRANCH   1  24
TORSDOF 12
ENDMDL
MODEL 2
REMARK VINA RESULT:     -12.3      0.638      6.341
REMARK SMILES CC1(C)CCN(C(=O)N[C@H]2COC[C@@]2(C)C(=O)NCCCNC(=O)c2ccc(-c3c4nc(c(-c5c(F)cccc5F)c5ccc([nH]5)c(-c5c(F)cccc5F)c5nc(c(-c6c(F)cccc6F)c6ccc3[nH]6)C=C5)C=C4)cc2)C1
REMARK SMILES IDX 20 1 19 2 18 3 16 4 17 5 14 7 10 8 11 9 12 10 13 11 15 12
REMARK SMILES IDX 9 13 7 14 8 15 6 17 1 18 2 19 3 20 4 21 79 22 5 23 21 24
REMARK SMILES IDX 22 25 23 26 24 28 25 29 26 30 78 31 27 32 77 33 28 34 29 35
REMARK SMILES IDX 30 36 71 37 31 38 76 39 70 40 72 41 32 42 75 43 69 44 68 45
REMARK SMILES IDX 33 47 59 48 42 49 58 50 43 51 46 52 57 53 73 54 44 55 45 56
REMARK SMILES IDX 56 58 74 59 47 60 34 61 35 62 40 63 36 64 37 65 39 66 41 67
REMARK SMILES IDX 38 68 60 69 61 70 66 71 62 72 63 73 65 74 67 75 64 76 48 77
REMARK SMILES IDX 49 78 54 79 50 80 51 81 53 82 55 83 52 84
REMARK H PARENT 18 6 9 16 22 27 72 46 46 57
REMARK Flexibility Score: inf
ROOT
ATOM      1  C   UNL A   1      31.403  32.152  26.569  1.00  0.00     0.042 C 
ENDROOT
BRANCH   1   2
ATOM      2  C   UNL A   1      31.526  30.660  26.337  1.00  0.00     0.117 C 
BRANCH   2   3
ATOM      3  N   UNL A   1      32.665  30.273  25.523  1.00  0.00    -0.355 N 
ATOM      4  C   UNL A   1      33.181  29.042  25.228  1.00  0.00     0.230 C 
ATOM      5  O   UNL A   1      34.109  29.003  24.417  1.00  0.00    -0.274 OA
ATOM      6  H   UNL A   1      33.149  31.027  25.114  1.00  0.00     0.163 HD
BRANCH   4   7
ATOM      7  C   UNL A   1      32.726  27.798  25.977  1.00  0.00     0.092 C 
ATOM      8  C   UNL A   1      31.423  27.138  25.511  1.00  0.00     0.127 C 
ATOM      9  C   UNL A   1      31.533  25.770  26.149  1.00  0.00     0.186 C 
ATOM     10  O   UNL A   1      32.929  25.425  26.122  1.00  0.00    -0.378 OA
ATOM     11  C   UNL A   1      33.674  26.617  25.765  1.00  0.00     0.179 C 
ATOM     12  C   UNL A   1      32.730  28.152  27.484  1.00  0.00     0.026 C 
BRANCH   8  13
ATOM     13  N   UNL A   1      31.157  27.277  24.056  1.00  0.00    -0.332 N 
ATOM     14  C   UNL A   1      30.378  27.795  23.101  1.00  0.00     0.317 C 
ATOM     15  O   UNL A   1      30.627  27.344  21.975  1.00  0.00    -0.249 OA
ATOM     16  H   UNL A   1      31.860  26.767  23.594  1.00  0.00     0.165 HD
BRANCH  14  17
ATOM     17  N   UNL A   1      29.443  28.750  23.256  1.00  0.00    -0.324 N 
ATOM     18  C   UNL A   1      28.553  30.719  21.148  1.00  0.00     0.013 C 
ATOM     19  C   UNL A   1      28.319  30.735  22.672  1.00  0.00    -0.016 C 
ATOM     20  C   UNL A   1      28.028  32.163  23.126  1.00  0.00     0.013 C 
ATOM     21  C   UNL A   1      27.258  29.714  23.092  1.00  0.00     0.030 C 
ATOM     22  C   UNL A   1      29.542  30.180  23.399  1.00  0.00     0.127 C 
ATOM     23  C   UNL A   1      28.030  28.390  23.123  1.00  0.00     0.122 C 
ENDBRANCH  14  17
ENDBRANCH   8  13
ENDBRANCH   4   7
ENDBRANCH   2   3
ENDBRANCH   1   2
BRANCH   1  24
ATOM     24  C   UNL A   1      32.649  32.799  27.145  1.00  0.00     0.118 C 
BRANCH  24  25
ATOM     25  N   UNL A   1      32.423  34.156  27.626  1.00  0.00    -0.352 N 
ATOM     26  C   UNL A   1      33.038  34.861  28.632  1.00  0.00     0.251 C 
ATOM     27  H   UNL A   1      31.712  34.647  27.154  1.00  0.00     0.163 HD
ATOM     28  O   UNL A   1      32.592  35.952  28.976  1.00  0.00    -0.269 OA
BRANCH  26  29
ATOM     29  C   UNL A   1      34.212  34.296  29.329  1.00  0.00     0.039 A 
ATOM     30  C   UNL A   1      34.025  33.595  30.523  1.00  0.00     0.014 A 
ATOM     31  C   UNL A   1      35.497  34.444  28.803  1.00  0.00     0.014 A 
ATOM     32  C   UNL A   1      35.110  32.963  31.135  1.00  0.00     0.010 A 
ATOM     33  C   UNL A   1      36.552  33.723  29.347  1.00  0.00     0.010 A 
ATOM     34  C   UNL A   1      36.372  32.980  30.523  1.00  0.00    -0.014 A 
BRANCH  34  35
ATOM     35  C   UNL A   1      37.533  32.249  31.090  1.00  0.00     0.031 A 
ATOM     36  C   UNL A   1      38.199  32.764  32.338  1.00  0.00     0.074 A 
ATOM     37  C   UNL A   1      38.050  31.190  30.436  1.00  0.00     0.049 A 
ATOM     38  N   UNL A   1      39.308  32.369  32.909  1.00  0.00    -0.248 NA
ATOM     39  C   UNL A   1      37.550  33.902  33.011  1.00  0.00     0.031 C 
ATOM     40  C   UNL A   1      37.528  30.622  29.192  1.00  0.00     0.029 A 
ATOM     41  N   UNL A   1      39.144  30.413  30.721  1.00  0.00    -0.354 N 
ATOM     42  C   UNL A   1      39.504  33.229  33.983  1.00  0.00     0.074 A 
ATOM     43  C   UNL A   1      38.432  34.199  33.952  1.00  0.00     0.031 C 
ATOM     44  C   UNL A   1      38.288  29.575  28.833  1.00  0.00     0.029 A 
ATOM     45  C   UNL A   1      39.376  29.426  29.794  1.00  0.00     0.049 A 
ATOM     46  H   UNL A   1      39.710  30.549  31.515  1.00  0.00     0.167 HD
ATOM     47  C   UNL A   1      40.475  33.197  34.925  1.00  0.00     0.037 A 
ATOM     48  C   UNL A   1      40.361  28.511  29.721  1.00  0.00     0.037 A 
ATOM     49  C   UNL A   1      41.512  32.204  34.980  1.00  0.00     0.049 A 
ATOM     50  C   UNL A   1      41.423  28.488  30.786  1.00  0.00     0.074 A 
ATOM     51  C   UNL A   1      42.504  32.043  35.932  1.00  0.00     0.029 A 
ATOM     52  N   UNL A   1      41.688  31.196  34.043  1.00  0.00    -0.354 N 
ATOM     53  N   UNL A   1      41.564  29.272  31.828  1.00  0.00    -0.248 NA
ATOM     54  C   UNL A   1      42.460  27.454  30.667  1.00  0.00     0.031 C 
ATOM     55  C   UNL A   1      43.302  30.959  35.553  1.00  0.00     0.029 A 
ATOM     56  C   UNL A   1      42.781  30.419  34.388  1.00  0.00     0.049 A 
ATOM     57  H   UNL A   1      41.121  31.054  33.252  1.00  0.00     0.167 HD
ATOM     58  C   UNL A   1      42.683  28.806  32.506  1.00  0.00     0.074 A 
ATOM     59  C   UNL A   1      43.179  27.667  31.761  1.00  0.00     0.031 C 
ATOM     60  C   UNL A   1      43.248  29.277  33.644  1.00  0.00     0.037 A 
BRANCH  47  61
ATOM     61  C   UNL A   1      40.451  34.265  35.979  1.00  0.00     0.057 A 
ATOM     62  C   UNL A   1      41.159  35.466  35.830  1.00  0.00     0.134 A 
ATOM     63  C   UNL A   1      39.695  34.103  37.146  1.00  0.00     0.134 A 
ATOM     64  F   UNL A   1      41.915  35.679  34.743  1.00  0.00    -0.206 F 
ATOM     65  C   UNL A   1      41.137  36.453  36.817  1.00  0.00     0.040 A 
ATOM     66  C   UNL A   1      39.642  35.095  38.127  1.00  0.00     0.040 A 
ATOM     67  F   UNL A   1      38.989  32.980  37.351  1.00  0.00    -0.206 F 
ATOM     68  C   UNL A   1      40.371  36.272  37.967  1.00  0.00     0.006 A 
ENDBRANCH  47  61
BRANCH  48  69
ATOM     69  C   UNL A   1      40.381  27.523  28.612  1.00  0.00     0.057 A 
ATOM     70  C   UNL A   1      41.134  27.756  27.456  1.00  0.00     0.134 A 
ATOM     71  C   UNL A   1      39.648  26.332  28.676  1.00  0.00     0.134 A 
ATOM     72  F   UNL A   1      41.844  28.888  27.330  1.00  0.00    -0.206 F 
ATOM     73  C   UNL A   1      41.144  26.850  26.394  1.00  0.00     0.040 A 
ATOM     74  C   UNL A   1      39.668  25.406  27.631  1.00  0.00     0.040 A 
ATOM     75  F   UNL A   1      38.914  26.045  29.760  1.00  0.00    -0.206 F 
ATOM     76  C   UNL A   1      40.412  25.668  26.482  1.00  0.00     0.006 A 
ENDBRANCH  48  69
BRANCH  60  77
ATOM     77  C   UNL A   1      44.436  28.538  34.181  1.00  0.00     0.057 A 
ATOM     78  C   UNL A   1      45.747  28.909  33.859  1.00  0.00     0.134 A 
ATOM     79  C   UNL A   1      44.263  27.475  35.078  1.00  0.00     0.134 A 
ATOM     80  F   UNL A   1      45.977  29.910  32.996  1.00  0.00    -0.206 F 
ATOM     81  C   UNL A   1      46.846  28.240  34.399  1.00  0.00     0.040 A 
ATOM     82  C   UNL A   1      45.355  26.815  35.644  1.00  0.00     0.040 A 
ATOM     83  F   UNL A   1      43.032  27.077  35.433  1.00  0.00    -0.206 F 
ATOM     84  C   UNL A   1      46.650  27.195  35.301  1.00  0.00     0.006 A 
ENDBRANCH  60  77
ENDBRANCH  34  35
ENDBRANCH  26  29
ENDBRANCH  24  25
ENDBRANCH   1  24
TORSDOF 12
ENDMDL
MODEL 3
REMARK VINA RESULT:     -12.3      6.034     10.361
REMARK SMILES CC1(C)CCN(C(=O)N[C@H]2COC[C@@]2(C)C(=O)NCCCNC(=O)c2ccc(-c3c4nc(c(-c5c(F)cccc5F)c5ccc([nH]5)c(-c5c(F)cccc5F)c5nc(c(-c6c(F)cccc6F)c6ccc3[nH]6)C=C5)C=C4)cc2)C1
REMARK SMILES IDX 20 1 19 2 18 3 16 4 17 5 14 7 10 8 11 9 12 10 13 11 15 12
REMARK SMILES IDX 9 13 7 14 8 15 6 17 1 18 2 19 3 20 4 21 79 22 5 23 21 24
REMARK SMILES IDX 22 25 23 26 24 28 25 29 26 30 78 31 27 32 77 33 28 34 29 35
REMARK SMILES IDX 30 36 71 37 31 38 76 39 70 40 72 41 32 42 75 43 69 44 68 45
REMARK SMILES IDX 33 47 59 48 42 49 58 50 43 51 46 52 57 53 73 54 44 55 45 56
REMARK SMILES IDX 56 58 74 59 47 60 34 61 35 62 40 63 36 64 37 65 39 66 41 67
REMARK SMILES IDX 38 68 60 69 61 70 66 71 62 72 63 73 65 74 67 75 64 76 48 77
REMARK SMILES IDX 49 78 54 79 50 80 51 81 53 82 55 83 52 84
REMARK H PARENT 18 6 9 16 22 27 72 46 46 57
REMARK Flexibility Score: inf
ROOT
ATOM      1  C   UNL A   1      38.091  19.541  25.002  1.00  0.00     0.042 C 
ENDROOT
BRANCH   1   2
ATOM      2  C   UNL A   1      37.153  20.663  24.604  1.00  0.00     0.117 C 
BRANCH   2   3
ATOM      3  N   UNL A   1      36.549  21.363  25.725  1.00  0.00    -0.355 N 
ATOM      4  C   UNL A   1      35.656  22.396  25.762  1.00  0.00     0.230 C 
ATOM      5  O   UNL A   1      35.231  22.731  26.870  1.00  0.00    -0.274 OA
ATOM      6  H   UNL A   1      36.834  21.037  26.610  1.00  0.00     0.163 HD
BRANCH   4   7
ATOM      7  C   UNL A   1      35.316  23.188  24.507  1.00  0.00     0.092 C 
ATOM      8  C   UNL A   1      34.229  22.613  23.591  1.00  0.00     0.127 C 
ATOM      9  C   UNL A   1      33.872  23.820  22.751  1.00  0.00     0.186 C 
ATOM     10  O   UNL A   1      33.989  24.962  23.620  1.00  0.00    -0.378 OA
ATOM     11  C   UNL A   1      34.660  24.530  24.831  1.00  0.00     0.179 C 
ATOM     12  C   UNL A   1      36.650  23.469  23.776  1.00  0.00     0.026 C 
BRANCH   8  13
ATOM     13  N   UNL A   1      33.175  21.845  24.303  1.00  0.00    -0.332 N 
ATOM     14  C   UNL A   1      32.607  20.656  24.523  1.00  0.00     0.317 C 
ATOM     15  O   UNL A   1      31.548  20.735  25.162  1.00  0.00    -0.249 OA
ATOM     16  H   UNL A   1      32.679  22.495  24.851  1.00  0.00     0.165 HD
BRANCH  14  17
ATOM     17  N   UNL A   1      33.100  19.452  24.177  1.00  0.00    -0.324 N 
ATOM     18  C   UNL A   1      32.529  16.834  25.566  1.00  0.00     0.013 C 
ATOM     19  C   UNL A   1      33.630  17.189  24.547  1.00  0.00    -0.016 C 
ATOM     20  C   UNL A   1      34.788  16.204  24.687  1.00  0.00     0.013 C 
ATOM     21  C   UNL A   1      33.071  17.302  23.126  1.00  0.00     0.030 C 
ATOM     22  C   UNL A   1      34.114  18.620  24.770  1.00  0.00     0.127 C 
ATOM     23  C   UNL A   1      32.452  18.704  23.097  1.00  0.00     0.122 C 
ENDBRANCH  14  17
ENDBRANCH   8  13
ENDBRANCH   4   7
ENDBRANCH   2   3
ENDBRANCH   1   2
BRANCH   1  24
ATOM     24  C   UNL A   1      39.220  19.966  25.922  1.00  0.00     0.118 C 
BRANCH  24  25
ATOM     25  N   UNL A   1      40.315  19.006  25.971  1.00  0.00    -0.352 N 
ATOM     26  C   UNL A   1      41.667  19.201  26.124  1.00  0.00     0.251 C 
ATOM     27  H   UNL A   1      40.042  18.065  25.878  1.00  0.00     0.163 HD
ATOM     28  O   UNL A   1      42.440  18.257  25.989  1.00  0.00    -0.269 OA
BRANCH  26  29
ATOM     29  C   UNL A   1      42.198  20.549  26.413  1.00  0.00     0.039 A 
ATOM     30  C   UNL A   1      42.613  21.360  25.354  1.00  0.00     0.014 A 
ATOM     31  C   UNL A   1      42.277  21.022  27.724  1.00  0.00     0.014 A 
ATOM     32  C   UNL A   1      43.015  22.675  25.602  1.00  0.00     0.010 A 
ATOM     33  C   UNL A   1      42.567  22.359  27.959  1.00  0.00     0.010 A 
ATOM     34  C   UNL A   1      42.945  23.200  26.901  1.00  0.00    -0.014 A 
BRANCH  34  35
ATOM     35  C   UNL A   1      43.278  24.616  27.198  1.00  0.00     0.031 A 
ATOM     36  C   UNL A   1      44.712  25.070  27.146  1.00  0.00     0.074 A 
ATOM     37  C   UNL A   1      42.314  25.464  27.608  1.00  0.00     0.049 A 
ATOM     38  N   UNL A   1      45.233  26.212  27.515  1.00  0.00    -0.248 NA
ATOM     39  C   UNL A   1      45.697  24.093  26.653  1.00  0.00     0.031 C 
ATOM     40  C   UNL A   1      40.894  25.134  27.748  1.00  0.00     0.029 A 
ATOM     41  N   UNL A   1      42.389  26.776  28.003  1.00  0.00    -0.354 N 
ATOM     42  C   UNL A   1      46.603  26.078  27.328  1.00  0.00     0.074 A 
ATOM     43  C   UNL A   1      46.838  24.727  26.868  1.00  0.00     0.031 C 
ATOM     44  C   UNL A   1      40.230  26.221  28.174  1.00  0.00     0.029 A 
ATOM     45  C   UNL A   1      41.181  27.308  28.383  1.00  0.00     0.049 A 
ATOM     46  H   UNL A   1      43.231  27.289  28.013  1.00  0.00     0.167 HD
ATOM     47  C   UNL A   1      47.575  27.004  27.499  1.00  0.00     0.037 A 
ATOM     48  C   UNL A   1      40.876  28.531  28.856  1.00  0.00     0.037 A 
ATOM     49  C   UNL A   1      47.333  28.359  27.912  1.00  0.00     0.049 A 
ATOM     50  C   UNL A   1      41.972  29.547  29.027  1.00  0.00     0.074 A 
ATOM     51  C   UNL A   1      48.241  29.394  28.050  1.00  0.00     0.029 A 
ATOM     52  N   UNL A   1      46.089  28.869  28.248  1.00  0.00    -0.354 N 
ATOM     53  N   UNL A   1      43.256  29.423  28.793  1.00  0.00    -0.248 NA
ATOM     54  C   UNL A   1      41.577  30.872  29.526  1.00  0.00     0.031 C 
ATOM     55  C   UNL A   1      47.551  30.522  28.504  1.00  0.00     0.029 A 
ATOM     56  C   UNL A   1      46.207  30.201  28.607  1.00  0.00     0.049 A 
ATOM     57  H   UNL A   1      45.246  28.361  28.233  1.00  0.00     0.167 HD
ATOM     58  C   UNL A   1      43.817  30.661  29.082  1.00  0.00     0.074 A 
ATOM     59  C   UNL A   1      42.732  31.523  29.503  1.00  0.00     0.031 C 
ATOM     60  C   UNL A   1      45.112  31.049  29.005  1.00  0.00     0.037 A 
BRANCH  47  61
ATOM     61  C   UNL A   1      48.989  26.579  27.229  1.00  0.00     0.057 A 
ATOM     62  C   UNL A   1      49.812  26.063  28.240  1.00  0.00     0.134 A 
ATOM     63  C   UNL A   1      49.529  26.667  25.940  1.00  0.00     0.134 A 
ATOM     64  F   UNL A   1      49.361  25.966  29.500  1.00  0.00    -0.206 F 
ATOM     65  C   UNL A   1      51.128  25.676  27.984  1.00  0.00     0.040 A 
ATOM     66  C   UNL A   1      50.835  26.255  25.665  1.00  0.00     0.040 A 
ATOM     67  F   UNL A   1      48.795  27.147  24.925  1.00  0.00    -0.206 F 
ATOM     68  C   UNL A   1      51.641  25.766  26.691  1.00  0.00     0.006 A 
ENDBRANCH  47  61
BRANCH  48  69
ATOM     69  C   UNL A   1      39.469  28.875  29.181  1.00  0.00     0.057 A 
ATOM     70  C   UNL A   1      38.956  28.666  30.466  1.00  0.00     0.134 A 
ATOM     71  C   UNL A   1      38.602  29.413  28.222  1.00  0.00     0.134 A 
ATOM     72  F   UNL A   1      39.734  28.137  31.424  1.00  0.00    -0.206 F 
ATOM     73  C   UNL A   1      37.629  28.959  30.783  1.00  0.00     0.040 A 
ATOM     74  C   UNL A   1      37.279  29.733  28.530  1.00  0.00     0.040 A 
ATOM     75  F   UNL A   1      39.034  29.646  26.974  1.00  0.00    -0.206 F 
ATOM     76  C   UNL A   1      36.787  29.500  29.813  1.00  0.00     0.006 A 
ENDBRANCH  48  69
BRANCH  60  77
ATOM     77  C   UNL A   1      45.425  32.477  29.337  1.00  0.00     0.057 A 
ATOM     78  C   UNL A   1      45.825  32.869  30.620  1.00  0.00     0.134 A 
ATOM     79  C   UNL A   1      45.381  33.462  28.341  1.00  0.00     0.134 A 
ATOM     80  F   UNL A   1      45.875  31.974  31.618  1.00  0.00    -0.206 F 
ATOM     81  C   UNL A   1      46.155  34.194  30.906  1.00  0.00     0.040 A 
ATOM     82  C   UNL A   1      45.732  34.785  28.609  1.00  0.00     0.040 A 
ATOM     83  F   UNL A   1      45.014  33.149  27.089  1.00  0.00    -0.206 F 
ATOM     84  C   UNL A   1      46.117  35.154  29.896  1.00  0.00     0.006 A 
ENDBRANCH  60  77
ENDBRANCH  34  35
ENDBRANCH  26  29
ENDBRANCH  24  25
ENDBRANCH   1  24
TORSDOF 12
ENDMDL
