MODEL 1
REMARK VINA RESULT:     -12.3      0.000      0.000
REMARK SMILES COc1cc2c(cc1OC)[C@H](C(=O)NCCCNC(=O)c1ccc(-c3c4nc(c(-c5c(F)cccc5F)c5ccc([nH]5)c(-c5c(F)cccc5F)c5nc(c(-c6c(F)cccc6F)c6ccc3[nH]6)C=C5)C=C4)cc1)[C@@H](c1ccc(SC)cc1)N(C)C2=O
REMARK SMILES IDX 16 1 15 2 14 3 12 4 13 5 11 7 3 8 4 9 8 10 5 11 7 12 6 13
REMARK SMILES IDX 86 14 84 15 87 16 75 17 85 18 2 19 1 20 9 21 10 22 76 23
REMARK SMILES IDX 77 24 83 25 78 26 82 27 79 28 80 29 81 30 17 31 18 32 19 33
REMARK SMILES IDX 20 35 21 36 22 37 74 38 23 39 73 40 24 41 25 42 26 43 67 44
REMARK SMILES IDX 27 45 72 46 66 47 68 48 28 49 71 50 65 51 64 52 29 54 55 55
REMARK SMILES IDX 38 56 54 57 39 58 42 59 53 60 69 61 40 62 41 63 52 65 70 66
REMARK SMILES IDX 43 67 30 68 31 69 36 70 32 71 33 72 35 73 37 74 34 75 56 76
REMARK SMILES IDX 57 77 62 78 58 79 59 80 61 81 63 82 60 83 44 84 45 85 50 86
REMARK SMILES IDX 46 87 47 88 49 89 51 90 48 91
REMARK H PARENT 14 6 18 34 68 53 42 64
REMARK Flexibility Score: inf
ROOT
ATOM      1  C   UNL A   1      37.454  21.337  24.411  1.00  0.00     0.042 C 
ENDROOT
BRANCH   1   2
ATOM      2  C   UNL A   1      36.695  22.648  24.383  1.00  0.00     0.117 C 
BRANCH   2   3
ATOM      3  N   UNL A   1      35.888  22.814  23.179  1.00  0.00    -0.355 N 
ATOM      4  C   UNL A   1      34.616  23.331  23.076  1.00  0.00     0.230 C 
ATOM      5  O   UNL A   1      34.186  23.632  21.966  1.00  0.00    -0.274 OA
ATOM      6  H   UNL A   1      36.304  22.521  22.336  1.00  0.00     0.163 HD
BRANCH   4   7
ATOM      7  C   UNL A   1      33.830  23.536  24.366  1.00  0.00     0.136 C 
ATOM      8  C   UNL A   1      32.819  27.666  25.261  1.00  0.00     0.161 A 
ATOM      9  C   UNL A   1      32.180  26.598  25.907  1.00  0.00     0.064 A 
ATOM     10  C   UNL A   1      33.710  27.398  24.220  1.00  0.00     0.161 A 
ATOM     11  C   UNL A   1      32.473  25.265  25.571  1.00  0.00     0.048 A 
ATOM     12  C   UNL A   1      33.959  26.066  23.865  1.00  0.00     0.056 A 
ATOM     13  C   UNL A   1      33.398  24.984  24.566  1.00  0.00    -0.016 A 
ATOM     14  C   UNL A   1      31.808  24.161  26.316  1.00  0.00     0.254 C 
ATOM     15  N   UNL A   1      31.975  22.854  25.840  1.00  0.00    -0.334 N 
ATOM     16  O   UNL A   1      31.154  24.439  27.317  1.00  0.00    -0.269 OA
ATOM     17  C   UNL A   1      32.605  22.595  24.504  1.00  0.00     0.132 C 
ATOM     18  C   UNL A   1      31.268  21.800  26.556  1.00  0.00     0.147 C 
BRANCH   8  19
ATOM     19  O   UNL A   1      32.510  28.964  25.569  1.00  0.00    -0.493 OA
ATOM     20  C   UNL A   1      31.374  29.474  24.874  1.00  0.00     0.278 C 
ENDBRANCH   8  19
BRANCH  10  21
ATOM     21  O   UNL A   1      34.427  28.281  23.458  1.00  0.00    -0.493 OA
ATOM     22  C   UNL A   1      34.015  28.500  22.116  1.00  0.00     0.278 C 
ENDBRANCH  10  21
BRANCH  17  23
ATOM     23  C   UNL A   1      32.895  21.103  24.255  1.00  0.00    -0.024 A 
ATOM     24  C   UNL A   1      32.224  20.333  23.292  1.00  0.00     0.007 A 
ATOM     25  C   UNL A   1      33.881  20.459  25.024  1.00  0.00     0.007 A 
ATOM     26  C   UNL A   1      32.507  18.968  23.135  1.00  0.00     0.015 A 
ATOM     27  C   UNL A   1      34.192  19.103  24.835  1.00  0.00     0.015 A 
ATOM     28  C   UNL A   1      33.504  18.342  23.891  1.00  0.00     0.007 A 
BRANCH  28  29
ATOM     29  S   UNL A   1      33.770  16.597  23.609  1.00  0.00    -0.130 SA
ATOM     30  C   UNL A   1      34.806  16.116  25.016  1.00  0.00     0.091 C 
ENDBRANCH  28  29
ENDBRANCH  17  23
ENDBRANCH   4   7
ENDBRANCH   2   3
ENDBRANCH   1   2
BRANCH   1  31
ATOM     31  C   UNL A   1      38.176  21.087  25.724  1.00  0.00     0.118 C 
BRANCH  31  32
ATOM     32  N   UNL A   1      39.140  19.995  25.648  1.00  0.00    -0.352 N 
ATOM     33  C   UNL A   1      40.483  19.981  25.939  1.00  0.00     0.251 C 
ATOM     34  H   UNL A   1      38.773  19.135  25.340  1.00  0.00     0.163 HD
ATOM     35  O   UNL A   1      41.164  18.999  25.659  1.00  0.00    -0.269 OA
BRANCH  33  36
ATOM     36  C   UNL A   1      41.111  21.164  26.560  1.00  0.00     0.039 A 
ATOM     37  C   UNL A   1      41.716  22.121  25.741  1.00  0.00     0.014 A 
ATOM     38  C   UNL A   1      41.076  21.343  27.944  1.00  0.00     0.014 A 
ATOM     39  C   UNL A   1      42.209  23.297  26.307  1.00  0.00     0.010 A 
ATOM     40  C   UNL A   1      41.462  22.560  28.489  1.00  0.00     0.010 A 
ATOM     41  C   UNL A   1      42.040  23.547  27.679  1.00  0.00    -0.014 A 
BRANCH  41  42
ATOM     42  C   UNL A   1      42.465  24.828  28.294  1.00  0.00     0.031 A 
ATOM     43  C   UNL A   1      41.458  25.920  28.528  1.00  0.00     0.074 A 
ATOM     44  C   UNL A   1      43.766  25.039  28.564  1.00  0.00     0.049 A 
ATOM     45  N   UNL A   1      41.642  27.133  28.982  1.00  0.00    -0.248 NA
ATOM     46  C   UNL A   1      40.063  25.619  28.167  1.00  0.00     0.031 C 
ATOM     47  C   UNL A   1      44.848  24.079  28.333  1.00  0.00     0.029 A 
ATOM     48  N   UNL A   1      44.403  26.135  29.089  1.00  0.00    -0.354 N 
ATOM     49  C   UNL A   1      40.396  27.744  28.938  1.00  0.00     0.074 A 
ATOM     50  C   UNL A   1      39.478  26.792  28.353  1.00  0.00     0.031 C 
ATOM     51  C   UNL A   1      46.006  24.613  28.753  1.00  0.00     0.029 A 
ATOM     52  C   UNL A   1      45.757  25.966  29.240  1.00  0.00     0.049 A 
ATOM     53  H   UNL A   1      43.933  26.965  29.334  1.00  0.00     0.167 HD
ATOM     54  C   UNL A   1      40.041  28.976  29.372  1.00  0.00     0.037 A 
ATOM     55  C   UNL A   1      46.692  26.807  29.719  1.00  0.00     0.037 A 
ATOM     56  C   UNL A   1      40.952  29.909  29.978  1.00  0.00     0.049 A 
ATOM     57  C   UNL A   1      46.279  28.174  30.186  1.00  0.00     0.074 A 
ATOM     58  C   UNL A   1      40.683  31.153  30.520  1.00  0.00     0.029 A 
ATOM     59  N   UNL A   1      42.318  29.700  30.116  1.00  0.00    -0.354 N 
ATOM     60  N   UNL A   1      45.084  28.712  30.211  1.00  0.00    -0.248 NA
ATOM     61  C   UNL A   1      47.346  29.048  30.691  1.00  0.00     0.031 C 
ATOM     62  C   UNL A   1      41.892  31.718  30.938  1.00  0.00     0.029 A 
ATOM     63  C   UNL A   1      42.909  30.805  30.706  1.00  0.00     0.049 A 
ATOM     64  H   UNL A   1      42.796  28.887  29.835  1.00  0.00     0.167 HD
ATOM     65  C   UNL A   1      45.248  29.977  30.763  1.00  0.00     0.074 A 
ATOM     66  C   UNL A   1      46.658  30.119  31.064  1.00  0.00     0.031 C 
ATOM     67  C   UNL A   1      44.315  30.932  31.000  1.00  0.00     0.037 A 
BRANCH  54  68
ATOM     68  C   UNL A   1      38.604  29.377  29.194  1.00  0.00     0.057 A 
ATOM     69  C   UNL A   1      37.696  29.389  30.263  1.00  0.00     0.134 A 
ATOM     70  C   UNL A   1      38.117  29.747  27.933  1.00  0.00     0.134 A 
ATOM     71  F   UNL A   1      38.093  29.032  31.494  1.00  0.00    -0.206 F 
ATOM     72  C   UNL A   1      36.350  29.707  30.077  1.00  0.00     0.040 A 
ATOM     73  C   UNL A   1      36.780  30.099  27.742  1.00  0.00     0.040 A 
ATOM     74  F   UNL A   1      38.930  29.765  26.867  1.00  0.00    -0.206 F 
ATOM     75  C   UNL A   1      35.890  30.068  28.812  1.00  0.00     0.006 A 
ENDBRANCH  54  68
BRANCH  55  76
ATOM     76  C   UNL A   1      48.102  26.357  29.827  1.00  0.00     0.057 A 
ATOM     77  C   UNL A   1      48.570  25.751  30.998  1.00  0.00     0.134 A 
ATOM     78  C   UNL A   1      49.006  26.499  28.768  1.00  0.00     0.134 A 
ATOM     79  F   UNL A   1      47.755  25.602  32.053  1.00  0.00    -0.206 F 
ATOM     80  C   UNL A   1      49.889  25.309  31.117  1.00  0.00     0.040 A 
ATOM     81  C   UNL A   1      50.322  26.043  28.865  1.00  0.00     0.040 A 
ATOM     82  F   UNL A   1      48.615  27.064  27.616  1.00  0.00    -0.206 F 
ATOM     83  C   UNL A   1      50.767  25.449  30.045  1.00  0.00     0.006 A 
ENDBRANCH  55  76
BRANCH  67  84
ATOM     84  C   UNL A   1      44.783  32.202  31.646  1.00  0.00     0.057 A 
ATOM     85  C   UNL A   1      44.843  32.349  33.038  1.00  0.00     0.134 A 
ATOM     86  C   UNL A   1      45.219  33.279  30.864  1.00  0.00     0.134 A 
ATOM     87  F   UNL A   1      44.427  31.360  33.844  1.00  0.00    -0.206 F 
ATOM     88  C   UNL A   1      45.297  33.529  33.628  1.00  0.00     0.040 A 
ATOM     89  C   UNL A   1      45.702  34.453  31.442  1.00  0.00     0.040 A 
ATOM     90  F   UNL A   1      45.197  33.201  29.525  1.00  0.00    -0.206 F 
ATOM     91  C   UNL A   1      45.735  34.583  32.829  1.00  0.00     0.006 A 
ENDBRANCH  67  84
ENDBRANCH  41  42
ENDBRANCH  33  36
ENDBRANCH  31  32
ENDBRANCH   1  31
TORSDOF 14
ENDMDL
MODEL 2
REMARK VINA RESULT:     -12.3      3.826      5.372
REMARK SMILES COc1cc2c(cc1OC)[C@H](C(=O)NCCCNC(=O)c1ccc(-c3c4nc(c(-c5c(F)cccc5F)c5ccc([nH]5)c(-c5c(F)cccc5F)c5nc(c(-c6c(F)cccc6F)c6ccc3[nH]6)C=C5)C=C4)cc1)[C@@H](c1ccc(SC)cc1)N(C)C2=O
REMARK SMILES IDX 16 1 15 2 14 3 12 4 13 5 11 7 3 8 4 9 8 10 5 11 7 12 6 13
REMARK SMILES IDX 86 14 84 15 87 16 75 17 85 18 2 19 1 20 9 21 10 22 76 23
REMARK SMILES IDX 77 24 83 25 78 26 82 27 79 28 80 29 81 30 17 31 18 32 19 33
REMARK SMILES IDX 20 35 21 36 22 37 74 38 23 39 73 40 24 41 25 42 26 43 67 44
REMARK SMILES IDX 27 45 72 46 66 47 68 48 28 49 71 50 65 51 64 52 29 54 55 55
REMARK SMILES IDX 38 56 54 57 39 58 42 59 53 60 69 61 40 62 41 63 52 65 70 66
REMARK SMILES IDX 43 67 30 68 31 69 36 70 32 71 33 72 35 73 37 74 34 75 56 76
REMARK SMILES IDX 57 77 62 78 58 79 59 80 61 81 63 82 60 83 44 84 45 85 50 86
REMARK SMILES IDX 46 87 47 88 49 89 51 90 48 91
REMARK H PARENT 14 6 18 34 68 53 42 64
REMARK Flexibility Score: inf
ROOT
ATOM      1  C   UNL A   1      37.534  22.951  25.654  1.00  0.00     0.042 C 
ENDROOT
BRANCH   1   2
ATOM      2  C   UNL A   1      36.055  23.257  25.543  1.00  0.00     0.117 C 
BRANCH   2   3
ATOM      3  N   UNL A   1      35.586  23.317  24.163  1.00  0.00    -0.355 N 
ATOM      4  C   UNL A   1      34.361  23.744  23.702  1.00  0.00     0.230 C 
ATOM      5  O   UNL A   1      34.224  23.968  22.502  1.00  0.00    -0.274 OA
ATOM      6  H   UNL A   1      36.224  23.016  23.476  1.00  0.00     0.163 HD
BRANCH   4   7
ATOM      7  C   UNL A   1      33.253  23.952  24.729  1.00  0.00     0.136 C 
ATOM      8  C   UNL A   1      31.994  28.078  25.255  1.00  0.00     0.161 A 
ATOM      9  C   UNL A   1      31.215  27.007  25.720  1.00  0.00     0.064 A 
ATOM     10  C   UNL A   1      33.136  27.811  24.498  1.00  0.00     0.161 A 
ATOM     11  C   UNL A   1      31.602  25.676  25.496  1.00  0.00     0.048 A 
ATOM     12  C   UNL A   1      33.486  26.478  24.244  1.00  0.00     0.056 A 
ATOM     13  C   UNL A   1      32.767  25.396  24.783  1.00  0.00    -0.016 A 
ATOM     14  C   UNL A   1      30.773  24.571  26.049  1.00  0.00     0.254 C 
ATOM     15  N   UNL A   1      31.076  23.261  25.656  1.00  0.00    -0.334 N 
ATOM     16  O   UNL A   1      29.869  24.851  26.832  1.00  0.00    -0.269 OA
ATOM     17  C   UNL A   1      32.046  22.996  24.544  1.00  0.00     0.132 C 
ATOM     18  C   UNL A   1      30.213  22.205  26.169  1.00  0.00     0.147 C 
BRANCH   8  19
ATOM     19  O   UNL A   1      31.599  29.375  25.449  1.00  0.00    -0.493 OA
ATOM     20  C   UNL A   1      32.082  29.956  26.658  1.00  0.00     0.278 C 
ENDBRANCH   8  19
BRANCH  10  21
ATOM     21  O   UNL A   1      34.023  28.695  23.945  1.00  0.00    -0.493 OA
ATOM     22  C   UNL A   1      34.182  28.694  22.533  1.00  0.00     0.278 C 
ENDBRANCH  10  21
BRANCH  17  23
ATOM     23  C   UNL A   1      32.409  21.505  24.405  1.00  0.00    -0.024 A 
ATOM     24  C   UNL A   1      33.073  20.773  25.401  1.00  0.00     0.007 A 
ATOM     25  C   UNL A   1      32.066  20.823  23.224  1.00  0.00     0.007 A 
ATOM     26  C   UNL A   1      33.408  19.426  25.204  1.00  0.00     0.015 A 
ATOM     27  C   UNL A   1      32.365  19.463  23.046  1.00  0.00     0.015 A 
ATOM     28  C   UNL A   1      33.044  18.751  24.034  1.00  0.00     0.007 A 
BRANCH  28  29
ATOM     29  S   UNL A   1      33.533  17.037  23.892  1.00  0.00    -0.130 SA
ATOM     30  C   UNL A   1      33.132  16.368  25.527  1.00  0.00     0.091 C 
ENDBRANCH  28  29
ENDBRANCH  17  23
ENDBRANCH   4   7
ENDBRANCH   2   3
ENDBRANCH   1   2
BRANCH   1  31
ATOM     31  C   UNL A   1      38.337  24.076  26.286  1.00  0.00     0.118 C 
BRANCH  31  32
ATOM     32  N   UNL A   1      39.775  23.934  26.088  1.00  0.00    -0.352 N 
ATOM     33  C   UNL A   1      40.811  24.705  26.557  1.00  0.00     0.251 C 
ATOM     34  H   UNL A   1      40.046  23.167  25.534  1.00  0.00     0.163 HD
ATOM     35  O   UNL A   1      41.953  24.517  26.150  1.00  0.00    -0.269 OA
BRANCH  33  36
ATOM     36  C   UNL A   1      40.540  25.785  27.527  1.00  0.00     0.039 A 
ATOM     37  C   UNL A   1      39.570  25.586  28.513  1.00  0.00     0.014 A 
ATOM     38  C   UNL A   1      41.262  26.979  27.481  1.00  0.00     0.014 A 
ATOM     39  C   UNL A   1      39.388  26.552  29.503  1.00  0.00     0.010 A 
ATOM     40  C   UNL A   1      41.160  27.884  28.528  1.00  0.00     0.010 A 
ATOM     41  C   UNL A   1      40.217  27.685  29.546  1.00  0.00    -0.014 A 
BRANCH  41  42
ATOM     42  C   UNL A   1      40.115  28.682  30.640  1.00  0.00     0.031 A 
ATOM     43  C   UNL A   1      39.101  29.788  30.558  1.00  0.00     0.074 A 
ATOM     44  C   UNL A   1      40.988  28.639  31.665  1.00  0.00     0.049 A 
ATOM     45  N   UNL A   1      38.906  30.795  31.370  1.00  0.00    -0.248 NA
ATOM     46  C   UNL A   1      38.212  29.783  29.384  1.00  0.00     0.031 C 
ATOM     47  C   UNL A   1      42.053  27.648  31.832  1.00  0.00     0.029 A 
ATOM     48  N   UNL A   1      41.121  29.457  32.758  1.00  0.00    -0.354 N 
ATOM     49  C   UNL A   1      37.893  31.551  30.795  1.00  0.00     0.074 A 
ATOM     50  C   UNL A   1      37.561  30.924  29.534  1.00  0.00     0.031 C 
ATOM     51  C   UNL A   1      42.702  27.890  32.981  1.00  0.00     0.029 A 
ATOM     52  C   UNL A   1      42.131  29.077  33.609  1.00  0.00     0.049 A 
ATOM     53  H   UNL A   1      40.548  30.240  32.918  1.00  0.00     0.167 HD
ATOM     54  C   UNL A   1      37.275  32.652  31.284  1.00  0.00     0.037 A 
ATOM     55  C   UNL A   1      42.547  29.626  34.765  1.00  0.00     0.037 A 
ATOM     56  C   UNL A   1      37.592  33.256  32.551  1.00  0.00     0.049 A 
ATOM     57  C   UNL A   1      41.854  30.854  35.287  1.00  0.00     0.074 A 
ATOM     58  C   UNL A   1      36.978  34.327  33.175  1.00  0.00     0.029 A 
ATOM     59  N   UNL A   1      38.620  32.841  33.386  1.00  0.00    -0.354 N 
ATOM     60  N   UNL A   1      40.846  31.514  34.771  1.00  0.00    -0.248 NA
ATOM     61  C   UNL A   1      42.359  31.409  36.549  1.00  0.00     0.031 C 
ATOM     62  C   UNL A   1      37.667  34.593  34.363  1.00  0.00     0.029 A 
ATOM     63  C   UNL A   1      38.677  33.655  34.506  1.00  0.00     0.049 A 
ATOM     64  H   UNL A   1      39.220  32.082  33.209  1.00  0.00     0.167 HD
ATOM     65  C   UNL A   1      40.574  32.546  35.661  1.00  0.00     0.074 A 
ATOM     66  C   UNL A   1      41.519  32.416  36.751  1.00  0.00     0.031 C 
ATOM     67  C   UNL A   1      39.625  33.512  35.583  1.00  0.00     0.037 A 
BRANCH  54  68
ATOM     68  C   UNL A   1      36.202  33.270  30.433  1.00  0.00     0.057 A 
ATOM     69  C   UNL A   1      34.839  33.054  30.683  1.00  0.00     0.134 A 
ATOM     70  C   UNL A   1      36.535  34.083  29.343  1.00  0.00     0.134 A 
ATOM     71  F   UNL A   1      34.450  32.274  31.703  1.00  0.00    -0.206 F 
ATOM     72  C   UNL A   1      33.849  33.586  29.853  1.00  0.00     0.040 A 
ATOM     73  C   UNL A   1      35.554  34.647  28.525  1.00  0.00     0.040 A 
ATOM     74  F   UNL A   1      37.819  34.338  29.049  1.00  0.00    -0.206 F 
ATOM     75  C   UNL A   1      34.207  34.389  28.772  1.00  0.00     0.006 A 
ENDBRANCH  54  68
BRANCH  55  76
ATOM     76  C   UNL A   1      43.643  28.984  35.533  1.00  0.00     0.057 A 
ATOM     77  C   UNL A   1      44.975  29.359  35.323  1.00  0.00     0.134 A 
ATOM     78  C   UNL A   1      43.393  28.005  36.501  1.00  0.00     0.134 A 
ATOM     79  F   UNL A   1      45.279  30.281  34.396  1.00  0.00    -0.206 F 
ATOM     80  C   UNL A   1      46.021  28.778  36.041  1.00  0.00     0.040 A 
ATOM     81  C   UNL A   1      44.427  27.431  37.242  1.00  0.00     0.040 A 
ATOM     82  F   UNL A   1      42.137  27.610  36.755  1.00  0.00    -0.206 F 
ATOM     83  C   UNL A   1      45.747  27.815  37.009  1.00  0.00     0.006 A 
ENDBRANCH  55  76
BRANCH  67  84
ATOM     84  C   UNL A   1      39.541  34.484  36.723  1.00  0.00     0.057 A 
ATOM     85  C   UNL A   1      38.852  34.184  37.905  1.00  0.00     0.134 A 
ATOM     86  C   UNL A   1      40.193  35.721  36.652  1.00  0.00     0.134 A 
ATOM     87  F   UNL A   1      38.194  33.021  38.032  1.00  0.00    -0.206 F 
ATOM     88  C   UNL A   1      38.795  35.088  38.966  1.00  0.00     0.040 A 
ATOM     89  C   UNL A   1      40.167  36.622  37.717  1.00  0.00     0.040 A 
ATOM     90  F   UNL A   1      40.879  36.068  35.552  1.00  0.00    -0.206 F 
ATOM     91  C   UNL A   1      39.461  36.309  38.876  1.00  0.00     0.006 A 
ENDBRANCH  67  84
ENDBRANCH  41  42
ENDBRANCH  33  36
ENDBRANCH  31  32
ENDBRANCH   1  31
TORSDOF 14
ENDMDL
MODEL 3
REMARK VINA RESULT:     -12.1      3.969      8.858
REMARK SMILES COc1cc2c(cc1OC)[C@H](C(=O)NCCCNC(=O)c1ccc(-c3c4nc(c(-c5c(F)cccc5F)c5ccc([nH]5)c(-c5c(F)cccc5F)c5nc(c(-c6c(F)cccc6F)c6ccc3[nH]6)C=C5)C=C4)cc1)[C@@H](c1ccc(SC)cc1)N(C)C2=O
REMARK SMILES IDX 16 1 15 2 14 3 12 4 13 5 11 7 3 8 4 9 8 10 5 11 7 12 6 13
REMARK SMILES IDX 86 14 84 15 87 16 75 17 85 18 2 19 1 20 9 21 10 22 76 23
REMARK SMILES IDX 77 24 83 25 78 26 82 27 79 28 80 29 81 30 17 31 18 32 19 33
REMARK SMILES IDX 20 35 21 36 22 37 74 38 23 39 73 40 24 41 25 42 26 43 67 44
REMARK SMILES IDX 27 45 72 46 66 47 68 48 28 49 71 50 65 51 64 52 29 54 55 55
REMARK SMILES IDX 38 56 54 57 39 58 42 59 53 60 69 61 40 62 41 63 52 65 70 66
REMARK SMILES IDX 43 67 30 68 31 69 36 70 32 71 33 72 35 73 37 74 34 75 56 76
REMARK SMILES IDX 57 77 62 78 58 79 59 80 61 81 63 82 60 83 44 84 45 85 50 86
REMARK SMILES IDX 46 87 47 88 49 89 51 90 48 91
REMARK H PARENT 14 6 18 34 68 53 42 64
REMARK Flexibility Score: inf
ROOT
ATOM      1  C   UNL A   1      31.769  29.142  27.003  1.00  0.00     0.042 C 
ENDROOT
BRANCH   1   2
ATOM      2  C   UNL A   1      32.175  27.704  26.758  1.00  0.00     0.117 C 
BRANCH   2   3
ATOM      3  N   UNL A   1      31.055  26.772  26.838  1.00  0.00    -0.355 N 
ATOM      4  C   UNL A   1      30.829  25.652  26.072  1.00  0.00     0.230 C 
ATOM      5  O   UNL A   1      29.978  24.845  26.437  1.00  0.00    -0.274 OA
ATOM      6  H   UNL A   1      30.378  26.970  27.524  1.00  0.00     0.163 HD
BRANCH   4   7
ATOM      7  C   UNL A   1      31.689  25.461  24.827  1.00  0.00     0.136 C 
ATOM      8  C   UNL A   1      33.985  21.773  24.731  1.00  0.00     0.161 A 
ATOM      9  C   UNL A   1      33.780  22.540  23.575  1.00  0.00     0.064 A 
ATOM     10  C   UNL A   1      33.335  22.134  25.913  1.00  0.00     0.161 A 
ATOM     11  C   UNL A   1      32.989  23.701  23.604  1.00  0.00     0.048 A 
ATOM     12  C   UNL A   1      32.514  23.269  25.916  1.00  0.00     0.056 A 
ATOM     13  C   UNL A   1      32.374  24.100  24.790  1.00  0.00    -0.016 A 
ATOM     14  C   UNL A   1      32.837  24.513  22.365  1.00  0.00     0.254 C 
ATOM     15  N   UNL A   1      31.900  25.554  22.373  1.00  0.00    -0.334 N 
ATOM     16  O   UNL A   1      33.545  24.244  21.398  1.00  0.00    -0.269 OA
ATOM     17  C   UNL A   1      30.923  25.703  23.500  1.00  0.00     0.132 C 
ATOM     18  C   UNL A   1      31.735  26.296  21.130  1.00  0.00     0.147 C 
BRANCH   8  19
ATOM     19  O   UNL A   1      34.732  20.625  24.694  1.00  0.00    -0.493 OA
ATOM     20  C   UNL A   1      36.111  20.818  25.001  1.00  0.00     0.278 C 
ENDBRANCH   8  19
BRANCH  10  21
ATOM     21  O   UNL A   1      33.387  21.528  27.139  1.00  0.00    -0.493 OA
ATOM     22  C   UNL A   1      33.237  22.337  28.297  1.00  0.00     0.278 C 
ENDBRANCH  10  21
BRANCH  17  23
ATOM     23  C   UNL A   1      30.127  27.020  23.436  1.00  0.00    -0.024 A 
ATOM     24  C   UNL A   1      28.725  27.078  23.415  1.00  0.00     0.007 A 
ATOM     25  C   UNL A   1      30.824  28.241  23.395  1.00  0.00     0.007 A 
ATOM     26  C   UNL A   1      28.055  28.307  23.321  1.00  0.00     0.015 A 
ATOM     27  C   UNL A   1      30.150  29.471  23.343  1.00  0.00     0.015 A 
ATOM     28  C   UNL A   1      28.757  29.516  23.300  1.00  0.00     0.007 A 
BRANCH  28  29
ATOM     29  S   UNL A   1      27.796  31.018  23.169  1.00  0.00    -0.130 SA
ATOM     30  C   UNL A   1      28.776  32.023  22.022  1.00  0.00     0.091 C 
ENDBRANCH  28  29
ENDBRANCH  17  23
ENDBRANCH   4   7
ENDBRANCH   2   3
ENDBRANCH   1   2
BRANCH   1  31
ATOM     31  C   UNL A   1      32.494  30.135  26.111  1.00  0.00     0.118 C 
BRANCH  31  32
ATOM     32  N   UNL A   1      32.225  31.524  26.462  1.00  0.00    -0.352 N 
ATOM     33  C   UNL A   1      32.922  32.380  27.281  1.00  0.00     0.251 C 
ATOM     34  H   UNL A   1      31.418  31.910  26.048  1.00  0.00     0.163 HD
ATOM     35  O   UNL A   1      32.447  33.471  27.580  1.00  0.00    -0.269 OA
BRANCH  33  36
ATOM     36  C   UNL A   1      34.229  31.967  27.829  1.00  0.00     0.039 A 
ATOM     37  C   UNL A   1      35.238  32.923  27.973  1.00  0.00     0.014 A 
ATOM     38  C   UNL A   1      34.448  30.647  28.225  1.00  0.00     0.014 A 
ATOM     39  C   UNL A   1      36.436  32.568  28.596  1.00  0.00     0.010 A 
ATOM     40  C   UNL A   1      35.592  30.326  28.944  1.00  0.00     0.010 A 
ATOM     41  C   UNL A   1      36.601  31.280  29.131  1.00  0.00    -0.014 A 
BRANCH  41  42
ATOM     42  C   UNL A   1      37.822  30.902  29.884  1.00  0.00     0.031 A 
ATOM     43  C   UNL A   1      38.875  30.051  29.230  1.00  0.00     0.074 A 
ATOM     44  C   UNL A   1      37.943  31.253  31.178  1.00  0.00     0.049 A 
ATOM     45  N   UNL A   1      39.972  29.554  29.740  1.00  0.00    -0.248 NA
ATOM     46  C   UNL A   1      38.644  29.679  27.824  1.00  0.00     0.031 C 
ATOM     47  C   UNL A   1      36.965  32.031  31.941  1.00  0.00     0.029 A 
ATOM     48  N   UNL A   1      38.941  30.995  32.083  1.00  0.00    -0.354 N 
ATOM     49  C   UNL A   1      40.546  28.795  28.729  1.00  0.00     0.074 A 
ATOM     50  C   UNL A   1      39.644  28.843  27.599  1.00  0.00     0.031 C 
ATOM     51  C   UNL A   1      37.431  32.223  33.185  1.00  0.00     0.029 A 
ATOM     52  C   UNL A   1      38.716  31.544  33.321  1.00  0.00     0.049 A 
ATOM     53  H   UNL A   1      39.742  30.466  31.865  1.00  0.00     0.167 HD
ATOM     54  C   UNL A   1      41.731  28.140  28.730  1.00  0.00     0.037 A 
ATOM     55  C   UNL A   1      39.464  31.506  34.439  1.00  0.00     0.037 A 
ATOM     56  C   UNL A   1      42.636  28.117  29.848  1.00  0.00     0.049 A 
ATOM     57  C   UNL A   1      40.771  30.765  34.423  1.00  0.00     0.074 A 
ATOM     58  C   UNL A   1      43.894  27.546  29.929  1.00  0.00     0.029 A 
ATOM     59  N   UNL A   1      42.374  28.688  31.086  1.00  0.00    -0.354 N 
ATOM     60  N   UNL A   1      41.340  30.115  33.437  1.00  0.00    -0.248 NA
ATOM     61  C   UNL A   1      41.538  30.753  35.676  1.00  0.00     0.031 C 
ATOM     62  C   UNL A   1      44.371  27.727  31.232  1.00  0.00     0.029 A 
ATOM     63  C   UNL A   1      43.434  28.456  31.948  1.00  0.00     0.049 A 
ATOM     64  H   UNL A   1      41.556  29.183  31.318  1.00  0.00     0.167 HD
ATOM     65  C   UNL A   1      42.546  29.642  33.939  1.00  0.00     0.074 A 
ATOM     66  C   UNL A   1      42.628  30.088  35.315  1.00  0.00     0.031 C 
ATOM     67  C   UNL A   1      43.501  28.907  33.315  1.00  0.00     0.037 A 
BRANCH  54  68
ATOM     68  C   UNL A   1      42.100  27.389  27.482  1.00  0.00     0.057 A 
ATOM     69  C   UNL A   1      42.729  28.016  26.396  1.00  0.00     0.134 A 
ATOM     70  C   UNL A   1      41.813  26.024  27.358  1.00  0.00     0.134 A 
ATOM     71  F   UNL A   1      43.020  29.325  26.443  1.00  0.00    -0.206 F 
ATOM     72  C   UNL A   1      43.017  27.325  25.218  1.00  0.00     0.040 A 
ATOM     73  C   UNL A   1      42.125  25.315  26.197  1.00  0.00     0.040 A 
ATOM     74  F   UNL A   1      41.218  25.359  28.359  1.00  0.00    -0.206 F 
ATOM     75  C   UNL A   1      42.717  25.968  25.118  1.00  0.00     0.006 A 
ENDBRANCH  54  68
BRANCH  55  76
ATOM     76  C   UNL A   1      39.015  32.236  35.651  1.00  0.00     0.057 A 
ATOM     77  C   UNL A   1      39.348  33.583  35.837  1.00  0.00     0.134 A 
ATOM     78  C   UNL A   1      38.234  31.622  36.636  1.00  0.00     0.134 A 
ATOM     79  F   UNL A   1      40.108  34.221  34.935  1.00  0.00    -0.206 F 
ATOM     80  C   UNL A   1      38.927  34.292  36.963  1.00  0.00     0.040 A 
ATOM     81  C   UNL A   1      37.787  32.325  37.757  1.00  0.00     0.040 A 
ATOM     82  F   UNL A   1      37.875  30.336  36.511  1.00  0.00    -0.206 F 
ATOM     83  C   UNL A   1      38.138  33.664  37.923  1.00  0.00     0.006 A 
ENDBRANCH  55  76
BRANCH  67  84
ATOM     84  C   UNL A   1      44.730  28.568  34.106  1.00  0.00     0.057 A 
ATOM     85  C   UNL A   1      44.818  27.403  34.878  1.00  0.00     0.134 A 
ATOM     86  C   UNL A   1      45.855  29.401  34.062  1.00  0.00     0.134 A 
ATOM     87  F   UNL A   1      43.770  26.570  34.973  1.00  0.00    -0.206 F 
ATOM     88  C   UNL A   1      45.972  27.089  35.596  1.00  0.00     0.040 A 
ATOM     89  C   UNL A   1      47.025  29.084  34.753  1.00  0.00     0.040 A 
ATOM     90  F   UNL A   1      45.841  30.528  33.335  1.00  0.00    -0.206 F 
ATOM     91  C   UNL A   1      47.083  27.927  35.528  1.00  0.00     0.006 A 
ENDBRANCH  67  84
ENDBRANCH  41  42
ENDBRANCH  33  36
ENDBRANCH  31  32
ENDBRANCH   1  31
TORSDOF 14
ENDMDL
