MODEL 1
REMARK VINA RESULT:     -12.3      0.000      0.000
REMARK SMILES Cc1cc(=O)oc2cc(O[C@@H](C)C(=O)N[C@H](CC(C)C)C(=O)NCCCNC(=O)c3ccc(-c4c5nc(c(-c6c(F)cccc6F)c6ccc([nH]6)c(-c6c(F)cccc6F)c6nc(c(-c7c(F)cccc7F)c7ccc4[nH]7)C=C6)C=C5)cc3)ccc12
REMARK SMILES IDX 24 1 23 2 21 3 22 4 16 6 15 7 13 8 14 9 11 11 12 12 10 13
REMARK SMILES IDX 9 14 1 15 2 16 3 17 86 18 4 19 7 20 85 21 5 22 6 23 8 24
REMARK SMILES IDX 84 25 17 26 18 27 19 28 20 29 25 30 26 31 27 32 28 33 29 35
REMARK SMILES IDX 30 36 31 37 83 38 32 39 82 40 33 41 34 42 35 43 76 44 36 45
REMARK SMILES IDX 81 46 75 47 77 48 37 49 80 50 74 51 73 52 38 54 64 55 47 56
REMARK SMILES IDX 63 57 48 58 51 59 62 60 78 61 49 62 50 63 61 65 79 66 52 67
REMARK SMILES IDX 39 68 40 69 45 70 41 71 42 72 44 73 46 74 43 75 65 76 66 77
REMARK SMILES IDX 71 78 67 79 68 80 70 81 72 82 69 83 53 84 54 85 59 86 55 87
REMARK SMILES IDX 56 88 58 89 60 90 57 91
REMARK H PARENT 23 5 15 10 27 34 77 53 51 64
REMARK Flexibility Score: inf
ROOT
ATOM      1  C   UNL A   1      31.669  30.791  26.031  1.00  0.00     0.117 C 
ENDROOT
BRANCH   1   2
ATOM      2  N   UNL A   1      31.924  29.932  27.174  1.00  0.00    -0.354 N 
ATOM      3  C   UNL A   1      31.686  28.603  27.324  1.00  0.00     0.242 C 
ATOM      4  O   UNL A   1      31.201  28.223  28.388  1.00  0.00    -0.273 OA
ATOM      5  H   UNL A   1      32.327  30.378  27.953  1.00  0.00     0.163 HD
BRANCH   3   6
ATOM      6  C   UNL A   1      31.721  27.654  26.149  1.00  0.00     0.171 C 
BRANCH   6   7
ATOM      7  N   UNL A   1      31.041  26.429  26.548  1.00  0.00    -0.341 N 
ATOM      8  C   UNL A   1      30.400  25.465  25.809  1.00  0.00     0.261 C 
ATOM      9  O   UNL A   1      29.973  24.516  26.488  1.00  0.00    -0.271 OA
ATOM     10  H   UNL A   1      31.039  26.264  27.519  1.00  0.00     0.164 HD
BRANCH   8  11
ATOM     11  C   UNL A   1      30.182  25.409  24.212  1.00  0.00     0.258 C 
ATOM     12  C   UNL A   1      29.135  26.431  23.782  1.00  0.00     0.064 C 
BRANCH  11  13
ATOM     13  O   UNL A   1      30.392  24.299  23.325  1.00  0.00    -0.481 OA
BRANCH  13  14
ATOM     14  C   UNL A   1      31.400  23.383  23.380  1.00  0.00     0.124 A 
ATOM     15  C   UNL A   1      36.526  22.826  23.567  1.00  0.00     0.045 C 
ATOM     16  C   UNL A   1      35.347  22.275  24.316  1.00  0.00    -0.033 A 
ATOM     17  C   UNL A   1      35.461  21.950  25.614  1.00  0.00     0.098 A 
ATOM     18  C   UNL A   1      33.984  22.327  23.744  1.00  0.00     0.021 A 
ATOM     19  C   UNL A   1      34.316  21.556  26.459  1.00  0.00     0.336 A 
ATOM     20  C   UNL A   1      32.914  21.954  24.564  1.00  0.00     0.142 A 
ATOM     21  C   UNL A   1      33.672  22.996  22.558  1.00  0.00     0.016 A 
ATOM     22  O   UNL A   1      34.447  21.398  27.660  1.00  0.00    -0.246 OA
ATOM     23  O   UNL A   1      33.121  21.316  25.803  1.00  0.00    -0.423 OA
ATOM     24  C   UNL A   1      31.615  22.444  24.372  1.00  0.00     0.094 A 
ATOM     25  C   UNL A   1      32.375  23.512  22.375  1.00  0.00     0.047 A 
ENDBRANCH  13  14
ENDBRANCH  11  13
ENDBRANCH   8  11
ENDBRANCH   6   7
BRANCH   6  26
ATOM     26  C   UNL A   1      33.262  27.676  25.936  1.00  0.00     0.038 C 
BRANCH  26  27
ATOM     27  C   UNL A   1      34.090  26.771  25.036  1.00  0.00    -0.015 C 
ATOM     28  C   UNL A   1      34.183  25.339  25.532  1.00  0.00     0.007 C 
ATOM     29  C   UNL A   1      33.384  26.792  23.657  1.00  0.00     0.007 C 
ENDBRANCH  26  27
ENDBRANCH   6  26
ENDBRANCH   3   6
ENDBRANCH   1   2
BRANCH   1  30
ATOM     30  C   UNL A   1      31.369  32.182  26.571  1.00  0.00     0.042 C 
BRANCH  30  31
ATOM     31  C   UNL A   1      32.593  32.779  27.254  1.00  0.00     0.118 C 
BRANCH  31  32
ATOM     32  N   UNL A   1      32.387  34.185  27.558  1.00  0.00    -0.352 N 
ATOM     33  C   UNL A   1      32.965  34.928  28.554  1.00  0.00     0.251 C 
ATOM     34  H   UNL A   1      31.754  34.663  26.977  1.00  0.00     0.163 HD
ATOM     35  O   UNL A   1      32.495  36.013  28.875  1.00  0.00    -0.269 OA
BRANCH  33  36
ATOM     36  C   UNL A   1      34.153  34.396  29.247  1.00  0.00     0.039 A 
ATOM     37  C   UNL A   1      33.988  33.733  30.463  1.00  0.00     0.014 A 
ATOM     38  C   UNL A   1      35.427  34.550  28.688  1.00  0.00     0.014 A 
ATOM     39  C   UNL A   1      35.101  33.186  31.102  1.00  0.00     0.010 A 
ATOM     40  C   UNL A   1      36.522  33.937  29.285  1.00  0.00     0.010 A 
ATOM     41  C   UNL A   1      36.370  33.262  30.505  1.00  0.00    -0.014 A 
BRANCH  41  42
ATOM     42  C   UNL A   1      37.559  32.661  31.156  1.00  0.00     0.031 A 
ATOM     43  C   UNL A   1      38.235  31.473  30.530  1.00  0.00     0.074 A 
ATOM     44  C   UNL A   1      37.993  33.148  32.333  1.00  0.00     0.049 A 
ATOM     45  N   UNL A   1      39.243  30.767  30.976  1.00  0.00    -0.248 NA
ATOM     46  C   UNL A   1      37.690  30.999  29.249  1.00  0.00     0.031 C 
ATOM     47  C   UNL A   1      37.392  34.269  33.060  1.00  0.00     0.029 A 
ATOM     48  N   UNL A   1      39.039  32.759  33.129  1.00  0.00    -0.354 N 
ATOM     49  C   UNL A   1      39.441  29.761  30.041  1.00  0.00     0.074 A 
ATOM     50  C   UNL A   1      38.418  29.915  29.028  1.00  0.00     0.031 C 
ATOM     51  C   UNL A   1      38.094  34.490  34.184  1.00  0.00     0.029 A 
ATOM     52  C   UNL A   1      39.171  33.509  34.272  1.00  0.00     0.049 A 
ATOM     53  H   UNL A   1      39.639  32.012  32.903  1.00  0.00     0.167 HD
ATOM     54  C   UNL A   1      40.403  28.808  30.014  1.00  0.00     0.037 A 
ATOM     55  C   UNL A   1      40.059  33.411  35.279  1.00  0.00     0.037 A 
ATOM     56  C   UNL A   1      41.438  28.678  31.004  1.00  0.00     0.049 A 
ATOM     57  C   UNL A   1      41.121  32.349  35.221  1.00  0.00     0.074 A 
ATOM     58  C   UNL A   1      42.493  27.783  31.035  1.00  0.00     0.029 A 
ATOM     59  N   UNL A   1      41.551  29.472  32.135  1.00  0.00    -0.354 N 
ATOM     60  N   UNL A   1      41.331  31.440  34.301  1.00  0.00    -0.248 NA
ATOM     61  C   UNL A   1      42.072  32.304  36.341  1.00  0.00     0.031 C 
ATOM     62  C   UNL A   1      43.225  28.013  32.204  1.00  0.00     0.029 A 
ATOM     63  C   UNL A   1      42.650  29.077  32.880  1.00  0.00     0.049 A 
ATOM     64  H   UNL A   1      40.941  30.206  32.374  1.00  0.00     0.167 HD
ATOM     65  C   UNL A   1      42.452  30.733  34.714  1.00  0.00     0.074 A 
ATOM     66  C   UNL A   1      42.884  31.327  35.963  1.00  0.00     0.031 C 
ATOM     67  C   UNL A   1      43.069  29.687  34.115  1.00  0.00     0.037 A 
BRANCH  54  68
ATOM     68  C   UNL A   1      40.382  27.838  28.870  1.00  0.00     0.057 A 
ATOM     69  C   UNL A   1      39.618  26.665  28.912  1.00  0.00     0.134 A 
ATOM     70  C   UNL A   1      41.108  28.097  27.700  1.00  0.00     0.134 A 
ATOM     71  F   UNL A   1      38.913  26.352  30.009  1.00  0.00    -0.206 F 
ATOM     72  C   UNL A   1      39.594  25.772  27.839  1.00  0.00     0.040 A 
ATOM     73  C   UNL A   1      41.071  27.223  26.612  1.00  0.00     0.040 A 
ATOM     74  F   UNL A   1      41.857  29.205  27.593  1.00  0.00    -0.206 F 
ATOM     75  C   UNL A   1      40.316  26.054  26.683  1.00  0.00     0.006 A 
ENDBRANCH  54  68
BRANCH  55  76
ATOM     76  C   UNL A   1      39.999  34.362  36.415  1.00  0.00     0.057 A 
ATOM     77  C   UNL A   1      40.644  35.603  36.350  1.00  0.00     0.134 A 
ATOM     78  C   UNL A   1      39.307  34.055  37.592  1.00  0.00     0.134 A 
ATOM     79  F   UNL A   1      41.336  35.945  35.254  1.00  0.00    -0.206 F 
ATOM     80  C   UNL A   1      40.620  36.497  37.421  1.00  0.00     0.040 A 
ATOM     81  C   UNL A   1      39.255  34.948  38.663  1.00  0.00     0.040 A 
ATOM     82  F   UNL A   1      38.662  32.886  37.713  1.00  0.00    -0.206 F 
ATOM     83  C   UNL A   1      39.919  36.171  38.581  1.00  0.00     0.006 A 
ENDBRANCH  55  76
BRANCH  67  84
ATOM     84  C   UNL A   1      44.295  29.141  34.784  1.00  0.00     0.057 A 
ATOM     85  C   UNL A   1      44.225  28.096  35.712  1.00  0.00     0.134 A 
ATOM     86  C   UNL A   1      45.563  29.642  34.463  1.00  0.00     0.134 A 
ATOM     87  F   UNL A   1      43.038  27.583  36.070  1.00  0.00    -0.206 F 
ATOM     88  C   UNL A   1      45.373  27.582  36.317  1.00  0.00     0.040 A 
ATOM     89  C   UNL A   1      46.720  29.120  35.043  1.00  0.00     0.040 A 
ATOM     90  F   UNL A   1      45.698  30.638  33.574  1.00  0.00    -0.206 F 
ATOM     91  C   UNL A   1      46.625  28.090  35.977  1.00  0.00     0.006 A 
ENDBRANCH  67  84
ENDBRANCH  41  42
ENDBRANCH  33  36
ENDBRANCH  31  32
ENDBRANCH  30  31
ENDBRANCH   1  30
TORSDOF 16
ENDMDL
MODEL 2
REMARK VINA RESULT:     -12.3      0.905      6.098
REMARK SMILES Cc1cc(=O)oc2cc(O[C@@H](C)C(=O)N[C@H](CC(C)C)C(=O)NCCCNC(=O)c3ccc(-c4c5nc(c(-c6c(F)cccc6F)c6ccc([nH]6)c(-c6c(F)cccc6F)c6nc(c(-c7c(F)cccc7F)c7ccc4[nH]7)C=C6)C=C5)cc3)ccc12
REMARK SMILES IDX 24 1 23 2 21 3 22 4 16 6 15 7 13 8 14 9 11 11 12 12 10 13
REMARK SMILES IDX 9 14 1 15 2 16 3 17 86 18 4 19 7 20 85 21 5 22 6 23 8 24
REMARK SMILES IDX 84 25 17 26 18 27 19 28 20 29 25 30 26 31 27 32 28 33 29 35
REMARK SMILES IDX 30 36 31 37 83 38 32 39 82 40 33 41 34 42 35 43 76 44 36 45
REMARK SMILES IDX 81 46 75 47 77 48 37 49 80 50 74 51 73 52 38 54 64 55 47 56
REMARK SMILES IDX 63 57 48 58 51 59 62 60 78 61 49 62 50 63 61 65 79 66 52 67
REMARK SMILES IDX 39 68 40 69 45 70 41 71 42 72 44 73 46 74 43 75 65 76 66 77
REMARK SMILES IDX 71 78 67 79 68 80 70 81 72 82 69 83 53 84 54 85 59 86 55 87
REMARK SMILES IDX 56 88 58 89 60 90 57 91
REMARK H PARENT 23 5 15 10 27 34 77 53 51 64
REMARK Flexibility Score: inf
ROOT
ATOM      1  C   UNL A   1      31.404  30.783  25.985  1.00  0.00     0.117 C 
ENDROOT
BRANCH   1   2
ATOM      2  N   UNL A   1      31.849  29.956  27.092  1.00  0.00    -0.354 N 
ATOM      3  C   UNL A   1      31.738  28.613  27.266  1.00  0.00     0.242 C 
ATOM      4  O   UNL A   1      31.402  28.204  28.376  1.00  0.00    -0.273 OA
ATOM      5  H   UNL A   1      32.296  30.439  27.824  1.00  0.00     0.163 HD
BRANCH   3   6
ATOM      6  C   UNL A   1      31.723  27.661  26.093  1.00  0.00     0.171 C 
BRANCH   6   7
ATOM      7  N   UNL A   1      31.046  26.444  26.519  1.00  0.00    -0.341 N 
ATOM      8  C   UNL A   1      30.376  25.480  25.804  1.00  0.00     0.261 C 
ATOM      9  O   UNL A   1      29.963  24.538  26.501  1.00  0.00    -0.271 OA
ATOM     10  H   UNL A   1      31.073  26.284  27.490  1.00  0.00     0.164 HD
BRANCH   8  11
ATOM     11  C   UNL A   1      30.110  25.418  24.215  1.00  0.00     0.258 C 
ATOM     12  C   UNL A   1      29.026  26.416  23.818  1.00  0.00     0.064 C 
BRANCH  11  13
ATOM     13  O   UNL A   1      30.317  24.313  23.322  1.00  0.00    -0.481 OA
BRANCH  13  14
ATOM     14  C   UNL A   1      31.315  23.385  23.381  1.00  0.00     0.124 A 
ATOM     15  C   UNL A   1      36.435  22.768  23.501  1.00  0.00     0.045 C 
ATOM     16  C   UNL A   1      35.262  22.248  24.279  1.00  0.00    -0.033 A 
ATOM     17  C   UNL A   1      35.391  21.949  25.582  1.00  0.00     0.098 A 
ATOM     18  C   UNL A   1      33.891  22.305  23.727  1.00  0.00     0.021 A 
ATOM     19  C   UNL A   1      34.256  21.587  26.453  1.00  0.00     0.336 A 
ATOM     20  C   UNL A   1      32.829  21.963  24.572  1.00  0.00     0.142 A 
ATOM     21  C   UNL A   1      33.568  22.953  22.532  1.00  0.00     0.016 A 
ATOM     22  O   UNL A   1      34.403  21.453  27.654  1.00  0.00    -0.246 OA
ATOM     23  O   UNL A   1      33.048  21.349  25.820  1.00  0.00    -0.423 OA
ATOM     24  C   UNL A   1      31.534  22.465  24.388  1.00  0.00     0.094 A 
ATOM     25  C   UNL A   1      32.275  23.482  22.358  1.00  0.00     0.047 A 
ENDBRANCH  13  14
ENDBRANCH  11  13
ENDBRANCH   8  11
ENDBRANCH   6   7
BRANCH   6  26
ATOM     26  C   UNL A   1      33.257  27.669  25.827  1.00  0.00     0.038 C 
BRANCH  26  27
ATOM     27  C   UNL A   1      34.075  26.629  25.076  1.00  0.00    -0.015 C 
ATOM     28  C   UNL A   1      34.049  25.253  25.717  1.00  0.00     0.007 C 
ATOM     29  C   UNL A   1      33.451  26.549  23.659  1.00  0.00     0.007 C 
ENDBRANCH  26  27
ENDBRANCH   6  26
ENDBRANCH   3   6
ENDBRANCH   1   2
BRANCH   1  30
ATOM     30  C   UNL A   1      31.300  32.211  26.501  1.00  0.00     0.042 C 
BRANCH  30  31
ATOM     31  C   UNL A   1      32.564  32.614  27.251  1.00  0.00     0.118 C 
BRANCH  31  32
ATOM     32  N   UNL A   1      32.525  34.019  27.620  1.00  0.00    -0.352 N 
ATOM     33  C   UNL A   1      33.215  34.648  28.623  1.00  0.00     0.251 C 
ATOM     34  H   UNL A   1      31.931  34.589  27.083  1.00  0.00     0.163 HD
ATOM     35  O   UNL A   1      32.879  35.764  29.005  1.00  0.00    -0.269 OA
BRANCH  33  36
ATOM     36  C   UNL A   1      34.359  33.958  29.248  1.00  0.00     0.039 A 
ATOM     37  C   UNL A   1      34.117  33.019  30.251  1.00  0.00     0.014 A 
ATOM     38  C   UNL A   1      35.666  34.241  28.837  1.00  0.00     0.014 A 
ATOM     39  C   UNL A   1      35.190  32.328  30.815  1.00  0.00     0.010 A 
ATOM     40  C   UNL A   1      36.725  33.496  29.343  1.00  0.00     0.010 A 
ATOM     41  C   UNL A   1      36.497  32.543  30.347  1.00  0.00    -0.014 A 
BRANCH  41  42
ATOM     42  C   UNL A   1      37.645  31.797  30.914  1.00  0.00     0.031 A 
ATOM     43  C   UNL A   1      38.147  32.127  32.292  1.00  0.00     0.074 A 
ATOM     44  C   UNL A   1      38.268  30.863  30.170  1.00  0.00     0.049 A 
ATOM     45  N   UNL A   1      39.174  31.636  32.936  1.00  0.00    -0.248 NA
ATOM     46  C   UNL A   1      37.415  33.166  33.032  1.00  0.00     0.031 C 
ATOM     47  C   UNL A   1      37.901  30.485  28.803  1.00  0.00     0.029 A 
ATOM     48  N   UNL A   1      39.345  30.066  30.458  1.00  0.00    -0.354 N 
ATOM     49  C   UNL A   1      39.220  32.315  34.147  1.00  0.00     0.074 A 
ATOM     50  C   UNL A   1      38.149  33.288  34.128  1.00  0.00     0.031 C 
ATOM     51  C   UNL A   1      38.726  29.514  28.380  1.00  0.00     0.029 A 
ATOM     52  C   UNL A   1      39.697  29.224  29.430  1.00  0.00     0.049 A 
ATOM     53  H   UNL A   1      39.822  30.094  31.318  1.00  0.00     0.167 HD
ATOM     54  C   UNL A   1      40.063  32.128  35.190  1.00  0.00     0.037 A 
ATOM     55  C   UNL A   1      40.694  28.323  29.347  1.00  0.00     0.037 A 
ATOM     56  C   UNL A   1      41.104  31.137  35.220  1.00  0.00     0.049 A 
ATOM     57  C   UNL A   1      41.610  28.130  30.522  1.00  0.00     0.074 A 
ATOM     58  C   UNL A   1      41.973  30.830  36.252  1.00  0.00     0.029 A 
ATOM     59  N   UNL A   1      41.414  30.288  34.168  1.00  0.00    -0.354 N 
ATOM     60  N   UNL A   1      41.606  28.740  31.682  1.00  0.00    -0.248 NA
ATOM     61  C   UNL A   1      42.668  27.120  30.376  1.00  0.00     0.031 C 
ATOM     62  C   UNL A   1      42.831  29.817  35.814  1.00  0.00     0.029 A 
ATOM     63  C   UNL A   1      42.471  29.466  34.523  1.00  0.00     0.049 A 
ATOM     64  H   UNL A   1      40.951  30.272  33.300  1.00  0.00     0.167 HD
ATOM     65  C   UNL A   1      42.638  28.170  32.415  1.00  0.00     0.074 A 
ATOM     66  C   UNL A   1      43.240  27.158  31.572  1.00  0.00     0.031 C 
ATOM     67  C   UNL A   1      43.050  28.458  33.673  1.00  0.00     0.037 A 
BRANCH  54  68
ATOM     68  C   UNL A   1      39.882  33.011  36.389  1.00  0.00     0.057 A 
ATOM     69  C   UNL A   1      40.622  34.188  36.556  1.00  0.00     0.134 A 
ATOM     70  C   UNL A   1      38.934  32.698  37.371  1.00  0.00     0.134 A 
ATOM     71  F   UNL A   1      41.557  34.536  35.659  1.00  0.00    -0.206 F 
ATOM     72  C   UNL A   1      40.442  35.012  37.668  1.00  0.00     0.040 A 
ATOM     73  C   UNL A   1      38.727  33.528  38.475  1.00  0.00     0.040 A 
ATOM     74  F   UNL A   1      38.188  31.587  37.270  1.00  0.00    -0.206 F 
ATOM     75  C   UNL A   1      39.487  34.686  38.628  1.00  0.00     0.006 A 
ENDBRANCH  54  68
BRANCH  55  76
ATOM     76  C   UNL A   1      40.861  27.515  28.114  1.00  0.00     0.057 A 
ATOM     77  C   UNL A   1      41.645  27.977  27.052  1.00  0.00     0.134 A 
ATOM     78  C   UNL A   1      40.239  26.271  27.965  1.00  0.00     0.134 A 
ATOM     79  F   UNL A   1      42.253  29.170  27.132  1.00  0.00    -0.206 F 
ATOM     80  C   UNL A   1      41.791  27.241  25.875  1.00  0.00     0.040 A 
ATOM     81  C   UNL A   1      40.393  25.512  26.803  1.00  0.00     0.040 A 
ATOM     82  F   UNL A   1      39.481  25.769  28.951  1.00  0.00    -0.206 F 
ATOM     83  C   UNL A   1      41.165  26.001  25.751  1.00  0.00     0.006 A 
ENDBRANCH  55  76
BRANCH  67  84
ATOM     84  C   UNL A   1      44.184  27.646  34.223  1.00  0.00     0.057 A 
ATOM     85  C   UNL A   1      45.513  28.076  34.130  1.00  0.00     0.134 A 
ATOM     86  C   UNL A   1      43.936  26.439  34.889  1.00  0.00     0.134 A 
ATOM     87  F   UNL A   1      45.815  29.218  33.492  1.00  0.00    -0.206 F 
ATOM     88  C   UNL A   1      46.560  27.322  34.662  1.00  0.00     0.040 A 
ATOM     89  C   UNL A   1      44.973  25.689  35.445  1.00  0.00     0.040 A 
ATOM     90  F   UNL A   1      42.684  25.977  35.020  1.00  0.00    -0.206 F 
ATOM     91  C   UNL A   1      46.290  26.128  35.327  1.00  0.00     0.006 A 
ENDBRANCH  67  84
ENDBRANCH  41  42
ENDBRANCH  33  36
ENDBRANCH  31  32
ENDBRANCH  30  31
ENDBRANCH   1  30
TORSDOF 16
ENDMDL
MODEL 3
REMARK VINA RESULT:     -12.2      4.266      9.080
REMARK SMILES Cc1cc(=O)oc2cc(O[C@@H](C)C(=O)N[C@H](CC(C)C)C(=O)NCCCNC(=O)c3ccc(-c4c5nc(c(-c6c(F)cccc6F)c6ccc([nH]6)c(-c6c(F)cccc6F)c6nc(c(-c7c(F)cccc7F)c7ccc4[nH]7)C=C6)C=C5)cc3)ccc12
REMARK SMILES IDX 24 1 23 2 21 3 22 4 16 6 15 7 13 8 14 9 11 11 12 12 10 13
REMARK SMILES IDX 9 14 1 15 2 16 3 17 86 18 4 19 7 20 85 21 5 22 6 23 8 24
REMARK SMILES IDX 84 25 17 26 18 27 19 28 20 29 25 30 26 31 27 32 28 33 29 35
REMARK SMILES IDX 30 36 31 37 83 38 32 39 82 40 33 41 34 42 35 43 76 44 36 45
REMARK SMILES IDX 81 46 75 47 77 48 37 49 80 50 74 51 73 52 38 54 64 55 47 56
REMARK SMILES IDX 63 57 48 58 51 59 62 60 78 61 49 62 50 63 61 65 79 66 52 67
REMARK SMILES IDX 39 68 40 69 45 70 41 71 42 72 44 73 46 74 43 75 65 76 66 77
REMARK SMILES IDX 71 78 67 79 68 80 70 81 72 82 69 83 53 84 54 85 59 86 55 87
REMARK SMILES IDX 56 88 58 89 60 90 57 91
REMARK H PARENT 23 5 15 10 27 34 77 53 51 64
REMARK Flexibility Score: inf
ROOT
ATOM      1  C   UNL A   1      36.888  20.411  24.917  1.00  0.00     0.117 C 
ENDROOT
BRANCH   1   2
ATOM      2  N   UNL A   1      37.331  21.630  24.264  1.00  0.00    -0.354 N 
ATOM      3  C   UNL A   1      36.605  22.564  23.596  1.00  0.00     0.242 C 
ATOM      4  O   UNL A   1      37.059  22.996  22.538  1.00  0.00    -0.273 OA
ATOM      5  H   UNL A   1      38.297  21.806  24.313  1.00  0.00     0.163 HD
BRANCH   3   6
ATOM      6  C   UNL A   1      35.165  22.851  23.952  1.00  0.00     0.171 C 
BRANCH   6   7
ATOM      7  N   UNL A   1      34.555  23.531  22.817  1.00  0.00    -0.341 N 
ATOM      8  C   UNL A   1      33.247  23.610  22.402  1.00  0.00     0.261 C 
ATOM      9  O   UNL A   1      33.083  24.332  21.404  1.00  0.00    -0.271 OA
ATOM     10  H   UNL A   1      35.192  24.019  22.247  1.00  0.00     0.164 HD
BRANCH   8  11
ATOM     11  C   UNL A   1      31.945  22.927  23.063  1.00  0.00     0.258 C 
ATOM     12  C   UNL A   1      31.909  21.435  22.746  1.00  0.00     0.064 C 
BRANCH  11  13
ATOM     13  O   UNL A   1      30.688  23.540  23.388  1.00  0.00    -0.481 OA
BRANCH  13  14
ATOM     14  C   UNL A   1      30.487  24.813  23.835  1.00  0.00     0.124 A 
ATOM     15  C   UNL A   1      31.772  28.195  27.512  1.00  0.00     0.045 C 
ATOM     16  C   UNL A   1      31.686  28.203  26.014  1.00  0.00    -0.033 A 
ATOM     17  C   UNL A   1      32.520  28.969  25.292  1.00  0.00     0.098 A 
ATOM     18  C   UNL A   1      30.890  27.190  25.287  1.00  0.00     0.021 A 
ATOM     19  C   UNL A   1      32.609  28.913  23.819  1.00  0.00     0.336 A 
ATOM     20  C   UNL A   1      30.994  27.152  23.892  1.00  0.00     0.142 A 
ATOM     21  C   UNL A   1      30.285  26.095  25.909  1.00  0.00     0.016 A 
ATOM     22  O   UNL A   1      33.470  29.530  23.218  1.00  0.00    -0.246 OA
ATOM     23  O   UNL A   1      31.627  28.183  23.172  1.00  0.00    -0.423 OA
ATOM     24  C   UNL A   1      30.760  25.984  23.155  1.00  0.00     0.094 A 
ATOM     25  C   UNL A   1      30.074  24.912  25.176  1.00  0.00     0.047 A 
ENDBRANCH  13  14
ENDBRANCH  11  13
ENDBRANCH   8  11
ENDBRANCH   6   7
BRANCH   6  26
ATOM     26  C   UNL A   1      35.448  23.613  25.279  1.00  0.00     0.038 C 
BRANCH  26  27
ATOM     27  C   UNL A   1      34.485  24.477  26.080  1.00  0.00    -0.015 C 
ATOM     28  C   UNL A   1      34.090  25.762  25.375  1.00  0.00     0.007 C 
ATOM     29  C   UNL A   1      33.224  23.603  26.301  1.00  0.00     0.007 C 
ENDBRANCH  26  27
ENDBRANCH   6  26
ENDBRANCH   3   6
ENDBRANCH   1   2
BRANCH   1  30
ATOM     30  C   UNL A   1      38.080  19.465  24.961  1.00  0.00     0.042 C 
BRANCH  30  31
ATOM     31  C   UNL A   1      39.198  20.034  25.825  1.00  0.00     0.118 C 
BRANCH  31  32
ATOM     32  N   UNL A   1      40.348  19.146  25.841  1.00  0.00    -0.352 N 
ATOM     33  C   UNL A   1      41.668  19.475  26.009  1.00  0.00     0.251 C 
ATOM     34  H   UNL A   1      40.156  18.189  25.716  1.00  0.00     0.163 HD
ATOM     35  O   UNL A   1      42.551  18.676  25.720  1.00  0.00    -0.269 OA
BRANCH  33  36
ATOM     36  C   UNL A   1      42.012  20.811  26.530  1.00  0.00     0.039 A 
ATOM     37  C   UNL A   1      42.399  21.808  25.633  1.00  0.00     0.014 A 
ATOM     38  C   UNL A   1      41.947  21.075  27.902  1.00  0.00     0.014 A 
ATOM     39  C   UNL A   1      42.681  23.087  26.112  1.00  0.00     0.010 A 
ATOM     40  C   UNL A   1      42.151  22.369  28.367  1.00  0.00     0.010 A 
ATOM     41  C   UNL A   1      42.534  23.383  27.478  1.00  0.00    -0.014 A 
BRANCH  41  42
ATOM     42  C   UNL A   1      42.802  24.744  27.999  1.00  0.00     0.031 A 
ATOM     43  C   UNL A   1      44.199  25.135  28.393  1.00  0.00     0.074 A 
ATOM     44  C   UNL A   1      41.781  25.606  28.169  1.00  0.00     0.049 A 
ATOM     45  N   UNL A   1      44.624  26.251  28.929  1.00  0.00    -0.248 NA
ATOM     46  C   UNL A   1      45.252  24.130  28.184  1.00  0.00     0.031 C 
ATOM     47  C   UNL A   1      40.376  25.327  27.864  1.00  0.00     0.029 A 
ATOM     48  N   UNL A   1      41.769  26.892  28.645  1.00  0.00    -0.354 N 
ATOM     49  C   UNL A   1      45.986  26.075  29.134  1.00  0.00     0.074 A 
ATOM     50  C   UNL A   1      46.308  24.729  28.713  1.00  0.00     0.031 C 
ATOM     51  C   UNL A   1      39.642  26.417  28.140  1.00  0.00     0.029 A 
ATOM     52  C   UNL A   1      40.518  27.458  28.670  1.00  0.00     0.049 A 
ATOM     53  H   UNL A   1      42.580  27.364  28.941  1.00  0.00     0.167 HD
ATOM     54  C   UNL A   1      46.891  26.964  29.607  1.00  0.00     0.037 A 
ATOM     55  C   UNL A   1      40.123  28.678  29.079  1.00  0.00     0.037 A 
ATOM     56  C   UNL A   1      46.574  28.313  29.993  1.00  0.00     0.049 A 
ATOM     57  C   UNL A   1      41.150  29.648  29.594  1.00  0.00     0.074 A 
ATOM     58  C   UNL A   1      47.430  29.308  30.429  1.00  0.00     0.029 A 
ATOM     59  N   UNL A   1      45.298  28.856  29.983  1.00  0.00    -0.354 N 
ATOM     60  N   UNL A   1      42.443  29.488  29.728  1.00  0.00    -0.248 NA
ATOM     61  C   UNL A   1      40.660  30.970  30.009  1.00  0.00     0.031 C 
ATOM     62  C   UNL A   1      46.667  30.445  30.716  1.00  0.00     0.029 A 
ATOM     63  C   UNL A   1      45.342  30.169  30.420  1.00  0.00     0.049 A 
ATOM     64  H   UNL A   1      44.483  28.378  29.706  1.00  0.00     0.167 HD
ATOM     65  C   UNL A   1      42.927  30.694  30.216  1.00  0.00     0.074 A 
ATOM     66  C   UNL A   1      41.788  31.581  30.343  1.00  0.00     0.031 C 
ATOM     67  C   UNL A   1      44.199  31.038  30.530  1.00  0.00     0.037 A 
BRANCH  54  68
ATOM     68  C   UNL A   1      48.314  26.503  29.723  1.00  0.00     0.057 A 
ATOM     69  C   UNL A   1      49.228  26.664  28.674  1.00  0.00     0.134 A 
ATOM     70  C   UNL A   1      48.784  25.924  30.908  1.00  0.00     0.134 A 
ATOM     71  F   UNL A   1      48.837  27.198  27.507  1.00  0.00    -0.206 F 
ATOM     72  C   UNL A   1      50.554  26.244  28.791  1.00  0.00     0.040 A 
ATOM     73  C   UNL A   1      50.114  25.523  31.046  1.00  0.00     0.040 A 
ATOM     74  F   UNL A   1      47.961  25.745  31.953  1.00  0.00    -0.206 F 
ATOM     75  C   UNL A   1      51.002  25.678  29.982  1.00  0.00     0.006 A 
ENDBRANCH  54  68
BRANCH  55  76
ATOM     76  C   UNL A   1      38.693  29.062  28.995  1.00  0.00     0.057 A 
ATOM     77  C   UNL A   1      38.144  29.533  27.797  1.00  0.00     0.134 A 
ATOM     78  C   UNL A   1      37.845  28.976  30.104  1.00  0.00     0.134 A 
ATOM     79  F   UNL A   1      38.913  29.653  26.705  1.00  0.00    -0.206 F 
ATOM     80  C   UNL A   1      36.808  29.924  27.708  1.00  0.00     0.040 A 
ATOM     81  C   UNL A   1      36.500  29.342  30.025  1.00  0.00     0.040 A 
ATOM     82  F   UNL A   1      38.308  28.524  31.279  1.00  0.00    -0.206 F 
ATOM     83  C   UNL A   1      35.980  29.825  28.826  1.00  0.00     0.006 A 
ENDBRANCH  55  76
BRANCH  67  84
ATOM     84  C   UNL A   1      44.430  32.440  31.008  1.00  0.00     0.057 A 
ATOM     85  C   UNL A   1      44.426  32.764  32.370  1.00  0.00     0.134 A 
ATOM     86  C   UNL A   1      44.699  33.468  30.096  1.00  0.00     0.134 A 
ATOM     87  F   UNL A   1      44.162  31.826  33.292  1.00  0.00    -0.206 F 
ATOM     88  C   UNL A   1      44.660  34.069  32.808  1.00  0.00     0.040 A 
ATOM     89  C   UNL A   1      44.957  34.771  30.523  1.00  0.00     0.040 A 
ATOM     90  F   UNL A   1      44.725  33.220  28.777  1.00  0.00    -0.206 F 
ATOM     91  C   UNL A   1      44.933  35.074  31.882  1.00  0.00     0.006 A 
ENDBRANCH  67  84
ENDBRANCH  41  42
ENDBRANCH  33  36
ENDBRANCH  31  32
ENDBRANCH  30  31
ENDBRANCH   1  30
TORSDOF 16
ENDMDL
