MODEL 1
REMARK VINA RESULT:     -11.8      0.000      0.000
REMARK SMILES CC(C)(Cn1ccc2ccc([N+](=O)[O-])cc21)C(=O)NCCCNC(=O)c1ccc(-c2c3nc(c(-c4c(F)cccc4F)c4ccc([nH]4)c(-c4c(F)cccc4F)c4nc(c(-c5c(F)cccc5F)c5ccc2[nH]5)C=C4)C=C3)cc1
REMARK SMILES IDX 20 1 19 2 17 3 18 4 2 6 1 7 3 8 4 9 5 10 6 11 16 12 7 13
REMARK SMILES IDX 8 14 15 15 9 16 11 17 10 18 12 19 13 20 14 21 21 22 22 23
REMARK SMILES IDX 23 24 24 25 25 27 26 28 27 29 79 30 28 31 78 32 29 33 30 34
REMARK SMILES IDX 31 35 72 36 32 37 77 38 71 39 73 40 33 41 76 42 70 43 69 44
REMARK SMILES IDX 34 46 60 47 43 48 59 49 44 50 47 51 58 52 74 53 45 54 46 55
REMARK SMILES IDX 57 57 75 58 48 59 35 60 36 61 41 62 37 63 38 64 40 65 42 66
REMARK SMILES IDX 39 67 61 68 62 69 67 70 63 71 64 72 66 73 68 74 65 75 49 76
REMARK SMILES IDX 50 77 55 78 51 79 52 80 54 81 56 82 53 83
REMARK H PARENT 19 5 23 26 73 45 47 56
REMARK Flexibility Score: inf
ROOT
ATOM      1  C   UNL A   1      39.655  21.374  26.532  1.00  0.00     0.117 C 
ENDROOT
BRANCH   1   2
ATOM      2  N   UNL A   1      39.014  22.647  26.226  1.00  0.00    -0.356 N 
ATOM      3  C   UNL A   1      37.764  22.953  25.751  1.00  0.00     0.227 C 
ATOM      4  O   UNL A   1      37.386  24.113  25.935  1.00  0.00    -0.274 OA
ATOM      5  H   UNL A   1      39.584  23.432  26.390  1.00  0.00     0.163 HD
BRANCH   3   6
ATOM      6  C   UNL A   1      36.887  21.931  24.997  1.00  0.00     0.061 C 
ATOM      7  C   UNL A   1      37.564  20.556  24.721  1.00  0.00     0.023 C 
ATOM      8  C   UNL A   1      36.620  22.451  23.562  1.00  0.00     0.023 C 
BRANCH   6   9
ATOM      9  C   UNL A   1      35.598  21.683  25.817  1.00  0.00     0.138 C 
BRANCH   9  10
ATOM     10  N   UNL A   1      34.328  21.291  25.184  1.00  0.00    -0.346 N 
ATOM     11  C   UNL A   1      33.401  22.273  24.867  1.00  0.00     0.087 A 
ATOM     12  C   UNL A   1      33.901  20.089  24.625  1.00  0.00     0.055 A 
ATOM     13  C   UNL A   1      32.443  21.738  24.042  1.00  0.00     0.028 A 
ATOM     14  C   UNL A   1      32.760  20.373  23.850  1.00  0.00     0.000 A 
ATOM     15  C   UNL A   1      34.376  18.764  24.677  1.00  0.00     0.112 A 
ATOM     16  C   UNL A   1      32.156  19.353  23.077  1.00  0.00     0.017 A 
ATOM     17  C   UNL A   1      33.792  17.779  23.864  1.00  0.00     0.271 A 
ATOM     18  C   UNL A   1      32.690  18.064  23.064  1.00  0.00     0.086 A 
BRANCH  17  19
ATOM     19  N   UNL A   1      34.379  16.431  23.829  1.00  0.00     0.062 N 
ATOM     20  O   UNL A   1      34.842  15.978  24.897  1.00  0.00    -0.258 OA
ATOM     21  O   UNL A   1      34.412  15.840  22.751  1.00  0.00    -0.258 OA
ENDBRANCH  17  19
ENDBRANCH   9  10
ENDBRANCH   6   9
ENDBRANCH   3   6
ENDBRANCH   1   2
BRANCH   1  22
ATOM     22  C   UNL A   1      40.782  21.424  27.561  1.00  0.00     0.042 C 
BRANCH  22  23
ATOM     23  C   UNL A   1      42.181  21.078  27.063  1.00  0.00     0.118 C 
BRANCH  23  24
ATOM     24  N   UNL A   1      42.558  21.693  25.804  1.00  0.00    -0.352 N 
ATOM     25  C   UNL A   1      42.935  22.939  25.389  1.00  0.00     0.251 C 
ATOM     26  H   UNL A   1      42.536  21.049  25.060  1.00  0.00     0.163 HD
ATOM     27  O   UNL A   1      43.392  22.997  24.243  1.00  0.00    -0.269 OA
BRANCH  25  28
ATOM     28  C   UNL A   1      42.794  24.211  26.153  1.00  0.00     0.039 A 
ATOM     29  C   UNL A   1      43.522  24.576  27.284  1.00  0.00     0.014 A 
ATOM     30  C   UNL A   1      41.780  25.086  25.707  1.00  0.00     0.014 A 
ATOM     31  C   UNL A   1      43.191  25.737  27.990  1.00  0.00     0.010 A 
ATOM     32  C   UNL A   1      41.456  26.252  26.399  1.00  0.00     0.010 A 
ATOM     33  C   UNL A   1      42.138  26.563  27.568  1.00  0.00    -0.014 A 
BRANCH  33  34
ATOM     34  C   UNL A   1      41.880  27.801  28.310  1.00  0.00     0.031 A 
ATOM     35  C   UNL A   1      42.921  28.857  28.155  1.00  0.00     0.074 A 
ATOM     36  C   UNL A   1      40.754  28.092  28.995  1.00  0.00     0.049 A 
ATOM     37  N   UNL A   1      43.688  29.356  29.069  1.00  0.00    -0.248 NA
ATOM     38  C   UNL A   1      43.193  29.365  26.802  1.00  0.00     0.031 C 
ATOM     39  C   UNL A   1      39.496  27.346  29.041  1.00  0.00     0.029 A 
ATOM     40  N   UNL A   1      40.478  29.202  29.748  1.00  0.00    -0.354 N 
ATOM     41  C   UNL A   1      44.421  30.368  28.452  1.00  0.00     0.074 A 
ATOM     42  C   UNL A   1      44.168  30.244  27.039  1.00  0.00     0.031 C 
ATOM     43  C   UNL A   1      38.538  28.119  29.605  1.00  0.00     0.029 A 
ATOM     44  C   UNL A   1      39.136  29.360  30.071  1.00  0.00     0.049 A 
ATOM     45  H   UNL A   1      41.173  29.837  30.035  1.00  0.00     0.167 HD
ATOM     46  C   UNL A   1      45.019  31.358  29.173  1.00  0.00     0.037 A 
ATOM     47  C   UNL A   1      38.552  30.448  30.637  1.00  0.00     0.037 A 
ATOM     48  C   UNL A   1      45.187  30.982  30.554  1.00  0.00     0.049 A 
ATOM     49  C   UNL A   1      39.615  31.237  31.306  1.00  0.00     0.074 A 
ATOM     50  C   UNL A   1      45.782  29.919  31.210  1.00  0.00     0.029 A 
ATOM     51  N   UNL A   1      44.405  31.593  31.504  1.00  0.00    -0.354 N 
ATOM     52  N   UNL A   1      40.215  30.877  32.404  1.00  0.00    -0.248 NA
ATOM     53  C   UNL A   1      40.300  32.257  30.524  1.00  0.00     0.031 C 
ATOM     54  C   UNL A   1      44.925  29.644  32.316  1.00  0.00     0.029 A 
ATOM     55  C   UNL A   1      43.902  30.591  32.289  1.00  0.00     0.049 A 
ATOM     56  H   UNL A   1      44.241  32.559  31.601  1.00  0.00     0.167 HD
ATOM     57  C   UNL A   1      41.531  31.272  32.226  1.00  0.00     0.074 A 
ATOM     58  C   UNL A   1      41.502  32.206  31.104  1.00  0.00     0.031 C 
ATOM     59  C   UNL A   1      42.560  30.594  32.813  1.00  0.00     0.037 A 
BRANCH  46  60
ATOM     60  C   UNL A   1      45.105  32.800  28.723  1.00  0.00     0.057 A 
ATOM     61  C   UNL A   1      43.984  33.630  28.518  1.00  0.00     0.134 A 
ATOM     62  C   UNL A   1      46.337  33.477  28.822  1.00  0.00     0.134 A 
ATOM     63  F   UNL A   1      42.737  33.151  28.451  1.00  0.00    -0.206 F 
ATOM     64  C   UNL A   1      44.073  35.025  28.477  1.00  0.00     0.040 A 
ATOM     65  C   UNL A   1      46.428  34.874  28.835  1.00  0.00     0.040 A 
ATOM     66  F   UNL A   1      47.481  32.802  29.013  1.00  0.00    -0.206 F 
ATOM     67  C   UNL A   1      45.290  35.653  28.678  1.00  0.00     0.006 A 
ENDBRANCH  46  60
BRANCH  47  68
ATOM     68  C   UNL A   1      37.174  30.979  30.490  1.00  0.00     0.057 A 
ATOM     69  C   UNL A   1      36.725  31.543  29.284  1.00  0.00     0.134 A 
ATOM     70  C   UNL A   1      36.352  31.197  31.608  1.00  0.00     0.134 A 
ATOM     71  F   UNL A   1      37.459  31.466  28.165  1.00  0.00    -0.206 F 
ATOM     72  C   UNL A   1      35.546  32.292  29.197  1.00  0.00     0.040 A 
ATOM     73  C   UNL A   1      35.174  31.954  31.538  1.00  0.00     0.040 A 
ATOM     74  F   UNL A   1      36.704  30.736  32.817  1.00  0.00    -0.206 F 
ATOM     75  C   UNL A   1      34.774  32.515  30.330  1.00  0.00     0.006 A 
ENDBRANCH  47  68
BRANCH  59  76
ATOM     76  C   UNL A   1      42.240  29.587  33.878  1.00  0.00     0.057 A 
ATOM     77  C   UNL A   1      42.480  29.927  35.216  1.00  0.00     0.134 A 
ATOM     78  C   UNL A   1      41.843  28.265  33.622  1.00  0.00     0.134 A 
ATOM     79  F   UNL A   1      42.918  31.155  35.534  1.00  0.00    -0.206 F 
ATOM     80  C   UNL A   1      42.317  29.005  36.252  1.00  0.00     0.040 A 
ATOM     81  C   UNL A   1      41.640  27.346  34.654  1.00  0.00     0.040 A 
ATOM     82  F   UNL A   1      41.697  27.813  32.369  1.00  0.00    -0.206 F 
ATOM     83  C   UNL A   1      41.882  27.713  35.974  1.00  0.00     0.006 A 
ENDBRANCH  59  76
ENDBRANCH  33  34
ENDBRANCH  25  28
ENDBRANCH  23  24
ENDBRANCH  22  23
ENDBRANCH   1  22
TORSDOF 13
ENDMDL
MODEL 2
REMARK VINA RESULT:     -11.5      4.729      9.143
REMARK SMILES CC(C)(Cn1ccc2ccc([N+](=O)[O-])cc21)C(=O)NCCCNC(=O)c1ccc(-c2c3nc(c(-c4c(F)cccc4F)c4ccc([nH]4)c(-c4c(F)cccc4F)c4nc(c(-c5c(F)cccc5F)c5ccc2[nH]5)C=C4)C=C3)cc1
REMARK SMILES IDX 20 1 19 2 17 3 18 4 2 6 1 7 3 8 4 9 5 10 6 11 16 12 7 13
REMARK SMILES IDX 8 14 15 15 9 16 11 17 10 18 12 19 13 20 14 21 21 22 22 23
REMARK SMILES IDX 23 24 24 25 25 27 26 28 27 29 79 30 28 31 78 32 29 33 30 34
REMARK SMILES IDX 31 35 72 36 32 37 77 38 71 39 73 40 33 41 76 42 70 43 69 44
REMARK SMILES IDX 34 46 60 47 43 48 59 49 44 50 47 51 58 52 74 53 45 54 46 55
REMARK SMILES IDX 57 57 75 58 48 59 35 60 36 61 41 62 37 63 38 64 40 65 42 66
REMARK SMILES IDX 39 67 61 68 62 69 67 70 63 71 64 72 66 73 68 74 65 75 49 76
REMARK SMILES IDX 50 77 55 78 51 79 52 80 54 81 56 82 53 83
REMARK H PARENT 19 5 23 26 73 45 47 56
REMARK Flexibility Score: inf
ROOT
ATOM      1  C   UNL A   1      34.155  29.491  27.146  1.00  0.00     0.117 C 
ENDROOT
BRANCH   1   2
ATOM      2  N   UNL A   1      34.413  29.311  25.722  1.00  0.00    -0.356 N 
ATOM      3  C   UNL A   1      33.678  28.721  24.725  1.00  0.00     0.227 C 
ATOM      4  O   UNL A   1      33.981  29.037  23.572  1.00  0.00    -0.274 OA
ATOM      5  H   UNL A   1      35.273  29.681  25.421  1.00  0.00     0.163 HD
BRANCH   3   6
ATOM      6  C   UNL A   1      32.562  27.693  25.011  1.00  0.00     0.061 C 
ATOM      7  C   UNL A   1      31.452  28.177  25.989  1.00  0.00     0.023 C 
ATOM      8  C   UNL A   1      33.164  26.490  25.779  1.00  0.00     0.023 C 
BRANCH   6   9
ATOM      9  C   UNL A   1      31.894  27.301  23.671  1.00  0.00     0.138 C 
BRANCH   9  10
ATOM     10  N   UNL A   1      30.433  27.194  23.524  1.00  0.00    -0.346 N 
ATOM     11  C   UNL A   1      29.800  26.021  23.909  1.00  0.00     0.087 A 
ATOM     12  C   UNL A   1      29.456  28.144  23.239  1.00  0.00     0.055 A 
ATOM     13  C   UNL A   1      28.446  26.236  23.960  1.00  0.00     0.028 A 
ATOM     14  C   UNL A   1      28.212  27.577  23.576  1.00  0.00     0.000 A 
ATOM     15  C   UNL A   1      29.490  29.460  22.736  1.00  0.00     0.112 A 
ATOM     16  C   UNL A   1      27.031  28.350  23.484  1.00  0.00     0.017 A 
ATOM     17  C   UNL A   1      28.313  30.225  22.699  1.00  0.00     0.271 A 
ATOM     18  C   UNL A   1      27.088  29.683  23.071  1.00  0.00     0.086 A 
BRANCH  17  19
ATOM     19  N   UNL A   1      28.384  31.637  22.296  1.00  0.00     0.062 N 
ATOM     20  O   UNL A   1      27.858  32.479  23.054  1.00  0.00    -0.258 OA
ATOM     21  O   UNL A   1      28.924  31.909  21.224  1.00  0.00    -0.258 OA
ENDBRANCH  17  19
ENDBRANCH   9  10
ENDBRANCH   6   9
ENDBRANCH   3   6
ENDBRANCH   1   2
BRANCH   1  22
ATOM     22  C   UNL A   1      33.384  30.752  27.529  1.00  0.00     0.042 C 
BRANCH  22  23
ATOM     23  C   UNL A   1      34.213  31.967  27.930  1.00  0.00     0.118 C 
BRANCH  23  24
ATOM     24  N   UNL A   1      34.327  32.194  29.358  1.00  0.00    -0.352 N 
ATOM     25  C   UNL A   1      35.269  31.962  30.321  1.00  0.00     0.251 C 
ATOM     26  H   UNL A   1      33.521  32.623  29.727  1.00  0.00     0.163 HD
ATOM     27  O   UNL A   1      35.060  32.516  31.406  1.00  0.00    -0.269 OA
BRANCH  25  28
ATOM     28  C   UNL A   1      36.463  31.078  30.204  1.00  0.00     0.039 A 
ATOM     29  C   UNL A   1      36.461  29.686  30.244  1.00  0.00     0.014 A 
ATOM     30  C   UNL A   1      37.707  31.738  30.107  1.00  0.00     0.014 A 
ATOM     31  C   UNL A   1      37.669  28.981  30.266  1.00  0.00     0.010 A 
ATOM     32  C   UNL A   1      38.913  31.039  30.114  1.00  0.00     0.010 A 
ATOM     33  C   UNL A   1      38.899  29.655  30.232  1.00  0.00    -0.014 A 
BRANCH  33  34
ATOM     34  C   UNL A   1      40.130  28.860  30.191  1.00  0.00     0.031 A 
ATOM     35  C   UNL A   1      40.816  28.690  31.504  1.00  0.00     0.074 A 
ATOM     36  C   UNL A   1      40.604  28.193  29.117  1.00  0.00     0.049 A 
ATOM     37  N   UNL A   1      41.990  29.110  31.846  1.00  0.00    -0.248 NA
ATOM     38  C   UNL A   1      40.072  28.038  32.591  1.00  0.00     0.031 C 
ATOM     39  C   UNL A   1      39.959  27.972  27.823  1.00  0.00     0.029 A 
ATOM     40  N   UNL A   1      41.769  27.483  29.002  1.00  0.00    -0.354 N 
ATOM     41  C   UNL A   1      42.215  28.627  33.134  1.00  0.00     0.074 A 
ATOM     42  C   UNL A   1      40.959  28.086  33.586  1.00  0.00     0.031 C 
ATOM     43  C   UNL A   1      40.640  27.023  27.139  1.00  0.00     0.029 A 
ATOM     44  C   UNL A   1      41.834  26.657  27.886  1.00  0.00     0.049 A 
ATOM     45  H   UNL A   1      42.502  27.551  29.656  1.00  0.00     0.167 HD
ATOM     46  C   UNL A   1      43.472  28.527  33.650  1.00  0.00     0.037 A 
ATOM     47  C   UNL A   1      42.772  25.712  27.619  1.00  0.00     0.037 A 
ATOM     48  C   UNL A   1      44.406  29.364  32.940  1.00  0.00     0.049 A 
ATOM     49  C   UNL A   1      43.973  26.023  28.431  1.00  0.00     0.074 A 
ATOM     50  C   UNL A   1      44.465  30.710  32.623  1.00  0.00     0.029 A 
ATOM     51  N   UNL A   1      45.344  28.768  32.132  1.00  0.00    -0.354 N 
ATOM     52  N   UNL A   1      44.780  27.017  28.195  1.00  0.00    -0.248 NA
ATOM     53  C   UNL A   1      44.060  25.449  29.766  1.00  0.00     0.031 C 
ATOM     54  C   UNL A   1      45.017  30.753  31.309  1.00  0.00     0.029 A 
ATOM     55  C   UNL A   1      45.308  29.441  30.940  1.00  0.00     0.049 A 
ATOM     56  H   UNL A   1      45.926  28.008  32.365  1.00  0.00     0.167 HD
ATOM     57  C   UNL A   1      45.136  27.480  29.451  1.00  0.00     0.074 A 
ATOM     58  C   UNL A   1      44.751  26.416  30.375  1.00  0.00     0.031 C 
ATOM     59  C   UNL A   1      45.446  28.793  29.661  1.00  0.00     0.037 A 
BRANCH  46  60
ATOM     60  C   UNL A   1      43.935  27.397  34.543  1.00  0.00     0.057 A 
ATOM     61  C   UNL A   1      44.045  26.055  34.124  1.00  0.00     0.134 A 
ATOM     62  C   UNL A   1      44.606  27.702  35.744  1.00  0.00     0.134 A 
ATOM     63  F   UNL A   1      43.507  25.613  32.982  1.00  0.00    -0.206 F 
ATOM     64  C   UNL A   1      44.811  25.108  34.809  1.00  0.00     0.040 A 
ATOM     65  C   UNL A   1      45.418  26.774  36.407  1.00  0.00     0.040 A 
ATOM     66  F   UNL A   1      44.577  28.942  36.254  1.00  0.00    -0.206 F 
ATOM     67  C   UNL A   1      45.535  25.476  35.931  1.00  0.00     0.006 A 
ENDBRANCH  46  60
BRANCH  47  68
ATOM     68  C   UNL A   1      42.658  24.438  26.865  1.00  0.00     0.057 A 
ATOM     69  C   UNL A   1      42.245  23.247  27.484  1.00  0.00     0.134 A 
ATOM     70  C   UNL A   1      43.215  24.297  25.582  1.00  0.00     0.134 A 
ATOM     71  F   UNL A   1      41.765  23.245  28.736  1.00  0.00    -0.206 F 
ATOM     72  C   UNL A   1      42.392  21.994  26.879  1.00  0.00     0.040 A 
ATOM     73  C   UNL A   1      43.379  23.047  24.969  1.00  0.00     0.040 A 
ATOM     74  F   UNL A   1      43.678  25.365  24.916  1.00  0.00    -0.206 F 
ATOM     75  C   UNL A   1      42.977  21.889  25.623  1.00  0.00     0.006 A 
ENDBRANCH  47  68
BRANCH  59  76
ATOM     76  C   UNL A   1      45.671  29.676  28.469  1.00  0.00     0.057 A 
ATOM     77  C   UNL A   1      46.987  29.966  28.088  1.00  0.00     0.134 A 
ATOM     78  C   UNL A   1      44.650  30.351  27.783  1.00  0.00     0.134 A 
ATOM     79  F   UNL A   1      48.019  29.404  28.737  1.00  0.00    -0.206 F 
ATOM     80  C   UNL A   1      47.278  30.870  27.064  1.00  0.00     0.040 A 
ATOM     81  C   UNL A   1      44.926  31.228  26.731  1.00  0.00     0.040 A 
ATOM     82  F   UNL A   1      43.366  30.227  28.147  1.00  0.00    -0.206 F 
ATOM     83  C   UNL A   1      46.244  31.495  26.372  1.00  0.00     0.006 A 
ENDBRANCH  59  76
ENDBRANCH  33  34
ENDBRANCH  25  28
ENDBRANCH  23  24
ENDBRANCH  22  23
ENDBRANCH   1  22
TORSDOF 13
ENDMDL
MODEL 3
REMARK VINA RESULT:     -11.5      3.533      8.143
REMARK SMILES CC(C)(Cn1ccc2ccc([N+](=O)[O-])cc21)C(=O)NCCCNC(=O)c1ccc(-c2c3nc(c(-c4c(F)cccc4F)c4ccc([nH]4)c(-c4c(F)cccc4F)c4nc(c(-c5c(F)cccc5F)c5ccc2[nH]5)C=C4)C=C3)cc1
REMARK SMILES IDX 20 1 19 2 17 3 18 4 2 6 1 7 3 8 4 9 5 10 6 11 16 12 7 13
REMARK SMILES IDX 8 14 15 15 9 16 11 17 10 18 12 19 13 20 14 21 21 22 22 23
REMARK SMILES IDX 23 24 24 25 25 27 26 28 27 29 79 30 28 31 78 32 29 33 30 34
REMARK SMILES IDX 31 35 72 36 32 37 77 38 71 39 73 40 33 41 76 42 70 43 69 44
REMARK SMILES IDX 34 46 60 47 43 48 59 49 44 50 47 51 58 52 74 53 45 54 46 55
REMARK SMILES IDX 57 57 75 58 48 59 35 60 36 61 41 62 37 63 38 64 40 65 42 66
REMARK SMILES IDX 39 67 61 68 62 69 67 70 63 71 64 72 66 73 68 74 65 75 49 76
REMARK SMILES IDX 50 77 55 78 51 79 52 80 54 81 56 82 53 83
REMARK H PARENT 19 5 23 26 73 45 47 56
REMARK Flexibility Score: inf
ROOT
ATOM      1  C   UNL A   1      32.351  30.418  27.021  1.00  0.00     0.117 C 
ENDROOT
BRANCH   1   2
ATOM      2  N   UNL A   1      31.934  30.326  25.627  1.00  0.00    -0.356 N 
ATOM      3  C   UNL A   1      31.465  29.276  24.878  1.00  0.00     0.227 C 
ATOM      4  O   UNL A   1      30.860  29.577  23.846  1.00  0.00    -0.274 OA
ATOM      5  H   UNL A   1      32.003  31.173  25.131  1.00  0.00     0.163 HD
BRANCH   3   6
ATOM      6  C   UNL A   1      31.705  27.802  25.269  1.00  0.00     0.061 C 
ATOM      7  C   UNL A   1      31.410  27.458  26.759  1.00  0.00     0.023 C 
ATOM      8  C   UNL A   1      33.218  27.487  25.160  1.00  0.00     0.023 C 
BRANCH   6   9
ATOM      9  C   UNL A   1      30.817  26.901  24.377  1.00  0.00     0.138 C 
BRANCH   9  10
ATOM     10  N   UNL A   1      31.384  25.996  23.364  1.00  0.00    -0.346 N 
ATOM     11  C   UNL A   1      31.749  26.509  22.129  1.00  0.00     0.087 A 
ATOM     12  C   UNL A   1      31.840  24.683  23.444  1.00  0.00     0.055 A 
ATOM     13  C   UNL A   1      32.505  25.580  21.460  1.00  0.00     0.028 A 
ATOM     14  C   UNL A   1      32.603  24.435  22.286  1.00  0.00     0.000 A 
ATOM     15  C   UNL A   1      31.701  23.656  24.399  1.00  0.00     0.112 A 
ATOM     16  C   UNL A   1      33.280  23.203  22.133  1.00  0.00     0.017 A 
ATOM     17  C   UNL A   1      32.421  22.460  24.251  1.00  0.00     0.271 A 
ATOM     18  C   UNL A   1      33.210  22.228  23.129  1.00  0.00     0.086 A 
BRANCH  17  19
ATOM     19  N   UNL A   1      32.370  21.450  25.318  1.00  0.00     0.062 N 
ATOM     20  O   UNL A   1      31.778  20.380  25.069  1.00  0.00    -0.258 OA
ATOM     21  O   UNL A   1      32.882  21.726  26.403  1.00  0.00    -0.258 OA
ENDBRANCH  17  19
ENDBRANCH   9  10
ENDBRANCH   6   9
ENDBRANCH   3   6
ENDBRANCH   1   2
BRANCH   1  22
ATOM     22  C   UNL A   1      33.839  30.661  27.258  1.00  0.00     0.042 C 
BRANCH  22  23
ATOM     23  C   UNL A   1      34.237  32.049  27.747  1.00  0.00     0.118 C 
BRANCH  23  24
ATOM     24  N   UNL A   1      34.142  32.250  29.180  1.00  0.00    -0.352 N 
ATOM     25  C   UNL A   1      34.987  32.142  30.250  1.00  0.00     0.251 C 
ATOM     26  H   UNL A   1      33.240  32.536  29.452  1.00  0.00     0.163 HD
ATOM     27  O   UNL A   1      34.564  32.625  31.305  1.00  0.00    -0.269 OA
BRANCH  25  28
ATOM     28  C   UNL A   1      36.312  31.460  30.271  1.00  0.00     0.039 A 
ATOM     29  C   UNL A   1      37.557  32.085  30.283  1.00  0.00     0.014 A 
ATOM     30  C   UNL A   1      36.278  30.051  30.211  1.00  0.00     0.014 A 
ATOM     31  C   UNL A   1      38.726  31.328  30.157  1.00  0.00     0.010 A 
ATOM     32  C   UNL A   1      37.441  29.290  30.101  1.00  0.00     0.010 A 
ATOM     33  C   UNL A   1      38.672  29.931  30.035  1.00  0.00    -0.014 A 
BRANCH  33  34
ATOM     34  C   UNL A   1      39.932  29.185  29.974  1.00  0.00     0.031 A 
ATOM     35  C   UNL A   1      40.592  28.951  31.291  1.00  0.00     0.074 A 
ATOM     36  C   UNL A   1      40.456  28.607  28.872  1.00  0.00     0.049 A 
ATOM     37  N   UNL A   1      41.741  29.388  31.691  1.00  0.00    -0.248 NA
ATOM     38  C   UNL A   1      39.846  28.203  32.313  1.00  0.00     0.031 C 
ATOM     39  C   UNL A   1      39.850  28.450  27.549  1.00  0.00     0.029 A 
ATOM     40  N   UNL A   1      41.648  27.948  28.742  1.00  0.00    -0.354 N 
ATOM     41  C   UNL A   1      41.952  28.829  32.950  1.00  0.00     0.074 A 
ATOM     42  C   UNL A   1      40.706  28.215  33.333  1.00  0.00     0.031 C 
ATOM     43  C   UNL A   1      40.581  27.573  26.823  1.00  0.00     0.029 A 
ATOM     44  C   UNL A   1      41.769  27.200  27.576  1.00  0.00     0.049 A 
ATOM     45  H   UNL A   1      42.362  27.997  29.418  1.00  0.00     0.167 HD
ATOM     46  C   UNL A   1      43.199  28.739  33.492  1.00  0.00     0.037 A 
ATOM     47  C   UNL A   1      42.748  26.308  27.272  1.00  0.00     0.037 A 
ATOM     48  C   UNL A   1      44.119  29.653  32.862  1.00  0.00     0.049 A 
ATOM     49  C   UNL A   1      43.917  26.606  28.134  1.00  0.00     0.074 A 
ATOM     50  C   UNL A   1      44.137  31.018  32.637  1.00  0.00     0.029 A 
ATOM     51  N   UNL A   1      45.097  29.144  32.043  1.00  0.00    -0.354 N 
ATOM     52  N   UNL A   1      44.693  27.641  27.985  1.00  0.00    -0.248 NA
ATOM     53  C   UNL A   1      43.993  25.948  29.431  1.00  0.00     0.031 C 
ATOM     54  C   UNL A   1      44.718  31.168  31.343  1.00  0.00     0.029 A 
ATOM     55  C   UNL A   1      45.065  29.894  30.897  1.00  0.00     0.049 A 
ATOM     56  H   UNL A   1      45.701  28.392  32.240  1.00  0.00     0.167 HD
ATOM     57  C   UNL A   1      45.001  28.032  29.278  1.00  0.00     0.074 A 
ATOM     58  C   UNL A   1      44.633  26.896  30.120  1.00  0.00     0.031 C 
ATOM     59  C   UNL A   1      45.257  29.338  29.582  1.00  0.00     0.037 A 
BRANCH  46  60
ATOM     60  C   UNL A   1      43.681  27.568  34.320  1.00  0.00     0.057 A 
ATOM     61  C   UNL A   1      43.847  26.261  33.818  1.00  0.00     0.134 A 
ATOM     62  C   UNL A   1      44.314  27.816  35.554  1.00  0.00     0.134 A 
ATOM     63  F   UNL A   1      43.351  25.877  32.636  1.00  0.00    -0.206 F 
ATOM     64  C   UNL A   1      44.631  25.298  34.459  1.00  0.00     0.040 A 
ATOM     65  C   UNL A   1      45.143  26.875  36.176  1.00  0.00     0.040 A 
ATOM     66  F   UNL A   1      44.230  29.018  36.143  1.00  0.00    -0.206 F 
ATOM     67  C   UNL A   1      45.316  25.615  35.620  1.00  0.00     0.006 A 
ENDBRANCH  46  60
BRANCH  47  68
ATOM     68  C   UNL A   1      42.698  25.084  26.433  1.00  0.00     0.057 A 
ATOM     69  C   UNL A   1      41.924  23.970  26.796  1.00  0.00     0.134 A 
ATOM     70  C   UNL A   1      43.624  24.872  25.398  1.00  0.00     0.134 A 
ATOM     71  F   UNL A   1      41.058  24.029  27.819  1.00  0.00    -0.206 F 
ATOM     72  C   UNL A   1      42.071  22.720  26.185  1.00  0.00     0.040 A 
ATOM     73  C   UNL A   1      43.790  23.622  24.785  1.00  0.00     0.040 A 
ATOM     74  F   UNL A   1      44.443  25.856  24.998  1.00  0.00    -0.206 F 
ATOM     75  C   UNL A   1      43.018  22.537  25.186  1.00  0.00     0.006 A 
ENDBRANCH  47  68
BRANCH  59  76
ATOM     76  C   UNL A   1      45.479  30.305  28.457  1.00  0.00     0.057 A 
ATOM     77  C   UNL A   1      46.788  30.714  28.172  1.00  0.00     0.134 A 
ATOM     78  C   UNL A   1      44.448  30.944  27.751  1.00  0.00     0.134 A 
ATOM     79  F   UNL A   1      47.823  30.191  28.848  1.00  0.00    -0.206 F 
ATOM     80  C   UNL A   1      47.064  31.697  27.219  1.00  0.00     0.040 A 
ATOM     81  C   UNL A   1      44.714  31.901  26.768  1.00  0.00     0.040 A 
ATOM     82  F   UNL A   1      43.160  30.703  28.030  1.00  0.00    -0.206 F 
ATOM     83  C   UNL A   1      46.025  32.284  26.503  1.00  0.00     0.006 A 
ENDBRANCH  59  76
ENDBRANCH  33  34
ENDBRANCH  25  28
ENDBRANCH  23  24
ENDBRANCH  22  23
ENDBRANCH   1  22
TORSDOF 13
ENDMDL
