MODEL 1
REMARK VINA RESULT:     -13.0      0.000      0.000
REMARK SMILES COc1cc([C@@H]2CC(=O)Nc3c(C(=O)NCCCNC(=O)c4ccc(-c5c6nc(c(-c7c(F)cccc7F)c7ccc([nH]7)c(-c7c(F)cccc7F)c7nc(c(-c8c(F)cccc8F)c8ccc5[nH]8)C=C7)C=C6)cc4)cn(-c4ccccc4)c32)ccc1O
REMARK SMILES IDX 17 1 16 2 15 3 13 4 14 5 12 7 6 8 7 9 84 10 8 11 11 12 77 13
REMARK SMILES IDX 9 14 10 15 76 16 5 18 3 19 4 20 87 21 86 22 85 23 2 24 1 25
REMARK SMILES IDX 88 26 78 28 79 29 83 30 80 31 82 32 81 33 18 34 19 35 20 36
REMARK SMILES IDX 21 38 22 39 23 40 75 41 24 42 74 43 25 44 26 45 27 46 68 47
REMARK SMILES IDX 28 48 73 49 67 50 69 51 29 52 72 53 66 54 65 55 30 57 56 58
REMARK SMILES IDX 39 59 55 60 40 61 43 62 54 63 70 64 41 65 42 66 53 68 71 69
REMARK SMILES IDX 44 70 31 71 32 72 37 73 33 74 34 75 36 76 38 77 35 78 57 79
REMARK SMILES IDX 58 80 63 81 59 82 60 83 62 84 64 85 61 86 45 87 46 88 51 89
REMARK SMILES IDX 47 90 48 91 50 92 52 93 49 94
REMARK H PARENT 15 6 10 17 88 27 19 37 69 56 43 67
REMARK Flexibility Score: inf
ROOT
ATOM      1  C   UNL A   1      37.389  20.140  24.828  1.00  0.00     0.042 C 
ENDROOT
BRANCH   1   2
ATOM      2  C   UNL A   1      36.317  21.240  24.842  1.00  0.00     0.118 C 
BRANCH   2   3
ATOM      3  N   UNL A   1      35.454  21.159  25.993  1.00  0.00    -0.352 N 
ATOM      4  C   UNL A   1      34.362  21.882  26.385  1.00  0.00     0.254 C 
ATOM      5  O   UNL A   1      33.783  21.434  27.381  1.00  0.00    -0.269 OA
ATOM      6  H   UNL A   1      35.699  20.441  26.622  1.00  0.00     0.163 HD
BRANCH   4   7
ATOM      7  C   UNL A   1      33.896  23.127  25.752  1.00  0.00     0.081 A 
ATOM      8  C   UNL A   1      33.520  25.870  23.276  1.00  0.00     0.078 C 
ATOM      9  C   UNL A   1      33.802  25.054  22.001  1.00  0.00     0.115 C 
ATOM     10  C   UNL A   1      33.435  24.972  24.479  1.00  0.00     0.055 A 
ATOM     11  C   UNL A   1      33.281  23.638  22.041  1.00  0.00     0.225 C 
ATOM     12  C   UNL A   1      33.523  23.595  24.448  1.00  0.00     0.076 A 
ATOM     13  N   UNL A   1      33.436  25.353  25.796  1.00  0.00    -0.317 N 
ATOM     14  O   UNL A   1      32.980  23.019  21.019  1.00  0.00    -0.275 OA
ATOM     15  N   UNL A   1      33.296  22.987  23.243  1.00  0.00    -0.324 N 
ATOM     16  C   UNL A   1      33.847  24.280  26.540  1.00  0.00     0.107 A 
ATOM     17  H   UNL A   1      33.133  22.016  23.241  1.00  0.00     0.170 HD
BRANCH   8  18
ATOM     18  C   UNL A   1      32.400  26.869  23.050  1.00  0.00    -0.034 A 
ATOM     19  C   UNL A   1      29.998  27.317  23.158  1.00  0.00     0.160 A 
ATOM     20  C   UNL A   1      31.068  26.427  23.213  1.00  0.00     0.054 A 
ATOM     21  C   UNL A   1      30.261  28.671  22.960  1.00  0.00     0.157 A 
ATOM     22  C   UNL A   1      31.560  29.123  22.739  1.00  0.00     0.050 A 
ATOM     23  C   UNL A   1      32.632  28.226  22.789  1.00  0.00     0.008 A 
BRANCH  19  24
ATOM     24  O   UNL A   1      28.765  26.832  23.501  1.00  0.00    -0.493 OA
ATOM     25  C   UNL A   1      28.756  25.953  24.625  1.00  0.00     0.278 C 
ENDBRANCH  19  24
BRANCH  21  26
ATOM     26  O   UNL A   1      29.279  29.615  23.074  1.00  0.00    -0.504 OA
ATOM     27  H   UNL A   1      28.380  29.354  23.105  1.00  0.00     0.293 HD
ENDBRANCH  21  26
ENDBRANCH   8  18
BRANCH  13  28
ATOM     28  C   UNL A   1      33.093  26.607  26.320  1.00  0.00     0.045 A 
ATOM     29  C   UNL A   1      31.786  26.815  26.772  1.00  0.00     0.026 A 
ATOM     30  C   UNL A   1      34.045  27.624  26.360  1.00  0.00     0.026 A 
ATOM     31  C   UNL A   1      31.403  28.085  27.192  1.00  0.00     0.002 A 
ATOM     32  C   UNL A   1      33.648  28.896  26.768  1.00  0.00     0.002 A 
ATOM     33  C   UNL A   1      32.328  29.128  27.169  1.00  0.00     0.000 A 
ENDBRANCH  13  28
ENDBRANCH   4   7
ENDBRANCH   2   3
ENDBRANCH   1   2
BRANCH   1  34
ATOM     34  C   UNL A   1      38.650  20.571  25.543  1.00  0.00     0.118 C 
BRANCH  34  35
ATOM     35  N   UNL A   1      39.582  19.440  25.747  1.00  0.00    -0.352 N 
ATOM     36  C   UNL A   1      40.956  19.445  25.971  1.00  0.00     0.251 C 
ATOM     37  H   UNL A   1      39.166  18.548  25.719  1.00  0.00     0.163 HD
ATOM     38  O   UNL A   1      41.636  18.452  25.801  1.00  0.00    -0.269 OA
BRANCH  36  39
ATOM     39  C   UNL A   1      41.567  20.691  26.458  1.00  0.00     0.039 A 
ATOM     40  C   UNL A   1      42.389  21.547  25.717  1.00  0.00     0.014 A 
ATOM     41  C   UNL A   1      41.178  21.054  27.718  1.00  0.00     0.014 A 
ATOM     42  C   UNL A   1      42.746  22.767  26.303  1.00  0.00     0.010 A 
ATOM     43  C   UNL A   1      40.986  22.381  27.825  1.00  0.00     0.010 A 
ATOM     44  C   UNL A   1      42.042  23.151  27.438  1.00  0.00    -0.014 A 
BRANCH  44  45
ATOM     45  C   UNL A   1      42.227  24.330  28.254  1.00  0.00     0.031 A 
ATOM     46  C   UNL A   1      41.124  25.303  28.189  1.00  0.00     0.074 A 
ATOM     47  C   UNL A   1      43.168  24.367  29.229  1.00  0.00     0.049 A 
ATOM     48  N   UNL A   1      41.122  26.441  27.586  1.00  0.00    -0.248 NA
ATOM     49  C   UNL A   1      39.812  24.892  28.709  1.00  0.00     0.031 C 
ATOM     50  C   UNL A   1      44.108  23.329  29.688  1.00  0.00     0.029 A 
ATOM     51  N   UNL A   1      43.408  25.378  30.103  1.00  0.00    -0.354 N 
ATOM     52  C   UNL A   1      39.875  26.995  27.842  1.00  0.00     0.074 A 
ATOM     53  C   UNL A   1      39.050  25.919  28.329  1.00  0.00     0.031 C 
ATOM     54  C   UNL A   1      44.642  23.684  30.879  1.00  0.00     0.029 A 
ATOM     55  C   UNL A   1      44.223  25.036  31.178  1.00  0.00     0.049 A 
ATOM     56  H   UNL A   1      43.036  26.282  29.987  1.00  0.00     0.167 HD
ATOM     57  C   UNL A   1      39.699  28.344  27.882  1.00  0.00     0.037 A 
ATOM     58  C   UNL A   1      44.457  25.826  32.253  1.00  0.00     0.037 A 
ATOM     59  C   UNL A   1      40.850  29.037  27.353  1.00  0.00     0.049 A 
ATOM     60  C   UNL A   1      44.146  27.223  31.823  1.00  0.00     0.074 A 
ATOM     61  C   UNL A   1      41.513  29.015  26.139  1.00  0.00     0.029 A 
ATOM     62  N   UNL A   1      41.755  29.557  28.253  1.00  0.00    -0.354 N 
ATOM     63  N   UNL A   1      44.821  27.850  30.891  1.00  0.00    -0.248 NA
ATOM     64  C   UNL A   1      42.781  27.695  32.024  1.00  0.00     0.031 C 
ATOM     65  C   UNL A   1      42.899  29.008  26.482  1.00  0.00     0.029 A 
ATOM     66  C   UNL A   1      43.000  29.114  27.871  1.00  0.00     0.049 A 
ATOM     67  H   UNL A   1      41.549  30.135  29.023  1.00  0.00     0.167 HD
ATOM     68  C   UNL A   1      43.864  28.507  30.125  1.00  0.00     0.074 A 
ATOM     69  C   UNL A   1      42.627  28.410  30.904  1.00  0.00     0.031 C 
ATOM     70  C   UNL A   1      44.064  28.796  28.801  1.00  0.00     0.037 A 
BRANCH  57  71
ATOM     71  C   UNL A   1      38.660  29.038  28.715  1.00  0.00     0.057 A 
ATOM     72  C   UNL A   1      38.619  28.799  30.098  1.00  0.00     0.134 A 
ATOM     73  C   UNL A   1      37.542  29.718  28.188  1.00  0.00     0.134 A 
ATOM     74  F   UNL A   1      39.620  28.146  30.711  1.00  0.00    -0.206 F 
ATOM     75  C   UNL A   1      37.519  29.152  30.886  1.00  0.00     0.040 A 
ATOM     76  C   UNL A   1      36.464  30.125  28.975  1.00  0.00     0.040 A 
ATOM     77  F   UNL A   1      37.385  29.932  26.876  1.00  0.00    -0.206 F 
ATOM     78  C   UNL A   1      36.434  29.814  30.324  1.00  0.00     0.006 A 
ENDBRANCH  57  71
BRANCH  58  79
ATOM     79  C   UNL A   1      44.507  25.372  33.664  1.00  0.00     0.057 A 
ATOM     80  C   UNL A   1      43.355  25.285  34.454  1.00  0.00     0.134 A 
ATOM     81  C   UNL A   1      45.668  24.784  34.207  1.00  0.00     0.134 A 
ATOM     82  F   UNL A   1      42.187  25.769  34.006  1.00  0.00    -0.206 F 
ATOM     83  C   UNL A   1      43.357  24.654  35.709  1.00  0.00     0.040 A 
ATOM     84  C   UNL A   1      45.686  24.158  35.457  1.00  0.00     0.040 A 
ATOM     85  F   UNL A   1      46.809  24.726  33.506  1.00  0.00    -0.206 F 
ATOM     86  C   UNL A   1      44.524  24.083  36.211  1.00  0.00     0.006 A 
ENDBRANCH  58  79
BRANCH  70  87
ATOM     87  C   UNL A   1      45.421  28.522  28.196  1.00  0.00     0.057 A 
ATOM     88  C   UNL A   1      46.538  29.359  28.365  1.00  0.00     0.134 A 
ATOM     89  C   UNL A   1      45.666  27.283  27.599  1.00  0.00     0.134 A 
ATOM     90  F   UNL A   1      46.438  30.518  29.017  1.00  0.00    -0.206 F 
ATOM     91  C   UNL A   1      47.820  28.999  27.935  1.00  0.00     0.040 A 
ATOM     92  C   UNL A   1      46.947  26.895  27.189  1.00  0.00     0.040 A 
ATOM     93  F   UNL A   1      44.669  26.394  27.459  1.00  0.00    -0.206 F 
ATOM     94  C   UNL A   1      48.029  27.757  27.349  1.00  0.00     0.006 A 
ENDBRANCH  70  87
ENDBRANCH  44  45
ENDBRANCH  36  39
ENDBRANCH  34  35
ENDBRANCH   1  34
TORSDOF 14
ENDMDL
MODEL 2
REMARK VINA RESULT:     -12.9      3.792      8.904
REMARK SMILES COc1cc([C@@H]2CC(=O)Nc3c(C(=O)NCCCNC(=O)c4ccc(-c5c6nc(c(-c7c(F)cccc7F)c7ccc([nH]7)c(-c7c(F)cccc7F)c7nc(c(-c8c(F)cccc8F)c8ccc5[nH]8)C=C7)C=C6)cc4)cn(-c4ccccc4)c32)ccc1O
REMARK SMILES IDX 17 1 16 2 15 3 13 4 14 5 12 7 6 8 7 9 84 10 8 11 11 12 77 13
REMARK SMILES IDX 9 14 10 15 76 16 5 18 3 19 4 20 87 21 86 22 85 23 2 24 1 25
REMARK SMILES IDX 88 26 78 28 79 29 83 30 80 31 82 32 81 33 18 34 19 35 20 36
REMARK SMILES IDX 21 38 22 39 23 40 75 41 24 42 74 43 25 44 26 45 27 46 68 47
REMARK SMILES IDX 28 48 73 49 67 50 69 51 29 52 72 53 66 54 65 55 30 57 56 58
REMARK SMILES IDX 39 59 55 60 40 61 43 62 54 63 70 64 41 65 42 66 53 68 71 69
REMARK SMILES IDX 44 70 31 71 32 72 37 73 33 74 34 75 36 76 38 77 35 78 57 79
REMARK SMILES IDX 58 80 63 81 59 82 60 83 62 84 64 85 61 86 45 87 46 88 51 89
REMARK SMILES IDX 47 90 48 91 50 92 52 93 49 94
REMARK H PARENT 15 6 10 17 88 27 19 37 69 56 43 67
REMARK Flexibility Score: inf
ROOT
ATOM      1  C   UNL A   1      31.646  31.259  26.271  1.00  0.00     0.042 C 
ENDROOT
BRANCH   1   2
ATOM      2  C   UNL A   1      32.076  29.831  25.900  1.00  0.00     0.118 C 
BRANCH   2   3
ATOM      3  N   UNL A   1      32.361  29.684  24.495  1.00  0.00    -0.352 N 
ATOM      4  C   UNL A   1      32.577  28.591  23.703  1.00  0.00     0.254 C 
ATOM      5  O   UNL A   1      32.657  28.843  22.496  1.00  0.00    -0.269 OA
ATOM      6  H   UNL A   1      32.409  30.540  24.010  1.00  0.00     0.163 HD
BRANCH   4   7
ATOM      7  C   UNL A   1      32.762  27.213  24.189  1.00  0.00     0.081 A 
ATOM      8  C   UNL A   1      32.583  24.216  26.376  1.00  0.00     0.078 C 
ATOM      9  C   UNL A   1      31.236  24.522  27.057  1.00  0.00     0.115 C 
ATOM     10  C   UNL A   1      32.862  25.202  25.275  1.00  0.00     0.055 A 
ATOM     11  C   UNL A   1      30.223  25.193  26.160  1.00  0.00     0.225 C 
ATOM     12  C   UNL A   1      32.004  26.204  24.871  1.00  0.00     0.076 A 
ATOM     13  N   UNL A   1      34.051  25.391  24.618  1.00  0.00    -0.317 N 
ATOM     14  O   UNL A   1      29.010  25.082  26.341  1.00  0.00    -0.275 OA
ATOM     15  N   UNL A   1      30.687  26.069  25.219  1.00  0.00    -0.324 N 
ATOM     16  C   UNL A   1      34.037  26.652  24.087  1.00  0.00     0.107 A 
ATOM     17  H   UNL A   1      30.029  26.640  24.760  1.00  0.00     0.170 HD
BRANCH   8  18
ATOM     18  C   UNL A   1      32.713  22.738  26.061  1.00  0.00    -0.034 A 
ATOM     19  C   UNL A   1      32.343  20.945  24.439  1.00  0.00     0.160 A 
ATOM     20  C   UNL A   1      32.145  22.258  24.860  1.00  0.00     0.054 A 
ATOM     21  C   UNL A   1      33.138  20.104  25.216  1.00  0.00     0.157 A 
ATOM     22  C   UNL A   1      33.661  20.537  26.432  1.00  0.00     0.050 A 
ATOM     23  C   UNL A   1      33.456  21.853  26.855  1.00  0.00     0.008 A 
BRANCH  19  24
ATOM     24  O   UNL A   1      31.907  20.620  23.183  1.00  0.00    -0.493 OA
ATOM     25  C   UNL A   1      32.205  21.584  22.175  1.00  0.00     0.278 C 
ENDBRANCH  19  24
BRANCH  21  26
ATOM     26  O   UNL A   1      33.518  18.868  24.773  1.00  0.00    -0.504 OA
ATOM     27  H   UNL A   1      34.201  18.788  24.138  1.00  0.00     0.293 HD
ENDBRANCH  21  26
ENDBRANCH   8  18
BRANCH  13  28
ATOM     28  C   UNL A   1      35.112  24.483  24.499  1.00  0.00     0.045 A 
ATOM     29  C   UNL A   1      35.189  23.679  23.357  1.00  0.00     0.026 A 
ATOM     30  C   UNL A   1      36.052  24.380  25.523  1.00  0.00     0.026 A 
ATOM     31  C   UNL A   1      36.173  22.700  23.276  1.00  0.00     0.002 A 
ATOM     32  C   UNL A   1      37.024  23.385  25.440  1.00  0.00     0.002 A 
ATOM     33  C   UNL A   1      37.075  22.539  24.327  1.00  0.00     0.000 A 
ENDBRANCH  13  28
ENDBRANCH   4   7
ENDBRANCH   2   3
ENDBRANCH   1   2
BRANCH   1  34
ATOM     34  C   UNL A   1      32.551  31.867  27.319  1.00  0.00     0.118 C 
BRANCH  34  35
ATOM     35  N   UNL A   1      32.381  33.334  27.409  1.00  0.00    -0.352 N 
ATOM     36  C   UNL A   1      32.992  34.253  28.259  1.00  0.00     0.251 C 
ATOM     37  H   UNL A   1      31.736  33.718  26.772  1.00  0.00     0.163 HD
ATOM     38  O   UNL A   1      32.529  35.362  28.440  1.00  0.00    -0.269 OA
BRANCH  36  39
ATOM     39  C   UNL A   1      34.248  33.853  28.911  1.00  0.00     0.039 A 
ATOM     40  C   UNL A   1      34.382  33.413  30.233  1.00  0.00     0.014 A 
ATOM     41  C   UNL A   1      35.332  33.824  28.078  1.00  0.00     0.014 A 
ATOM     42  C   UNL A   1      35.633  32.925  30.627  1.00  0.00     0.010 A 
ATOM     43  C   UNL A   1      36.132  32.773  28.327  1.00  0.00     0.010 A 
ATOM     44  C   UNL A   1      36.552  32.658  29.619  1.00  0.00    -0.014 A 
BRANCH  44  45
ATOM     45  C   UNL A   1      37.913  32.187  29.745  1.00  0.00     0.031 A 
ATOM     46  C   UNL A   1      38.141  30.821  29.245  1.00  0.00     0.074 A 
ATOM     47  C   UNL A   1      38.932  33.046  29.994  1.00  0.00     0.049 A 
ATOM     48  N   UNL A   1      38.332  29.756  29.943  1.00  0.00    -0.248 NA
ATOM     49  C   UNL A   1      37.967  30.578  27.805  1.00  0.00     0.031 C 
ATOM     50  C   UNL A   1      38.929  34.512  30.141  1.00  0.00     0.029 A 
ATOM     51  N   UNL A   1      40.254  32.752  30.076  1.00  0.00    -0.354 N 
ATOM     52  C   UNL A   1      38.529  28.738  29.020  1.00  0.00     0.074 A 
ATOM     53  C   UNL A   1      38.071  29.249  27.753  1.00  0.00     0.031 C 
ATOM     54  C   UNL A   1      40.193  34.986  30.067  1.00  0.00     0.029 A 
ATOM     55  C   UNL A   1      41.099  33.858  30.045  1.00  0.00     0.049 A 
ATOM     56  H   UNL A   1      40.591  31.830  30.152  1.00  0.00     0.167 HD
ATOM     57  C   UNL A   1      39.294  27.654  29.322  1.00  0.00     0.037 A 
ATOM     58  C   UNL A   1      42.448  33.798  29.943  1.00  0.00     0.037 A 
ATOM     59  C   UNL A   1      39.583  27.594  30.735  1.00  0.00     0.049 A 
ATOM     60  C   UNL A   1      42.843  32.430  30.397  1.00  0.00     0.074 A 
ATOM     61  C   UNL A   1      38.800  27.538  31.875  1.00  0.00     0.029 A 
ATOM     62  N   UNL A   1      40.813  28.048  31.159  1.00  0.00    -0.354 N 
ATOM     63  N   UNL A   1      42.658  32.004  31.623  1.00  0.00    -0.248 NA
ATOM     64  C   UNL A   1      42.919  31.386  29.383  1.00  0.00     0.031 C 
ATOM     65  C   UNL A   1      39.419  28.449  32.784  1.00  0.00     0.029 A 
ATOM     66  C   UNL A   1      40.581  28.936  32.183  1.00  0.00     0.049 A 
ATOM     67  H   UNL A   1      41.690  27.785  30.797  1.00  0.00     0.167 HD
ATOM     68  C   UNL A   1      42.198  30.698  31.491  1.00  0.00     0.074 A 
ATOM     69  C   UNL A   1      42.427  30.359  30.084  1.00  0.00     0.031 C 
ATOM     70  C   UNL A   1      41.392  30.111  32.429  1.00  0.00     0.037 A 
BRANCH  57  71
ATOM     71  C   UNL A   1      40.073  26.859  28.312  1.00  0.00     0.057 A 
ATOM     72  C   UNL A   1      41.010  27.517  27.500  1.00  0.00     0.134 A 
ATOM     73  C   UNL A   1      39.757  25.541  27.923  1.00  0.00     0.134 A 
ATOM     74  F   UNL A   1      41.378  28.781  27.762  1.00  0.00    -0.206 F 
ATOM     75  C   UNL A   1      41.545  26.929  26.348  1.00  0.00     0.040 A 
ATOM     76  C   UNL A   1      40.327  24.925  26.808  1.00  0.00     0.040 A 
ATOM     77  F   UNL A   1      38.810  24.819  28.534  1.00  0.00    -0.206 F 
ATOM     78  C   UNL A   1      41.201  25.629  25.997  1.00  0.00     0.006 A 
ENDBRANCH  57  71
BRANCH  58  79
ATOM     79  C   UNL A   1      43.290  34.679  29.098  1.00  0.00     0.057 A 
ATOM     80  C   UNL A   1      43.562  34.380  27.759  1.00  0.00     0.134 A 
ATOM     81  C   UNL A   1      43.663  35.971  29.526  1.00  0.00     0.134 A 
ATOM     82  F   UNL A   1      43.202  33.196  27.241  1.00  0.00    -0.206 F 
ATOM     83  C   UNL A   1      44.169  35.307  26.895  1.00  0.00     0.040 A 
ATOM     84  C   UNL A   1      44.273  36.901  28.679  1.00  0.00     0.040 A 
ATOM     85  F   UNL A   1      43.373  36.403  30.761  1.00  0.00    -0.206 F 
ATOM     86  C   UNL A   1      44.521  36.575  27.355  1.00  0.00     0.006 A 
ENDBRANCH  58  79
BRANCH  70  87
ATOM     87  C   UNL A   1      41.115  30.856  33.715  1.00  0.00     0.057 A 
ATOM     88  C   UNL A   1      39.992  31.676  33.920  1.00  0.00     0.134 A 
ATOM     89  C   UNL A   1      41.889  30.579  34.845  1.00  0.00     0.134 A 
ATOM     90  F   UNL A   1      39.126  31.917  32.935  1.00  0.00    -0.206 F 
ATOM     91  C   UNL A   1      39.674  32.218  35.170  1.00  0.00     0.040 A 
ATOM     92  C   UNL A   1      41.569  31.091  36.108  1.00  0.00     0.040 A 
ATOM     93  F   UNL A   1      42.942  29.752  34.754  1.00  0.00    -0.206 F 
ATOM     94  C   UNL A   1      40.463  31.919  36.273  1.00  0.00     0.006 A 
ENDBRANCH  70  87
ENDBRANCH  44  45
ENDBRANCH  36  39
ENDBRANCH  34  35
ENDBRANCH   1  34
TORSDOF 14
ENDMDL
MODEL 3
REMARK VINA RESULT:     -12.6      4.685      9.839
REMARK SMILES COc1cc([C@@H]2CC(=O)Nc3c(C(=O)NCCCNC(=O)c4ccc(-c5c6nc(c(-c7c(F)cccc7F)c7ccc([nH]7)c(-c7c(F)cccc7F)c7nc(c(-c8c(F)cccc8F)c8ccc5[nH]8)C=C7)C=C6)cc4)cn(-c4ccccc4)c32)ccc1O
REMARK SMILES IDX 17 1 16 2 15 3 13 4 14 5 12 7 6 8 7 9 84 10 8 11 11 12 77 13
REMARK SMILES IDX 9 14 10 15 76 16 5 18 3 19 4 20 87 21 86 22 85 23 2 24 1 25
REMARK SMILES IDX 88 26 78 28 79 29 83 30 80 31 82 32 81 33 18 34 19 35 20 36
REMARK SMILES IDX 21 38 22 39 23 40 75 41 24 42 74 43 25 44 26 45 27 46 68 47
REMARK SMILES IDX 28 48 73 49 67 50 69 51 29 52 72 53 66 54 65 55 30 57 56 58
REMARK SMILES IDX 39 59 55 60 40 61 43 62 54 63 70 64 41 65 42 66 53 68 71 69
REMARK SMILES IDX 44 70 31 71 32 72 37 73 33 74 34 75 36 76 38 77 35 78 57 79
REMARK SMILES IDX 58 80 63 81 59 82 60 83 62 84 64 85 61 86 45 87 46 88 51 89
REMARK SMILES IDX 47 90 48 91 50 92 52 93 49 94
REMARK H PARENT 15 6 10 17 88 27 19 37 69 56 43 67
REMARK Flexibility Score: inf
ROOT
ATOM      1  C   UNL A   1      34.364  30.018  27.074  1.00  0.00     0.042 C 
ENDROOT
BRANCH   1   2
ATOM      2  C   UNL A   1      33.791  31.069  28.037  1.00  0.00     0.118 C 
BRANCH   2   3
ATOM      3  N   UNL A   1      34.071  32.419  27.616  1.00  0.00    -0.352 N 
ATOM      4  C   UNL A   1      34.896  33.391  28.110  1.00  0.00     0.254 C 
ATOM      5  O   UNL A   1      34.983  34.397  27.398  1.00  0.00    -0.269 OA
ATOM      6  H   UNL A   1      33.569  32.695  26.815  1.00  0.00     0.163 HD
BRANCH   4   7
ATOM      7  C   UNL A   1      35.606  33.329  29.398  1.00  0.00     0.081 A 
ATOM      8  C   UNL A   1      36.470  33.957  32.956  1.00  0.00     0.078 C 
ATOM      9  C   UNL A   1      35.045  34.192  33.489  1.00  0.00     0.115 C 
ATOM     10  C   UNL A   1      36.437  33.501  31.524  1.00  0.00     0.055 A 
ATOM     11  C   UNL A   1      33.985  33.341  32.831  1.00  0.00     0.225 C 
ATOM     12  C   UNL A   1      35.292  33.253  30.796  1.00  0.00     0.076 A 
ATOM     13  N   UNL A   1      37.497  33.425  30.656  1.00  0.00    -0.317 N 
ATOM     14  O   UNL A   1      32.940  33.032  33.405  1.00  0.00    -0.275 OA
ATOM     15  N   UNL A   1      34.141  33.041  31.506  1.00  0.00    -0.324 N 
ATOM     16  C   UNL A   1      36.997  33.462  29.383  1.00  0.00     0.107 A 
ATOM     17  H   UNL A   1      33.373  32.647  31.032  1.00  0.00     0.170 HD
BRANCH   8  18
ATOM     18  C   UNL A   1      37.297  33.154  33.942  1.00  0.00    -0.034 A 
ATOM     19  C   UNL A   1      38.149  30.956  34.595  1.00  0.00     0.160 A 
ATOM     20  C   UNL A   1      37.308  31.747  33.816  1.00  0.00     0.054 A 
ATOM     21  C   UNL A   1      39.009  31.578  35.498  1.00  0.00     0.157 A 
ATOM     22  C   UNL A   1      38.976  32.959  35.682  1.00  0.00     0.050 A 
ATOM     23  C   UNL A   1      38.126  33.750  34.903  1.00  0.00     0.008 A 
BRANCH  19  24
ATOM     24  O   UNL A   1      38.221  29.625  34.282  1.00  0.00    -0.493 OA
ATOM     25  C   UNL A   1      39.295  29.269  33.413  1.00  0.00     0.278 C 
ENDBRANCH  19  24
BRANCH  21  26
ATOM     26  O   UNL A   1      39.980  30.880  36.159  1.00  0.00    -0.504 OA
ATOM     27  H   UNL A   1      40.864  30.902  35.851  1.00  0.00     0.293 HD
ENDBRANCH  21  26
ENDBRANCH   8  18
BRANCH  13  28
ATOM     28  C   UNL A   1      38.858  33.335  30.981  1.00  0.00     0.045 A 
ATOM     29  C   UNL A   1      39.466  32.076  30.995  1.00  0.00     0.026 A 
ATOM     30  C   UNL A   1      39.570  34.488  31.304  1.00  0.00     0.026 A 
ATOM     31  C   UNL A   1      40.785  31.959  31.420  1.00  0.00     0.002 A 
ATOM     32  C   UNL A   1      40.886  34.360  31.743  1.00  0.00     0.002 A 
ATOM     33  C   UNL A   1      41.486  33.099  31.814  1.00  0.00     0.000 A 
ENDBRANCH  13  28
ENDBRANCH   4   7
ENDBRANCH   2   3
ENDBRANCH   1   2
BRANCH   1  34
ATOM     34  C   UNL A   1      35.588  29.337  27.643  1.00  0.00     0.118 C 
BRANCH  34  35
ATOM     35  N   UNL A   1      35.734  29.589  29.093  1.00  0.00    -0.352 N 
ATOM     36  C   UNL A   1      36.781  29.268  29.954  1.00  0.00     0.251 C 
ATOM     37  H   UNL A   1      34.975  30.055  29.513  1.00  0.00     0.163 HD
ATOM     38  O   UNL A   1      36.633  29.245  31.160  1.00  0.00    -0.269 OA
BRANCH  36  39
ATOM     39  C   UNL A   1      38.096  28.988  29.359  1.00  0.00     0.039 A 
ATOM     40  C   UNL A   1      38.656  29.645  28.257  1.00  0.00     0.014 A 
ATOM     41  C   UNL A   1      38.841  28.069  30.045  1.00  0.00     0.014 A 
ATOM     42  C   UNL A   1      39.985  29.347  27.934  1.00  0.00     0.010 A 
ATOM     43  C   UNL A   1      40.142  28.406  30.091  1.00  0.00     0.010 A 
ATOM     44  C   UNL A   1      40.721  28.645  28.881  1.00  0.00    -0.014 A 
BRANCH  44  45
ATOM     45  C   UNL A   1      42.087  28.180  28.792  1.00  0.00     0.031 A 
ATOM     46  C   UNL A   1      42.277  26.977  27.966  1.00  0.00     0.074 A 
ATOM     47  C   UNL A   1      43.123  28.973  29.164  1.00  0.00     0.049 A 
ATOM     48  N   UNL A   1      42.518  25.779  28.375  1.00  0.00    -0.248 NA
ATOM     49  C   UNL A   1      41.996  27.080  26.526  1.00  0.00     0.031 C 
ATOM     50  C   UNL A   1      43.132  30.362  29.656  1.00  0.00     0.029 A 
ATOM     51  N   UNL A   1      44.448  28.690  29.078  1.00  0.00    -0.354 N 
ATOM     52  C   UNL A   1      42.645  25.013  27.224  1.00  0.00     0.074 A 
ATOM     53  C   UNL A   1      42.095  25.803  26.152  1.00  0.00     0.031 C 
ATOM     54  C   UNL A   1      44.388  30.862  29.605  1.00  0.00     0.029 A 
ATOM     55  C   UNL A   1      45.288  29.786  29.250  1.00  0.00     0.049 A 
ATOM     56  H   UNL A   1      44.788  27.782  28.908  1.00  0.00     0.167 HD
ATOM     57  C   UNL A   1      43.430  23.902  27.203  1.00  0.00     0.037 A 
ATOM     58  C   UNL A   1      46.627  29.774  29.039  1.00  0.00     0.037 A 
ATOM     59  C   UNL A   1      43.822  23.513  28.537  1.00  0.00     0.049 A 
ATOM     60  C   UNL A   1      47.053  28.345  29.125  1.00  0.00     0.074 A 
ATOM     61  C   UNL A   1      43.127  23.175  29.684  1.00  0.00     0.029 A 
ATOM     62  N   UNL A   1      45.081  23.873  28.966  1.00  0.00    -0.354 N 
ATOM     63  N   UNL A   1      46.959  27.637  30.224  1.00  0.00    -0.248 NA
ATOM     64  C   UNL A   1      47.053  27.573  27.888  1.00  0.00     0.031 C 
ATOM     65  C   UNL A   1      43.812  23.854  30.737  1.00  0.00     0.029 A 
ATOM     66  C   UNL A   1      44.927  24.489  30.186  1.00  0.00     0.049 A 
ATOM     67  H   UNL A   1      45.929  23.719  28.489  1.00  0.00     0.167 HD
ATOM     68  C   UNL A   1      46.489  26.392  29.818  1.00  0.00     0.074 A 
ATOM     69  C   UNL A   1      46.612  26.401  28.358  1.00  0.00     0.031 C 
ATOM     70  C   UNL A   1      45.754  25.585  30.646  1.00  0.00     0.037 A 
BRANCH  57  71
ATOM     71  C   UNL A   1      44.130  23.383  25.979  1.00  0.00     0.057 A 
ATOM     72  C   UNL A   1      43.998  22.027  25.638  1.00  0.00     0.134 A 
ATOM     73  C   UNL A   1      45.132  24.085  25.278  1.00  0.00     0.134 A 
ATOM     74  F   UNL A   1      43.088  21.251  26.249  1.00  0.00    -0.206 F 
ATOM     75  C   UNL A   1      44.843  21.402  24.715  1.00  0.00     0.040 A 
ATOM     76  C   UNL A   1      45.943  23.485  24.314  1.00  0.00     0.040 A 
ATOM     77  F   UNL A   1      45.448  25.355  25.558  1.00  0.00    -0.206 F 
ATOM     78  C   UNL A   1      45.823  22.131  24.052  1.00  0.00     0.006 A 
ENDBRANCH  57  71
BRANCH  58  79
ATOM     79  C   UNL A   1      47.404  30.846  28.370  1.00  0.00     0.057 A 
ATOM     80  C   UNL A   1      47.029  31.365  27.126  1.00  0.00     0.134 A 
ATOM     81  C   UNL A   1      48.416  31.555  29.051  1.00  0.00     0.134 A 
ATOM     82  F   UNL A   1      46.042  30.792  26.422  1.00  0.00    -0.206 F 
ATOM     83  C   UNL A   1      47.623  32.519  26.589  1.00  0.00     0.040 A 
ATOM     84  C   UNL A   1      49.020  32.701  28.525  1.00  0.00     0.040 A 
ATOM     85  F   UNL A   1      48.796  31.205  30.288  1.00  0.00    -0.206 F 
ATOM     86  C   UNL A   1      48.618  33.193  27.293  1.00  0.00     0.006 A 
ENDBRANCH  58  79
BRANCH  70  87
ATOM     87  C   UNL A   1      45.574  25.999  32.088  1.00  0.00     0.057 A 
ATOM     88  C   UNL A   1      44.421  26.630  32.585  1.00  0.00     0.134 A 
ATOM     89  C   UNL A   1      46.499  25.567  33.043  1.00  0.00     0.134 A 
ATOM     90  F   UNL A   1      43.426  26.986  31.771  1.00  0.00    -0.206 F 
ATOM     91  C   UNL A   1      44.213  26.851  33.951  1.00  0.00     0.040 A 
ATOM     92  C   UNL A   1      46.293  25.754  34.415  1.00  0.00     0.040 A 
ATOM     93  F   UNL A   1      47.597  24.896  32.662  1.00  0.00    -0.206 F 
ATOM     94  C   UNL A   1      45.150  26.404  34.874  1.00  0.00     0.006 A 
ENDBRANCH  70  87
ENDBRANCH  44  45
ENDBRANCH  36  39
ENDBRANCH  34  35
ENDBRANCH   1  34
TORSDOF 14
ENDMDL
