MODEL 1
REMARK VINA RESULT:     -13.8      0.000      0.000
REMARK SMILES Cc1ccccc1C(=O)Nc1cc(NC(=O)c2ccccc2C)cc(C(=O)NCCCNC(=O)c2ccc(-c3c4nc(c(-c5c(F)cccc5F)c5ccc([nH]5)c(-c5c(F)cccc5F)c5nc(c(-c6c(F)cccc6F)c6ccc3[nH]6)C=C5)C=C4)cc2)c1
REMARK SMILES IDX 30 1 29 2 28 3 26 4 27 5 25 7 11 8 12 9 89 10 13 11 24 12
REMARK SMILES IDX 10 13 8 14 9 15 7 17 1 18 2 19 3 20 4 21 6 22 5 23 14 24
REMARK SMILES IDX 15 25 16 27 17 28 18 29 22 30 19 31 21 32 23 33 20 34 31 35
REMARK SMILES IDX 32 36 33 37 34 39 35 40 36 41 88 42 37 43 87 44 38 45 39 46
REMARK SMILES IDX 40 47 81 48 41 49 86 50 80 51 82 52 42 53 85 54 79 55 78 56
REMARK SMILES IDX 43 58 69 59 52 60 68 61 53 62 56 63 67 64 83 65 54 66 55 67
REMARK SMILES IDX 66 69 84 70 57 71 44 72 45 73 50 74 46 75 47 76 49 77 51 78
REMARK SMILES IDX 48 79 70 80 71 81 76 82 72 83 73 84 75 85 77 86 74 87 58 88
REMARK SMILES IDX 59 89 64 90 60 91 61 92 63 93 65 94 62 95
REMARK H PARENT 28 6 10 16 14 26 32 38 82 57 56 68
REMARK Flexibility Score: inf
ROOT
ATOM      1  C   UNL A   1      34.448  31.413  27.617  1.00  0.00     0.042 C 
ENDROOT
BRANCH   1   2
ATOM      2  C   UNL A   1      34.593  29.895  27.483  1.00  0.00     0.118 C 
BRANCH   2   3
ATOM      3  N   UNL A   1      33.404  29.199  27.955  1.00  0.00    -0.352 N 
ATOM      4  C   UNL A   1      32.498  28.376  27.328  1.00  0.00     0.251 C 
ATOM      5  O   UNL A   1      31.620  27.867  28.027  1.00  0.00    -0.269 OA
ATOM      6  H   UNL A   1      33.212  29.346  28.909  1.00  0.00     0.163 HD
BRANCH   4   7
ATOM      7  C   UNL A   1      32.536  28.036  25.875  1.00  0.00     0.043 A 
ATOM      8  C   UNL A   1      33.352  26.525  24.159  1.00  0.00     0.044 A 
ATOM      9  C   UNL A   1      32.758  27.302  23.160  1.00  0.00     0.052 A 
ATOM     10  C   UNL A   1      33.161  26.839  25.509  1.00  0.00     0.040 A 
ATOM     11  C   UNL A   1      32.078  28.462  23.512  1.00  0.00     0.044 A 
ATOM     12  C   UNL A   1      32.008  28.827  24.858  1.00  0.00     0.040 A 
BRANCH   8  13
ATOM     13  N   UNL A   1      34.251  25.487  23.882  1.00  0.00    -0.322 N 
ATOM     14  C   UNL A   1      34.284  24.194  24.363  1.00  0.00     0.255 C 
ATOM     15  O   UNL A   1      35.240  23.473  24.074  1.00  0.00    -0.269 OA
ATOM     16  H   UNL A   1      34.968  25.714  23.247  1.00  0.00     0.170 HD
BRANCH  14  17
ATOM     17  C   UNL A   1      33.176  23.615  25.174  1.00  0.00     0.043 A 
ATOM     18  C   UNL A   1      31.459  23.406  23.253  1.00  0.00     0.045 C 
ATOM     19  C   UNL A   1      31.888  23.298  24.691  1.00  0.00    -0.038 A 
ATOM     20  C   UNL A   1      30.924  22.825  25.601  1.00  0.00     0.004 A 
ATOM     21  C   UNL A   1      31.253  22.576  26.933  1.00  0.00     0.000 A 
ATOM     22  C   UNL A   1      33.504  23.321  26.509  1.00  0.00     0.014 A 
ATOM     23  C   UNL A   1      32.550  22.797  27.380  1.00  0.00     0.001 A 
ENDBRANCH  14  17
ENDBRANCH   8  13
BRANCH  11  24
ATOM     24  N   UNL A   1      31.502  29.361  22.602  1.00  0.00    -0.322 N 
ATOM     25  C   UNL A   1      30.236  29.451  22.080  1.00  0.00     0.255 C 
ATOM     26  H   UNL A   1      32.119  30.056  22.278  1.00  0.00     0.170 HD
ATOM     27  O   UNL A   1      30.034  30.172  21.106  1.00  0.00    -0.269 OA
BRANCH  25  28
ATOM     28  C   UNL A   1      29.092  28.776  22.727  1.00  0.00     0.043 A 
ATOM     29  C   UNL A   1      29.290  27.435  23.087  1.00  0.00     0.014 A 
ATOM     30  C   UNL A   1      27.837  29.389  22.914  1.00  0.00    -0.038 A 
ATOM     31  C   UNL A   1      28.267  26.716  23.698  1.00  0.00     0.001 A 
ATOM     32  C   UNL A   1      26.831  28.656  23.563  1.00  0.00     0.004 A 
ATOM     33  C   UNL A   1      27.509  30.786  22.464  1.00  0.00     0.045 C 
ATOM     34  C   UNL A   1      27.045  27.332  23.951  1.00  0.00     0.000 A 
ENDBRANCH  25  28
ENDBRANCH  11  24
ENDBRANCH   4   7
ENDBRANCH   2   3
ENDBRANCH   1   2
BRANCH   1  35
ATOM     35  C   UNL A   1      35.712  32.125  28.048  1.00  0.00     0.118 C 
BRANCH  35  36
ATOM     36  N   UNL A   1      35.865  32.229  29.502  1.00  0.00    -0.352 N 
ATOM     37  C   UNL A   1      36.523  31.374  30.357  1.00  0.00     0.251 C 
ATOM     38  H   UNL A   1      35.443  33.013  29.922  1.00  0.00     0.163 HD
ATOM     39  O   UNL A   1      36.581  31.600  31.550  1.00  0.00    -0.269 OA
BRANCH  37  40
ATOM     40  C   UNL A   1      37.287  30.244  29.766  1.00  0.00     0.039 A 
ATOM     41  C   UNL A   1      37.397  29.081  30.532  1.00  0.00     0.014 A 
ATOM     42  C   UNL A   1      38.104  30.452  28.656  1.00  0.00     0.014 A 
ATOM     43  C   UNL A   1      38.505  28.264  30.352  1.00  0.00     0.010 A 
ATOM     44  C   UNL A   1      39.255  29.699  28.544  1.00  0.00     0.010 A 
ATOM     45  C   UNL A   1      39.490  28.658  29.450  1.00  0.00    -0.014 A 
BRANCH  45  46
ATOM     46  C   UNL A   1      40.848  28.132  29.493  1.00  0.00     0.031 A 
ATOM     47  C   UNL A   1      41.146  26.798  28.938  1.00  0.00     0.074 A 
ATOM     48  C   UNL A   1      41.837  28.897  30.009  1.00  0.00     0.049 A 
ATOM     49  N   UNL A   1      42.205  26.122  29.232  1.00  0.00    -0.248 NA
ATOM     50  C   UNL A   1      40.224  26.068  28.071  1.00  0.00     0.031 C 
ATOM     51  C   UNL A   1      43.278  28.682  29.897  1.00  0.00     0.029 A 
ATOM     52  N   UNL A   1      41.712  29.928  30.955  1.00  0.00    -0.354 N 
ATOM     53  C   UNL A   1      42.254  25.042  28.387  1.00  0.00     0.074 A 
ATOM     54  C   UNL A   1      40.941  24.971  27.802  1.00  0.00     0.031 C 
ATOM     55  C   UNL A   1      43.890  29.315  30.909  1.00  0.00     0.029 A 
ATOM     56  C   UNL A   1      42.852  29.830  31.786  1.00  0.00     0.049 A 
ATOM     57  H   UNL A   1      40.982  30.583  31.026  1.00  0.00     0.167 HD
ATOM     58  C   UNL A   1      43.453  24.432  28.178  1.00  0.00     0.037 A 
ATOM     59  C   UNL A   1      42.750  29.554  33.117  1.00  0.00     0.037 A 
ATOM     60  C   UNL A   1      44.426  24.839  29.193  1.00  0.00     0.049 A 
ATOM     61  C   UNL A   1      43.475  28.300  33.548  1.00  0.00     0.074 A 
ATOM     62  C   UNL A   1      45.530  25.672  29.179  1.00  0.00     0.029 A 
ATOM     63  N   UNL A   1      44.162  24.556  30.531  1.00  0.00    -0.354 N 
ATOM     64  N   UNL A   1      43.887  27.380  32.719  1.00  0.00    -0.248 NA
ATOM     65  C   UNL A   1      43.756  27.960  34.941  1.00  0.00     0.031 C 
ATOM     66  C   UNL A   1      45.860  25.976  30.528  1.00  0.00     0.029 A 
ATOM     67  C   UNL A   1      44.991  25.287  31.357  1.00  0.00     0.049 A 
ATOM     68  H   UNL A   1      43.478  23.921  30.845  1.00  0.00     0.167 HD
ATOM     69  C   UNL A   1      44.422  26.335  33.424  1.00  0.00     0.074 A 
ATOM     70  C   UNL A   1      44.346  26.758  34.810  1.00  0.00     0.031 C 
ATOM     71  C   UNL A   1      44.857  25.198  32.805  1.00  0.00     0.037 A 
BRANCH  58  72
ATOM     72  C   UNL A   1      43.825  23.628  26.946  1.00  0.00     0.057 A 
ATOM     73  C   UNL A   1      43.405  22.286  26.826  1.00  0.00     0.134 A 
ATOM     74  C   UNL A   1      44.701  24.044  25.920  1.00  0.00     0.134 A 
ATOM     75  F   UNL A   1      42.576  21.731  27.723  1.00  0.00    -0.206 F 
ATOM     76  C   UNL A   1      43.834  21.435  25.796  1.00  0.00     0.040 A 
ATOM     77  C   UNL A   1      45.097  23.218  24.859  1.00  0.00     0.040 A 
ATOM     78  F   UNL A   1      45.279  25.247  25.906  1.00  0.00    -0.206 F 
ATOM     79  C   UNL A   1      44.679  21.902  24.800  1.00  0.00     0.006 A 
ENDBRANCH  58  72
BRANCH  59  80
ATOM     80  C   UNL A   1      41.502  30.073  33.735  1.00  0.00     0.057 A 
ATOM     81  C   UNL A   1      41.453  31.424  34.118  1.00  0.00     0.134 A 
ATOM     82  C   UNL A   1      40.283  29.402  33.609  1.00  0.00     0.134 A 
ATOM     83  F   UNL A   1      42.589  32.128  34.256  1.00  0.00    -0.206 F 
ATOM     84  C   UNL A   1      40.244  32.109  34.259  1.00  0.00     0.040 A 
ATOM     85  C   UNL A   1      39.065  30.075  33.758  1.00  0.00     0.040 A 
ATOM     86  F   UNL A   1      40.247  28.118  33.225  1.00  0.00    -0.206 F 
ATOM     87  C   UNL A   1      39.043  31.440  34.044  1.00  0.00     0.006 A 
ENDBRANCH  59  80
BRANCH  71  88
ATOM     88  C   UNL A   1      45.245  23.918  33.501  1.00  0.00     0.057 A 
ATOM     89  C   UNL A   1      46.510  23.671  34.056  1.00  0.00     0.134 A 
ATOM     90  C   UNL A   1      44.271  22.930  33.767  1.00  0.00     0.134 A 
ATOM     91  F   UNL A   1      47.499  24.571  33.973  1.00  0.00    -0.206 F 
ATOM     92  C   UNL A   1      46.800  22.503  34.777  1.00  0.00     0.040 A 
ATOM     93  C   UNL A   1      44.535  21.788  34.528  1.00  0.00     0.040 A 
ATOM     94  F   UNL A   1      43.013  23.047  33.317  1.00  0.00    -0.206 F 
ATOM     95  C   UNL A   1      45.808  21.563  35.027  1.00  0.00     0.006 A 
ENDBRANCH  71  88
ENDBRANCH  45  46
ENDBRANCH  37  40
ENDBRANCH  35  36
ENDBRANCH   1  35
TORSDOF 14
ENDMDL
MODEL 2
REMARK VINA RESULT:     -13.7      0.503      3.342
REMARK SMILES Cc1ccccc1C(=O)Nc1cc(NC(=O)c2ccccc2C)cc(C(=O)NCCCNC(=O)c2ccc(-c3c4nc(c(-c5c(F)cccc5F)c5ccc([nH]5)c(-c5c(F)cccc5F)c5nc(c(-c6c(F)cccc6F)c6ccc3[nH]6)C=C5)C=C4)cc2)c1
REMARK SMILES IDX 30 1 29 2 28 3 26 4 27 5 25 7 11 8 12 9 89 10 13 11 24 12
REMARK SMILES IDX 10 13 8 14 9 15 7 17 1 18 2 19 3 20 4 21 6 22 5 23 14 24
REMARK SMILES IDX 15 25 16 27 17 28 18 29 22 30 19 31 21 32 23 33 20 34 31 35
REMARK SMILES IDX 32 36 33 37 34 39 35 40 36 41 88 42 37 43 87 44 38 45 39 46
REMARK SMILES IDX 40 47 81 48 41 49 86 50 80 51 82 52 42 53 85 54 79 55 78 56
REMARK SMILES IDX 43 58 69 59 52 60 68 61 53 62 56 63 67 64 83 65 54 66 55 67
REMARK SMILES IDX 66 69 84 70 57 71 44 72 45 73 50 74 46 75 47 76 49 77 51 78
REMARK SMILES IDX 48 79 70 80 71 81 76 82 72 83 73 84 75 85 77 86 74 87 58 88
REMARK SMILES IDX 59 89 64 90 60 91 61 92 63 93 65 94 62 95
REMARK H PARENT 28 6 10 16 14 26 32 38 82 57 56 68
REMARK Flexibility Score: inf
ROOT
ATOM      1  C   UNL A   1      33.542  31.714  27.358  1.00  0.00     0.042 C 
ENDROOT
BRANCH   1   2
ATOM      2  C   UNL A   1      32.200  31.082  26.984  1.00  0.00     0.118 C 
BRANCH   2   3
ATOM      3  N   UNL A   1      32.029  29.778  27.610  1.00  0.00    -0.352 N 
ATOM      4  C   UNL A   1      32.208  28.495  27.150  1.00  0.00     0.251 C 
ATOM      5  O   UNL A   1      32.051  27.578  27.958  1.00  0.00    -0.269 OA
ATOM      6  H   UNL A   1      31.726  29.825  28.546  1.00  0.00     0.163 HD
BRANCH   4   7
ATOM      7  C   UNL A   1      32.613  28.151  25.754  1.00  0.00     0.043 A 
ATOM      8  C   UNL A   1      32.451  28.697  23.395  1.00  0.00     0.044 A 
ATOM      9  C   UNL A   1      33.232  27.587  23.061  1.00  0.00     0.052 A 
ATOM     10  C   UNL A   1      32.225  29.028  24.736  1.00  0.00     0.040 A 
ATOM     11  C   UNL A   1      33.680  26.740  24.067  1.00  0.00     0.044 A 
ATOM     12  C   UNL A   1      33.334  27.016  25.392  1.00  0.00     0.040 A 
BRANCH   8  13
ATOM     13  N   UNL A   1      31.763  29.459  22.441  1.00  0.00    -0.322 N 
ATOM     14  C   UNL A   1      30.451  29.377  22.024  1.00  0.00     0.255 C 
ATOM     15  O   UNL A   1      30.080  30.075  21.079  1.00  0.00    -0.269 OA
ATOM     16  H   UNL A   1      32.297  30.159  22.002  1.00  0.00     0.170 HD
BRANCH  14  17
ATOM     17  C   UNL A   1      29.447  28.515  22.710  1.00  0.00     0.043 A 
ATOM     18  C   UNL A   1      27.481  30.192  22.614  1.00  0.00     0.045 C 
ATOM     19  C   UNL A   1      28.121  28.892  23.017  1.00  0.00    -0.038 A 
ATOM     20  C   UNL A   1      27.314  27.990  23.736  1.00  0.00     0.004 A 
ATOM     21  C   UNL A   1      27.771  26.711  24.055  1.00  0.00     0.000 A 
ATOM     22  C   UNL A   1      29.879  27.211  23.001  1.00  0.00     0.014 A 
ATOM     23  C   UNL A   1      29.043  26.312  23.662  1.00  0.00     0.001 A 
ENDBRANCH  14  17
ENDBRANCH   8  13
BRANCH  11  24
ATOM     24  N   UNL A   1      34.407  25.559  23.857  1.00  0.00    -0.322 N 
ATOM     25  C   UNL A   1      34.305  24.309  24.414  1.00  0.00     0.255 C 
ATOM     26  H   UNL A   1      35.122  25.641  23.186  1.00  0.00     0.170 HD
ATOM     27  O   UNL A   1      35.216  23.500  24.256  1.00  0.00    -0.269 OA
BRANCH  25  28
ATOM     28  C   UNL A   1      33.076  23.882  25.117  1.00  0.00     0.043 A 
ATOM     29  C   UNL A   1      33.211  23.620  26.488  1.00  0.00     0.014 A 
ATOM     30  C   UNL A   1      31.848  23.664  24.463  1.00  0.00    -0.038 A 
ATOM     31  C   UNL A   1      32.109  23.209  27.233  1.00  0.00     0.001 A 
ATOM     32  C   UNL A   1      30.742  23.283  25.240  1.00  0.00     0.004 A 
ATOM     33  C   UNL A   1      31.645  23.821  22.981  1.00  0.00     0.045 C 
ATOM     34  C   UNL A   1      30.872  23.057  26.611  1.00  0.00     0.000 A 
ENDBRANCH  25  28
ENDBRANCH  11  24
ENDBRANCH   4   7
ENDBRANCH   2   3
ENDBRANCH   1   2
BRANCH   1  35
ATOM     35  C   UNL A   1      34.425  30.839  28.222  1.00  0.00     0.118 C 
BRANCH  35  36
ATOM     36  N   UNL A   1      35.087  31.562  29.313  1.00  0.00    -0.352 N 
ATOM     37  C   UNL A   1      36.246  31.230  29.980  1.00  0.00     0.251 C 
ATOM     38  H   UNL A   1      34.646  32.390  29.607  1.00  0.00     0.163 HD
ATOM     39  O   UNL A   1      36.687  31.940  30.861  1.00  0.00    -0.269 OA
BRANCH  37  40
ATOM     40  C   UNL A   1      37.022  30.060  29.494  1.00  0.00     0.039 A 
ATOM     41  C   UNL A   1      37.209  29.004  30.391  1.00  0.00     0.014 A 
ATOM     42  C   UNL A   1      37.779  30.153  28.327  1.00  0.00     0.014 A 
ATOM     43  C   UNL A   1      38.336  28.205  30.257  1.00  0.00     0.010 A 
ATOM     44  C   UNL A   1      38.950  29.427  28.252  1.00  0.00     0.010 A 
ATOM     45  C   UNL A   1      39.264  28.514  29.265  1.00  0.00    -0.014 A 
BRANCH  45  46
ATOM     46  C   UNL A   1      40.641  28.039  29.304  1.00  0.00     0.031 A 
ATOM     47  C   UNL A   1      40.981  26.702  28.782  1.00  0.00     0.074 A 
ATOM     48  C   UNL A   1      41.608  28.853  29.788  1.00  0.00     0.049 A 
ATOM     49  N   UNL A   1      42.067  26.073  29.080  1.00  0.00    -0.248 NA
ATOM     50  C   UNL A   1      40.076  25.916  27.947  1.00  0.00     0.031 C 
ATOM     51  C   UNL A   1      43.053  28.688  29.663  1.00  0.00     0.029 A 
ATOM     52  N   UNL A   1      41.456  29.904  30.708  1.00  0.00    -0.354 N 
ATOM     53  C   UNL A   1      42.146  24.973  28.263  1.00  0.00     0.074 A 
ATOM     54  C   UNL A   1      40.829  24.839  27.698  1.00  0.00     0.031 C 
ATOM     55  C   UNL A   1      43.655  29.370  30.650  1.00  0.00     0.029 A 
ATOM     56  C   UNL A   1      42.609  29.870  31.525  1.00  0.00     0.049 A 
ATOM     57  H   UNL A   1      40.703  30.534  30.770  1.00  0.00     0.167 HD
ATOM     58  C   UNL A   1      43.364  24.401  28.055  1.00  0.00     0.037 A 
ATOM     59  C   UNL A   1      42.533  29.627  32.865  1.00  0.00     0.037 A 
ATOM     60  C   UNL A   1      44.333  24.871  29.047  1.00  0.00     0.049 A 
ATOM     61  C   UNL A   1      43.309  28.412  33.319  1.00  0.00     0.074 A 
ATOM     62  C   UNL A   1      45.405  25.742  28.996  1.00  0.00     0.029 A 
ATOM     63  N   UNL A   1      44.095  24.615  30.395  1.00  0.00    -0.354 N 
ATOM     64  N   UNL A   1      43.744  27.486  32.511  1.00  0.00    -0.248 NA
ATOM     65  C   UNL A   1      43.618  28.120  34.717  1.00  0.00     0.031 C 
ATOM     66  C   UNL A   1      45.740  26.095  30.332  1.00  0.00     0.029 A 
ATOM     67  C   UNL A   1      44.907  25.398  31.191  1.00  0.00     0.049 A 
ATOM     68  H   UNL A   1      43.439  23.964  30.735  1.00  0.00     0.167 HD
ATOM     69  C   UNL A   1      44.325  26.480  33.236  1.00  0.00     0.074 A 
ATOM     70  C   UNL A   1      44.250  26.937  34.611  1.00  0.00     0.031 C 
ATOM     71  C   UNL A   1      44.793  25.343  32.642  1.00  0.00     0.037 A 
BRANCH  58  72
ATOM     72  C   UNL A   1      43.750  23.578  26.841  1.00  0.00     0.057 A 
ATOM     73  C   UNL A   1      43.373  22.221  26.760  1.00  0.00     0.134 A 
ATOM     74  C   UNL A   1      44.601  23.996  25.796  1.00  0.00     0.134 A 
ATOM     75  F   UNL A   1      42.572  21.663  27.679  1.00  0.00    -0.206 F 
ATOM     76  C   UNL A   1      43.820  21.358  25.747  1.00  0.00     0.040 A 
ATOM     77  C   UNL A   1      45.015  23.156  24.751  1.00  0.00     0.040 A 
ATOM     78  F   UNL A   1      45.139  25.217  25.744  1.00  0.00    -0.206 F 
ATOM     79  C   UNL A   1      44.639  21.826  24.731  1.00  0.00     0.006 A 
ENDBRANCH  58  72
BRANCH  59  80
ATOM     80  C   UNL A   1      41.274  30.116  33.485  1.00  0.00     0.057 A 
ATOM     81  C   UNL A   1      41.172  31.480  33.811  1.00  0.00     0.134 A 
ATOM     82  C   UNL A   1      40.084  29.388  33.412  1.00  0.00     0.134 A 
ATOM     83  F   UNL A   1      42.277  32.238  33.896  1.00  0.00    -0.206 F 
ATOM     84  C   UNL A   1      39.936  32.117  33.947  1.00  0.00     0.040 A 
ATOM     85  C   UNL A   1      38.840  30.013  33.555  1.00  0.00     0.040 A 
ATOM     86  F   UNL A   1      40.099  28.088  33.083  1.00  0.00    -0.206 F 
ATOM     87  C   UNL A   1      38.763  31.387  33.784  1.00  0.00     0.006 A 
ENDBRANCH  59  80
BRANCH  71  88
ATOM     88  C   UNL A   1      45.236  24.097  33.367  1.00  0.00     0.057 A 
ATOM     89  C   UNL A   1      46.490  23.940  33.976  1.00  0.00     0.134 A 
ATOM     90  C   UNL A   1      44.320  23.049  33.603  1.00  0.00     0.134 A 
ATOM     91  F   UNL A   1      47.420  24.903  33.925  1.00  0.00    -0.206 F 
ATOM     92  C   UNL A   1      46.827  22.800  34.721  1.00  0.00     0.040 A 
ATOM     93  C   UNL A   1      44.627  21.932  34.386  1.00  0.00     0.040 A 
ATOM     94  F   UNL A   1      43.077  23.078  33.099  1.00  0.00    -0.206 F 
ATOM     95  C   UNL A   1      45.891  21.797  34.939  1.00  0.00     0.006 A 
ENDBRANCH  71  88
ENDBRANCH  45  46
ENDBRANCH  37  40
ENDBRANCH  35  36
ENDBRANCH   1  35
TORSDOF 14
ENDMDL
MODEL 3
REMARK VINA RESULT:     -13.7      4.028      9.005
REMARK SMILES Cc1ccccc1C(=O)Nc1cc(NC(=O)c2ccccc2C)cc(C(=O)NCCCNC(=O)c2ccc(-c3c4nc(c(-c5c(F)cccc5F)c5ccc([nH]5)c(-c5c(F)cccc5F)c5nc(c(-c6c(F)cccc6F)c6ccc3[nH]6)C=C5)C=C4)cc2)c1
REMARK SMILES IDX 30 1 29 2 28 3 26 4 27 5 25 7 11 8 12 9 89 10 13 11 24 12
REMARK SMILES IDX 10 13 8 14 9 15 7 17 1 18 2 19 3 20 4 21 6 22 5 23 14 24
REMARK SMILES IDX 15 25 16 27 17 28 18 29 22 30 19 31 21 32 23 33 20 34 31 35
REMARK SMILES IDX 32 36 33 37 34 39 35 40 36 41 88 42 37 43 87 44 38 45 39 46
REMARK SMILES IDX 40 47 81 48 41 49 86 50 80 51 82 52 42 53 85 54 79 55 78 56
REMARK SMILES IDX 43 58 69 59 52 60 68 61 53 62 56 63 67 64 83 65 54 66 55 67
REMARK SMILES IDX 66 69 84 70 57 71 44 72 45 73 50 74 46 75 47 76 49 77 51 78
REMARK SMILES IDX 48 79 70 80 71 81 76 82 72 83 73 84 75 85 77 86 74 87 58 88
REMARK SMILES IDX 59 89 64 90 60 91 61 92 63 93 65 94 62 95
REMARK H PARENT 28 6 10 16 14 26 32 38 82 57 56 68
REMARK Flexibility Score: inf
ROOT
ATOM      1  C   UNL A   1      39.284  22.041  26.150  1.00  0.00     0.042 C 
ENDROOT
BRANCH   1   2
ATOM      2  C   UNL A   1      38.266  23.167  25.959  1.00  0.00     0.118 C 
BRANCH   2   3
ATOM      3  N   UNL A   1      37.694  23.151  24.619  1.00  0.00    -0.352 N 
ATOM      4  C   UNL A   1      36.399  23.072  24.162  1.00  0.00     0.251 C 
ATOM      5  O   UNL A   1      36.224  23.159  22.945  1.00  0.00    -0.269 OA
ATOM      6  H   UNL A   1      38.365  23.207  23.902  1.00  0.00     0.163 HD
BRANCH   4   7
ATOM      7  C   UNL A   1      35.203  22.928  25.043  1.00  0.00     0.043 A 
ATOM      8  C   UNL A   1      33.749  21.420  26.270  1.00  0.00     0.044 A 
ATOM      9  C   UNL A   1      32.928  22.486  26.652  1.00  0.00     0.052 A 
ATOM     10  C   UNL A   1      34.927  21.655  25.553  1.00  0.00     0.040 A 
ATOM     11  C   UNL A   1      33.224  23.769  26.207  1.00  0.00     0.044 A 
ATOM     12  C   UNL A   1      34.335  23.963  25.383  1.00  0.00     0.040 A 
BRANCH   8  13
ATOM     13  N   UNL A   1      33.396  20.079  26.468  1.00  0.00    -0.322 N 
ATOM     14  C   UNL A   1      32.758  19.199  25.620  1.00  0.00     0.255 C 
ATOM     15  O   UNL A   1      32.439  18.087  26.043  1.00  0.00    -0.269 OA
ATOM     16  H   UNL A   1      33.643  19.708  27.346  1.00  0.00     0.170 HD
BRANCH  14  17
ATOM     17  C   UNL A   1      32.488  19.520  24.190  1.00  0.00     0.043 A 
ATOM     18  C   UNL A   1      32.894  17.145  23.255  1.00  0.00     0.045 C 
ATOM     19  C   UNL A   1      32.589  18.611  23.115  1.00  0.00    -0.038 A 
ATOM     20  C   UNL A   1      32.373  19.086  21.808  1.00  0.00     0.004 A 
ATOM     21  C   UNL A   1      31.968  20.401  21.578  1.00  0.00     0.000 A 
ATOM     22  C   UNL A   1      32.041  20.830  23.947  1.00  0.00     0.014 A 
ATOM     23  C   UNL A   1      31.774  21.265  22.649  1.00  0.00     0.001 A 
ENDBRANCH  14  17
ENDBRANCH   8  13
BRANCH  11  24
ATOM     24  N   UNL A   1      32.442  24.906  26.459  1.00  0.00    -0.322 N 
ATOM     25  C   UNL A   1      32.170  26.017  25.701  1.00  0.00     0.255 C 
ATOM     26  H   UNL A   1      32.007  24.906  27.342  1.00  0.00     0.170 HD
ATOM     27  O   UNL A   1      31.660  27.001  26.233  1.00  0.00    -0.269 OA
BRANCH  25  28
ATOM     28  C   UNL A   1      32.386  26.018  24.239  1.00  0.00     0.043 A 
ATOM     29  C   UNL A   1      33.385  26.881  23.765  1.00  0.00     0.014 A 
ATOM     30  C   UNL A   1      31.600  25.271  23.341  1.00  0.00    -0.038 A 
ATOM     31  C   UNL A   1      33.658  26.953  22.402  1.00  0.00     0.001 A 
ATOM     32  C   UNL A   1      31.915  25.333  21.974  1.00  0.00     0.004 A 
ATOM     33  C   UNL A   1      30.444  24.403  23.756  1.00  0.00     0.045 C 
ATOM     34  C   UNL A   1      32.934  26.167  21.510  1.00  0.00     0.000 A 
ENDBRANCH  25  28
ENDBRANCH  11  24
ENDBRANCH   4   7
ENDBRANCH   2   3
ENDBRANCH   1   2
BRANCH   1  35
ATOM     35  C   UNL A   1      40.375  22.350  27.153  1.00  0.00     0.118 C 
BRANCH  35  36
ATOM     36  N   UNL A   1      41.614  22.844  26.544  1.00  0.00    -0.352 N 
ATOM     37  C   UNL A   1      41.988  24.147  26.302  1.00  0.00     0.251 C 
ATOM     38  H   UNL A   1      42.263  22.155  26.274  1.00  0.00     0.163 HD
ATOM     39  O   UNL A   1      43.064  24.408  25.800  1.00  0.00    -0.269 OA
BRANCH  37  40
ATOM     40  C   UNL A   1      41.107  25.233  26.804  1.00  0.00     0.039 A 
ATOM     41  C   UNL A   1      41.093  26.427  26.078  1.00  0.00     0.014 A 
ATOM     42  C   UNL A   1      40.575  25.169  28.091  1.00  0.00     0.014 A 
ATOM     43  C   UNL A   1      40.802  27.610  26.744  1.00  0.00     0.010 A 
ATOM     44  C   UNL A   1      40.385  26.351  28.776  1.00  0.00     0.010 A 
ATOM     45  C   UNL A   1      40.583  27.571  28.119  1.00  0.00    -0.014 A 
BRANCH  45  46
ATOM     46  C   UNL A   1      40.697  28.751  28.965  1.00  0.00     0.031 A 
ATOM     47  C   UNL A   1      39.590  29.723  29.040  1.00  0.00     0.074 A 
ATOM     48  C   UNL A   1      41.813  28.924  29.711  1.00  0.00     0.049 A 
ATOM     49  N   UNL A   1      39.727  30.932  29.469  1.00  0.00    -0.248 NA
ATOM     50  C   UNL A   1      38.245  29.441  28.546  1.00  0.00     0.031 C 
ATOM     51  C   UNL A   1      42.010  29.865  30.811  1.00  0.00     0.029 A 
ATOM     52  N   UNL A   1      43.096  28.413  29.457  1.00  0.00    -0.354 N 
ATOM     53  C   UNL A   1      38.472  31.471  29.594  1.00  0.00     0.074 A 
ATOM     54  C   UNL A   1      37.611  30.573  28.870  1.00  0.00     0.031 C 
ATOM     55  C   UNL A   1      43.325  30.094  30.955  1.00  0.00     0.029 A 
ATOM     56  C   UNL A   1      44.001  29.423  29.858  1.00  0.00     0.049 A 
ATOM     57  H   UNL A   1      43.321  27.533  29.078  1.00  0.00     0.167 HD
ATOM     58  C   UNL A   1      38.299  32.537  30.424  1.00  0.00     0.037 A 
ATOM     59  C   UNL A   1      44.837  30.032  28.970  1.00  0.00     0.037 A 
ATOM     60  C   UNL A   1      39.588  33.139  30.768  1.00  0.00     0.049 A 
ATOM     61  C   UNL A   1      44.653  31.529  28.872  1.00  0.00     0.074 A 
ATOM     62  C   UNL A   1      40.367  33.142  31.911  1.00  0.00     0.029 A 
ATOM     63  N   UNL A   1      40.380  33.664  29.749  1.00  0.00    -0.354 N 
ATOM     64  N   UNL A   1      43.605  32.162  29.322  1.00  0.00    -0.248 NA
ATOM     65  C   UNL A   1      45.609  32.426  28.225  1.00  0.00     0.031 C 
ATOM     66  C   UNL A   1      41.672  33.572  31.545  1.00  0.00     0.029 A 
ATOM     67  C   UNL A   1      41.669  33.878  30.195  1.00  0.00     0.049 A 
ATOM     68  H   UNL A   1      40.064  33.857  28.837  1.00  0.00     0.167 HD
ATOM     69  C   UNL A   1      43.699  33.490  29.001  1.00  0.00     0.074 A 
ATOM     70  C   UNL A   1      44.985  33.612  28.342  1.00  0.00     0.031 C 
ATOM     71  C   UNL A   1      42.693  34.370  29.283  1.00  0.00     0.037 A 
BRANCH  58  72
ATOM     72  C   UNL A   1      36.996  32.920  31.099  1.00  0.00     0.057 A 
ATOM     73  C   UNL A   1      36.064  33.734  30.422  1.00  0.00     0.134 A 
ATOM     74  C   UNL A   1      36.652  32.658  32.443  1.00  0.00     0.134 A 
ATOM     75  F   UNL A   1      36.244  34.084  29.140  1.00  0.00    -0.206 F 
ATOM     76  C   UNL A   1      34.912  34.255  31.033  1.00  0.00     0.040 A 
ATOM     77  C   UNL A   1      35.480  33.132  33.049  1.00  0.00     0.040 A 
ATOM     78  F   UNL A   1      37.450  31.984  33.276  1.00  0.00    -0.206 F 
ATOM     79  C   UNL A   1      34.610  33.948  32.350  1.00  0.00     0.006 A 
ENDBRANCH  58  72
BRANCH  59  80
ATOM     80  C   UNL A   1      45.257  29.149  27.851  1.00  0.00     0.057 A 
ATOM     81  C   UNL A   1      46.314  28.247  28.067  1.00  0.00     0.134 A 
ATOM     82  C   UNL A   1      44.432  28.911  26.750  1.00  0.00     0.134 A 
ATOM     83  F   UNL A   1      47.144  28.418  29.109  1.00  0.00    -0.206 F 
ATOM     84  C   UNL A   1      46.473  27.097  27.291  1.00  0.00     0.040 A 
ATOM     85  C   UNL A   1      44.588  27.767  25.959  1.00  0.00     0.040 A 
ATOM     86  F   UNL A   1      43.389  29.714  26.492  1.00  0.00    -0.206 F 
ATOM     87  C   UNL A   1      45.586  26.837  26.252  1.00  0.00     0.006 A 
ENDBRANCH  59  80
BRANCH  71  88
ATOM     88  C   UNL A   1      42.603  35.786  28.773  1.00  0.00     0.057 A 
ATOM     89  C   UNL A   1      43.008  36.916  29.500  1.00  0.00     0.134 A 
ATOM     90  C   UNL A   1      42.233  36.037  27.433  1.00  0.00     0.134 A 
ATOM     91  F   UNL A   1      43.485  36.812  30.748  1.00  0.00    -0.206 F 
ATOM     92  C   UNL A   1      42.995  38.207  28.953  1.00  0.00     0.040 A 
ATOM     93  C   UNL A   1      42.265  37.313  26.862  1.00  0.00     0.040 A 
ATOM     94  F   UNL A   1      41.845  35.047  26.616  1.00  0.00    -0.206 F 
ATOM     95  C   UNL A   1      42.635  38.408  27.626  1.00  0.00     0.006 A 
ENDBRANCH  71  88
ENDBRANCH  45  46
ENDBRANCH  37  40
ENDBRANCH  35  36
ENDBRANCH   1  35
TORSDOF 14
ENDMDL
