MODEL 1
REMARK VINA RESULT:     -12.1      0.000      0.000
REMARK SMILES Cc1ccccc1C[C@H](CCSc1ccccc1)C(=O)NCCCNC(=O)c1ccc(-c2c3nc(c(-c4c(F)cccc4F)c4ccc([nH]4)c(-c4c(F)cccc4F)c4nc(c(-c5c(F)cccc5F)c5ccc2[nH]5)C=C4)C=C3)cc1
REMARK SMILES IDX 22 1 21 2 19 3 20 4 9 6 8 7 7 8 1 9 2 10 3 11 4 12 6 13 5 14
REMARK SMILES IDX 10 15 11 16 12 17 13 18 14 19 18 20 15 21 17 22 16 23 23 24
REMARK SMILES IDX 24 25 25 26 26 27 27 29 28 30 29 31 81 32 30 33 80 34 31 35
REMARK SMILES IDX 32 36 33 37 74 38 34 39 79 40 73 41 75 42 35 43 78 44 72 45
REMARK SMILES IDX 71 46 36 48 62 49 45 50 61 51 46 52 49 53 60 54 76 55 47 56
REMARK SMILES IDX 48 57 59 59 77 60 50 61 37 62 38 63 43 64 39 65 40 66 42 67
REMARK SMILES IDX 44 68 41 69 63 70 64 71 69 72 65 73 66 74 68 75 70 76 67 77
REMARK SMILES IDX 51 78 52 79 57 80 53 81 54 82 56 83 58 84 55 85
REMARK H PARENT 21 5 25 28 75 47 49 58
REMARK Flexibility Score: inf
ROOT
ATOM      1  C   UNL A   1      31.810  29.833  25.407  1.00  0.00     0.117 C 
ENDROOT
BRANCH   1   2
ATOM      2  N   UNL A   1      32.913  29.705  24.470  1.00  0.00    -0.356 N 
ATOM      3  C   UNL A   1      33.442  28.588  23.904  1.00  0.00     0.223 C 
ATOM      4  O   UNL A   1      34.343  28.741  23.076  1.00  0.00    -0.275 OA
ATOM      5  H   UNL A   1      33.341  30.552  24.207  1.00  0.00     0.163 HD
BRANCH   3   6
ATOM      6  C   UNL A   1      32.984  27.198  24.319  1.00  0.00     0.083 C 
BRANCH   6   7
ATOM      7  C   UNL A   1      33.800  26.520  25.447  1.00  0.00     0.049 C 
BRANCH   7   8
ATOM      8  C   UNL A   1      33.398  25.116  25.878  1.00  0.00    -0.044 A 
ATOM      9  C   UNL A   1      35.732  24.096  25.432  1.00  0.00     0.044 C 
ATOM     10  C   UNL A   1      34.287  24.018  25.847  1.00  0.00    -0.048 A 
ATOM     11  C   UNL A   1      33.854  22.761  26.319  1.00  0.00     0.004 A 
ATOM     12  C   UNL A   1      32.573  22.575  26.830  1.00  0.00     0.000 A 
ATOM     13  C   UNL A   1      32.119  24.901  26.434  1.00  0.00     0.004 A 
ATOM     14  C   UNL A   1      31.706  23.651  26.895  1.00  0.00     0.000 A 
ENDBRANCH   7   8
ENDBRANCH   6   7
BRANCH   6  15
ATOM     15  C   UNL A   1      32.813  26.365  23.022  1.00  0.00     0.025 C 
BRANCH  15  16
ATOM     16  C   UNL A   1      31.421  26.296  22.390  1.00  0.00     0.076 C 
BRANCH  16  17
ATOM     17  S   UNL A   1      30.049  26.431  23.589  1.00  0.00    -0.126 SA
BRANCH  17  18
ATOM     18  C   UNL A   1      29.285  27.966  23.112  1.00  0.00     0.007 A 
ATOM     19  C   UNL A   1      30.012  28.919  22.396  1.00  0.00     0.015 A 
ATOM     20  C   UNL A   1      27.924  28.188  23.346  1.00  0.00     0.015 A 
ATOM     21  C   UNL A   1      29.419  30.114  21.990  1.00  0.00     0.001 A 
ATOM     22  C   UNL A   1      27.314  29.361  22.892  1.00  0.00     0.001 A 
ATOM     23  C   UNL A   1      28.064  30.330  22.226  1.00  0.00     0.000 A 
ENDBRANCH  17  18
ENDBRANCH  16  17
ENDBRANCH  15  16
ENDBRANCH   6  15
ENDBRANCH   3   6
ENDBRANCH   1   2
BRANCH   1  24
ATOM     24  C   UNL A   1      32.094  30.844  26.498  1.00  0.00     0.042 C 
BRANCH  24  25
ATOM     25  C   UNL A   1      33.258  30.406  27.350  1.00  0.00     0.118 C 
BRANCH  25  26
ATOM     26  N   UNL A   1      34.012  31.489  27.949  1.00  0.00    -0.352 N 
ATOM     27  C   UNL A   1      35.195  31.471  28.680  1.00  0.00     0.251 C 
ATOM     28  H   UNL A   1      33.623  32.384  27.816  1.00  0.00     0.163 HD
ATOM     29  O   UNL A   1      35.579  32.490  29.190  1.00  0.00    -0.269 OA
BRANCH  27  30
ATOM     30  C   UNL A   1      36.077  30.259  28.666  1.00  0.00     0.039 A 
ATOM     31  C   UNL A   1      36.276  29.604  29.891  1.00  0.00     0.014 A 
ATOM     32  C   UNL A   1      36.940  30.002  27.617  1.00  0.00     0.014 A 
ATOM     33  C   UNL A   1      37.486  28.959  30.129  1.00  0.00     0.010 A 
ATOM     34  C   UNL A   1      38.208  29.597  27.911  1.00  0.00     0.010 A 
ATOM     35  C   UNL A   1      38.485  29.096  29.178  1.00  0.00    -0.014 A 
BRANCH  35  36
ATOM     36  C   UNL A   1      39.857  28.671  29.319  1.00  0.00     0.031 A 
ATOM     37  C   UNL A   1      40.202  27.333  28.814  1.00  0.00     0.074 A 
ATOM     38  C   UNL A   1      40.783  29.597  29.645  1.00  0.00     0.049 A 
ATOM     39  N   UNL A   1      41.291  26.721  29.096  1.00  0.00    -0.248 NA
ATOM     40  C   UNL A   1      39.322  26.560  27.937  1.00  0.00     0.031 C 
ATOM     41  C   UNL A   1      42.231  29.513  29.489  1.00  0.00     0.029 A 
ATOM     42  N   UNL A   1      40.585  30.769  30.388  1.00  0.00    -0.354 N 
ATOM     43  C   UNL A   1      41.397  25.645  28.245  1.00  0.00     0.074 A 
ATOM     44  C   UNL A   1      40.123  25.554  27.580  1.00  0.00     0.031 C 
ATOM     45  C   UNL A   1      42.806  30.364  30.357  1.00  0.00     0.029 A 
ATOM     46  C   UNL A   1      41.742  30.900  31.189  1.00  0.00     0.049 A 
ATOM     47  H   UNL A   1      39.806  31.371  30.358  1.00  0.00     0.167 HD
ATOM     48  C   UNL A   1      42.612  25.045  28.120  1.00  0.00     0.037 A 
ATOM     49  C   UNL A   1      41.657  30.741  32.543  1.00  0.00     0.037 A 
ATOM     50  C   UNL A   1      43.574  25.678  29.018  1.00  0.00     0.049 A 
ATOM     51  C   UNL A   1      42.464  29.567  33.053  1.00  0.00     0.074 A 
ATOM     52  C   UNL A   1      44.515  26.678  28.830  1.00  0.00     0.029 A 
ATOM     53  N   UNL A   1      43.374  25.578  30.388  1.00  0.00    -0.354 N 
ATOM     54  N   UNL A   1      42.827  28.551  32.317  1.00  0.00    -0.248 NA
ATOM     55  C   UNL A   1      42.964  29.466  34.419  1.00  0.00     0.031 C 
ATOM     56  C   UNL A   1      44.855  27.205  30.103  1.00  0.00     0.029 A 
ATOM     57  C   UNL A   1      44.136  26.512  31.062  1.00  0.00     0.049 A 
ATOM     58  H   UNL A   1      42.772  24.932  30.821  1.00  0.00     0.167 HD
ATOM     59  C   UNL A   1      43.602  27.690  33.057  1.00  0.00     0.074 A 
ATOM     60  C   UNL A   1      43.662  28.317  34.365  1.00  0.00     0.031 C 
ATOM     61  C   UNL A   1      44.130  26.547  32.518  1.00  0.00     0.037 A 
BRANCH  48  62
ATOM     62  C   UNL A   1      42.988  24.082  27.025  1.00  0.00     0.057 A 
ATOM     63  C   UNL A   1      43.003  22.694  27.270  1.00  0.00     0.134 A 
ATOM     64  C   UNL A   1      43.363  24.445  25.720  1.00  0.00     0.134 A 
ATOM     65  F   UNL A   1      42.605  22.180  28.440  1.00  0.00    -0.206 F 
ATOM     66  C   UNL A   1      43.433  21.756  26.325  1.00  0.00     0.040 A 
ATOM     67  C   UNL A   1      43.841  23.521  24.778  1.00  0.00     0.040 A 
ATOM     68  F   UNL A   1      43.232  25.700  25.273  1.00  0.00    -0.206 F 
ATOM     69  C   UNL A   1      43.882  22.169  25.081  1.00  0.00     0.006 A 
ENDBRANCH  48  62
BRANCH  49  70
ATOM     70  C   UNL A   1      40.355  31.235  33.079  1.00  0.00     0.057 A 
ATOM     71  C   UNL A   1      39.387  30.271  33.427  1.00  0.00     0.134 A 
ATOM     72  C   UNL A   1      40.240  32.490  33.687  1.00  0.00     0.134 A 
ATOM     73  F   UNL A   1      39.428  29.049  32.871  1.00  0.00    -0.206 F 
ATOM     74  C   UNL A   1      38.460  30.485  34.452  1.00  0.00     0.040 A 
ATOM     75  C   UNL A   1      39.296  32.722  34.699  1.00  0.00     0.040 A 
ATOM     76  F   UNL A   1      41.125  33.462  33.421  1.00  0.00    -0.206 F 
ATOM     77  C   UNL A   1      38.444  31.702  35.123  1.00  0.00     0.006 A 
ENDBRANCH  49  70
BRANCH  61  78
ATOM     78  C   UNL A   1      44.751  25.359  33.242  1.00  0.00     0.057 A 
ATOM     79  C   UNL A   1      46.106  25.013  33.210  1.00  0.00     0.134 A 
ATOM     80  C   UNL A   1      43.978  24.596  34.161  1.00  0.00     0.134 A 
ATOM     81  F   UNL A   1      46.994  25.683  32.467  1.00  0.00    -0.206 F 
ATOM     82  C   UNL A   1      46.644  23.980  33.997  1.00  0.00     0.040 A 
ATOM     83  C   UNL A   1      44.518  23.620  35.002  1.00  0.00     0.040 A 
ATOM     84  F   UNL A   1      42.660  24.778  34.315  1.00  0.00    -0.206 F 
ATOM     85  C   UNL A   1      45.857  23.297  34.914  1.00  0.00     0.006 A 
ENDBRANCH  61  78
ENDBRANCH  35  36
ENDBRANCH  27  30
ENDBRANCH  25  26
ENDBRANCH  24  25
ENDBRANCH   1  24
TORSDOF 16
ENDMDL
MODEL 2
REMARK VINA RESULT:     -12.0      2.178      3.366
REMARK SMILES Cc1ccccc1C[C@H](CCSc1ccccc1)C(=O)NCCCNC(=O)c1ccc(-c2c3nc(c(-c4c(F)cccc4F)c4ccc([nH]4)c(-c4c(F)cccc4F)c4nc(c(-c5c(F)cccc5F)c5ccc2[nH]5)C=C4)C=C3)cc1
REMARK SMILES IDX 22 1 21 2 19 3 20 4 9 6 8 7 7 8 1 9 2 10 3 11 4 12 6 13 5 14
REMARK SMILES IDX 10 15 11 16 12 17 13 18 14 19 18 20 15 21 17 22 16 23 23 24
REMARK SMILES IDX 24 25 25 26 26 27 27 29 28 30 29 31 81 32 30 33 80 34 31 35
REMARK SMILES IDX 32 36 33 37 74 38 34 39 79 40 73 41 75 42 35 43 78 44 72 45
REMARK SMILES IDX 71 46 36 48 62 49 45 50 61 51 46 52 49 53 60 54 76 55 47 56
REMARK SMILES IDX 48 57 59 59 77 60 50 61 37 62 38 63 43 64 39 65 40 66 42 67
REMARK SMILES IDX 44 68 41 69 63 70 64 71 69 72 65 73 66 74 68 75 70 76 67 77
REMARK SMILES IDX 51 78 52 79 57 80 53 81 54 82 56 83 58 84 55 85
REMARK H PARENT 21 5 25 28 75 47 49 58
REMARK Flexibility Score: inf
ROOT
ATOM      1  C   UNL A   1      34.317  29.298  27.197  1.00  0.00     0.117 C 
ENDROOT
BRANCH   1   2
ATOM      2  N   UNL A   1      33.019  28.962  27.758  1.00  0.00    -0.356 N 
ATOM      3  C   UNL A   1      32.080  28.091  27.303  1.00  0.00     0.223 C 
ATOM      4  O   UNL A   1      31.074  27.924  27.996  1.00  0.00    -0.275 OA
ATOM      5  H   UNL A   1      32.786  29.435  28.589  1.00  0.00     0.163 HD
BRANCH   3   6
ATOM      6  C   UNL A   1      32.233  27.392  25.960  1.00  0.00     0.083 C 
BRANCH   6   7
ATOM      7  C   UNL A   1      33.454  26.451  25.816  1.00  0.00     0.049 C 
BRANCH   7   8
ATOM      8  C   UNL A   1      33.249  24.965  26.080  1.00  0.00    -0.044 A 
ATOM      9  C   UNL A   1      35.663  24.313  25.422  1.00  0.00     0.044 C 
ATOM     10  C   UNL A   1      34.262  24.002  25.877  1.00  0.00    -0.048 A 
ATOM     11  C   UNL A   1      34.010  22.651  26.202  1.00  0.00     0.004 A 
ATOM     12  C   UNL A   1      32.790  22.244  26.732  1.00  0.00     0.000 A 
ATOM     13  C   UNL A   1      32.036  24.524  26.652  1.00  0.00     0.004 A 
ATOM     14  C   UNL A   1      31.803  23.184  26.965  1.00  0.00     0.000 A 
ENDBRANCH   7   8
ENDBRANCH   6   7
BRANCH   6  15
ATOM     15  C   UNL A   1      32.092  28.477  24.860  1.00  0.00     0.025 C 
BRANCH  15  16
ATOM     16  C   UNL A   1      32.319  28.058  23.406  1.00  0.00     0.076 C 
BRANCH  16  17
ATOM     17  S   UNL A   1      30.944  27.100  22.680  1.00  0.00    -0.126 SA
BRANCH  17  18
ATOM     18  C   UNL A   1      31.547  25.430  22.799  1.00  0.00     0.007 A 
ATOM     19  C   UNL A   1      30.708  24.412  23.256  1.00  0.00     0.015 A 
ATOM     20  C   UNL A   1      32.822  25.098  22.331  1.00  0.00     0.015 A 
ATOM     21  C   UNL A   1      31.156  23.094  23.326  1.00  0.00     0.001 A 
ATOM     22  C   UNL A   1      33.255  23.768  22.349  1.00  0.00     0.001 A 
ATOM     23  C   UNL A   1      32.427  22.768  22.860  1.00  0.00     0.000 A 
ENDBRANCH  17  18
ENDBRANCH  16  17
ENDBRANCH  15  16
ENDBRANCH   6  15
ENDBRANCH   3   6
ENDBRANCH   1   2
BRANCH   1  24
ATOM     24  C   UNL A   1      35.155  30.133  28.141  1.00  0.00     0.042 C 
BRANCH  24  25
ATOM     25  C   UNL A   1      35.311  31.541  27.623  1.00  0.00     0.118 C 
BRANCH  25  26
ATOM     26  N   UNL A   1      34.446  32.518  28.254  1.00  0.00    -0.352 N 
ATOM     27  C   UNL A   1      34.578  33.196  29.461  1.00  0.00     0.251 C 
ATOM     28  H   UNL A   1      33.633  32.737  27.744  1.00  0.00     0.163 HD
ATOM     29  O   UNL A   1      33.665  33.879  29.846  1.00  0.00    -0.269 OA
BRANCH  27  30
ATOM     30  C   UNL A   1      35.898  33.238  30.168  1.00  0.00     0.039 A 
ATOM     31  C   UNL A   1      36.961  33.857  29.494  1.00  0.00     0.014 A 
ATOM     32  C   UNL A   1      36.172  32.410  31.241  1.00  0.00     0.014 A 
ATOM     33  C   UNL A   1      38.259  33.402  29.706  1.00  0.00     0.010 A 
ATOM     34  C   UNL A   1      37.386  31.789  31.282  1.00  0.00     0.010 A 
ATOM     35  C   UNL A   1      38.424  32.274  30.493  1.00  0.00    -0.014 A 
BRANCH  35  36
ATOM     36  C   UNL A   1      39.652  31.539  30.680  1.00  0.00     0.031 A 
ATOM     37  C   UNL A   1      39.829  30.313  29.886  1.00  0.00     0.074 A 
ATOM     38  C   UNL A   1      40.662  32.138  31.343  1.00  0.00     0.049 A 
ATOM     39  N   UNL A   1      40.725  29.429  30.125  1.00  0.00    -0.248 NA
ATOM     40  C   UNL A   1      38.985  29.975  28.739  1.00  0.00     0.031 C 
ATOM     41  C   UNL A   1      42.075  31.780  31.344  1.00  0.00     0.029 A 
ATOM     42  N   UNL A   1      40.556  33.120  32.339  1.00  0.00    -0.354 N 
ATOM     43  C   UNL A   1      40.777  28.584  29.041  1.00  0.00     0.074 A 
ATOM     44  C   UNL A   1      39.639  28.930  28.228  1.00  0.00     0.031 C 
ATOM     45  C   UNL A   1      42.640  32.260  32.466  1.00  0.00     0.029 A 
ATOM     46  C   UNL A   1      41.566  32.807  33.277  1.00  0.00     0.049 A 
ATOM     47  H   UNL A   1      39.916  33.868  32.375  1.00  0.00     0.167 HD
ATOM     48  C   UNL A   1      41.866  27.780  28.908  1.00  0.00     0.037 A 
ATOM     49  C   UNL A   1      41.225  32.360  34.522  1.00  0.00     0.037 A 
ATOM     50  C   UNL A   1      42.761  27.961  30.047  1.00  0.00     0.049 A 
ATOM     51  C   UNL A   1      41.707  30.953  34.800  1.00  0.00     0.074 A 
ATOM     52  C   UNL A   1      43.886  28.747  30.241  1.00  0.00     0.029 A 
ATOM     53  N   UNL A   1      42.317  27.592  31.310  1.00  0.00    -0.354 N 
ATOM     54  N   UNL A   1      41.999  30.081  33.871  1.00  0.00    -0.248 NA
ATOM     55  C   UNL A   1      41.942  30.431  36.140  1.00  0.00     0.031 C 
ATOM     56  C   UNL A   1      44.095  28.877  31.639  1.00  0.00     0.029 A 
ATOM     57  C   UNL A   1      43.110  28.154  32.290  1.00  0.00     0.049 A 
ATOM     58  H   UNL A   1      41.543  27.010  31.484  1.00  0.00     0.167 HD
ATOM     59  C   UNL A   1      42.469  28.924  34.447  1.00  0.00     0.074 A 
ATOM     60  C   UNL A   1      42.419  29.202  35.870  1.00  0.00     0.031 C 
ATOM     61  C   UNL A   1      42.864  27.851  33.693  1.00  0.00     0.037 A 
BRANCH  48  62
ATOM     62  C   UNL A   1      42.242  27.039  27.652  1.00  0.00     0.057 A 
ATOM     63  C   UNL A   1      42.731  27.738  26.530  1.00  0.00     0.134 A 
ATOM     64  C   UNL A   1      42.131  25.650  27.466  1.00  0.00     0.134 A 
ATOM     65  F   UNL A   1      42.961  29.057  26.566  1.00  0.00    -0.206 F 
ATOM     66  C   UNL A   1      43.008  27.121  25.305  1.00  0.00     0.040 A 
ATOM     67  C   UNL A   1      42.359  25.024  26.231  1.00  0.00     0.040 A 
ATOM     68  F   UNL A   1      41.854  24.824  28.483  1.00  0.00    -0.206 F 
ATOM     69  C   UNL A   1      42.796  25.761  25.142  1.00  0.00     0.006 A 
ENDBRANCH  48  62
BRANCH  49  70
ATOM     70  C   UNL A   1      39.962  32.988  35.011  1.00  0.00     0.057 A 
ATOM     71  C   UNL A   1      38.798  32.192  35.012  1.00  0.00     0.134 A 
ATOM     72  C   UNL A   1      39.976  34.083  35.880  1.00  0.00     0.134 A 
ATOM     73  F   UNL A   1      38.711  31.132  34.192  1.00  0.00    -0.206 F 
ATOM     74  C   UNL A   1      37.775  32.372  35.948  1.00  0.00     0.040 A 
ATOM     75  C   UNL A   1      38.942  34.288  36.807  1.00  0.00     0.040 A 
ATOM     76  F   UNL A   1      41.047  34.886  35.952  1.00  0.00    -0.206 F 
ATOM     77  C   UNL A   1      37.869  33.399  36.881  1.00  0.00     0.006 A 
ENDBRANCH  49  70
BRANCH  61  78
ATOM     78  C   UNL A   1      43.127  26.421  34.150  1.00  0.00     0.057 A 
ATOM     79  C   UNL A   1      44.362  25.766  34.079  1.00  0.00     0.134 A 
ATOM     80  C   UNL A   1      42.125  25.697  34.852  1.00  0.00     0.134 A 
ATOM     81  F   UNL A   1      45.439  26.337  33.530  1.00  0.00    -0.206 F 
ATOM     82  C   UNL A   1      44.576  24.491  34.628  1.00  0.00     0.040 A 
ATOM     83  C   UNL A   1      42.349  24.463  35.466  1.00  0.00     0.040 A 
ATOM     84  F   UNL A   1      40.877  26.162  35.006  1.00  0.00    -0.206 F 
ATOM     85  C   UNL A   1      43.578  23.845  35.346  1.00  0.00     0.006 A 
ENDBRANCH  61  78
ENDBRANCH  35  36
ENDBRANCH  27  30
ENDBRANCH  25  26
ENDBRANCH  24  25
ENDBRANCH   1  24
TORSDOF 16
ENDMDL
MODEL 3
REMARK VINA RESULT:     -11.9      3.614      8.437
REMARK SMILES Cc1ccccc1C[C@H](CCSc1ccccc1)C(=O)NCCCNC(=O)c1ccc(-c2c3nc(c(-c4c(F)cccc4F)c4ccc([nH]4)c(-c4c(F)cccc4F)c4nc(c(-c5c(F)cccc5F)c5ccc2[nH]5)C=C4)C=C3)cc1
REMARK SMILES IDX 22 1 21 2 19 3 20 4 9 6 8 7 7 8 1 9 2 10 3 11 4 12 6 13 5 14
REMARK SMILES IDX 10 15 11 16 12 17 13 18 14 19 18 20 15 21 17 22 16 23 23 24
REMARK SMILES IDX 24 25 25 26 26 27 27 29 28 30 29 31 81 32 30 33 80 34 31 35
REMARK SMILES IDX 32 36 33 37 74 38 34 39 79 40 73 41 75 42 35 43 78 44 72 45
REMARK SMILES IDX 71 46 36 48 62 49 45 50 61 51 46 52 49 53 60 54 76 55 47 56
REMARK SMILES IDX 48 57 59 59 77 60 50 61 37 62 38 63 43 64 39 65 40 66 42 67
REMARK SMILES IDX 44 68 41 69 63 70 64 71 69 72 65 73 66 74 68 75 70 76 67 77
REMARK SMILES IDX 51 78 52 79 57 80 53 81 54 82 56 83 58 84 55 85
REMARK H PARENT 21 5 25 28 75 47 49 58
REMARK Flexibility Score: inf
ROOT
ATOM      1  C   UNL A   1      35.881  21.233  25.766  1.00  0.00     0.117 C 
ENDROOT
BRANCH   1   2
ATOM      2  N   UNL A   1      34.948  20.263  25.219  1.00  0.00    -0.356 N 
ATOM      3  C   UNL A   1      33.786  20.466  24.543  1.00  0.00     0.223 C 
ATOM      4  O   UNL A   1      33.194  19.474  24.115  1.00  0.00    -0.275 OA
ATOM      5  H   UNL A   1      35.193  19.320  25.359  1.00  0.00     0.163 HD
BRANCH   3   6
ATOM      6  C   UNL A   1      33.204  21.862  24.373  1.00  0.00     0.083 C 
BRANCH   6   7
ATOM      7  C   UNL A   1      31.663  21.974  24.471  1.00  0.00     0.049 C 
BRANCH   7   8
ATOM      8  C   UNL A   1      31.055  23.359  24.648  1.00  0.00    -0.044 A 
ATOM      9  C   UNL A   1      31.488  23.442  27.196  1.00  0.00     0.044 C 
ATOM     10  C   UNL A   1      30.966  24.006  25.901  1.00  0.00    -0.048 A 
ATOM     11  C   UNL A   1      30.442  25.314  25.971  1.00  0.00     0.004 A 
ATOM     12  C   UNL A   1      30.021  25.993  24.832  1.00  0.00     0.000 A 
ATOM     13  C   UNL A   1      30.651  24.089  23.509  1.00  0.00     0.004 A 
ATOM     14  C   UNL A   1      30.133  25.381  23.596  1.00  0.00     0.000 A 
ENDBRANCH   7   8
ENDBRANCH   6   7
BRANCH   6  15
ATOM     15  C   UNL A   1      33.839  22.472  23.096  1.00  0.00     0.025 C 
BRANCH  15  16
ATOM     16  C   UNL A   1      34.716  23.716  23.255  1.00  0.00     0.076 C 
BRANCH  16  17
ATOM     17  S   UNL A   1      34.724  24.415  24.942  1.00  0.00    -0.126 SA
BRANCH  17  18
ATOM     18  C   UNL A   1      34.000  26.020  24.686  1.00  0.00     0.007 A 
ATOM     19  C   UNL A   1      33.653  26.436  23.399  1.00  0.00     0.015 A 
ATOM     20  C   UNL A   1      33.666  26.834  25.773  1.00  0.00     0.015 A 
ATOM     21  C   UNL A   1      33.058  27.679  23.185  1.00  0.00     0.001 A 
ATOM     22  C   UNL A   1      33.019  28.056  25.566  1.00  0.00     0.001 A 
ATOM     23  C   UNL A   1      32.728  28.485  24.271  1.00  0.00     0.000 A 
ENDBRANCH  17  18
ENDBRANCH  16  17
ENDBRANCH  15  16
ENDBRANCH   6  15
ENDBRANCH   3   6
ENDBRANCH   1   2
BRANCH   1  24
ATOM     24  C   UNL A   1      37.273  21.085  25.188  1.00  0.00     0.042 C 
BRANCH  24  25
ATOM     25  C   UNL A   1      38.077  22.344  25.388  1.00  0.00     0.118 C 
BRANCH  25  26
ATOM     26  N   UNL A   1      39.331  22.157  26.091  1.00  0.00    -0.352 N 
ATOM     27  C   UNL A   1      40.202  23.087  26.648  1.00  0.00     0.251 C 
ATOM     28  H   UNL A   1      39.611  21.218  26.190  1.00  0.00     0.163 HD
ATOM     29  O   UNL A   1      41.259  22.708  27.081  1.00  0.00    -0.269 OA
BRANCH  27  30
ATOM     30  C   UNL A   1      39.756  24.498  26.886  1.00  0.00     0.039 A 
ATOM     31  C   UNL A   1      40.415  25.505  26.165  1.00  0.00     0.014 A 
ATOM     32  C   UNL A   1      39.012  24.844  27.999  1.00  0.00     0.014 A 
ATOM     33  C   UNL A   1      40.568  26.764  26.737  1.00  0.00     0.010 A 
ATOM     34  C   UNL A   1      39.357  25.977  28.676  1.00  0.00     0.010 A 
ATOM     35  C   UNL A   1      40.156  26.927  28.050  1.00  0.00    -0.014 A 
BRANCH  35  36
ATOM     36  C   UNL A   1      40.395  28.084  28.878  1.00  0.00     0.031 A 
ATOM     37  C   UNL A   1      39.364  29.134  28.883  1.00  0.00     0.074 A 
ATOM     38  C   UNL A   1      41.387  28.024  29.790  1.00  0.00     0.049 A 
ATOM     39  N   UNL A   1      39.545  30.313  29.349  1.00  0.00    -0.248 NA
ATOM     40  C   UNL A   1      38.019  28.933  28.341  1.00  0.00     0.031 C 
ATOM     41  C   UNL A   1      41.589  28.874  30.958  1.00  0.00     0.029 A 
ATOM     42  N   UNL A   1      42.560  27.258  29.717  1.00  0.00    -0.354 N 
ATOM     43  C   UNL A   1      38.313  30.919  29.442  1.00  0.00     0.074 A 
ATOM     44  C   UNL A   1      37.401  30.042  28.753  1.00  0.00     0.031 C 
ATOM     45  C   UNL A   1      42.889  28.836  31.297  1.00  0.00     0.029 A 
ATOM     46  C   UNL A   1      43.573  28.078  30.264  1.00  0.00     0.049 A 
ATOM     47  H   UNL A   1      42.656  26.345  29.360  1.00  0.00     0.167 HD
ATOM     48  C   UNL A   1      38.205  32.033  30.215  1.00  0.00     0.037 A 
ATOM     49  C   UNL A   1      44.559  28.573  29.458  1.00  0.00     0.037 A 
ATOM     50  C   UNL A   1      39.513  32.393  30.755  1.00  0.00     0.049 A 
ATOM     51  C   UNL A   1      44.554  30.084  29.375  1.00  0.00     0.074 A 
ATOM     52  C   UNL A   1      40.135  32.124  31.964  1.00  0.00     0.029 A 
ATOM     53  N   UNL A   1      40.515  32.782  29.876  1.00  0.00    -0.354 N 
ATOM     54  N   UNL A   1      43.512  30.830  29.633  1.00  0.00    -0.248 NA
ATOM     55  C   UNL A   1      45.730  30.877  29.040  1.00  0.00     0.031 C 
ATOM     56  C   UNL A   1      41.530  32.322  31.794  1.00  0.00     0.029 A 
ATOM     57  C   UNL A   1      41.750  32.730  30.489  1.00  0.00     0.049 A 
ATOM     58  H   UNL A   1      40.366  33.057  28.942  1.00  0.00     0.167 HD
ATOM     59  C   UNL A   1      43.850  32.158  29.531  1.00  0.00     0.074 A 
ATOM     60  C   UNL A   1      45.254  32.130  29.165  1.00  0.00     0.031 C 
ATOM     61  C   UNL A   1      42.942  33.156  29.769  1.00  0.00     0.037 A 
BRANCH  48  62
ATOM     62  C   UNL A   1      36.906  32.633  30.683  1.00  0.00     0.057 A 
ATOM     63  C   UNL A   1      36.121  33.409  29.806  1.00  0.00     0.134 A 
ATOM     64  C   UNL A   1      36.375  32.508  31.978  1.00  0.00     0.134 A 
ATOM     65  F   UNL A   1      36.451  33.568  28.517  1.00  0.00    -0.206 F 
ATOM     66  C   UNL A   1      34.955  34.070  30.205  1.00  0.00     0.040 A 
ATOM     67  C   UNL A   1      35.234  33.203  32.406  1.00  0.00     0.040 A 
ATOM     68  F   UNL A   1      36.900  31.664  32.876  1.00  0.00    -0.206 F 
ATOM     69  C   UNL A   1      34.520  33.992  31.518  1.00  0.00     0.006 A 
ENDBRANCH  48  62
BRANCH  49  70
ATOM     70  C   UNL A   1      44.921  27.616  28.371  1.00  0.00     0.057 A 
ATOM     71  C   UNL A   1      44.437  27.891  27.076  1.00  0.00     0.134 A 
ATOM     72  C   UNL A   1      46.051  26.798  28.461  1.00  0.00     0.134 A 
ATOM     73  F   UNL A   1      43.347  28.659  26.917  1.00  0.00    -0.206 F 
ATOM     74  C   UNL A   1      45.139  27.517  25.926  1.00  0.00     0.040 A 
ATOM     75  C   UNL A   1      46.748  26.395  27.311  1.00  0.00     0.040 A 
ATOM     76  F   UNL A   1      46.584  26.495  29.653  1.00  0.00    -0.206 F 
ATOM     77  C   UNL A   1      46.326  26.803  26.046  1.00  0.00     0.006 A 
ENDBRANCH  49  70
BRANCH  61  78
ATOM     78  C   UNL A   1      43.055  34.636  29.429  1.00  0.00     0.057 A 
ATOM     79  C   UNL A   1      43.193  35.671  30.362  1.00  0.00     0.134 A 
ATOM     80  C   UNL A   1      43.191  35.053  28.076  1.00  0.00     0.134 A 
ATOM     81  F   UNL A   1      43.178  35.445  31.680  1.00  0.00    -0.206 F 
ATOM     82  C   UNL A   1      43.417  37.006  29.986  1.00  0.00     0.040 A 
ATOM     83  C   UNL A   1      43.488  36.364  27.697  1.00  0.00     0.040 A 
ATOM     84  F   UNL A   1      43.073  34.203  27.047  1.00  0.00    -0.206 F 
ATOM     85  C   UNL A   1      43.590  37.353  28.654  1.00  0.00     0.006 A 
ENDBRANCH  61  78
ENDBRANCH  35  36
ENDBRANCH  27  30
ENDBRANCH  25  26
ENDBRANCH  24  25
ENDBRANCH   1  24
TORSDOF 16
ENDMDL
