MODEL 1
REMARK VINA RESULT:     -11.7      0.000      0.000
REMARK SMILES CC[C@H](Oc1cccc(/C=C2\SC(=S)N(NC(=O)c3cccc(O)c3)C2=O)c1)C(=O)NCCCNC(=O)c1ccc(-c2c3nc(c(-c4c(F)cccc4F)c4ccc([nH]4)c(-c4c(F)cccc4F)c4nc(c(-c5c(F)cccc5F)c5ccc2[nH]5)C=C4)C=C3)cc1
REMARK SMILES IDX 29 1 30 2 31 3 3 5 2 6 1 7 4 8 5 9 6 10 28 11 7 12 9 13 8 14
REMARK SMILES IDX 10 15 11 16 12 17 26 18 13 19 15 20 27 21 14 22 16 23 17 24
REMARK SMILES IDX 18 26 19 27 20 28 25 29 21 30 23 31 22 32 24 33 32 35 33 36
REMARK SMILES IDX 34 37 35 38 36 39 37 41 38 42 39 43 91 44 40 45 90 46 41 47
REMARK SMILES IDX 42 48 43 49 84 50 44 51 89 52 83 53 85 54 45 55 88 56 82 57
REMARK SMILES IDX 81 58 46 60 72 61 55 62 71 63 56 64 59 65 70 66 86 67 57 68
REMARK SMILES IDX 58 69 69 71 87 72 60 73 47 74 48 75 53 76 49 77 50 78 52 79
REMARK SMILES IDX 54 80 51 81 73 82 74 83 79 84 75 85 76 86 78 87 80 88 77 89
REMARK SMILES IDX 61 90 62 91 67 92 63 93 64 94 66 95 68 96 65 97
REMARK H PARENT 31 4 16 25 24 34 35 40 85 59 59 70
REMARK Flexibility Score: inf
ROOT
ATOM      1  C   UNL A   1      41.761  23.212  27.527  1.00  0.00     0.261 C 
ATOM      2  O   UNL A   1      41.827  23.311  28.755  1.00  0.00    -0.271 OA
ATOM      3  N   UNL A   1      42.718  22.456  26.890  1.00  0.00    -0.353 N 
ATOM      4  H   UNL A   1      43.407  22.070  27.478  1.00  0.00     0.163 HD
ENDROOT
BRANCH   1   5
ATOM      5  C   UNL A   1      40.607  23.855  26.725  1.00  0.00     0.261 C 
BRANCH   5   6
ATOM      6  C   UNL A   1      40.675  25.369  27.049  1.00  0.00     0.052 C 
ATOM      7  C   UNL A   1      41.111  26.318  25.948  1.00  0.00     0.008 C 
ENDBRANCH   5   6
BRANCH   5   8
ATOM      8  O   UNL A   1      39.510  23.032  27.136  1.00  0.00    -0.481 OA
BRANCH   8   9
ATOM      9  C   UNL A   1      38.632  22.466  26.278  1.00  0.00     0.121 A 
ATOM     10  C   UNL A   1      38.700  21.195  25.744  1.00  0.00     0.046 A 
ATOM     11  C   UNL A   1      37.576  23.305  25.913  1.00  0.00     0.054 A 
ATOM     12  C   UNL A   1      37.853  20.841  24.694  1.00  0.00     0.004 A 
ATOM     13  C   UNL A   1      36.721  22.979  24.858  1.00  0.00    -0.021 A 
ATOM     14  C   UNL A   1      36.887  21.738  24.237  1.00  0.00     0.008 A 
BRANCH  13  15
ATOM     15  C   UNL A   1      35.645  23.850  24.362  1.00  0.00     0.029 C 
ATOM     16  C   UNL A   1      34.434  24.082  24.881  1.00  0.00     0.082 C 
ATOM     17  S   UNL A   1      33.640  23.360  26.218  1.00  0.00    -0.052 SA
ATOM     18  C   UNL A   1      33.480  24.973  24.176  1.00  0.00     0.285 C 
ATOM     19  C   UNL A   1      32.059  23.624  25.498  1.00  0.00     0.168 C 
ATOM     20  N   UNL A   1      32.200  24.498  24.440  1.00  0.00    -0.198 N 
ATOM     21  O   UNL A   1      33.812  25.930  23.505  1.00  0.00    -0.266 OA
ATOM     22  S   UNL A   1      30.682  22.876  26.050  1.00  0.00    -0.050 S 
BRANCH  20  23
ATOM     23  N   UNL A   1      31.088  25.016  23.763  1.00  0.00    -0.255 N 
ATOM     24  C   UNL A   1      30.343  26.101  24.178  1.00  0.00     0.270 C 
ATOM     25  H   UNL A   1      30.819  24.573  22.926  1.00  0.00     0.192 HD
ATOM     26  O   UNL A   1      29.168  26.192  23.830  1.00  0.00    -0.267 OA
BRANCH  24  27
ATOM     27  C   UNL A   1      30.895  27.156  25.063  1.00  0.00     0.045 A 
ATOM     28  C   UNL A   1      31.251  28.368  24.448  1.00  0.00     0.014 A 
ATOM     29  C   UNL A   1      31.043  27.001  26.446  1.00  0.00     0.060 A 
ATOM     30  C   UNL A   1      31.688  29.444  25.216  1.00  0.00     0.005 A 
ATOM     31  C   UNL A   1      31.452  28.097  27.202  1.00  0.00     0.116 A 
ATOM     32  C   UNL A   1      31.770  29.312  26.600  1.00  0.00     0.046 A 
BRANCH  31  33
ATOM     33  O   UNL A   1      31.539  28.035  28.562  1.00  0.00    -0.508 OA
ATOM     34  H   UNL A   1      32.267  28.427  29.003  1.00  0.00     0.293 HD
ENDBRANCH  31  33
ENDBRANCH  24  27
ENDBRANCH  20  23
ENDBRANCH  13  15
ENDBRANCH   8   9
ENDBRANCH   5   8
ENDBRANCH   1   5
BRANCH   3  35
ATOM     35  C   UNL A   1      42.863  22.144  25.473  1.00  0.00     0.118 C 
BRANCH  35  36
ATOM     36  C   UNL A   1      44.054  22.829  24.824  1.00  0.00     0.042 C 
BRANCH  36  37
ATOM     37  C   UNL A   1      44.010  24.349  24.865  1.00  0.00     0.118 C 
BRANCH  37  38
ATOM     38  N   UNL A   1      45.328  24.946  25.031  1.00  0.00    -0.352 N 
ATOM     39  C   UNL A   1      45.755  25.980  25.829  1.00  0.00     0.251 C 
ATOM     40  H   UNL A   1      46.034  24.539  24.477  1.00  0.00     0.163 HD
ATOM     41  O   UNL A   1      46.886  26.431  25.668  1.00  0.00    -0.269 OA
BRANCH  39  42
ATOM     42  C   UNL A   1      44.869  26.582  26.854  1.00  0.00     0.039 A 
ATOM     43  C   UNL A   1      44.359  25.760  27.865  1.00  0.00     0.014 A 
ATOM     44  C   UNL A   1      44.508  27.931  26.821  1.00  0.00     0.014 A 
ATOM     45  C   UNL A   1      43.571  26.307  28.883  1.00  0.00     0.010 A 
ATOM     46  C   UNL A   1      43.801  28.492  27.884  1.00  0.00     0.010 A 
ATOM     47  C   UNL A   1      43.332  27.690  28.937  1.00  0.00    -0.014 A 
BRANCH  47  48
ATOM     48  C   UNL A   1      42.634  28.316  30.093  1.00  0.00     0.031 A 
ATOM     49  C   UNL A   1      41.313  29.023  29.912  1.00  0.00     0.074 A 
ATOM     50  C   UNL A   1      43.222  28.324  31.309  1.00  0.00     0.049 A 
ATOM     51  N   UNL A   1      40.625  29.724  30.781  1.00  0.00    -0.248 NA
ATOM     52  C   UNL A   1      40.688  28.938  28.584  1.00  0.00     0.031 C 
ATOM     53  C   UNL A   1      44.504  27.702  31.648  1.00  0.00     0.029 A 
ATOM     54  N   UNL A   1      42.825  28.915  32.483  1.00  0.00    -0.354 N 
ATOM     55  C   UNL A   1      39.484  30.148  30.111  1.00  0.00     0.074 A 
ATOM     56  C   UNL A   1      39.602  29.682  28.745  1.00  0.00     0.031 C 
ATOM     57  C   UNL A   1      44.806  27.978  32.928  1.00  0.00     0.029 A 
ATOM     58  C   UNL A   1      43.756  28.817  33.487  1.00  0.00     0.049 A 
ATOM     59  H   UNL A   1      41.957  29.367  32.595  1.00  0.00     0.167 HD
ATOM     60  C   UNL A   1      38.420  30.832  30.595  1.00  0.00     0.037 A 
ATOM     61  C   UNL A   1      43.784  29.375  34.709  1.00  0.00     0.037 A 
ATOM     62  C   UNL A   1      38.283  31.290  31.954  1.00  0.00     0.049 A 
ATOM     63  C   UNL A   1      42.645  30.225  35.182  1.00  0.00     0.074 A 
ATOM     64  C   UNL A   1      37.195  31.908  32.549  1.00  0.00     0.029 A 
ATOM     65  N   UNL A   1      39.266  31.199  32.924  1.00  0.00    -0.354 N 
ATOM     66  N   UNL A   1      41.547  30.562  34.557  1.00  0.00    -0.248 NA
ATOM     67  C   UNL A   1      42.752  30.758  36.550  1.00  0.00     0.031 C 
ATOM     68  C   UNL A   1      37.541  32.247  33.860  1.00  0.00     0.029 A 
ATOM     69  C   UNL A   1      38.823  31.788  34.100  1.00  0.00     0.049 A 
ATOM     70  H   UNL A   1      40.148  30.780  32.799  1.00  0.00     0.167 HD
ATOM     71  C   UNL A   1      40.818  31.315  35.466  1.00  0.00     0.074 A 
ATOM     72  C   UNL A   1      41.596  31.388  36.683  1.00  0.00     0.031 C 
ATOM     73  C   UNL A   1      39.600  31.879  35.306  1.00  0.00     0.037 A 
BRANCH  60  74
ATOM     74  C   UNL A   1      37.285  31.118  29.657  1.00  0.00     0.057 A 
ATOM     75  C   UNL A   1      37.205  32.325  28.948  1.00  0.00     0.134 A 
ATOM     76  C   UNL A   1      36.319  30.141  29.382  1.00  0.00     0.134 A 
ATOM     77  F   UNL A   1      38.097  33.302  29.168  1.00  0.00    -0.206 F 
ATOM     78  C   UNL A   1      36.200  32.554  28.008  1.00  0.00     0.040 A 
ATOM     79  C   UNL A   1      35.324  30.349  28.425  1.00  0.00     0.040 A 
ATOM     80  F   UNL A   1      36.345  28.960  30.016  1.00  0.00    -0.206 F 
ATOM     81  C   UNL A   1      35.262  31.558  27.736  1.00  0.00     0.006 A 
ENDBRANCH  60  74
BRANCH  61  82
ATOM     82  C   UNL A   1      44.958  29.236  35.594  1.00  0.00     0.057 A 
ATOM     83  C   UNL A   1      46.065  30.083  35.474  1.00  0.00     0.134 A 
ATOM     84  C   UNL A   1      45.065  28.119  36.427  1.00  0.00     0.134 A 
ATOM     85  F   UNL A   1      46.020  31.140  34.650  1.00  0.00    -0.206 F 
ATOM     86  C   UNL A   1      47.261  29.804  36.132  1.00  0.00     0.040 A 
ATOM     87  C   UNL A   1      46.264  27.815  37.061  1.00  0.00     0.040 A 
ATOM     88  F   UNL A   1      44.023  27.295  36.597  1.00  0.00    -0.206 F 
ATOM     89  C   UNL A   1      47.364  28.660  36.920  1.00  0.00     0.006 A 
ENDBRANCH  61  82
BRANCH  73  90
ATOM     90  C   UNL A   1      39.016  32.581  36.494  1.00  0.00     0.057 A 
ATOM     91  C   UNL A   1      39.364  33.896  36.827  1.00  0.00     0.134 A 
ATOM     92  C   UNL A   1      38.104  31.922  37.328  1.00  0.00     0.134 A 
ATOM     93  F   UNL A   1      40.256  34.572  36.085  1.00  0.00    -0.206 F 
ATOM     94  C   UNL A   1      38.847  34.521  37.962  1.00  0.00     0.040 A 
ATOM     95  C   UNL A   1      37.557  32.547  38.449  1.00  0.00     0.040 A 
ATOM     96  F   UNL A   1      37.731  30.660  37.068  1.00  0.00    -0.206 F 
ATOM     97  C   UNL A   1      37.935  33.848  38.773  1.00  0.00     0.006 A 
ENDBRANCH  73  90
ENDBRANCH  47  48
ENDBRANCH  39  42
ENDBRANCH  37  38
ENDBRANCH  36  37
ENDBRANCH  35  36
ENDBRANCH   3  35
TORSDOF 17
ENDMDL
MODEL 2
REMARK VINA RESULT:     -11.5      0.721      5.807
REMARK SMILES CC[C@H](Oc1cccc(/C=C2\SC(=S)N(NC(=O)c3cccc(O)c3)C2=O)c1)C(=O)NCCCNC(=O)c1ccc(-c2c3nc(c(-c4c(F)cccc4F)c4ccc([nH]4)c(-c4c(F)cccc4F)c4nc(c(-c5c(F)cccc5F)c5ccc2[nH]5)C=C4)C=C3)cc1
REMARK SMILES IDX 29 1 30 2 31 3 3 5 2 6 1 7 4 8 5 9 6 10 28 11 7 12 9 13 8 14
REMARK SMILES IDX 10 15 11 16 12 17 26 18 13 19 15 20 27 21 14 22 16 23 17 24
REMARK SMILES IDX 18 26 19 27 20 28 25 29 21 30 23 31 22 32 24 33 32 35 33 36
REMARK SMILES IDX 34 37 35 38 36 39 37 41 38 42 39 43 91 44 40 45 90 46 41 47
REMARK SMILES IDX 42 48 43 49 84 50 44 51 89 52 83 53 85 54 45 55 88 56 82 57
REMARK SMILES IDX 81 58 46 60 72 61 55 62 71 63 56 64 59 65 70 66 86 67 57 68
REMARK SMILES IDX 58 69 69 71 87 72 60 73 47 74 48 75 53 76 49 77 50 78 52 79
REMARK SMILES IDX 54 80 51 81 73 82 74 83 79 84 75 85 76 86 78 87 80 88 77 89
REMARK SMILES IDX 61 90 62 91 67 92 63 93 64 94 66 95 68 96 65 97
REMARK H PARENT 31 4 16 25 24 34 35 40 85 59 59 70
REMARK Flexibility Score: inf
ROOT
ATOM      1  C   UNL A   1      41.806  22.926  27.626  1.00  0.00     0.261 C 
ATOM      2  O   UNL A   1      41.874  23.183  28.831  1.00  0.00    -0.271 OA
ATOM      3  N   UNL A   1      42.673  21.984  27.120  1.00  0.00    -0.353 N 
ATOM      4  H   UNL A   1      43.306  21.604  27.771  1.00  0.00     0.163 HD
ENDROOT
BRANCH   1   5
ATOM      5  C   UNL A   1      40.743  23.583  26.717  1.00  0.00     0.261 C 
BRANCH   5   6
ATOM      6  C   UNL A   1      40.911  25.109  26.926  1.00  0.00     0.052 C 
ATOM      7  C   UNL A   1      41.267  25.962  25.722  1.00  0.00     0.008 C 
ENDBRANCH   5   6
BRANCH   5   8
ATOM      8  O   UNL A   1      39.569  22.878  27.133  1.00  0.00    -0.481 OA
BRANCH   8   9
ATOM      9  C   UNL A   1      38.651  22.375  26.277  1.00  0.00     0.121 A 
ATOM     10  C   UNL A   1      38.630  21.105  25.738  1.00  0.00     0.046 A 
ATOM     11  C   UNL A   1      37.652  23.284  25.920  1.00  0.00     0.054 A 
ATOM     12  C   UNL A   1      37.757  20.813  24.690  1.00  0.00     0.004 A 
ATOM     13  C   UNL A   1      36.772  23.021  24.868  1.00  0.00    -0.021 A 
ATOM     14  C   UNL A   1      36.852  21.774  24.241  1.00  0.00     0.008 A 
BRANCH  13  15
ATOM     15  C   UNL A   1      35.755  23.964  24.381  1.00  0.00     0.029 C 
ATOM     16  C   UNL A   1      34.528  24.209  24.855  1.00  0.00     0.082 C 
ATOM     17  S   UNL A   1      33.641  23.433  26.099  1.00  0.00    -0.052 SA
ATOM     18  C   UNL A   1      33.644  25.181  24.166  1.00  0.00     0.285 C 
ATOM     19  C   UNL A   1      32.110  23.806  25.323  1.00  0.00     0.168 C 
ATOM     20  N   UNL A   1      32.336  24.741  24.335  1.00  0.00    -0.198 N 
ATOM     21  O   UNL A   1      34.044  26.166  23.578  1.00  0.00    -0.266 OA
ATOM     22  S   UNL A   1      30.680  23.078  25.756  1.00  0.00    -0.050 S 
BRANCH  20  23
ATOM     23  N   UNL A   1      31.280  25.346  23.641  1.00  0.00    -0.255 N 
ATOM     24  C   UNL A   1      30.536  26.412  24.103  1.00  0.00     0.270 C 
ATOM     25  H   UNL A   1      31.051  24.982  22.755  1.00  0.00     0.192 HD
ATOM     26  O   UNL A   1      29.387  26.566  23.696  1.00  0.00    -0.267 OA
BRANCH  24  27
ATOM     27  C   UNL A   1      31.058  27.373  25.106  1.00  0.00     0.045 A 
ATOM     28  C   UNL A   1      31.459  28.629  24.624  1.00  0.00     0.014 A 
ATOM     29  C   UNL A   1      31.137  27.090  26.475  1.00  0.00     0.060 A 
ATOM     30  C   UNL A   1      31.872  29.623  25.507  1.00  0.00     0.005 A 
ATOM     31  C   UNL A   1      31.523  28.105  27.347  1.00  0.00     0.116 A 
ATOM     32  C   UNL A   1      31.885  29.364  26.874  1.00  0.00     0.046 A 
BRANCH  31  33
ATOM     33  O   UNL A   1      31.543  27.918  28.698  1.00  0.00    -0.508 OA
ATOM     34  H   UNL A   1      31.771  27.081  29.052  1.00  0.00     0.293 HD
ENDBRANCH  31  33
ENDBRANCH  24  27
ENDBRANCH  20  23
ENDBRANCH  13  15
ENDBRANCH   8   9
ENDBRANCH   5   8
ENDBRANCH   1   5
BRANCH   3  35
ATOM     35  C   UNL A   1      42.792  21.467  25.761  1.00  0.00     0.118 C 
BRANCH  35  36
ATOM     36  C   UNL A   1      44.061  21.914  25.056  1.00  0.00     0.042 C 
BRANCH  36  37
ATOM     37  C   UNL A   1      44.100  23.392  24.699  1.00  0.00     0.118 C 
BRANCH  37  38
ATOM     38  N   UNL A   1      45.450  23.939  24.718  1.00  0.00    -0.352 N 
ATOM     39  C   UNL A   1      45.960  25.056  25.336  1.00  0.00     0.251 C 
ATOM     40  H   UNL A   1      46.109  23.422  24.202  1.00  0.00     0.163 HD
ATOM     41  O   UNL A   1      47.101  25.421  25.063  1.00  0.00    -0.269 OA
BRANCH  39  42
ATOM     42  C   UNL A   1      45.152  25.846  26.297  1.00  0.00     0.039 A 
ATOM     43  C   UNL A   1      44.684  25.215  27.454  1.00  0.00     0.014 A 
ATOM     44  C   UNL A   1      44.824  27.183  26.065  1.00  0.00     0.014 A 
ATOM     45  C   UNL A   1      43.972  25.945  28.412  1.00  0.00     0.010 A 
ATOM     46  C   UNL A   1      44.196  27.932  27.061  1.00  0.00     0.010 A 
ATOM     47  C   UNL A   1      43.771  27.326  28.253  1.00  0.00    -0.014 A 
BRANCH  47  48
ATOM     48  C   UNL A   1      43.160  28.153  29.330  1.00  0.00     0.031 A 
ATOM     49  C   UNL A   1      43.756  28.185  30.716  1.00  0.00     0.074 A 
ATOM     50  C   UNL A   1      42.013  28.825  29.093  1.00  0.00     0.049 A 
ATOM     51  N   UNL A   1      43.291  28.753  31.802  1.00  0.00    -0.248 NA
ATOM     52  C   UNL A   1      45.035  27.484  30.908  1.00  0.00     0.031 C 
ATOM     53  C   UNL A   1      41.299  28.883  27.815  1.00  0.00     0.029 A 
ATOM     54  N   UNL A   1      41.223  29.561  29.941  1.00  0.00    -0.354 N 
ATOM     55  C   UNL A   1      44.224  28.493  32.798  1.00  0.00     0.074 A 
ATOM     56  C   UNL A   1      45.249  27.659  32.205  1.00  0.00     0.031 C 
ATOM     57  C   UNL A   1      40.161  29.579  27.974  1.00  0.00     0.029 A 
ATOM     58  C   UNL A   1      40.053  29.989  29.366  1.00  0.00     0.049 A 
ATOM     59  H   UNL A   1      41.472  29.762  30.873  1.00  0.00     0.167 HD
ATOM     60  C   UNL A   1      44.245  28.932  34.079  1.00  0.00     0.037 A 
ATOM     61  C   UNL A   1      38.990  30.607  29.907  1.00  0.00     0.037 A 
ATOM     62  C   UNL A   1      43.238  29.772  34.679  1.00  0.00     0.049 A 
ATOM     63  C   UNL A   1      38.986  30.983  31.357  1.00  0.00     0.074 A 
ATOM     64  C   UNL A   1      43.233  30.340  35.943  1.00  0.00     0.029 A 
ATOM     65  N   UNL A   1      42.054  30.150  34.069  1.00  0.00    -0.354 N 
ATOM     66  N   UNL A   1      39.904  30.784  32.267  1.00  0.00    -0.248 NA
ATOM     67  C   UNL A   1      37.792  31.691  31.846  1.00  0.00     0.031 C 
ATOM     68  C   UNL A   1      42.018  31.009  36.121  1.00  0.00     0.029 A 
ATOM     69  C   UNL A   1      41.294  30.908  34.947  1.00  0.00     0.049 A 
ATOM     70  H   UNL A   1      41.792  29.915  33.150  1.00  0.00     0.167 HD
ATOM     71  C   UNL A   1      39.414  31.372  33.424  1.00  0.00     0.074 A 
ATOM     72  C   UNL A   1      38.120  31.933  33.104  1.00  0.00     0.031 C 
ATOM     73  C   UNL A   1      40.000  31.453  34.640  1.00  0.00     0.037 A 
BRANCH  60  74
ATOM     74  C   UNL A   1      45.411  28.539  34.938  1.00  0.00     0.057 A 
ATOM     75  C   UNL A   1      46.555  29.342  35.033  1.00  0.00     0.134 A 
ATOM     76  C   UNL A   1      45.348  27.401  35.753  1.00  0.00     0.134 A 
ATOM     77  F   UNL A   1      46.679  30.442  34.276  1.00  0.00    -0.206 F 
ATOM     78  C   UNL A   1      47.600  29.022  35.901  1.00  0.00     0.040 A 
ATOM     79  C   UNL A   1      46.374  27.086  36.644  1.00  0.00     0.040 A 
ATOM     80  F   UNL A   1      44.275  26.597  35.719  1.00  0.00    -0.206 F 
ATOM     81  C   UNL A   1      47.505  27.896  36.718  1.00  0.00     0.006 A 
ENDBRANCH  60  74
BRANCH  61  82
ATOM     82  C   UNL A   1      37.766  30.869  29.122  1.00  0.00     0.057 A 
ATOM     83  C   UNL A   1      37.427  32.163  28.713  1.00  0.00     0.134 A 
ATOM     84  C   UNL A   1      36.822  29.852  28.959  1.00  0.00     0.134 A 
ATOM     85  F   UNL A   1      38.287  33.175  28.894  1.00  0.00    -0.206 F 
ATOM     86  C   UNL A   1      36.165  32.447  28.192  1.00  0.00     0.040 A 
ATOM     87  C   UNL A   1      35.551  30.132  28.472  1.00  0.00     0.040 A 
ATOM     88  F   UNL A   1      37.111  28.592  29.309  1.00  0.00    -0.206 F 
ATOM     89  C   UNL A   1      35.221  31.429  28.082  1.00  0.00     0.006 A 
ENDBRANCH  61  82
BRANCH  73  90
ATOM     90  C   UNL A   1      39.265  32.218  35.698  1.00  0.00     0.057 A 
ATOM     91  C   UNL A   1      38.383  31.595  36.590  1.00  0.00     0.134 A 
ATOM     92  C   UNL A   1      39.429  33.604  35.812  1.00  0.00     0.134 A 
ATOM     93  F   UNL A   1      38.159  30.274  36.513  1.00  0.00    -0.206 F 
ATOM     94  C   UNL A   1      37.671  32.327  37.540  1.00  0.00     0.040 A 
ATOM     95  C   UNL A   1      38.745  34.343  36.778  1.00  0.00     0.040 A 
ATOM     96  F   UNL A   1      40.255  34.263  34.986  1.00  0.00    -0.206 F 
ATOM     97  C   UNL A   1      37.856  33.705  37.640  1.00  0.00     0.006 A 
ENDBRANCH  73  90
ENDBRANCH  47  48
ENDBRANCH  39  42
ENDBRANCH  37  38
ENDBRANCH  36  37
ENDBRANCH  35  36
ENDBRANCH   3  35
TORSDOF 17
ENDMDL
MODEL 3
REMARK VINA RESULT:     -11.2      3.977      9.767
REMARK SMILES CC[C@H](Oc1cccc(/C=C2\SC(=S)N(NC(=O)c3cccc(O)c3)C2=O)c1)C(=O)NCCCNC(=O)c1ccc(-c2c3nc(c(-c4c(F)cccc4F)c4ccc([nH]4)c(-c4c(F)cccc4F)c4nc(c(-c5c(F)cccc5F)c5ccc2[nH]5)C=C4)C=C3)cc1
REMARK SMILES IDX 29 1 30 2 31 3 3 5 2 6 1 7 4 8 5 9 6 10 28 11 7 12 9 13 8 14
REMARK SMILES IDX 10 15 11 16 12 17 26 18 13 19 15 20 27 21 14 22 16 23 17 24
REMARK SMILES IDX 18 26 19 27 20 28 25 29 21 30 23 31 22 32 24 33 32 35 33 36
REMARK SMILES IDX 34 37 35 38 36 39 37 41 38 42 39 43 91 44 40 45 90 46 41 47
REMARK SMILES IDX 42 48 43 49 84 50 44 51 89 52 83 53 85 54 45 55 88 56 82 57
REMARK SMILES IDX 81 58 46 60 72 61 55 62 71 63 56 64 59 65 70 66 86 67 57 68
REMARK SMILES IDX 58 69 69 71 87 72 60 73 47 74 48 75 53 76 49 77 50 78 52 79
REMARK SMILES IDX 54 80 51 81 73 82 74 83 79 84 75 85 76 86 78 87 80 88 77 89
REMARK SMILES IDX 61 90 62 91 67 92 63 93 64 94 66 95 68 96 65 97
REMARK H PARENT 31 4 16 25 24 34 35 40 85 59 59 70
REMARK Flexibility Score: inf
ROOT
ATOM      1  C   UNL A   1      36.512  32.446  29.176  1.00  0.00     0.261 C 
ATOM      2  O   UNL A   1      37.564  32.779  28.624  1.00  0.00    -0.271 OA
ATOM      3  N   UNL A   1      35.872  33.381  29.959  1.00  0.00    -0.353 N 
ATOM      4  H   UNL A   1      36.331  34.249  30.035  1.00  0.00     0.163 HD
ENDROOT
BRANCH   1   5
ATOM      5  C   UNL A   1      35.886  31.051  28.952  1.00  0.00     0.261 C 
BRANCH   5   6
ATOM      6  C   UNL A   1      37.005  30.038  29.305  1.00  0.00     0.052 C 
ATOM      7  C   UNL A   1      37.928  29.575  28.193  1.00  0.00     0.008 C 
ENDBRANCH   5   6
BRANCH   5   8
ATOM      8  O   UNL A   1      35.380  31.200  27.622  1.00  0.00    -0.481 OA
BRANCH   8   9
ATOM      9  C   UNL A   1      34.172  30.744  27.222  1.00  0.00     0.121 A 
ATOM     10  C   UNL A   1      33.016  31.484  27.072  1.00  0.00     0.046 A 
ATOM     11  C   UNL A   1      34.142  29.372  26.964  1.00  0.00     0.054 A 
ATOM     12  C   UNL A   1      31.798  30.832  26.883  1.00  0.00     0.004 A 
ATOM     13  C   UNL A   1      32.935  28.693  26.781  1.00  0.00    -0.021 A 
ATOM     14  C   UNL A   1      31.756  29.443  26.764  1.00  0.00     0.008 A 
BRANCH  13  15
ATOM     15  C   UNL A   1      32.821  27.240  26.592  1.00  0.00     0.029 C 
ATOM     16  C   UNL A   1      33.029  26.508  25.492  1.00  0.00     0.082 C 
ATOM     17  S   UNL A   1      33.365  26.991  23.882  1.00  0.00    -0.052 SA
ATOM     18  C   UNL A   1      32.803  25.042  25.519  1.00  0.00     0.285 C 
ATOM     19  C   UNL A   1      32.577  25.564  23.225  1.00  0.00     0.168 C 
ATOM     20  N   UNL A   1      32.369  24.667  24.252  1.00  0.00    -0.198 N 
ATOM     21  O   UNL A   1      32.984  24.343  26.497  1.00  0.00    -0.266 OA
ATOM     22  S   UNL A   1      32.161  25.423  21.623  1.00  0.00    -0.050 S 
BRANCH  20  23
ATOM     23  N   UNL A   1      31.892  23.372  24.010  1.00  0.00    -0.255 N 
ATOM     24  C   UNL A   1      32.668  22.307  23.601  1.00  0.00     0.270 C 
ATOM     25  H   UNL A   1      30.931  23.210  24.143  1.00  0.00     0.192 HD
ATOM     26  O   UNL A   1      32.146  21.389  22.971  1.00  0.00    -0.267 OA
BRANCH  24  27
ATOM     27  C   UNL A   1      34.127  22.236  23.861  1.00  0.00     0.045 A 
ATOM     28  C   UNL A   1      34.540  21.373  24.889  1.00  0.00     0.014 A 
ATOM     29  C   UNL A   1      35.076  22.955  23.126  1.00  0.00     0.060 A 
ATOM     30  C   UNL A   1      35.896  21.174  25.138  1.00  0.00     0.005 A 
ATOM     31  C   UNL A   1      36.427  22.721  23.367  1.00  0.00     0.116 A 
ATOM     32  C   UNL A   1      36.841  21.837  24.361  1.00  0.00     0.046 A 
BRANCH  31  33
ATOM     33  O   UNL A   1      37.402  23.329  22.631  1.00  0.00    -0.508 OA
ATOM     34  H   UNL A   1      37.238  24.161  22.233  1.00  0.00     0.293 HD
ENDBRANCH  31  33
ENDBRANCH  24  27
ENDBRANCH  20  23
ENDBRANCH  13  15
ENDBRANCH   8   9
ENDBRANCH   5   8
ENDBRANCH   1   5
BRANCH   3  35
ATOM     35  C   UNL A   1      34.616  33.275  30.692  1.00  0.00     0.118 C 
BRANCH  35  36
ATOM     36  C   UNL A   1      34.805  32.986  32.172  1.00  0.00     0.042 C 
BRANCH  36  37
ATOM     37  C   UNL A   1      35.737  31.824  32.476  1.00  0.00     0.118 C 
BRANCH  37  38
ATOM     38  N   UNL A   1      36.340  31.918  33.799  1.00  0.00    -0.352 N 
ATOM     39  C   UNL A   1      37.627  31.682  34.221  1.00  0.00     0.251 C 
ATOM     40  H   UNL A   1      35.722  32.199  34.511  1.00  0.00     0.163 HD
ATOM     41  O   UNL A   1      37.864  31.653  35.425  1.00  0.00    -0.269 OA
BRANCH  39  42
ATOM     42  C   UNL A   1      38.723  31.428  33.255  1.00  0.00     0.039 A 
ATOM     43  C   UNL A   1      39.776  30.591  33.642  1.00  0.00     0.014 A 
ATOM     44  C   UNL A   1      38.748  32.019  31.991  1.00  0.00     0.014 A 
ATOM     45  C   UNL A   1      40.794  30.280  32.734  1.00  0.00     0.010 A 
ATOM     46  C   UNL A   1      39.712  31.636  31.058  1.00  0.00     0.010 A 
ATOM     47  C   UNL A   1      40.743  30.752  31.413  1.00  0.00    -0.014 A 
BRANCH  47  48
ATOM     48  C   UNL A   1      41.725  30.306  30.387  1.00  0.00     0.031 A 
ATOM     49  C   UNL A   1      41.629  28.933  29.768  1.00  0.00     0.074 A 
ATOM     50  C   UNL A   1      42.763  31.103  30.058  1.00  0.00     0.049 A 
ATOM     51  N   UNL A   1      42.462  28.335  28.951  1.00  0.00    -0.248 NA
ATOM     52  C   UNL A   1      40.451  28.125  30.116  1.00  0.00     0.031 C 
ATOM     53  C   UNL A   1      43.010  32.451  30.577  1.00  0.00     0.029 A 
ATOM     54  N   UNL A   1      43.832  30.873  29.227  1.00  0.00    -0.354 N 
ATOM     55  C   UNL A   1      41.904  27.093  28.676  1.00  0.00     0.074 A 
ATOM     56  C   UNL A   1      40.693  26.995  29.466  1.00  0.00     0.031 C 
ATOM     57  C   UNL A   1      44.174  32.909  30.086  1.00  0.00     0.029 A 
ATOM     58  C   UNL A   1      44.765  31.879  29.244  1.00  0.00     0.049 A 
ATOM     59  H   UNL A   1      43.921  30.063  28.673  1.00  0.00     0.167 HD
ATOM     60  C   UNL A   1      42.337  26.136  27.822  1.00  0.00     0.037 A 
ATOM     61  C   UNL A   1      45.981  31.951  28.678  1.00  0.00     0.037 A 
ATOM     62  C   UNL A   1      43.532  26.226  27.022  1.00  0.00     0.049 A 
ATOM     63  C   UNL A   1      46.491  30.828  27.828  1.00  0.00     0.074 A 
ATOM     64  C   UNL A   1      43.993  25.340  26.061  1.00  0.00     0.029 A 
ATOM     65  N   UNL A   1      44.464  27.247  27.099  1.00  0.00    -0.354 N 
ATOM     66  N   UNL A   1      45.921  29.689  27.530  1.00  0.00    -0.248 NA
ATOM     67  C   UNL A   1      47.818  31.018  27.221  1.00  0.00     0.031 C 
ATOM     68  C   UNL A   1      45.234  25.793  25.601  1.00  0.00     0.029 A 
ATOM     69  C   UNL A   1      45.517  26.990  26.233  1.00  0.00     0.049 A 
ATOM     70  H   UNL A   1      44.390  28.036  27.682  1.00  0.00     0.167 HD
ATOM     71  C   UNL A   1      46.802  29.045  26.674  1.00  0.00     0.074 A 
ATOM     72  C   UNL A   1      47.944  29.915  26.501  1.00  0.00     0.031 C 
ATOM     73  C   UNL A   1      46.663  27.842  26.071  1.00  0.00     0.037 A 
BRANCH  60  74
ATOM     74  C   UNL A   1      41.505  24.896  27.676  1.00  0.00     0.057 A 
ATOM     75  C   UNL A   1      40.416  24.843  26.796  1.00  0.00     0.134 A 
ATOM     76  C   UNL A   1      41.856  23.716  28.344  1.00  0.00     0.134 A 
ATOM     77  F   UNL A   1      40.027  25.940  26.129  1.00  0.00    -0.206 F 
ATOM     78  C   UNL A   1      39.700  23.663  26.592  1.00  0.00     0.040 A 
ATOM     79  C   UNL A   1      41.163  22.523  28.128  1.00  0.00     0.040 A 
ATOM     80  F   UNL A   1      42.895  23.695  29.191  1.00  0.00    -0.206 F 
ATOM     81  C   UNL A   1      40.081  22.496  27.252  1.00  0.00     0.006 A 
ENDBRANCH  60  74
BRANCH  61  82
ATOM     82  C   UNL A   1      46.885  33.092  28.930  1.00  0.00     0.057 A 
ATOM     83  C   UNL A   1      47.697  33.140  30.068  1.00  0.00     0.134 A 
ATOM     84  C   UNL A   1      46.782  34.240  28.140  1.00  0.00     0.134 A 
ATOM     85  F   UNL A   1      47.786  32.076  30.879  1.00  0.00    -0.206 F 
ATOM     86  C   UNL A   1      48.359  34.311  30.433  1.00  0.00     0.040 A 
ATOM     87  C   UNL A   1      47.412  35.420  28.513  1.00  0.00     0.040 A 
ATOM     88  F   UNL A   1      46.039  34.234  27.024  1.00  0.00    -0.206 F 
ATOM     89  C   UNL A   1      48.206  35.458  29.658  1.00  0.00     0.006 A 
ENDBRANCH  61  82
BRANCH  73  90
ATOM     90  C   UNL A   1      47.751  27.424  25.131  1.00  0.00     0.057 A 
ATOM     91  C   UNL A   1      48.913  26.780  25.577  1.00  0.00     0.134 A 
ATOM     92  C   UNL A   1      47.643  27.687  23.760  1.00  0.00     0.134 A 
ATOM     93  F   UNL A   1      49.091  26.527  26.883  1.00  0.00    -0.206 F 
ATOM     94  C   UNL A   1      49.939  26.438  24.696  1.00  0.00     0.040 A 
ATOM     95  C   UNL A   1      48.649  27.322  22.865  1.00  0.00     0.040 A 
ATOM     96  F   UNL A   1      46.558  28.305  23.268  1.00  0.00    -0.206 F 
ATOM     97  C   UNL A   1      49.805  26.703  23.334  1.00  0.00     0.006 A 
ENDBRANCH  73  90
ENDBRANCH  47  48
ENDBRANCH  39  42
ENDBRANCH  37  38
ENDBRANCH  36  37
ENDBRANCH  35  36
ENDBRANCH   3  35
TORSDOF 17
ENDMDL
