MODEL 1
REMARK VINA RESULT:     -12.8      0.000      0.000
REMARK SMILES Cc1cccc(S(=O)(=O)Nc2cnc(N(C)Cc3ccccc3)c(C(=O)NCCCNC(=O)c3ccc(-c4c5nc(c(-c6c(F)cccc6F)c6ccc([nH]6)c(-c6c(F)cccc6F)c6nc(c(-c7c(F)cccc7F)c7ccc4[nH]7)C=C6)C=C5)cc3)c2)c1
REMARK SMILES IDX 28 1 27 2 25 3 26 4 24 6 11 7 12 8 88 9 13 10 14 11 10 12
REMARK SMILES IDX 7 14 8 15 9 16 6 17 1 18 2 19 3 20 89 21 4 22 5 23 15 24
REMARK SMILES IDX 16 25 17 26 18 27 19 28 23 29 20 30 22 31 21 32 29 33 30 34
REMARK SMILES IDX 31 35 32 36 33 38 34 39 35 40 87 41 36 42 86 43 37 44 38 45
REMARK SMILES IDX 39 46 80 47 40 48 85 49 79 50 81 51 41 52 84 53 78 54 77 55
REMARK SMILES IDX 42 57 68 58 51 59 67 60 52 61 55 62 66 63 82 64 53 65 54 66
REMARK SMILES IDX 65 68 83 69 56 70 43 71 44 72 49 73 45 74 46 75 48 76 50 77
REMARK SMILES IDX 47 78 69 79 70 80 75 81 71 82 72 83 74 84 76 85 73 86 57 87
REMARK SMILES IDX 58 88 63 89 59 90 60 91 62 92 64 93 61 94
REMARK H PARENT 27 5 10 13 31 37 81 56 55 67
REMARK Flexibility Score: inf
ROOT
ATOM      1  C   UNL A   1      32.697  29.651  26.056  1.00  0.00     0.118 C 
ENDROOT
BRANCH   1   2
ATOM      2  N   UNL A   1      31.916  28.641  26.757  1.00  0.00    -0.352 N 
ATOM      3  C   UNL A   1      31.628  27.319  26.461  1.00  0.00     0.255 C 
ATOM      4  O   UNL A   1      30.755  26.782  27.139  1.00  0.00    -0.269 OA
ATOM      5  H   UNL A   1      31.517  28.957  27.600  1.00  0.00     0.163 HD
BRANCH   3   6
ATOM      6  C   UNL A   1      32.284  26.572  25.349  1.00  0.00     0.084 A 
ATOM      7  C   UNL A   1      34.282  25.359  24.634  1.00  0.00     0.068 A 
ATOM      8  C   UNL A   1      33.708  25.293  23.387  1.00  0.00     0.140 A 
ATOM      9  C   UNL A   1      33.598  26.096  25.585  1.00  0.00     0.046 A 
ATOM     10  N   UNL A   1      32.491  25.794  23.100  1.00  0.00    -0.236 NA
ATOM     11  C   UNL A   1      31.736  26.417  24.054  1.00  0.00     0.141 A 
BRANCH   7  12
ATOM     12  N   UNL A   1      35.464  24.609  24.881  1.00  0.00    -0.278 N 
ATOM     13  H   UNL A   1      36.320  25.052  24.683  1.00  0.00     0.180 HD
BRANCH  12  14
ATOM     14  S   UNL A   1      35.540  23.047  25.478  1.00  0.00     0.261 S 
ATOM     15  O   UNL A   1      34.911  22.172  24.490  1.00  0.00    -0.201 OA
ATOM     16  O   UNL A   1      35.042  23.127  26.816  1.00  0.00    -0.201 OA
BRANCH  14  17
ATOM     17  C   UNL A   1      37.242  22.511  25.591  1.00  0.00     0.088 A 
ATOM     18  C   UNL A   1      39.237  19.300  25.553  1.00  0.00     0.044 C 
ATOM     19  C   UNL A   1      38.909  20.758  25.677  1.00  0.00    -0.050 A 
ATOM     20  C   UNL A   1      39.780  21.613  26.357  1.00  0.00     0.003 A 
ATOM     21  C   UNL A   1      37.675  21.241  25.216  1.00  0.00     0.025 A 
ATOM     22  C   UNL A   1      39.401  22.927  26.620  1.00  0.00     0.002 A 
ATOM     23  C   UNL A   1      38.124  23.369  26.265  1.00  0.00     0.022 A 
ENDBRANCH  14  17
ENDBRANCH  12  14
ENDBRANCH   7  12
BRANCH  11  24
ATOM     24  N   UNL A   1      30.503  26.813  23.584  1.00  0.00    -0.355 N 
ATOM     25  C   UNL A   1      29.310  26.281  24.250  1.00  0.00     0.145 C 
BRANCH  24  26
ATOM     26  C   UNL A   1      30.223  27.798  22.542  1.00  0.00     0.153 C 
BRANCH  26  27
ATOM     27  C   UNL A   1      29.387  28.980  22.987  1.00  0.00    -0.029 A 
ATOM     28  C   UNL A   1      30.002  30.018  23.707  1.00  0.00     0.005 A 
ATOM     29  C   UNL A   1      28.054  29.145  22.584  1.00  0.00     0.005 A 
ATOM     30  C   UNL A   1      29.299  31.182  24.027  1.00  0.00     0.000 A 
ATOM     31  C   UNL A   1      27.351  30.313  22.903  1.00  0.00     0.000 A 
ATOM     32  C   UNL A   1      27.974  31.329  23.624  1.00  0.00     0.000 A 
ENDBRANCH  26  27
ENDBRANCH  24  26
ENDBRANCH  11  24
ENDBRANCH   3   6
ENDBRANCH   1   2
BRANCH   1  33
ATOM     33  C   UNL A   1      33.354  30.640  27.024  1.00  0.00     0.042 C 
BRANCH  33  34
ATOM     34  C   UNL A   1      34.607  30.101  27.693  1.00  0.00     0.118 C 
BRANCH  34  35
ATOM     35  N   UNL A   1      35.071  30.906  28.825  1.00  0.00    -0.352 N 
ATOM     36  C   UNL A   1      36.236  30.753  29.557  1.00  0.00     0.251 C 
ATOM     37  H   UNL A   1      34.482  31.648  29.098  1.00  0.00     0.163 HD
ATOM     38  O   UNL A   1      36.543  31.542  30.442  1.00  0.00    -0.269 OA
BRANCH  36  39
ATOM     39  C   UNL A   1      37.166  29.680  29.146  1.00  0.00     0.039 A 
ATOM     40  C   UNL A   1      37.451  28.681  30.079  1.00  0.00     0.014 A 
ATOM     41  C   UNL A   1      37.970  29.868  28.024  1.00  0.00     0.014 A 
ATOM     42  C   UNL A   1      38.695  28.060  30.035  1.00  0.00     0.010 A 
ATOM     43  C   UNL A   1      39.242  29.330  28.039  1.00  0.00     0.010 A 
ATOM     44  C   UNL A   1      39.626  28.484  29.085  1.00  0.00    -0.014 A 
BRANCH  44  45
ATOM     45  C   UNL A   1      41.043  28.156  29.178  1.00  0.00     0.031 A 
ATOM     46  C   UNL A   1      41.549  26.923  28.545  1.00  0.00     0.074 A 
ATOM     47  C   UNL A   1      41.897  28.972  29.835  1.00  0.00     0.049 A 
ATOM     48  N   UNL A   1      42.560  26.248  28.975  1.00  0.00    -0.248 NA
ATOM     49  C   UNL A   1      40.907  26.329  27.381  1.00  0.00     0.031 C 
ATOM     50  C   UNL A   1      43.355  28.889  29.863  1.00  0.00     0.029 A 
ATOM     51  N   UNL A   1      41.585  29.935  30.801  1.00  0.00    -0.354 N 
ATOM     52  C   UNL A   1      42.871  25.311  28.017  1.00  0.00     0.074 A 
ATOM     53  C   UNL A   1      41.776  25.363  27.075  1.00  0.00     0.031 C 
ATOM     54  C   UNL A   1      43.804  29.521  30.959  1.00  0.00     0.029 A 
ATOM     55  C   UNL A   1      42.646  29.929  31.733  1.00  0.00     0.049 A 
ATOM     56  H   UNL A   1      40.783  30.505  30.827  1.00  0.00     0.167 HD
ATOM     57  C   UNL A   1      44.089  24.694  28.046  1.00  0.00     0.037 A 
ATOM     58  C   UNL A   1      42.431  29.636  33.048  1.00  0.00     0.037 A 
ATOM     59  C   UNL A   1      44.865  25.103  29.215  1.00  0.00     0.049 A 
ATOM     60  C   UNL A   1      43.156  28.396  33.523  1.00  0.00     0.074 A 
ATOM     61  C   UNL A   1      45.853  26.058  29.391  1.00  0.00     0.029 A 
ATOM     62  N   UNL A   1      44.439  24.743  30.490  1.00  0.00    -0.354 N 
ATOM     63  N   UNL A   1      43.723  27.536  32.723  1.00  0.00    -0.248 NA
ATOM     64  C   UNL A   1      43.256  28.000  34.927  1.00  0.00     0.031 C 
ATOM     65  C   UNL A   1      45.969  26.325  30.777  1.00  0.00     0.029 A 
ATOM     66  C   UNL A   1      45.066  25.519  31.447  1.00  0.00     0.049 A 
ATOM     67  H   UNL A   1      43.783  24.035  30.683  1.00  0.00     0.167 HD
ATOM     68  C   UNL A   1      44.189  26.473  33.452  1.00  0.00     0.074 A 
ATOM     69  C   UNL A   1      43.907  26.828  34.830  1.00  0.00     0.031 C 
ATOM     70  C   UNL A   1      44.743  25.375  32.859  1.00  0.00     0.037 A 
BRANCH  57  71
ATOM     71  C   UNL A   1      44.668  23.999  26.835  1.00  0.00     0.057 A 
ATOM     72  C   UNL A   1      44.289  22.686  26.496  1.00  0.00     0.134 A 
ATOM     73  C   UNL A   1      45.664  24.545  26.007  1.00  0.00     0.134 A 
ATOM     74  F   UNL A   1      43.269  22.067  27.102  1.00  0.00    -0.206 F 
ATOM     75  C   UNL A   1      44.947  21.932  25.515  1.00  0.00     0.040 A 
ATOM     76  C   UNL A   1      46.371  23.786  25.063  1.00  0.00     0.040 A 
ATOM     77  F   UNL A   1      45.964  25.850  26.047  1.00  0.00    -0.206 F 
ATOM     78  C   UNL A   1      46.025  22.465  24.827  1.00  0.00     0.006 A 
ENDBRANCH  57  71
BRANCH  58  79
ATOM     79  C   UNL A   1      41.093  30.084  33.517  1.00  0.00     0.057 A 
ATOM     80  C   UNL A   1      40.899  31.460  33.740  1.00  0.00     0.134 A 
ATOM     81  C   UNL A   1      39.952  29.299  33.332  1.00  0.00     0.134 A 
ATOM     82  F   UNL A   1      41.954  32.267  33.938  1.00  0.00    -0.206 F 
ATOM     83  C   UNL A   1      39.640  32.054  33.623  1.00  0.00     0.040 A 
ATOM     84  C   UNL A   1      38.684  29.882  33.237  1.00  0.00     0.040 A 
ATOM     85  F   UNL A   1      40.057  27.982  33.109  1.00  0.00    -0.206 F 
ATOM     86  C   UNL A   1      38.532  31.267  33.330  1.00  0.00     0.006 A 
ENDBRANCH  58  79
BRANCH  70  87
ATOM     87  C   UNL A   1      45.109  24.104  33.573  1.00  0.00     0.057 A 
ATOM     88  C   UNL A   1      46.408  23.787  33.992  1.00  0.00     0.134 A 
ATOM     89  C   UNL A   1      44.103  23.201  33.982  1.00  0.00     0.134 A 
ATOM     90  F   UNL A   1      47.436  24.618  33.765  1.00  0.00    -0.206 F 
ATOM     91  C   UNL A   1      46.701  22.619  34.707  1.00  0.00     0.040 A 
ATOM     92  C   UNL A   1      44.377  22.058  34.737  1.00  0.00     0.040 A 
ATOM     93  F   UNL A   1      42.814  23.404  33.676  1.00  0.00    -0.206 F 
ATOM     94  C   UNL A   1      45.684  21.753  35.089  1.00  0.00     0.006 A 
ENDBRANCH  70  87
ENDBRANCH  44  45
ENDBRANCH  36  39
ENDBRANCH  34  35
ENDBRANCH  33  34
ENDBRANCH   1  33
TORSDOF 16
ENDMDL
MODEL 2
REMARK VINA RESULT:     -12.8      1.342      2.147
REMARK SMILES Cc1cccc(S(=O)(=O)Nc2cnc(N(C)Cc3ccccc3)c(C(=O)NCCCNC(=O)c3ccc(-c4c5nc(c(-c6c(F)cccc6F)c6ccc([nH]6)c(-c6c(F)cccc6F)c6nc(c(-c7c(F)cccc7F)c7ccc4[nH]7)C=C6)C=C5)cc3)c2)c1
REMARK SMILES IDX 28 1 27 2 25 3 26 4 24 6 11 7 12 8 88 9 13 10 14 11 10 12
REMARK SMILES IDX 7 14 8 15 9 16 6 17 1 18 2 19 3 20 89 21 4 22 5 23 15 24
REMARK SMILES IDX 16 25 17 26 18 27 19 28 23 29 20 30 22 31 21 32 29 33 30 34
REMARK SMILES IDX 31 35 32 36 33 38 34 39 35 40 87 41 36 42 86 43 37 44 38 45
REMARK SMILES IDX 39 46 80 47 40 48 85 49 79 50 81 51 41 52 84 53 78 54 77 55
REMARK SMILES IDX 42 57 68 58 51 59 67 60 52 61 55 62 66 63 82 64 53 65 54 66
REMARK SMILES IDX 65 68 83 69 56 70 43 71 44 72 49 73 45 74 46 75 48 76 50 77
REMARK SMILES IDX 47 78 69 79 70 80 75 81 71 82 72 83 74 84 76 85 73 86 57 87
REMARK SMILES IDX 58 88 63 89 59 90 60 91 62 92 64 93 61 94
REMARK H PARENT 27 5 10 13 31 37 81 56 55 67
REMARK Flexibility Score: inf
ROOT
ATOM      1  C   UNL A   1      32.536  29.723  26.007  1.00  0.00     0.118 C 
ENDROOT
BRANCH   1   2
ATOM      2  N   UNL A   1      31.793  28.678  26.698  1.00  0.00    -0.352 N 
ATOM      3  C   UNL A   1      31.548  27.352  26.385  1.00  0.00     0.255 C 
ATOM      4  O   UNL A   1      30.697  26.776  27.060  1.00  0.00    -0.269 OA
ATOM      5  H   UNL A   1      31.389  28.969  27.547  1.00  0.00     0.163 HD
BRANCH   3   6
ATOM      6  C   UNL A   1      32.222  26.642  25.258  1.00  0.00     0.084 A 
ATOM      7  C   UNL A   1      34.192  25.375  24.562  1.00  0.00     0.068 A 
ATOM      8  C   UNL A   1      33.680  25.417  23.287  1.00  0.00     0.140 A 
ATOM      9  C   UNL A   1      33.498  26.086  25.525  1.00  0.00     0.046 A 
ATOM     10  N   UNL A   1      32.504  25.996  22.976  1.00  0.00    -0.236 NA
ATOM     11  C   UNL A   1      31.733  26.597  23.932  1.00  0.00     0.141 A 
BRANCH   7  12
ATOM     12  N   UNL A   1      35.323  24.551  24.815  1.00  0.00    -0.278 N 
ATOM     13  H   UNL A   1      36.114  24.697  24.247  1.00  0.00     0.180 HD
BRANCH  12  14
ATOM     14  S   UNL A   1      35.439  23.360  25.985  1.00  0.00     0.261 S 
ATOM     15  O   UNL A   1      34.292  23.514  26.878  1.00  0.00    -0.201 OA
ATOM     16  O   UNL A   1      36.778  23.444  26.481  1.00  0.00    -0.201 OA
BRANCH  14  17
ATOM     17  C   UNL A   1      35.265  21.744  25.240  1.00  0.00     0.088 A 
ATOM     18  C   UNL A   1      32.585  19.145  24.643  1.00  0.00     0.044 C 
ATOM     19  C   UNL A   1      33.933  19.799  24.689  1.00  0.00    -0.050 A 
ATOM     20  C   UNL A   1      35.090  19.016  24.639  1.00  0.00     0.003 A 
ATOM     21  C   UNL A   1      34.036  21.182  24.901  1.00  0.00     0.025 A 
ATOM     22  C   UNL A   1      36.336  19.601  24.850  1.00  0.00     0.002 A 
ATOM     23  C   UNL A   1      36.423  20.955  25.179  1.00  0.00     0.022 A 
ENDBRANCH  14  17
ENDBRANCH  12  14
ENDBRANCH   7  12
BRANCH  11  24
ATOM     24  N   UNL A   1      30.546  27.085  23.431  1.00  0.00    -0.355 N 
ATOM     25  C   UNL A   1      29.297  26.545  23.977  1.00  0.00     0.145 C 
BRANCH  24  26
ATOM     26  C   UNL A   1      30.365  28.169  22.469  1.00  0.00     0.153 C 
BRANCH  26  27
ATOM     27  C   UNL A   1      29.439  29.279  22.924  1.00  0.00    -0.029 A 
ATOM     28  C   UNL A   1      29.936  30.275  23.781  1.00  0.00     0.005 A 
ATOM     29  C   UNL A   1      28.144  29.429  22.406  1.00  0.00     0.005 A 
ATOM     30  C   UNL A   1      29.156  31.381  24.122  1.00  0.00     0.000 A 
ATOM     31  C   UNL A   1      27.364  30.539  22.747  1.00  0.00     0.000 A 
ATOM     32  C   UNL A   1      27.870  31.514  23.604  1.00  0.00     0.000 A 
ENDBRANCH  26  27
ENDBRANCH  24  26
ENDBRANCH  11  24
ENDBRANCH   3   6
ENDBRANCH   1   2
BRANCH   1  33
ATOM     33  C   UNL A   1      33.191  30.703  26.986  1.00  0.00     0.042 C 
BRANCH  33  34
ATOM     34  C   UNL A   1      34.314  30.091  27.806  1.00  0.00     0.118 C 
BRANCH  34  35
ATOM     35  N   UNL A   1      35.053  31.059  28.619  1.00  0.00    -0.352 N 
ATOM     36  C   UNL A   1      36.287  30.894  29.225  1.00  0.00     0.251 C 
ATOM     37  H   UNL A   1      34.620  31.934  28.750  1.00  0.00     0.163 HD
ATOM     38  O   UNL A   1      36.833  31.811  29.825  1.00  0.00    -0.269 OA
BRANCH  36  39
ATOM     39  C   UNL A   1      36.988  29.610  29.011  1.00  0.00     0.039 A 
ATOM     40  C   UNL A   1      37.367  28.886  30.144  1.00  0.00     0.014 A 
ATOM     41  C   UNL A   1      37.539  29.334  27.762  1.00  0.00     0.014 A 
ATOM     42  C   UNL A   1      38.500  28.082  30.075  1.00  0.00     0.010 A 
ATOM     43  C   UNL A   1      38.721  28.621  27.717  1.00  0.00     0.010 A 
ATOM     44  C   UNL A   1      39.237  28.057  28.889  1.00  0.00    -0.014 A 
BRANCH  44  45
ATOM     45  C   UNL A   1      40.598  27.539  28.825  1.00  0.00     0.031 A 
ATOM     46  C   UNL A   1      40.826  26.129  28.460  1.00  0.00     0.074 A 
ATOM     47  C   UNL A   1      41.653  28.341  29.094  1.00  0.00     0.049 A 
ATOM     48  N   UNL A   1      41.822  25.422  28.875  1.00  0.00    -0.248 NA
ATOM     49  C   UNL A   1      39.899  25.387  27.616  1.00  0.00     0.031 C 
ATOM     50  C   UNL A   1      43.068  28.038  28.897  1.00  0.00     0.029 A 
ATOM     51  N   UNL A   1      41.652  29.541  29.814  1.00  0.00    -0.354 N 
ATOM     52  C   UNL A   1      41.826  24.249  28.155  1.00  0.00     0.074 A 
ATOM     53  C   UNL A   1      40.576  24.251  27.430  1.00  0.00     0.031 C 
ATOM     54  C   UNL A   1      43.797  28.829  29.699  1.00  0.00     0.029 A 
ATOM     55  C   UNL A   1      42.872  29.586  30.523  1.00  0.00     0.049 A 
ATOM     56  H   UNL A   1      40.940  30.221  29.824  1.00  0.00     0.167 HD
ATOM     57  C   UNL A   1      42.948  23.471  28.140  1.00  0.00     0.037 A 
ATOM     58  C   UNL A   1      42.896  29.648  31.887  1.00  0.00     0.037 A 
ATOM     59  C   UNL A   1      43.986  24.015  29.014  1.00  0.00     0.049 A 
ATOM     60  C   UNL A   1      43.560  28.456  32.539  1.00  0.00     0.074 A 
ATOM     61  C   UNL A   1      45.088  24.816  28.767  1.00  0.00     0.029 A 
ATOM     62  N   UNL A   1      43.788  24.037  30.392  1.00  0.00    -0.354 N 
ATOM     63  N   UNL A   1      43.854  27.354  31.907  1.00  0.00    -0.248 NA
ATOM     64  C   UNL A   1      43.897  28.390  33.960  1.00  0.00     0.031 C 
ATOM     65  C   UNL A   1      45.512  25.379  29.996  1.00  0.00     0.029 A 
ATOM     66  C   UNL A   1      44.678  24.907  30.995  1.00  0.00     0.049 A 
ATOM     67  H   UNL A   1      43.110  23.507  30.870  1.00  0.00     0.167 HD
ATOM     68  C   UNL A   1      44.336  26.431  32.799  1.00  0.00     0.074 A 
ATOM     69  C   UNL A   1      44.380  27.140  34.064  1.00  0.00     0.031 C 
ATOM     70  C   UNL A   1      44.633  25.151  32.429  1.00  0.00     0.037 A 
BRANCH  57  71
ATOM     71  C   UNL A   1      43.190  22.429  27.072  1.00  0.00     0.057 A 
ATOM     72  C   UNL A   1      42.488  21.208  27.072  1.00  0.00     0.134 A 
ATOM     73  C   UNL A   1      44.159  22.538  26.060  1.00  0.00     0.134 A 
ATOM     74  F   UNL A   1      41.449  20.991  27.887  1.00  0.00    -0.206 F 
ATOM     75  C   UNL A   1      42.824  20.136  26.234  1.00  0.00     0.040 A 
ATOM     76  C   UNL A   1      44.546  21.457  25.255  1.00  0.00     0.040 A 
ATOM     77  F   UNL A   1      44.742  23.711  25.779  1.00  0.00    -0.206 F 
ATOM     78  C   UNL A   1      43.888  20.241  25.354  1.00  0.00     0.006 A 
ENDBRANCH  57  71
BRANCH  58  79
ATOM     79  C   UNL A   1      41.738  30.400  32.440  1.00  0.00     0.057 A 
ATOM     80  C   UNL A   1      40.668  29.661  32.978  1.00  0.00     0.134 A 
ATOM     81  C   UNL A   1      41.854  31.735  32.832  1.00  0.00     0.134 A 
ATOM     82  F   UNL A   1      40.495  28.375  32.632  1.00  0.00    -0.206 F 
ATOM     83  C   UNL A   1      39.847  30.179  33.982  1.00  0.00     0.040 A 
ATOM     84  C   UNL A   1      41.020  32.272  33.819  1.00  0.00     0.040 A 
ATOM     85  F   UNL A   1      42.850  32.502  32.366  1.00  0.00    -0.206 F 
ATOM     86  C   UNL A   1      40.050  31.478  34.434  1.00  0.00     0.006 A 
ENDBRANCH  58  79
BRANCH  70  87
ATOM     87  C   UNL A   1      44.993  24.042  33.378  1.00  0.00     0.057 A 
ATOM     88  C   UNL A   1      44.144  22.971  33.686  1.00  0.00     0.134 A 
ATOM     89  C   UNL A   1      46.294  23.960  33.918  1.00  0.00     0.134 A 
ATOM     90  F   UNL A   1      42.920  22.871  33.147  1.00  0.00    -0.206 F 
ATOM     91  C   UNL A   1      44.536  21.923  34.530  1.00  0.00     0.040 A 
ATOM     92  C   UNL A   1      46.712  22.896  34.721  1.00  0.00     0.040 A 
ATOM     93  F   UNL A   1      47.215  24.903  33.673  1.00  0.00    -0.206 F 
ATOM     94  C   UNL A   1      45.825  21.879  35.045  1.00  0.00     0.006 A 
ENDBRANCH  70  87
ENDBRANCH  44  45
ENDBRANCH  36  39
ENDBRANCH  34  35
ENDBRANCH  33  34
ENDBRANCH   1  33
TORSDOF 16
ENDMDL
MODEL 3
REMARK VINA RESULT:     -12.7      3.978      9.866
REMARK SMILES Cc1cccc(S(=O)(=O)Nc2cnc(N(C)Cc3ccccc3)c(C(=O)NCCCNC(=O)c3ccc(-c4c5nc(c(-c6c(F)cccc6F)c6ccc([nH]6)c(-c6c(F)cccc6F)c6nc(c(-c7c(F)cccc7F)c7ccc4[nH]7)C=C6)C=C5)cc3)c2)c1
REMARK SMILES IDX 28 1 27 2 25 3 26 4 24 6 11 7 12 8 88 9 13 10 14 11 10 12
REMARK SMILES IDX 7 14 8 15 9 16 6 17 1 18 2 19 3 20 89 21 4 22 5 23 15 24
REMARK SMILES IDX 16 25 17 26 18 27 19 28 23 29 20 30 22 31 21 32 29 33 30 34
REMARK SMILES IDX 31 35 32 36 33 38 34 39 35 40 87 41 36 42 86 43 37 44 38 45
REMARK SMILES IDX 39 46 80 47 40 48 85 49 79 50 81 51 41 52 84 53 78 54 77 55
REMARK SMILES IDX 42 57 68 58 51 59 67 60 52 61 55 62 66 63 82 64 53 65 54 66
REMARK SMILES IDX 65 68 83 69 56 70 43 71 44 72 49 73 45 74 46 75 48 76 50 77
REMARK SMILES IDX 47 78 69 79 70 80 75 81 71 82 72 83 74 84 76 85 73 86 57 87
REMARK SMILES IDX 58 88 63 89 59 90 60 91 62 92 64 93 61 94
REMARK H PARENT 27 5 10 13 31 37 81 56 55 67
REMARK Flexibility Score: inf
ROOT
ATOM      1  C   UNL A   1      36.604  21.943  25.449  1.00  0.00     0.118 C 
ENDROOT
BRANCH   1   2
ATOM      2  N   UNL A   1      36.335  22.489  24.126  1.00  0.00    -0.352 N 
ATOM      3  C   UNL A   1      35.259  23.192  23.612  1.00  0.00     0.255 C 
ATOM      4  O   UNL A   1      35.223  23.328  22.391  1.00  0.00    -0.269 OA
ATOM      5  H   UNL A   1      37.054  22.328  23.473  1.00  0.00     0.163 HD
BRANCH   3   6
ATOM      6  C   UNL A   1      34.152  23.722  24.461  1.00  0.00     0.084 A 
ATOM      7  C   UNL A   1      33.393  25.575  25.862  1.00  0.00     0.068 A 
ATOM      8  C   UNL A   1      32.297  24.803  26.164  1.00  0.00     0.140 A 
ATOM      9  C   UNL A   1      34.369  24.975  25.086  1.00  0.00     0.046 A 
ATOM     10  N   UNL A   1      32.085  23.577  25.649  1.00  0.00    -0.236 NA
ATOM     11  C   UNL A   1      32.971  23.010  24.776  1.00  0.00     0.141 A 
BRANCH   7  12
ATOM     12  N   UNL A   1      33.408  26.932  26.284  1.00  0.00    -0.278 N 
ATOM     13  H   UNL A   1      34.281  27.306  26.545  1.00  0.00     0.180 HD
BRANCH  12  14
ATOM     14  S   UNL A   1      32.087  27.955  26.379  1.00  0.00     0.261 S 
ATOM     15  O   UNL A   1      32.599  29.325  26.402  1.00  0.00    -0.201 OA
ATOM     16  O   UNL A   1      31.291  27.447  27.453  1.00  0.00    -0.201 OA
BRANCH  14  17
ATOM     17  C   UNL A   1      31.098  27.827  24.896  1.00  0.00     0.088 A 
ATOM     18  C   UNL A   1      29.885  30.027  22.070  1.00  0.00     0.044 C 
ATOM     19  C   UNL A   1      30.055  28.827  22.954  1.00  0.00    -0.050 A 
ATOM     20  C   UNL A   1      29.099  27.808  22.937  1.00  0.00     0.003 A 
ATOM     21  C   UNL A   1      31.107  28.782  23.881  1.00  0.00     0.025 A 
ATOM     22  C   UNL A   1      29.163  26.778  23.872  1.00  0.00     0.002 A 
ATOM     23  C   UNL A   1      30.142  26.801  24.868  1.00  0.00     0.022 A 
ENDBRANCH  14  17
ENDBRANCH  12  14
ENDBRANCH   7  12
BRANCH  11  24
ATOM     24  N   UNL A   1      32.556  21.778  24.318  1.00  0.00    -0.355 N 
ATOM     25  C   UNL A   1      32.186  21.660  22.904  1.00  0.00     0.145 C 
BRANCH  24  26
ATOM     26  C   UNL A   1      32.528  20.518  25.057  1.00  0.00     0.153 C 
BRANCH  26  27
ATOM     27  C   UNL A   1      33.070  19.322  24.301  1.00  0.00    -0.029 A 
ATOM     28  C   UNL A   1      34.310  18.781  24.679  1.00  0.00     0.005 A 
ATOM     29  C   UNL A   1      32.314  18.646  23.332  1.00  0.00     0.005 A 
ATOM     30  C   UNL A   1      34.788  17.607  24.095  1.00  0.00     0.000 A 
ATOM     31  C   UNL A   1      32.792  17.467  22.749  1.00  0.00     0.000 A 
ATOM     32  C   UNL A   1      34.028  16.949  23.130  1.00  0.00     0.000 A 
ENDBRANCH  26  27
ENDBRANCH  24  26
ENDBRANCH  11  24
ENDBRANCH   3   6
ENDBRANCH   1   2
BRANCH   1  33
ATOM     33  C   UNL A   1      38.097  21.973  25.789  1.00  0.00     0.042 C 
BRANCH  33  34
ATOM     34  C   UNL A   1      38.620  23.359  26.127  1.00  0.00     0.118 C 
BRANCH  34  35
ATOM     35  N   UNL A   1      40.079  23.439  26.218  1.00  0.00    -0.352 N 
ATOM     36  C   UNL A   1      40.847  24.505  26.654  1.00  0.00     0.251 C 
ATOM     37  H   UNL A   1      40.575  22.637  25.933  1.00  0.00     0.163 HD
ATOM     38  O   UNL A   1      42.065  24.420  26.748  1.00  0.00    -0.269 OA
BRANCH  36  39
ATOM     39  C   UNL A   1      40.136  25.710  27.133  1.00  0.00     0.039 A 
ATOM     40  C   UNL A   1      40.404  26.917  26.485  1.00  0.00     0.014 A 
ATOM     41  C   UNL A   1      39.514  25.684  28.380  1.00  0.00     0.014 A 
ATOM     42  C   UNL A   1      40.308  28.101  27.209  1.00  0.00     0.010 A 
ATOM     43  C   UNL A   1      39.516  26.843  29.130  1.00  0.00     0.010 A 
ATOM     44  C   UNL A   1      39.982  28.035  28.566  1.00  0.00    -0.014 A 
BRANCH  44  45
ATOM     45  C   UNL A   1      40.194  29.155  29.475  1.00  0.00     0.031 A 
ATOM     46  C   UNL A   1      39.124  30.150  29.669  1.00  0.00     0.074 A 
ATOM     47  C   UNL A   1      41.361  29.285  30.145  1.00  0.00     0.049 A 
ATOM     48  N   UNL A   1      39.328  31.390  29.959  1.00  0.00    -0.248 NA
ATOM     49  C   UNL A   1      37.716  29.818  29.502  1.00  0.00     0.031 C 
ATOM     50  C   UNL A   1      41.664  30.227  31.219  1.00  0.00     0.029 A 
ATOM     51  N   UNL A   1      42.597  28.712  29.827  1.00  0.00    -0.354 N 
ATOM     52  C   UNL A   1      38.112  31.946  30.284  1.00  0.00     0.074 A 
ATOM     53  C   UNL A   1      37.135  30.944  29.924  1.00  0.00     0.031 C 
ATOM     54  C   UNL A   1      42.994  30.395  31.287  1.00  0.00     0.029 A 
ATOM     55  C   UNL A   1      43.583  29.658  30.184  1.00  0.00     0.049 A 
ATOM     56  H   UNL A   1      42.750  27.824  29.432  1.00  0.00     0.167 HD
ATOM     57  C   UNL A   1      38.070  33.135  30.953  1.00  0.00     0.037 A 
ATOM     58  C   UNL A   1      44.438  30.175  29.254  1.00  0.00     0.037 A 
ATOM     59  C   UNL A   1      39.411  33.685  31.145  1.00  0.00     0.049 A 
ATOM     60  C   UNL A   1      44.306  31.671  29.071  1.00  0.00     0.074 A 
ATOM     61  C   UNL A   1      40.295  33.636  32.211  1.00  0.00     0.029 A 
ATOM     62  N   UNL A   1      40.149  34.112  30.045  1.00  0.00    -0.354 N 
ATOM     63  N   UNL A   1      43.318  32.376  29.546  1.00  0.00    -0.248 NA
ATOM     64  C   UNL A   1      45.246  32.480  28.297  1.00  0.00     0.031 C 
ATOM     65  C   UNL A   1      41.586  33.967  31.731  1.00  0.00     0.029 A 
ATOM     66  C   UNL A   1      41.486  34.234  30.377  1.00  0.00     0.049 A 
ATOM     67  H   UNL A   1      39.772  34.299  29.155  1.00  0.00     0.167 HD
ATOM     68  C   UNL A   1      43.430  33.670  29.111  1.00  0.00     0.074 A 
ATOM     69  C   UNL A   1      44.673  33.695  28.364  1.00  0.00     0.031 C 
ATOM     70  C   UNL A   1      42.475  34.609  29.377  1.00  0.00     0.037 A 
BRANCH  57  71
ATOM     71  C   UNL A   1      36.843  33.593  31.707  1.00  0.00     0.057 A 
ATOM     72  C   UNL A   1      35.748  34.172  31.036  1.00  0.00     0.134 A 
ATOM     73  C   UNL A   1      36.711  33.559  33.105  1.00  0.00     0.134 A 
ATOM     74  F   UNL A   1      35.656  34.169  29.701  1.00  0.00    -0.206 F 
ATOM     75  C   UNL A   1      34.687  34.796  31.706  1.00  0.00     0.040 A 
ATOM     76  C   UNL A   1      35.687  34.229  33.792  1.00  0.00     0.040 A 
ATOM     77  F   UNL A   1      37.546  32.837  33.865  1.00  0.00    -0.206 F 
ATOM     78  C   UNL A   1      34.678  34.868  33.090  1.00  0.00     0.006 A 
ENDBRANCH  57  71
BRANCH  58  79
ATOM     79  C   UNL A   1      44.762  29.200  28.179  1.00  0.00     0.057 A 
ATOM     80  C   UNL A   1      45.658  28.157  28.482  1.00  0.00     0.134 A 
ATOM     81  C   UNL A   1      43.925  29.023  27.075  1.00  0.00     0.134 A 
ATOM     82  F   UNL A   1      46.498  28.271  29.524  1.00  0.00    -0.206 F 
ATOM     83  C   UNL A   1      45.610  26.930  27.818  1.00  0.00     0.040 A 
ATOM     84  C   UNL A   1      43.887  27.805  26.387  1.00  0.00     0.040 A 
ATOM     85  F   UNL A   1      43.042  29.969  26.727  1.00  0.00    -0.206 F 
ATOM     86  C   UNL A   1      44.692  26.739  26.791  1.00  0.00     0.006 A 
ENDBRANCH  58  79
BRANCH  70  87
ATOM     87  C   UNL A   1      42.440  35.992  28.787  1.00  0.00     0.057 A 
ATOM     88  C   UNL A   1      43.058  37.107  29.369  1.00  0.00     0.134 A 
ATOM     89  C   UNL A   1      41.872  36.209  27.513  1.00  0.00     0.134 A 
ATOM     90  F   UNL A   1      43.731  37.009  30.525  1.00  0.00    -0.206 F 
ATOM     91  C   UNL A   1      43.054  38.368  28.759  1.00  0.00     0.040 A 
ATOM     92  C   UNL A   1      41.904  37.451  26.875  1.00  0.00     0.040 A 
ATOM     93  F   UNL A   1      41.278  35.218  26.833  1.00  0.00    -0.206 F 
ATOM     94  C   UNL A   1      42.482  38.543  27.505  1.00  0.00     0.006 A 
ENDBRANCH  70  87
ENDBRANCH  44  45
ENDBRANCH  36  39
ENDBRANCH  34  35
ENDBRANCH  33  34
ENDBRANCH   1  33
TORSDOF 16
ENDMDL
