MODEL 1
REMARK VINA RESULT:     -10.6      0.000      0.000
REMARK SMILES COCC[N@@H+](CC(=O)NCCCNC(=O)c1ccc(-c2c3nc(c(-c4c(F)cccc4F)c4ccc([nH]4)c(-c4c(F)cccc4F)c4nc(c(-c5c(F)cccc5F)c5ccc2[nH]5)C=C4)C=C3)cc1)Cc1cc(F)cc(Br)c1
REMARK SMILES IDX 10 1 9 2 7 3 8 4 6 6 5 7 4 9 3 10 2 11 1 12 70 13 71 14
REMARK SMILES IDX 72 15 78 16 73 17 76 18 74 19 75 20 77 21 11 22 12 23 13 24
REMARK SMILES IDX 14 25 15 27 16 28 17 29 69 30 18 31 68 32 19 33 20 34 21 35
REMARK SMILES IDX 62 36 22 37 67 38 61 39 63 40 23 41 66 42 60 43 59 44 24 46
REMARK SMILES IDX 50 47 33 48 49 49 34 50 37 51 48 52 64 53 35 54 36 55 47 57
REMARK SMILES IDX 65 58 38 59 25 60 26 61 31 62 27 63 28 64 30 65 32 66 29 67
REMARK SMILES IDX 51 68 52 69 57 70 53 71 54 72 56 73 58 74 55 75 39 76 40 77
REMARK SMILES IDX 45 78 41 79 42 80 44 81 46 82 43 83
REMARK H PARENT 9 5 5 8 13 26 63 45 37 56
REMARK Flexibility Score: inf
ROOT
ATOM      1  C   UNL A   1      36.127  20.060  24.830  1.00  0.00     0.118 C 
ENDROOT
BRANCH   1   2
ATOM      2  N   UNL A   1      35.984  21.071  25.863  1.00  0.00    -0.351 N 
ATOM      3  C   UNL A   1      35.068  22.067  26.025  1.00  0.00     0.275 C 
ATOM      4  O   UNL A   1      34.938  22.520  27.169  1.00  0.00    -0.269 OA
ATOM      5  H   UNL A   1      36.667  21.029  26.572  1.00  0.00     0.163 HD
BRANCH   3   6
ATOM      6  C   UNL A   1      34.196  22.597  24.885  1.00  0.00     0.363 C 
BRANCH   6   7
ATOM      7  N   UNL A   1      32.756  22.255  24.930  1.00  0.00    -0.322 N 
ATOM      8  H   UNL A   1      32.495  22.054  23.965  1.00  0.00     0.348 HD
BRANCH   7   9
ATOM      9  C   UNL A   1      31.904  23.394  25.261  1.00  0.00     0.291 C 
BRANCH   9  10
ATOM     10  C   UNL A   1      31.848  23.881  26.718  1.00  0.00     0.221 C 
BRANCH  10  11
ATOM     11  O   UNL A   1      30.503  23.998  27.178  1.00  0.00    -0.379 OA
ATOM     12  C   UNL A   1      29.720  22.827  27.012  1.00  0.00     0.195 C 
ENDBRANCH  10  11
ENDBRANCH   9  10
ENDBRANCH   7   9
BRANCH   7  13
ATOM     13  C   UNL A   1      32.422  20.954  25.529  1.00  0.00     0.299 C 
BRANCH  13  14
ATOM     14  C   UNL A   1      32.583  19.705  24.681  1.00  0.00     0.010 A 
ATOM     15  C   UNL A   1      32.463  19.721  23.285  1.00  0.00     0.048 A 
ATOM     16  C   UNL A   1      32.848  18.470  25.301  1.00  0.00     0.025 A 
ATOM     17  C   UNL A   1      32.499  18.532  22.557  1.00  0.00     0.124 A 
ATOM     18  C   UNL A   1      32.895  17.288  24.555  1.00  0.00     0.021 A 
ATOM     19  F   UNL A   1      32.300  18.569  21.233  1.00  0.00    -0.207 F 
ATOM     20  C   UNL A   1      32.704  17.310  23.180  1.00  0.00     0.055 A 
ATOM     21  Br  UNL A   1      33.179  15.636  25.432  1.00  0.00    -0.051 Br
ENDBRANCH  13  14
ENDBRANCH   7  13
ENDBRANCH   6   7
ENDBRANCH   3   6
ENDBRANCH   1   2
BRANCH   1  22
ATOM     22  C   UNL A   1      37.531  19.458  24.717  1.00  0.00     0.042 C 
BRANCH  22  23
ATOM     23  C   UNL A   1      38.587  20.082  25.621  1.00  0.00     0.118 C 
BRANCH  23  24
ATOM     24  N   UNL A   1      39.755  19.232  25.753  1.00  0.00    -0.352 N 
ATOM     25  C   UNL A   1      41.053  19.560  26.065  1.00  0.00     0.251 C 
ATOM     26  H   UNL A   1      39.595  18.274  25.593  1.00  0.00     0.163 HD
ATOM     27  O   UNL A   1      41.941  18.736  25.868  1.00  0.00    -0.269 OA
BRANCH  25  28
ATOM     28  C   UNL A   1      41.406  20.894  26.615  1.00  0.00     0.039 A 
ATOM     29  C   UNL A   1      41.915  21.862  25.742  1.00  0.00     0.014 A 
ATOM     30  C   UNL A   1      41.317  21.181  27.980  1.00  0.00     0.014 A 
ATOM     31  C   UNL A   1      42.282  23.122  26.225  1.00  0.00     0.010 A 
ATOM     32  C   UNL A   1      41.617  22.461  28.451  1.00  0.00     0.010 A 
ATOM     33  C   UNL A   1      42.111  23.444  27.581  1.00  0.00    -0.014 A 
BRANCH  33  34
ATOM     34  C   UNL A   1      42.449  24.798  28.098  1.00  0.00     0.031 A 
ATOM     35  C   UNL A   1      43.859  25.131  28.505  1.00  0.00     0.074 A 
ATOM     36  C   UNL A   1      41.476  25.718  28.249  1.00  0.00     0.049 A 
ATOM     37  N   UNL A   1      44.330  26.235  29.029  1.00  0.00    -0.248 NA
ATOM     38  C   UNL A   1      44.871  24.081  28.314  1.00  0.00     0.031 C 
ATOM     39  C   UNL A   1      40.063  25.514  27.928  1.00  0.00     0.029 A 
ATOM     40  N   UNL A   1      41.527  27.006  28.724  1.00  0.00    -0.354 N 
ATOM     41  C   UNL A   1      45.685  26.008  29.242  1.00  0.00     0.074 A 
ATOM     42  C   UNL A   1      45.952  24.646  28.831  1.00  0.00     0.031 C 
ATOM     43  C   UNL A   1      39.384  26.641  28.196  1.00  0.00     0.029 A 
ATOM     44  C   UNL A   1      40.305  27.633  28.747  1.00  0.00     0.049 A 
ATOM     45  H   UNL A   1      42.360  27.439  29.019  1.00  0.00     0.167 HD
ATOM     46  C   UNL A   1      46.624  26.860  29.718  1.00  0.00     0.037 A 
ATOM     47  C   UNL A   1      39.959  28.862  29.175  1.00  0.00     0.037 A 
ATOM     48  C   UNL A   1      46.366  28.222  30.109  1.00  0.00     0.049 A 
ATOM     49  C   UNL A   1      41.015  29.779  29.723  1.00  0.00     0.074 A 
ATOM     50  C   UNL A   1      47.266  29.179  30.546  1.00  0.00     0.029 A 
ATOM     51  N   UNL A   1      45.114  28.817  30.121  1.00  0.00    -0.354 N 
ATOM     52  N   UNL A   1      42.302  29.572  29.856  1.00  0.00    -0.248 NA
ATOM     53  C   UNL A   1      40.570  31.105  30.180  1.00  0.00     0.031 C 
ATOM     54  C   UNL A   1      46.552  30.340  30.864  1.00  0.00     0.029 A 
ATOM     55  C   UNL A   1      45.214  30.120  30.582  1.00  0.00     0.049 A 
ATOM     56  H   UNL A   1      44.278  28.379  29.841  1.00  0.00     0.167 HD
ATOM     57  C   UNL A   1      42.824  30.743  30.391  1.00  0.00     0.074 A 
ATOM     58  C   UNL A   1      41.717  31.664  30.542  1.00  0.00     0.031 C 
ATOM     59  C   UNL A   1      44.106  31.028  30.729  1.00  0.00     0.037 A 
BRANCH  46  60
ATOM     60  C   UNL A   1      48.030  26.344  29.842  1.00  0.00     0.057 A 
ATOM     61  C   UNL A   1      48.953  26.456  28.795  1.00  0.00     0.134 A 
ATOM     62  C   UNL A   1      48.476  25.766  31.038  1.00  0.00     0.134 A 
ATOM     63  F   UNL A   1      48.587  26.992  27.621  1.00  0.00    -0.206 F 
ATOM     64  C   UNL A   1      50.262  25.989  28.923  1.00  0.00     0.040 A 
ATOM     65  C   UNL A   1      49.790  25.318  31.186  1.00  0.00     0.040 A 
ATOM     66  F   UNL A   1      47.646  25.636  32.084  1.00  0.00    -0.206 F 
ATOM     67  C   UNL A   1      50.686  25.424  30.124  1.00  0.00     0.006 A 
ENDBRANCH  46  60
BRANCH  47  68
ATOM     68  C   UNL A   1      38.544  29.304  29.095  1.00  0.00     0.057 A 
ATOM     69  C   UNL A   1      37.992  29.748  27.889  1.00  0.00     0.134 A 
ATOM     70  C   UNL A   1      37.713  29.303  30.223  1.00  0.00     0.134 A 
ATOM     71  F   UNL A   1      38.745  29.794  26.779  1.00  0.00    -0.206 F 
ATOM     72  C   UNL A   1      36.671  30.191  27.808  1.00  0.00     0.040 A 
ATOM     73  C   UNL A   1      36.383  29.719  30.151  1.00  0.00     0.040 A 
ATOM     74  F   UNL A   1      38.181  28.885  31.408  1.00  0.00    -0.206 F 
ATOM     75  C   UNL A   1      35.860  30.172  28.941  1.00  0.00     0.006 A 
ENDBRANCH  47  68
BRANCH  59  76
ATOM     76  C   UNL A   1      44.383  32.398  31.274  1.00  0.00     0.057 A 
ATOM     77  C   UNL A   1      44.663  33.483  30.434  1.00  0.00     0.134 A 
ATOM     78  C   UNL A   1      44.331  32.642  32.653  1.00  0.00     0.134 A 
ATOM     79  F   UNL A   1      44.741  33.313  29.106  1.00  0.00    -0.206 F 
ATOM     80  C   UNL A   1      44.902  34.759  30.948  1.00  0.00     0.040 A 
ATOM     81  C   UNL A   1      44.544  33.919  33.175  1.00  0.00     0.040 A 
ATOM     82  F   UNL A   1      44.060  31.649  33.512  1.00  0.00    -0.206 F 
ATOM     83  C   UNL A   1      44.836  34.980  32.322  1.00  0.00     0.006 A 
ENDBRANCH  59  76
ENDBRANCH  33  34
ENDBRANCH  25  28
ENDBRANCH  23  24
ENDBRANCH  22  23
ENDBRANCH   1  22
TORSDOF 16
ENDMDL
MODEL 2
REMARK VINA RESULT:     -10.5      0.316      1.671
REMARK SMILES COCC[N@@H+](CC(=O)NCCCNC(=O)c1ccc(-c2c3nc(c(-c4c(F)cccc4F)c4ccc([nH]4)c(-c4c(F)cccc4F)c4nc(c(-c5c(F)cccc5F)c5ccc2[nH]5)C=C4)C=C3)cc1)Cc1cc(F)cc(Br)c1
REMARK SMILES IDX 10 1 9 2 7 3 8 4 6 6 5 7 4 9 3 10 2 11 1 12 70 13 71 14
REMARK SMILES IDX 72 15 78 16 73 17 76 18 74 19 75 20 77 21 11 22 12 23 13 24
REMARK SMILES IDX 14 25 15 27 16 28 17 29 69 30 18 31 68 32 19 33 20 34 21 35
REMARK SMILES IDX 62 36 22 37 67 38 61 39 63 40 23 41 66 42 60 43 59 44 24 46
REMARK SMILES IDX 50 47 33 48 49 49 34 50 37 51 48 52 64 53 35 54 36 55 47 57
REMARK SMILES IDX 65 58 38 59 25 60 26 61 31 62 27 63 28 64 30 65 32 66 29 67
REMARK SMILES IDX 51 68 52 69 57 70 53 71 54 72 56 73 58 74 55 75 39 76 40 77
REMARK SMILES IDX 45 78 41 79 42 80 44 81 46 82 43 83
REMARK H PARENT 9 5 5 8 13 26 63 45 37 56
REMARK Flexibility Score: inf
ROOT
ATOM      1  C   UNL A   1      36.197  19.956  24.934  1.00  0.00     0.118 C 
ENDROOT
BRANCH   1   2
ATOM      2  N   UNL A   1      36.077  21.125  25.788  1.00  0.00    -0.351 N 
ATOM      3  C   UNL A   1      35.181  22.151  25.786  1.00  0.00     0.275 C 
ATOM      4  O   UNL A   1      35.065  22.787  26.841  1.00  0.00    -0.269 OA
ATOM      5  H   UNL A   1      36.762  21.184  26.494  1.00  0.00     0.163 HD
BRANCH   3   6
ATOM      6  C   UNL A   1      34.315  22.505  24.576  1.00  0.00     0.363 C 
BRANCH   6   7
ATOM      7  N   UNL A   1      32.853  22.325  24.724  1.00  0.00    -0.322 N 
ATOM      8  H   UNL A   1      32.507  22.133  23.784  1.00  0.00     0.348 HD
BRANCH   7   9
ATOM      9  C   UNL A   1      32.154  23.557  25.076  1.00  0.00     0.291 C 
BRANCH   9  10
ATOM     10  C   UNL A   1      31.662  23.746  26.520  1.00  0.00     0.221 C 
BRANCH  10  11
ATOM     11  O   UNL A   1      30.487  24.554  26.570  1.00  0.00    -0.379 OA
ATOM     12  C   UNL A   1      30.650  25.863  26.049  1.00  0.00     0.195 C 
ENDBRANCH  10  11
ENDBRANCH   9  10
ENDBRANCH   7   9
BRANCH   7  13
ATOM     13  C   UNL A   1      32.421  21.082  25.381  1.00  0.00     0.299 C 
BRANCH  13  14
ATOM     14  C   UNL A   1      32.554  19.777  24.617  1.00  0.00     0.010 A 
ATOM     15  C   UNL A   1      32.459  19.707  23.221  1.00  0.00     0.048 A 
ATOM     16  C   UNL A   1      32.765  18.575  25.320  1.00  0.00     0.025 A 
ATOM     17  C   UNL A   1      32.467  18.474  22.570  1.00  0.00     0.124 A 
ATOM     18  C   UNL A   1      32.785  17.347  24.651  1.00  0.00     0.021 A 
ATOM     19  F   UNL A   1      32.293  18.432  21.243  1.00  0.00    -0.207 F 
ATOM     20  C   UNL A   1      32.619  17.288  23.273  1.00  0.00     0.055 A 
ATOM     21  Br  UNL A   1      32.997  15.746  25.636  1.00  0.00    -0.051 Br
ENDBRANCH  13  14
ENDBRANCH   7  13
ENDBRANCH   6   7
ENDBRANCH   3   6
ENDBRANCH   1   2
BRANCH   1  22
ATOM     22  C   UNL A   1      37.632  19.461  24.727  1.00  0.00     0.042 C 
BRANCH  22  23
ATOM     23  C   UNL A   1      38.677  20.079  25.646  1.00  0.00     0.118 C 
BRANCH  23  24
ATOM     24  N   UNL A   1      39.854  19.239  25.768  1.00  0.00    -0.352 N 
ATOM     25  C   UNL A   1      41.151  19.578  26.070  1.00  0.00     0.251 C 
ATOM     26  H   UNL A   1      39.700  18.280  25.609  1.00  0.00     0.163 HD
ATOM     27  O   UNL A   1      42.044  18.761  25.865  1.00  0.00    -0.269 OA
BRANCH  25  28
ATOM     28  C   UNL A   1      41.497  20.915  26.618  1.00  0.00     0.039 A 
ATOM     29  C   UNL A   1      41.934  21.906  25.731  1.00  0.00     0.014 A 
ATOM     30  C   UNL A   1      41.474  21.184  27.989  1.00  0.00     0.014 A 
ATOM     31  C   UNL A   1      42.293  23.170  26.210  1.00  0.00     0.010 A 
ATOM     32  C   UNL A   1      41.764  22.467  28.459  1.00  0.00     0.010 A 
ATOM     33  C   UNL A   1      42.185  23.472  27.576  1.00  0.00    -0.014 A 
BRANCH  33  34
ATOM     34  C   UNL A   1      42.515  24.828  28.093  1.00  0.00     0.031 A 
ATOM     35  C   UNL A   1      43.922  25.170  28.504  1.00  0.00     0.074 A 
ATOM     36  C   UNL A   1      41.537  25.744  28.238  1.00  0.00     0.049 A 
ATOM     37  N   UNL A   1      44.386  26.277  29.028  1.00  0.00    -0.248 NA
ATOM     38  C   UNL A   1      44.939  24.124  28.319  1.00  0.00     0.031 C 
ATOM     39  C   UNL A   1      40.126  25.533  27.912  1.00  0.00     0.029 A 
ATOM     40  N   UNL A   1      41.580  27.033  28.710  1.00  0.00    -0.354 N 
ATOM     41  C   UNL A   1      45.740  26.057  29.247  1.00  0.00     0.074 A 
ATOM     42  C   UNL A   1      46.016  24.695  28.839  1.00  0.00     0.031 C 
ATOM     43  C   UNL A   1      39.441  26.656  28.175  1.00  0.00     0.029 A 
ATOM     44  C   UNL A   1      40.354  27.654  28.727  1.00  0.00     0.049 A 
ATOM     45  H   UNL A   1      42.410  27.471  29.008  1.00  0.00     0.167 HD
ATOM     46  C   UNL A   1      46.674  26.915  29.724  1.00  0.00     0.037 A 
ATOM     47  C   UNL A   1      40.000  28.882  29.152  1.00  0.00     0.037 A 
ATOM     48  C   UNL A   1      46.407  28.276  30.112  1.00  0.00     0.049 A 
ATOM     49  C   UNL A   1      41.050  29.806  29.702  1.00  0.00     0.074 A 
ATOM     50  C   UNL A   1      47.301  29.239  30.549  1.00  0.00     0.029 A 
ATOM     51  N   UNL A   1      45.152  28.865  30.117  1.00  0.00    -0.354 N 
ATOM     52  N   UNL A   1      42.338  29.605  29.840  1.00  0.00    -0.248 NA
ATOM     53  C   UNL A   1      40.597  31.130  30.154  1.00  0.00     0.031 C 
ATOM     54  C   UNL A   1      46.580  30.396  30.863  1.00  0.00     0.029 A 
ATOM     55  C   UNL A   1      45.244  30.169  30.576  1.00  0.00     0.049 A 
ATOM     56  H   UNL A   1      44.319  28.422  29.835  1.00  0.00     0.167 HD
ATOM     57  C   UNL A   1      42.852  30.780  30.375  1.00  0.00     0.074 A 
ATOM     58  C   UNL A   1      41.739  31.696  30.519  1.00  0.00     0.031 C 
ATOM     59  C   UNL A   1      44.130  31.072  30.717  1.00  0.00     0.037 A 
BRANCH  46  60
ATOM     60  C   UNL A   1      48.081  26.406  29.855  1.00  0.00     0.057 A 
ATOM     61  C   UNL A   1      48.532  25.775  31.020  1.00  0.00     0.134 A 
ATOM     62  C   UNL A   1      48.982  26.511  28.787  1.00  0.00     0.134 A 
ATOM     63  F   UNL A   1      47.722  25.650  32.083  1.00  0.00    -0.206 F 
ATOM     64  C   UNL A   1      49.837  25.290  31.130  1.00  0.00     0.040 A 
ATOM     65  C   UNL A   1      50.281  26.006  28.875  1.00  0.00     0.040 A 
ATOM     66  F   UNL A   1      48.612  27.096  27.638  1.00  0.00    -0.206 F 
ATOM     67  C   UNL A   1      50.714  25.399  30.052  1.00  0.00     0.006 A 
ENDBRANCH  46  60
BRANCH  47  68
ATOM     68  C   UNL A   1      38.583  29.317  29.066  1.00  0.00     0.057 A 
ATOM     69  C   UNL A   1      37.752  29.297  30.191  1.00  0.00     0.134 A 
ATOM     70  C   UNL A   1      38.024  29.752  27.858  1.00  0.00     0.134 A 
ATOM     71  F   UNL A   1      38.224  28.869  31.371  1.00  0.00    -0.206 F 
ATOM     72  C   UNL A   1      36.411  29.678  30.117  1.00  0.00     0.040 A 
ATOM     73  C   UNL A   1      36.692  30.160  27.774  1.00  0.00     0.040 A 
ATOM     74  F   UNL A   1      38.769  29.797  26.744  1.00  0.00    -0.206 F 
ATOM     75  C   UNL A   1      35.879  30.117  28.905  1.00  0.00     0.006 A 
ENDBRANCH  47  68
BRANCH  59  76
ATOM     76  C   UNL A   1      44.399  32.445  31.261  1.00  0.00     0.057 A 
ATOM     77  C   UNL A   1      44.382  32.709  32.636  1.00  0.00     0.134 A 
ATOM     78  C   UNL A   1      44.714  33.505  30.401  1.00  0.00     0.134 A 
ATOM     79  F   UNL A   1      44.072  31.740  33.511  1.00  0.00    -0.206 F 
ATOM     80  C   UNL A   1      44.650  33.985  33.135  1.00  0.00     0.040 A 
ATOM     81  C   UNL A   1      45.009  34.778  30.891  1.00  0.00     0.040 A 
ATOM     82  F   UNL A   1      44.755  33.317  29.073  1.00  0.00    -0.206 F 
ATOM     83  C   UNL A   1      44.971  35.021  32.262  1.00  0.00     0.006 A 
ENDBRANCH  59  76
ENDBRANCH  33  34
ENDBRANCH  25  28
ENDBRANCH  23  24
ENDBRANCH  22  23
ENDBRANCH   1  22
TORSDOF 16
ENDMDL
MODEL 3
REMARK VINA RESULT:     -10.4      1.511      6.408
REMARK SMILES COCC[N@@H+](CC(=O)NCCCNC(=O)c1ccc(-c2c3nc(c(-c4c(F)cccc4F)c4ccc([nH]4)c(-c4c(F)cccc4F)c4nc(c(-c5c(F)cccc5F)c5ccc2[nH]5)C=C4)C=C3)cc1)Cc1cc(F)cc(Br)c1
REMARK SMILES IDX 10 1 9 2 7 3 8 4 6 6 5 7 4 9 3 10 2 11 1 12 70 13 71 14
REMARK SMILES IDX 72 15 78 16 73 17 76 18 74 19 75 20 77 21 11 22 12 23 13 24
REMARK SMILES IDX 14 25 15 27 16 28 17 29 69 30 18 31 68 32 19 33 20 34 21 35
REMARK SMILES IDX 62 36 22 37 67 38 61 39 63 40 23 41 66 42 60 43 59 44 24 46
REMARK SMILES IDX 50 47 33 48 49 49 34 50 37 51 48 52 64 53 35 54 36 55 47 57
REMARK SMILES IDX 65 58 38 59 25 60 26 61 31 62 27 63 28 64 30 65 32 66 29 67
REMARK SMILES IDX 51 68 52 69 57 70 53 71 54 72 56 73 58 74 55 75 39 76 40 77
REMARK SMILES IDX 45 78 41 79 42 80 44 81 46 82 43 83
REMARK H PARENT 9 5 5 8 13 26 63 45 37 56
REMARK Flexibility Score: inf
ROOT
ATOM      1  C   UNL A   1      36.399  20.032  24.994  1.00  0.00     0.118 C 
ENDROOT
BRANCH   1   2
ATOM      2  N   UNL A   1      36.583  21.464  25.153  1.00  0.00    -0.351 N 
ATOM      3  C   UNL A   1      35.857  22.393  25.836  1.00  0.00     0.275 C 
ATOM      4  O   UNL A   1      36.440  23.443  26.133  1.00  0.00    -0.269 OA
ATOM      5  H   UNL A   1      37.371  21.827  24.687  1.00  0.00     0.163 HD
BRANCH   3   6
ATOM      6  C   UNL A   1      34.407  22.170  26.270  1.00  0.00     0.363 C 
BRANCH   6   7
ATOM      7  N   UNL A   1      33.388  22.116  25.198  1.00  0.00    -0.322 N 
ATOM      8  H   UNL A   1      33.885  21.797  24.367  1.00  0.00     0.348 HD
BRANCH   7   9
ATOM      9  C   UNL A   1      32.904  23.433  24.796  1.00  0.00     0.291 C 
BRANCH   9  10
ATOM     10  C   UNL A   1      32.732  24.521  25.869  1.00  0.00     0.221 C 
BRANCH  10  11
ATOM     11  O   UNL A   1      33.697  25.560  25.719  1.00  0.00    -0.379 OA
ATOM     12  C   UNL A   1      33.261  26.836  26.159  1.00  0.00     0.195 C 
ENDBRANCH  10  11
ENDBRANCH   9  10
ENDBRANCH   7   9
BRANCH   7  13
ATOM     13  C   UNL A   1      32.403  21.028  25.301  1.00  0.00     0.299 C 
BRANCH  13  14
ATOM     14  C   UNL A   1      32.635  19.763  24.495  1.00  0.00     0.010 A 
ATOM     15  C   UNL A   1      32.407  19.697  23.114  1.00  0.00     0.048 A 
ATOM     16  C   UNL A   1      33.083  18.595  25.141  1.00  0.00     0.025 A 
ATOM     17  C   UNL A   1      32.518  18.484  22.435  1.00  0.00     0.124 A 
ATOM     18  C   UNL A   1      33.202  17.390  24.443  1.00  0.00     0.021 A 
ATOM     19  F   UNL A   1      32.215  18.434  21.131  1.00  0.00    -0.207 F 
ATOM     20  C   UNL A   1      32.905  17.324  23.088  1.00  0.00     0.055 A 
ATOM     21  Br  UNL A   1      33.735  15.823  25.359  1.00  0.00    -0.051 Br
ENDBRANCH  13  14
ENDBRANCH   7  13
ENDBRANCH   6   7
ENDBRANCH   3   6
ENDBRANCH   1   2
BRANCH   1  22
ATOM     22  C   UNL A   1      37.699  19.222  24.957  1.00  0.00     0.042 C 
BRANCH  22  23
ATOM     23  C   UNL A   1      38.905  19.887  25.607  1.00  0.00     0.118 C 
BRANCH  23  24
ATOM     24  N   UNL A   1      39.997  18.953  25.802  1.00  0.00    -0.352 N 
ATOM     25  C   UNL A   1      41.324  19.191  26.071  1.00  0.00     0.251 C 
ATOM     26  H   UNL A   1      39.751  18.002  25.730  1.00  0.00     0.163 HD
ATOM     27  O   UNL A   1      42.133  18.278  25.939  1.00  0.00    -0.269 OA
BRANCH  25  28
ATOM     28  C   UNL A   1      41.801  20.533  26.496  1.00  0.00     0.039 A 
ATOM     29  C   UNL A   1      42.215  21.436  25.510  1.00  0.00     0.014 A 
ATOM     30  C   UNL A   1      41.920  20.885  27.843  1.00  0.00     0.014 A 
ATOM     31  C   UNL A   1      42.694  22.700  25.870  1.00  0.00     0.010 A 
ATOM     32  C   UNL A   1      42.331  22.172  28.199  1.00  0.00     0.010 A 
ATOM     33  C   UNL A   1      42.731  23.091  27.218  1.00  0.00    -0.014 A 
BRANCH  33  34
ATOM     34  C   UNL A   1      43.190  24.451  27.612  1.00  0.00     0.031 A 
ATOM     35  C   UNL A   1      42.198  25.503  28.029  1.00  0.00     0.074 A 
ATOM     36  C   UNL A   1      44.500  24.758  27.550  1.00  0.00     0.049 A 
ATOM     37  N   UNL A   1      42.405  26.755  28.350  1.00  0.00    -0.248 NA
ATOM     38  C   UNL A   1      40.784  25.100  28.074  1.00  0.00     0.031 C 
ATOM     39  C   UNL A   1      45.563  23.845  27.129  1.00  0.00     0.029 A 
ATOM     40  N   UNL A   1      45.160  25.929  27.829  1.00  0.00    -0.354 N 
ATOM     41  C   UNL A   1      41.152  27.291  28.622  1.00  0.00     0.074 A 
ATOM     42  C   UNL A   1      40.185  26.240  28.386  1.00  0.00     0.031 C 
ATOM     43  C   UNL A   1      46.743  24.482  27.195  1.00  0.00     0.029 A 
ATOM     44  C   UNL A   1      46.517  25.860  27.623  1.00  0.00     0.049 A 
ATOM     45  H   UNL A   1      44.705  26.742  28.148  1.00  0.00     0.167 HD
ATOM     46  C   UNL A   1      40.836  28.538  29.048  1.00  0.00     0.037 A 
ATOM     47  C   UNL A   1      47.471  26.802  27.749  1.00  0.00     0.037 A 
ATOM     48  C   UNL A   1      41.797  29.580  29.303  1.00  0.00     0.049 A 
ATOM     49  C   UNL A   1      47.092  28.185  28.198  1.00  0.00     0.074 A 
ATOM     50  C   UNL A   1      41.575  30.856  29.794  1.00  0.00     0.029 A 
ATOM     51  N   UNL A   1      43.160  29.470  29.078  1.00  0.00    -0.354 N 
ATOM     52  N   UNL A   1      45.910  28.656  28.514  1.00  0.00    -0.248 NA
ATOM     53  C   UNL A   1      48.180  29.168  28.310  1.00  0.00     0.031 C 
ATOM     54  C   UNL A   1      42.799  31.533  29.824  1.00  0.00     0.029 A 
ATOM     55  C   UNL A   1      43.789  30.664  29.395  1.00  0.00     0.049 A 
ATOM     56  H   UNL A   1      43.614  28.664  28.743  1.00  0.00     0.167 HD
ATOM     57  C   UNL A   1      46.114  29.981  28.881  1.00  0.00     0.074 A 
ATOM     58  C   UNL A   1      47.535  30.234  28.764  1.00  0.00     0.031 C 
ATOM     59  C   UNL A   1      45.204  30.905  29.275  1.00  0.00     0.037 A 
BRANCH  46  60
ATOM     60  C   UNL A   1      39.382  28.848  29.268  1.00  0.00     0.057 A 
ATOM     61  C   UNL A   1      38.768  28.660  30.512  1.00  0.00     0.134 A 
ATOM     62  C   UNL A   1      38.600  29.379  28.234  1.00  0.00     0.134 A 
ATOM     63  F   UNL A   1      39.459  28.147  31.541  1.00  0.00    -0.206 F 
ATOM     64  C   UNL A   1      37.420  28.965  30.715  1.00  0.00     0.040 A 
ATOM     65  C   UNL A   1      37.258  29.712  28.432  1.00  0.00     0.040 A 
ATOM     66  F   UNL A   1      39.128  29.592  27.020  1.00  0.00    -0.206 F 
ATOM     67  C   UNL A   1      36.663  29.500  29.673  1.00  0.00     0.006 A 
ENDBRANCH  46  60
BRANCH  47  68
ATOM     68  C   UNL A   1      48.887  26.467  27.455  1.00  0.00     0.057 A 
ATOM     69  C   UNL A   1      49.407  26.598  26.162  1.00  0.00     0.134 A 
ATOM     70  C   UNL A   1      49.751  26.000  28.453  1.00  0.00     0.134 A 
ATOM     71  F   UNL A   1      48.622  27.019  25.159  1.00  0.00    -0.206 F 
ATOM     72  C   UNL A   1      50.729  26.261  25.867  1.00  0.00     0.040 A 
ATOM     73  C   UNL A   1      51.082  25.684  28.178  1.00  0.00     0.040 A 
ATOM     74  F   UNL A   1      49.315  25.856  29.713  1.00  0.00    -0.206 F 
ATOM     75  C   UNL A   1      51.573  25.807  26.879  1.00  0.00     0.006 A 
ENDBRANCH  47  68
BRANCH  59  76
ATOM     76  C   UNL A   1      45.721  32.268  29.631  1.00  0.00     0.057 A 
ATOM     77  C   UNL A   1      45.787  33.301  28.688  1.00  0.00     0.134 A 
ATOM     78  C   UNL A   1      46.120  32.561  30.942  1.00  0.00     0.134 A 
ATOM     79  F   UNL A   1      45.433  33.081  27.412  1.00  0.00    -0.206 F 
ATOM     80  C   UNL A   1      46.252  34.572  29.031  1.00  0.00     0.040 A 
ATOM     81  C   UNL A   1      46.562  33.835  31.301  1.00  0.00     0.040 A 
ATOM     82  F   UNL A   1      46.073  31.619  31.895  1.00  0.00    -0.206 F 
ATOM     83  C   UNL A   1      46.635  34.842  30.343  1.00  0.00     0.006 A 
ENDBRANCH  59  76
ENDBRANCH  33  34
ENDBRANCH  25  28
ENDBRANCH  23  24
ENDBRANCH  22  23
ENDBRANCH   1  22
TORSDOF 16
ENDMDL
