MODEL 1
REMARK VINA RESULT:     -11.2      0.000      0.000
REMARK SMILES CCN(CC)S(=O)(=O)c1ccc(F)c(C(=O)N2CCC[C@H]2C(=O)NCCCNC(=O)c2ccc(-c3c4nc(c(-c5c(F)cccc5F)c5ccc([nH]5)c(-c5c(F)cccc5F)c5nc(c(-c6c(F)cccc6F)c6ccc3[nH]6)C=C5)C=C4)cc2)c1
REMARK SMILES IDX 22 1 23 2 24 3 21 5 17 6 18 7 19 8 20 9 15 10 16 11 14 12
REMARK SMILES IDX 9 13 10 14 85 15 11 16 12 17 13 18 6 19 7 20 8 21 3 22 2 23
REMARK SMILES IDX 1 24 4 25 5 26 25 27 26 28 27 29 28 30 29 31 30 33 31 34
REMARK SMILES IDX 32 35 84 36 33 37 83 38 34 39 35 40 36 41 77 42 37 43 82 44
REMARK SMILES IDX 76 45 78 46 38 47 81 48 75 49 74 50 39 52 65 53 48 54 64 55
REMARK SMILES IDX 49 56 52 57 63 58 79 59 50 60 51 61 62 63 80 64 53 65 40 66
REMARK SMILES IDX 41 67 46 68 42 69 43 70 45 71 47 72 44 73 66 74 67 75 72 76
REMARK SMILES IDX 68 77 69 78 71 79 73 80 70 81 54 82 55 83 60 84 56 85 57 86
REMARK SMILES IDX 59 87 61 88 58 89
REMARK H PARENT 24 4 28 32 78 51 52 62
REMARK Flexibility Score: inf
ROOT
ATOM      1  C   UNL A   1      35.418  21.921  24.301  1.00  0.00     0.242 C 
ATOM      2  O   UNL A   1      34.789  22.609  23.492  1.00  0.00    -0.273 OA
ATOM      3  N   UNL A   1      36.780  21.978  24.219  1.00  0.00    -0.354 N 
ATOM      4  H   UNL A   1      37.140  22.380  23.395  1.00  0.00     0.163 HD
ENDROOT
BRANCH   1   5
ATOM      5  C   UNL A   1      34.728  21.007  25.352  1.00  0.00     0.174 C 
ATOM      6  N   UNL A   1      33.449  21.503  25.875  1.00  0.00    -0.327 N 
ATOM      7  C   UNL A   1      32.345  20.926  25.150  1.00  0.00     0.121 C 
ATOM      8  C   UNL A   1      32.824  19.514  24.886  1.00  0.00     0.024 C 
ATOM      9  C   UNL A   1      34.335  19.663  24.686  1.00  0.00     0.037 C 
BRANCH   6  10
ATOM     10  C   UNL A   1      33.283  22.572  26.718  1.00  0.00     0.257 C 
ATOM     11  O   UNL A   1      33.846  22.637  27.805  1.00  0.00    -0.269 OA
BRANCH  10  12
ATOM     12  C   UNL A   1      32.391  23.691  26.291  1.00  0.00     0.077 A 
ATOM     13  C   UNL A   1      32.103  25.716  24.967  1.00  0.00     0.083 A 
ATOM     14  C   UNL A   1      30.738  25.732  25.268  1.00  0.00     0.025 A 
ATOM     15  C   UNL A   1      32.928  24.693  25.457  1.00  0.00     0.038 A 
ATOM     16  C   UNL A   1      30.213  24.764  26.120  1.00  0.00     0.041 A 
ATOM     17  C   UNL A   1      31.037  23.763  26.635  1.00  0.00     0.136 A 
ATOM     18  F   UNL A   1      30.461  22.864  27.441  1.00  0.00    -0.206 F 
BRANCH  13  19
ATOM     19  S   UNL A   1      32.750  26.937  23.835  1.00  0.00     0.243 S 
ATOM     20  O   UNL A   1      32.556  26.438  22.493  1.00  0.00    -0.207 OA
ATOM     21  O   UNL A   1      34.078  27.273  24.308  1.00  0.00    -0.207 OA
BRANCH  19  22
ATOM     22  N   UNL A   1      31.735  28.305  24.041  1.00  0.00    -0.198 NA
BRANCH  22  23
ATOM     23  C   UNL A   1      32.359  29.439  24.805  1.00  0.00     0.099 C 
ATOM     24  C   UNL A   1      31.831  29.585  26.219  1.00  0.00     0.022 C 
ENDBRANCH  22  23
BRANCH  22  25
ATOM     25  C   UNL A   1      30.989  28.809  22.848  1.00  0.00     0.099 C 
ATOM     26  C   UNL A   1      29.475  28.765  22.979  1.00  0.00     0.022 C 
ENDBRANCH  22  25
ENDBRANCH  19  22
ENDBRANCH  13  19
ENDBRANCH  10  12
ENDBRANCH   6  10
ENDBRANCH   1   5
BRANCH   3  27
ATOM     27  C   UNL A   1      37.764  21.528  25.180  1.00  0.00     0.117 C 
BRANCH  27  28
ATOM     28  C   UNL A   1      38.371  20.180  24.839  1.00  0.00     0.042 C 
BRANCH  28  29
ATOM     29  C   UNL A   1      38.960  19.442  26.034  1.00  0.00     0.118 C 
BRANCH  29  30
ATOM     30  N   UNL A   1      40.290  18.893  25.790  1.00  0.00    -0.352 N 
ATOM     31  C   UNL A   1      41.535  19.456  25.944  1.00  0.00     0.251 C 
ATOM     32  H   UNL A   1      40.297  17.966  25.459  1.00  0.00     0.163 HD
ATOM     33  O   UNL A   1      42.537  18.853  25.573  1.00  0.00    -0.269 OA
BRANCH  31  34
ATOM     34  C   UNL A   1      41.673  20.810  26.520  1.00  0.00     0.039 A 
ATOM     35  C   UNL A   1      41.706  20.954  27.909  1.00  0.00     0.014 A 
ATOM     36  C   UNL A   1      41.790  21.931  25.698  1.00  0.00     0.014 A 
ATOM     37  C   UNL A   1      41.960  22.208  28.469  1.00  0.00     0.010 A 
ATOM     38  C   UNL A   1      42.148  23.155  26.250  1.00  0.00     0.010 A 
ATOM     39  C   UNL A   1      42.242  23.307  27.642  1.00  0.00    -0.014 A 
BRANCH  39  40
ATOM     40  C   UNL A   1      42.644  24.623  28.198  1.00  0.00     0.031 A 
ATOM     41  C   UNL A   1      41.612  25.694  28.411  1.00  0.00     0.074 A 
ATOM     42  C   UNL A   1      43.947  24.884  28.425  1.00  0.00     0.049 A 
ATOM     43  N   UNL A   1      41.779  26.945  28.755  1.00  0.00    -0.248 NA
ATOM     44  C   UNL A   1      40.207  25.319  28.177  1.00  0.00     0.031 C 
ATOM     45  C   UNL A   1      45.050  23.942  28.217  1.00  0.00     0.029 A 
ATOM     46  N   UNL A   1      44.568  26.026  28.869  1.00  0.00    -0.354 N 
ATOM     47  C   UNL A   1      40.510  27.508  28.755  1.00  0.00     0.074 A 
ATOM     48  C   UNL A   1      39.588  26.481  28.326  1.00  0.00     0.031 C 
ATOM     49  C   UNL A   1      46.204  24.534  28.562  1.00  0.00     0.029 A 
ATOM     50  C   UNL A   1      45.933  25.909  28.968  1.00  0.00     0.049 A 
ATOM     51  H   UNL A   1      44.079  26.851  29.095  1.00  0.00     0.167 HD
ATOM     52  C   UNL A   1      40.143  28.763  29.107  1.00  0.00     0.037 A 
ATOM     53  C   UNL A   1      46.863  26.811  29.335  1.00  0.00     0.037 A 
ATOM     54  C   UNL A   1      41.057  29.770  29.575  1.00  0.00     0.049 A 
ATOM     55  C   UNL A   1      46.432  28.199  29.715  1.00  0.00     0.074 A 
ATOM     56  C   UNL A   1      40.772  31.050  30.015  1.00  0.00     0.029 A 
ATOM     57  N   UNL A   1      42.430  29.606  29.673  1.00  0.00    -0.354 N 
ATOM     58  N   UNL A   1      45.223  28.705  29.749  1.00  0.00    -0.248 NA
ATOM     59  C   UNL A   1      47.490  29.143  30.104  1.00  0.00     0.031 C 
ATOM     60  C   UNL A   1      41.978  31.676  30.341  1.00  0.00     0.029 A 
ATOM     61  C   UNL A   1      43.009  30.769  30.148  1.00  0.00     0.049 A 
ATOM     62  H   UNL A   1      42.920  28.785  29.438  1.00  0.00     0.167 HD
ATOM     63  C   UNL A   1      45.371  30.016  30.184  1.00  0.00     0.074 A 
ATOM     64  C   UNL A   1      46.786  30.226  30.410  1.00  0.00     0.031 C 
ATOM     65  C   UNL A   1      44.418  30.959  30.377  1.00  0.00     0.037 A 
BRANCH  52  66
ATOM     66  C   UNL A   1      38.687  29.115  29.022  1.00  0.00     0.057 A 
ATOM     67  C   UNL A   1      38.132  29.582  27.824  1.00  0.00     0.134 A 
ATOM     68  C   UNL A   1      37.848  29.049  30.142  1.00  0.00     0.134 A 
ATOM     69  F   UNL A   1      38.881  29.675  26.716  1.00  0.00    -0.206 F 
ATOM     70  C   UNL A   1      36.797  29.982  27.747  1.00  0.00     0.040 A 
ATOM     71  C   UNL A   1      36.506  29.421  30.071  1.00  0.00     0.040 A 
ATOM     72  F   UNL A   1      38.317  28.597  31.316  1.00  0.00    -0.206 F 
ATOM     73  C   UNL A   1      35.979  29.898  28.872  1.00  0.00     0.006 A 
ENDBRANCH  52  66
BRANCH  53  74
ATOM     74  C   UNL A   1      48.292  26.414  29.389  1.00  0.00     0.057 A 
ATOM     75  C   UNL A   1      48.869  25.893  30.554  1.00  0.00     0.134 A 
ATOM     76  C   UNL A   1      49.125  26.577  28.276  1.00  0.00     0.134 A 
ATOM     77  F   UNL A   1      48.127  25.722  31.658  1.00  0.00    -0.206 F 
ATOM     78  C   UNL A   1      50.224  25.562  30.615  1.00  0.00     0.040 A 
ATOM     79  C   UNL A   1      50.477  26.230  28.315  1.00  0.00     0.040 A 
ATOM     80  F   UNL A   1      48.627  27.054  27.127  1.00  0.00    -0.206 F 
ATOM     81  C   UNL A   1      51.031  25.727  29.491  1.00  0.00     0.006 A 
ENDBRANCH  53  74
BRANCH  65  82
ATOM     82  C   UNL A   1      44.856  32.301  30.879  1.00  0.00     0.057 A 
ATOM     83  C   UNL A   1      44.892  32.570  32.254  1.00  0.00     0.134 A 
ATOM     84  C   UNL A   1      45.145  33.354  30.004  1.00  0.00     0.134 A 
ATOM     85  F   UNL A   1      44.614  31.606  33.144  1.00  0.00    -0.206 F 
ATOM     86  C   UNL A   1      45.179  33.846  32.739  1.00  0.00     0.040 A 
ATOM     87  C   UNL A   1      45.456  34.629  30.478  1.00  0.00     0.040 A 
ATOM     88  F   UNL A   1      45.137  33.157  28.676  1.00  0.00    -0.206 F 
ATOM     89  C   UNL A   1      45.462  34.880  31.850  1.00  0.00     0.006 A 
ENDBRANCH  65  82
ENDBRANCH  39  40
ENDBRANCH  31  34
ENDBRANCH  29  30
ENDBRANCH  28  29
ENDBRANCH  27  28
ENDBRANCH   3  27
TORSDOF 16
ENDMDL
MODEL 2
REMARK VINA RESULT:     -11.0      0.410      6.184
REMARK SMILES CCN(CC)S(=O)(=O)c1ccc(F)c(C(=O)N2CCC[C@H]2C(=O)NCCCNC(=O)c2ccc(-c3c4nc(c(-c5c(F)cccc5F)c5ccc([nH]5)c(-c5c(F)cccc5F)c5nc(c(-c6c(F)cccc6F)c6ccc3[nH]6)C=C5)C=C4)cc2)c1
REMARK SMILES IDX 22 1 23 2 24 3 21 5 17 6 18 7 19 8 20 9 15 10 16 11 14 12
REMARK SMILES IDX 9 13 10 14 85 15 11 16 12 17 13 18 6 19 7 20 8 21 3 22 2 23
REMARK SMILES IDX 1 24 4 25 5 26 25 27 26 28 27 29 28 30 29 31 30 33 31 34
REMARK SMILES IDX 32 35 84 36 33 37 83 38 34 39 35 40 36 41 77 42 37 43 82 44
REMARK SMILES IDX 76 45 78 46 38 47 81 48 75 49 74 50 39 52 65 53 48 54 64 55
REMARK SMILES IDX 49 56 52 57 63 58 79 59 50 60 51 61 62 63 80 64 53 65 40 66
REMARK SMILES IDX 41 67 46 68 42 69 43 70 45 71 47 72 44 73 66 74 67 75 72 76
REMARK SMILES IDX 68 77 69 78 71 79 73 80 70 81 54 82 55 83 60 84 56 85 57 86
REMARK SMILES IDX 59 87 61 88 58 89
REMARK H PARENT 24 4 28 32 78 51 52 62
REMARK Flexibility Score: inf
ROOT
ATOM      1  C   UNL A   1      35.160  22.045  24.229  1.00  0.00     0.242 C 
ATOM      2  O   UNL A   1      34.476  22.588  23.357  1.00  0.00    -0.273 OA
ATOM      3  N   UNL A   1      36.499  22.312  24.205  1.00  0.00    -0.354 N 
ATOM      4  H   UNL A   1      36.835  22.727  23.379  1.00  0.00     0.163 HD
ENDROOT
BRANCH   1   5
ATOM      5  C   UNL A   1      34.565  21.081  25.295  1.00  0.00     0.174 C 
ATOM      6  N   UNL A   1      33.280  21.495  25.870  1.00  0.00    -0.327 N 
ATOM      7  C   UNL A   1      32.186  20.858  25.179  1.00  0.00     0.121 C 
ATOM      8  C   UNL A   1      32.739  19.480  24.882  1.00  0.00     0.024 C 
ATOM      9  C   UNL A   1      34.230  19.722  24.629  1.00  0.00     0.037 C 
BRANCH   6  10
ATOM     10  C   UNL A   1      33.081  22.544  26.729  1.00  0.00     0.257 C 
ATOM     11  O   UNL A   1      33.595  22.579  27.842  1.00  0.00    -0.269 OA
BRANCH  10  12
ATOM     12  C   UNL A   1      32.215  23.679  26.290  1.00  0.00     0.077 A 
ATOM     13  C   UNL A   1      31.978  25.702  24.952  1.00  0.00     0.083 A 
ATOM     14  C   UNL A   1      30.612  25.747  25.243  1.00  0.00     0.025 A 
ATOM     15  C   UNL A   1      32.778  24.665  25.454  1.00  0.00     0.038 A 
ATOM     16  C   UNL A   1      30.062  24.796  26.098  1.00  0.00     0.041 A 
ATOM     17  C   UNL A   1      30.861  23.781  26.624  1.00  0.00     0.136 A 
ATOM     18  F   UNL A   1      30.261  22.899  27.432  1.00  0.00    -0.206 F 
BRANCH  13  19
ATOM     19  S   UNL A   1      32.658  26.901  23.817  1.00  0.00     0.243 S 
ATOM     20  O   UNL A   1      32.323  26.478  22.477  1.00  0.00    -0.207 OA
ATOM     21  O   UNL A   1      34.042  27.093  24.202  1.00  0.00    -0.207 OA
BRANCH  19  22
ATOM     22  N   UNL A   1      31.796  28.349  24.144  1.00  0.00    -0.198 NA
BRANCH  22  23
ATOM     23  C   UNL A   1      32.591  29.404  24.859  1.00  0.00     0.099 C 
ATOM     24  C   UNL A   1      31.765  30.252  25.807  1.00  0.00     0.022 C 
ENDBRANCH  22  23
BRANCH  22  25
ATOM     25  C   UNL A   1      30.985  28.945  23.039  1.00  0.00     0.099 C 
ATOM     26  C   UNL A   1      29.532  28.502  23.005  1.00  0.00     0.022 C 
ENDBRANCH  22  25
ENDBRANCH  19  22
ENDBRANCH  13  19
ENDBRANCH  10  12
ENDBRANCH   6  10
ENDBRANCH   1   5
BRANCH   3  27
ATOM     27  C   UNL A   1      37.489  22.065  25.232  1.00  0.00     0.117 C 
BRANCH  27  28
ATOM     28  C   UNL A   1      38.342  20.839  24.969  1.00  0.00     0.042 C 
BRANCH  28  29
ATOM     29  C   UNL A   1      38.989  20.251  26.216  1.00  0.00     0.118 C 
BRANCH  29  30
ATOM     30  N   UNL A   1      40.116  19.368  25.934  1.00  0.00    -0.352 N 
ATOM     31  C   UNL A   1      41.471  19.594  26.003  1.00  0.00     0.251 C 
ATOM     32  H   UNL A   1      39.865  18.461  25.646  1.00  0.00     0.163 HD
ATOM     33  O   UNL A   1      42.261  18.739  25.613  1.00  0.00    -0.269 OA
BRANCH  31  34
ATOM     34  C   UNL A   1      41.987  20.882  26.509  1.00  0.00     0.039 A 
ATOM     35  C   UNL A   1      42.339  21.876  25.593  1.00  0.00     0.014 A 
ATOM     36  C   UNL A   1      42.105  21.121  27.879  1.00  0.00     0.014 A 
ATOM     37  C   UNL A   1      42.710  23.142  26.053  1.00  0.00     0.010 A 
ATOM     38  C   UNL A   1      42.370  22.407  28.333  1.00  0.00     0.010 A 
ATOM     39  C   UNL A   1      42.670  23.434  27.426  1.00  0.00    -0.014 A 
BRANCH  39  40
ATOM     40  C   UNL A   1      42.931  24.800  27.944  1.00  0.00     0.031 A 
ATOM     41  C   UNL A   1      44.321  25.195  28.356  1.00  0.00     0.074 A 
ATOM     42  C   UNL A   1      41.903  25.653  28.129  1.00  0.00     0.049 A 
ATOM     43  N   UNL A   1      44.728  26.284  28.954  1.00  0.00    -0.248 NA
ATOM     44  C   UNL A   1      45.394  24.222  28.087  1.00  0.00     0.031 C 
ATOM     45  C   UNL A   1      40.501  25.374  27.808  1.00  0.00     0.029 A 
ATOM     46  N   UNL A   1      41.877  26.926  28.643  1.00  0.00    -0.354 N 
ATOM     47  C   UNL A   1      46.091  26.117  29.154  1.00  0.00     0.074 A 
ATOM     48  C   UNL A   1      46.437  24.802  28.663  1.00  0.00     0.031 C 
ATOM     49  C   UNL A   1      39.759  26.453  28.105  1.00  0.00     0.029 A 
ATOM     50  C   UNL A   1      40.621  27.481  28.680  1.00  0.00     0.049 A 
ATOM     51  H   UNL A   1      42.684  27.396  28.957  1.00  0.00     0.167 HD
ATOM     52  C   UNL A   1      46.981  26.993  29.676  1.00  0.00     0.037 A 
ATOM     53  C   UNL A   1      40.207  28.679  29.135  1.00  0.00     0.037 A 
ATOM     54  C   UNL A   1      46.643  28.318  30.124  1.00  0.00     0.049 A 
ATOM     55  C   UNL A   1      41.213  29.632  29.716  1.00  0.00     0.074 A 
ATOM     56  C   UNL A   1      47.485  29.301  30.610  1.00  0.00     0.029 A 
ATOM     57  N   UNL A   1      45.360  28.845  30.132  1.00  0.00    -0.354 N 
ATOM     58  N   UNL A   1      42.506  29.476  29.861  1.00  0.00    -0.248 NA
ATOM     59  C   UNL A   1      40.705  30.924  30.201  1.00  0.00     0.031 C 
ATOM     60  C   UNL A   1      46.707  30.412  30.950  1.00  0.00     0.029 A 
ATOM     61  C   UNL A   1      45.386  30.134  30.632  1.00  0.00     0.049 A 
ATOM     62  H   UNL A   1      44.552  28.372  29.827  1.00  0.00     0.167 HD
ATOM     63  C   UNL A   1      42.970  30.656  30.430  1.00  0.00     0.074 A 
ATOM     64  C   UNL A   1      41.822  31.521  30.597  1.00  0.00     0.031 C 
ATOM     65  C   UNL A   1      44.235  30.987  30.782  1.00  0.00     0.037 A 
BRANCH  52  66
ATOM     66  C   UNL A   1      48.414  26.560  29.773  1.00  0.00     0.057 A 
ATOM     67  C   UNL A   1      48.890  25.907  30.917  1.00  0.00     0.134 A 
ATOM     68  C   UNL A   1      49.338  26.843  28.758  1.00  0.00     0.134 A 
ATOM     69  F   UNL A   1      48.059  25.611  31.928  1.00  0.00    -0.206 F 
ATOM     70  C   UNL A   1      50.235  25.562  31.052  1.00  0.00     0.040 A 
ATOM     71  C   UNL A   1      50.680  26.480  28.871  1.00  0.00     0.040 A 
ATOM     72  F   UNL A   1      48.943  27.456  27.631  1.00  0.00    -0.206 F 
ATOM     73  C   UNL A   1      51.134  25.845  30.026  1.00  0.00     0.006 A 
ENDBRANCH  52  66
BRANCH  53  74
ATOM     74  C   UNL A   1      38.775  29.053  29.028  1.00  0.00     0.057 A 
ATOM     75  C   UNL A   1      38.231  29.556  27.839  1.00  0.00     0.134 A 
ATOM     76  C   UNL A   1      37.920  28.941  30.130  1.00  0.00     0.134 A 
ATOM     77  F   UNL A   1      39.000  29.696  26.749  1.00  0.00    -0.206 F 
ATOM     78  C   UNL A   1      36.894  29.948  27.755  1.00  0.00     0.040 A 
ATOM     79  C   UNL A   1      36.575  29.309  30.054  1.00  0.00     0.040 A 
ATOM     80  F   UNL A   1      38.377  28.451  31.291  1.00  0.00    -0.206 F 
ATOM     81  C   UNL A   1      36.060  29.821  28.864  1.00  0.00     0.006 A 
ENDBRANCH  53  74
BRANCH  65  82
ATOM     82  C   UNL A   1      44.464  32.350  31.362  1.00  0.00     0.057 A 
ATOM     83  C   UNL A   1      44.792  33.431  30.533  1.00  0.00     0.134 A 
ATOM     84  C   UNL A   1      44.457  32.571  32.745  1.00  0.00     0.134 A 
ATOM     85  F   UNL A   1      44.826  33.281  29.201  1.00  0.00    -0.206 F 
ATOM     86  C   UNL A   1      45.126  34.678  31.060  1.00  0.00     0.040 A 
ATOM     87  C   UNL A   1      44.767  33.820  33.283  1.00  0.00     0.040 A 
ATOM     88  F   UNL A   1      44.140  31.578  33.590  1.00  0.00    -0.206 F 
ATOM     89  C   UNL A   1      45.115  34.875  32.439  1.00  0.00     0.006 A 
ENDBRANCH  65  82
ENDBRANCH  39  40
ENDBRANCH  31  34
ENDBRANCH  29  30
ENDBRANCH  28  29
ENDBRANCH  27  28
ENDBRANCH   3  27
TORSDOF 16
ENDMDL
MODEL 3
REMARK VINA RESULT:     -10.4      2.071      6.274
REMARK SMILES CCN(CC)S(=O)(=O)c1ccc(F)c(C(=O)N2CCC[C@H]2C(=O)NCCCNC(=O)c2ccc(-c3c4nc(c(-c5c(F)cccc5F)c5ccc([nH]5)c(-c5c(F)cccc5F)c5nc(c(-c6c(F)cccc6F)c6ccc3[nH]6)C=C5)C=C4)cc2)c1
REMARK SMILES IDX 22 1 23 2 24 3 21 5 17 6 18 7 19 8 20 9 15 10 16 11 14 12
REMARK SMILES IDX 9 13 10 14 85 15 11 16 12 17 13 18 6 19 7 20 8 21 3 22 2 23
REMARK SMILES IDX 1 24 4 25 5 26 25 27 26 28 27 29 28 30 29 31 30 33 31 34
REMARK SMILES IDX 32 35 84 36 33 37 83 38 34 39 35 40 36 41 77 42 37 43 82 44
REMARK SMILES IDX 76 45 78 46 38 47 81 48 75 49 74 50 39 52 65 53 48 54 64 55
REMARK SMILES IDX 49 56 52 57 63 58 79 59 50 60 51 61 62 63 80 64 53 65 40 66
REMARK SMILES IDX 41 67 46 68 42 69 43 70 45 71 47 72 44 73 66 74 67 75 72 76
REMARK SMILES IDX 68 77 69 78 71 79 73 80 70 81 54 82 55 83 60 84 56 85 57 86
REMARK SMILES IDX 59 87 61 88 58 89
REMARK H PARENT 24 4 28 32 78 51 52 62
REMARK Flexibility Score: inf
ROOT
ATOM      1  C   UNL A   1      35.057  20.828  25.437  1.00  0.00     0.242 C 
ATOM      2  O   UNL A   1      34.105  20.173  25.004  1.00  0.00    -0.273 OA
ATOM      3  N   UNL A   1      36.293  20.491  24.963  1.00  0.00    -0.354 N 
ATOM      4  H   UNL A   1      36.348  19.627  24.495  1.00  0.00     0.163 HD
ENDROOT
BRANCH   1   5
ATOM      5  C   UNL A   1      34.896  21.963  26.487  1.00  0.00     0.174 C 
ATOM      6  N   UNL A   1      34.331  23.218  25.977  1.00  0.00    -0.327 N 
ATOM      7  C   UNL A   1      32.908  23.266  26.210  1.00  0.00     0.121 C 
ATOM      8  C   UNL A   1      32.771  22.597  27.561  1.00  0.00     0.024 C 
ATOM      9  C   UNL A   1      33.867  21.527  27.562  1.00  0.00     0.037 C 
BRANCH   6  10
ATOM     10  C   UNL A   1      34.958  24.103  25.139  1.00  0.00     0.257 C 
ATOM     11  O   UNL A   1      36.157  24.344  25.226  1.00  0.00    -0.269 OA
BRANCH  10  12
ATOM     12  C   UNL A   1      34.152  24.788  24.085  1.00  0.00     0.077 A 
ATOM     13  C   UNL A   1      33.048  26.822  23.322  1.00  0.00     0.083 A 
ATOM     14  C   UNL A   1      32.805  26.236  22.077  1.00  0.00     0.025 A 
ATOM     15  C   UNL A   1      33.734  26.115  24.319  1.00  0.00     0.038 A 
ATOM     16  C   UNL A   1      33.184  24.915  21.856  1.00  0.00     0.041 A 
ATOM     17  C   UNL A   1      33.840  24.197  22.856  1.00  0.00     0.136 A 
ATOM     18  F   UNL A   1      34.180  22.936  22.569  1.00  0.00    -0.206 F 
BRANCH  13  19
ATOM     19  S   UNL A   1      32.597  28.532  23.573  1.00  0.00     0.243 S 
ATOM     20  O   UNL A   1      31.281  28.727  23.009  1.00  0.00    -0.207 OA
ATOM     21  O   UNL A   1      33.719  29.325  23.111  1.00  0.00    -0.207 OA
BRANCH  19  22
ATOM     22  N   UNL A   1      32.472  28.705  25.276  1.00  0.00    -0.198 NA
BRANCH  22  23
ATOM     23  C   UNL A   1      32.947  30.028  25.808  1.00  0.00     0.099 C 
ATOM     24  C   UNL A   1      31.845  30.869  26.423  1.00  0.00     0.022 C 
ENDBRANCH  22  23
BRANCH  22  25
ATOM     25  C   UNL A   1      31.192  28.293  25.929  1.00  0.00     0.099 C 
ATOM     26  C   UNL A   1      31.176  26.867  26.454  1.00  0.00     0.022 C 
ENDBRANCH  22  25
ENDBRANCH  19  22
ENDBRANCH  13  19
ENDBRANCH  10  12
ENDBRANCH   6  10
ENDBRANCH   1   5
BRANCH   3  27
ATOM     27  C   UNL A   1      37.531  21.236  25.056  1.00  0.00     0.117 C 
BRANCH  27  28
ATOM     28  C   UNL A   1      38.579  20.561  25.922  1.00  0.00     0.042 C 
BRANCH  28  29
ATOM     29  C   UNL A   1      39.478  19.591  25.168  1.00  0.00     0.118 C 
BRANCH  29  30
ATOM     30  N   UNL A   1      40.512  18.980  25.998  1.00  0.00    -0.352 N 
ATOM     31  C   UNL A   1      41.508  19.552  26.754  1.00  0.00     0.251 C 
ATOM     32  H   UNL A   1      40.494  17.996  26.018  1.00  0.00     0.163 HD
ATOM     33  O   UNL A   1      42.354  18.848  27.296  1.00  0.00    -0.269 OA
BRANCH  31  34
ATOM     34  C   UNL A   1      41.593  21.021  26.885  1.00  0.00     0.039 A 
ATOM     35  C   UNL A   1      41.304  21.608  28.120  1.00  0.00     0.014 A 
ATOM     36  C   UNL A   1      41.975  21.818  25.805  1.00  0.00     0.014 A 
ATOM     37  C   UNL A   1      41.498  22.979  28.296  1.00  0.00     0.010 A 
ATOM     38  C   UNL A   1      42.270  23.160  26.010  1.00  0.00     0.010 A 
ATOM     39  C   UNL A   1      42.040  23.756  27.259  1.00  0.00    -0.014 A 
BRANCH  39  40
ATOM     40  C   UNL A   1      42.383  25.188  27.449  1.00  0.00     0.031 A 
ATOM     41  C   UNL A   1      43.731  25.699  27.027  1.00  0.00     0.074 A 
ATOM     42  C   UNL A   1      41.517  26.005  28.080  1.00  0.00     0.049 A 
ATOM     43  N   UNL A   1      44.270  26.873  27.228  1.00  0.00    -0.248 NA
ATOM     44  C   UNL A   1      44.605  24.754  26.310  1.00  0.00     0.031 C 
ATOM     45  C   UNL A   1      40.193  25.620  28.576  1.00  0.00     0.029 A 
ATOM     46  N   UNL A   1      41.625  27.330  28.426  1.00  0.00    -0.354 N 
ATOM     47  C   UNL A   1      45.546  26.800  26.687  1.00  0.00     0.074 A 
ATOM     48  C   UNL A   1      45.724  25.453  26.196  1.00  0.00     0.031 C 
ATOM     49  C   UNL A   1      39.603  26.689  29.132  1.00  0.00     0.029 A 
ATOM     50  C   UNL A   1      40.521  27.823  29.078  1.00  0.00     0.049 A 
ATOM     51  H   UNL A   1      42.420  27.875  28.224  1.00  0.00     0.167 HD
ATOM     52  C   UNL A   1      46.477  27.778  26.586  1.00  0.00     0.037 A 
ATOM     53  C   UNL A   1      40.279  29.046  29.585  1.00  0.00     0.037 A 
ATOM     54  C   UNL A   1      46.280  29.130  27.036  1.00  0.00     0.049 A 
ATOM     55  C   UNL A   1      41.330  30.113  29.465  1.00  0.00     0.074 A 
ATOM     56  C   UNL A   1      47.140  30.207  26.920  1.00  0.00     0.029 A 
ATOM     57  N   UNL A   1      45.142  29.590  27.680  1.00  0.00    -0.354 N 
ATOM     58  N   UNL A   1      42.517  30.041  28.914  1.00  0.00    -0.248 NA
ATOM     59  C   UNL A   1      41.013  31.430  30.039  1.00  0.00     0.031 C 
ATOM     60  C   UNL A   1      46.539  31.311  27.530  1.00  0.00     0.029 A 
ATOM     61  C   UNL A   1      45.285  30.932  27.985  1.00  0.00     0.049 A 
ATOM     62  H   UNL A   1      44.350  29.043  27.889  1.00  0.00     0.167 HD
ATOM     63  C   UNL A   1      43.079  31.304  29.053  1.00  0.00     0.074 A 
ATOM     64  C   UNL A   1      42.100  32.126  29.733  1.00  0.00     0.031 C 
ATOM     65  C   UNL A   1      44.297  31.739  28.653  1.00  0.00     0.037 A 
BRANCH  52  66
ATOM     66  C   UNL A   1      47.787  27.431  25.942  1.00  0.00     0.057 A 
ATOM     67  C   UNL A   1      47.939  27.490  24.551  1.00  0.00     0.134 A 
ATOM     68  C   UNL A   1      48.880  26.981  26.694  1.00  0.00     0.134 A 
ATOM     69  F   UNL A   1      46.930  27.906  23.771  1.00  0.00    -0.206 F 
ATOM     70  C   UNL A   1      49.128  27.102  23.931  1.00  0.00     0.040 A 
ATOM     71  C   UNL A   1      50.081  26.615  26.088  1.00  0.00     0.040 A 
ATOM     72  F   UNL A   1      48.802  26.914  28.033  1.00  0.00    -0.206 F 
ATOM     73  C   UNL A   1      50.205  26.666  24.700  1.00  0.00     0.006 A 
ENDBRANCH  52  66
BRANCH  53  74
ATOM     74  C   UNL A   1      38.970  29.333  30.223  1.00  0.00     0.057 A 
ATOM     75  C   UNL A   1      37.869  29.778  29.481  1.00  0.00     0.134 A 
ATOM     76  C   UNL A   1      38.801  29.194  31.606  1.00  0.00     0.134 A 
ATOM     77  F   UNL A   1      37.968  29.940  28.154  1.00  0.00    -0.206 F 
ATOM     78  C   UNL A   1      36.652  30.089  30.092  1.00  0.00     0.040 A 
ATOM     79  C   UNL A   1      37.583  29.480  32.227  1.00  0.00     0.040 A 
ATOM     80  F   UNL A   1      39.812  28.756  32.368  1.00  0.00    -0.206 F 
ATOM     81  C   UNL A   1      36.506  29.936  31.469  1.00  0.00     0.006 A 
ENDBRANCH  53  74
BRANCH  65  82
ATOM     82  C   UNL A   1      44.645  33.174  28.911  1.00  0.00     0.057 A 
ATOM     83  C   UNL A   1      44.373  34.157  27.951  1.00  0.00     0.134 A 
ATOM     84  C   UNL A   1      45.338  33.565  30.063  1.00  0.00     0.134 A 
ATOM     85  F   UNL A   1      43.722  33.842  26.821  1.00  0.00    -0.206 F 
ATOM     86  C   UNL A   1      44.796  35.475  28.117  1.00  0.00     0.040 A 
ATOM     87  C   UNL A   1      45.746  34.886  30.252  1.00  0.00     0.040 A 
ATOM     88  F   UNL A   1      45.620  32.672  31.024  1.00  0.00    -0.206 F 
ATOM     89  C   UNL A   1      45.485  35.843  29.270  1.00  0.00     0.006 A 
ENDBRANCH  65  82
ENDBRANCH  39  40
ENDBRANCH  31  34
ENDBRANCH  29  30
ENDBRANCH  28  29
ENDBRANCH  27  28
ENDBRANCH   3  27
TORSDOF 16
ENDMDL
