MODEL 1
REMARK VINA RESULT:     -13.1      0.000      0.000
REMARK SMILES CS(=O)(=O)c1ccc(C(=O)N2C[C@@H](C(=O)NCCCNC(=O)c3ccc(-c4c5nc(c(-c6c(F)cccc6F)c6ccc([nH]6)c(-c6c(F)cccc6F)c6nc(c(-c7c(F)cccc7F)c7ccc4[nH]7)C=C6)C=C5)cc3)[C@H](c3ccncc3)C2)cc1
REMARK SMILES IDX 17 1 16 2 14 3 15 4 13 6 11 7 12 8 84 9 77 10 9 11 10 12
REMARK SMILES IDX 8 13 5 14 6 15 86 16 7 17 85 18 2 19 1 20 3 21 4 22 78 23
REMARK SMILES IDX 79 24 83 25 80 26 82 27 81 28 18 29 19 30 20 31 21 32 22 34
REMARK SMILES IDX 23 35 24 36 76 37 25 38 75 39 26 40 27 41 28 42 69 43 29 44
REMARK SMILES IDX 74 45 68 46 70 47 30 48 73 49 67 50 66 51 31 53 57 54 40 55
REMARK SMILES IDX 56 56 41 57 44 58 55 59 71 60 42 61 43 62 54 64 72 65 45 66
REMARK SMILES IDX 32 67 33 68 38 69 34 70 35 71 37 72 39 73 36 74 58 75 59 76
REMARK SMILES IDX 64 77 60 78 61 79 63 80 65 81 62 82 46 83 47 84 52 85 48 86
REMARK SMILES IDX 49 87 51 88 53 89 50 90
REMARK H PARENT 16 5 20 33 70 52 44 63
REMARK Flexibility Score: inf
ROOT
ATOM      1  C   UNL A   1      32.013  30.525  26.707  1.00  0.00     0.117 C 
ENDROOT
BRANCH   1   2
ATOM      2  N   UNL A   1      32.781  30.218  25.512  1.00  0.00    -0.356 N 
ATOM      3  C   UNL A   1      32.617  29.219  24.597  1.00  0.00     0.225 C 
ATOM      4  O   UNL A   1      33.341  29.215  23.603  1.00  0.00    -0.275 OA
ATOM      5  H   UNL A   1      33.537  30.823  25.334  1.00  0.00     0.163 HD
BRANCH   3   6
ATOM      6  C   UNL A   1      31.567  28.155  24.825  1.00  0.00     0.107 C 
ATOM      7  N   UNL A   1      31.247  25.869  24.916  1.00  0.00    -0.337 N 
ATOM      8  C   UNL A   1      32.247  26.859  25.251  1.00  0.00     0.134 C 
ATOM      9  C   UNL A   1      30.654  26.212  23.636  1.00  0.00     0.129 C 
ATOM     10  C   UNL A   1      30.800  27.755  23.523  1.00  0.00     0.053 C 
BRANCH   7  11
ATOM     11  C   UNL A   1      30.852  24.738  25.600  1.00  0.00     0.253 C 
ATOM     12  O   UNL A   1      30.020  24.786  26.507  1.00  0.00    -0.269 OA
BRANCH  11  13
ATOM     13  C   UNL A   1      31.545  23.439  25.358  1.00  0.00     0.040 A 
ATOM     14  C   UNL A   1      32.514  20.851  24.876  1.00  0.00     0.067 A 
ATOM     15  C   UNL A   1      32.065  21.628  23.807  1.00  0.00     0.021 A 
ATOM     16  C   UNL A   1      32.481  21.352  26.178  1.00  0.00     0.021 A 
ATOM     17  C   UNL A   1      31.583  22.922  24.052  1.00  0.00     0.015 A 
ATOM     18  C   UNL A   1      31.976  22.630  26.417  1.00  0.00     0.015 A 
BRANCH  14  19
ATOM     19  S   UNL A   1      33.081  19.179  24.653  1.00  0.00     0.175 S 
ATOM     20  C   UNL A   1      32.426  18.612  23.110  1.00  0.00     0.163 C 
ATOM     21  O   UNL A   1      32.440  18.388  25.693  1.00  0.00    -0.224 OA
ATOM     22  O   UNL A   1      34.521  19.252  24.544  1.00  0.00    -0.224 OA
ENDBRANCH  14  19
ENDBRANCH  11  13
ENDBRANCH   7  11
BRANCH  10  23
ATOM     23  C   UNL A   1      29.530  28.583  23.347  1.00  0.00    -0.039 A 
ATOM     24  C   UNL A   1      29.626  29.983  23.385  1.00  0.00     0.024 A 
ATOM     25  C   UNL A   1      28.256  28.044  23.145  1.00  0.00     0.024 A 
ATOM     26  C   UNL A   1      28.477  30.756  23.281  1.00  0.00     0.111 A 
ATOM     27  C   UNL A   1      27.166  28.900  23.022  1.00  0.00     0.111 A 
ATOM     28  N   UNL A   1      27.246  30.242  23.105  1.00  0.00    -0.265 NA
ENDBRANCH  10  23
ENDBRANCH   3   6
ENDBRANCH   1   2
BRANCH   1  29
ATOM     29  C   UNL A   1      31.652  31.999  26.833  1.00  0.00     0.042 C 
BRANCH  29  30
ATOM     30  C   UNL A   1      32.844  32.928  27.041  1.00  0.00     0.118 C 
BRANCH  30  31
ATOM     31  N   UNL A   1      32.477  34.227  27.584  1.00  0.00    -0.352 N 
ATOM     32  C   UNL A   1      32.999  34.938  28.638  1.00  0.00     0.251 C 
ATOM     33  H   UNL A   1      31.730  34.671  27.121  1.00  0.00     0.163 HD
ATOM     34  O   UNL A   1      32.442  35.970  29.004  1.00  0.00    -0.269 OA
BRANCH  32  35
ATOM     35  C   UNL A   1      34.205  34.465  29.353  1.00  0.00     0.039 A 
ATOM     36  C   UNL A   1      34.051  33.858  30.605  1.00  0.00     0.014 A 
ATOM     37  C   UNL A   1      35.485  34.633  28.819  1.00  0.00     0.014 A 
ATOM     38  C   UNL A   1      35.166  33.354  31.279  1.00  0.00     0.010 A 
ATOM     39  C   UNL A   1      36.584  34.058  29.452  1.00  0.00     0.010 A 
ATOM     40  C   UNL A   1      36.439  33.412  30.689  1.00  0.00    -0.014 A 
BRANCH  40  41
ATOM     41  C   UNL A   1      37.630  32.813  31.346  1.00  0.00     0.031 A 
ATOM     42  C   UNL A   1      38.302  31.610  30.739  1.00  0.00     0.074 A 
ATOM     43  C   UNL A   1      38.063  33.299  32.525  1.00  0.00     0.049 A 
ATOM     44  N   UNL A   1      39.275  30.876  31.216  1.00  0.00    -0.248 NA
ATOM     45  C   UNL A   1      37.793  31.155  29.434  1.00  0.00     0.031 C 
ATOM     46  C   UNL A   1      37.481  34.437  33.240  1.00  0.00     0.029 A 
ATOM     47  N   UNL A   1      39.086  32.885  33.344  1.00  0.00    -0.354 N 
ATOM     48  C   UNL A   1      39.479  29.865  30.285  1.00  0.00     0.074 A 
ATOM     49  C   UNL A   1      38.500  30.052  29.236  1.00  0.00     0.031 C 
ATOM     50  C   UNL A   1      38.161  34.636  34.381  1.00  0.00     0.029 A 
ATOM     51  C   UNL A   1      39.197  33.616  34.503  1.00  0.00     0.049 A 
ATOM     52  H   UNL A   1      39.683  32.134  33.122  1.00  0.00     0.167 HD
ATOM     53  C   UNL A   1      40.410  28.882  30.292  1.00  0.00     0.037 A 
ATOM     54  C   UNL A   1      40.028  33.470  35.554  1.00  0.00     0.037 A 
ATOM     55  C   UNL A   1      41.403  28.714  31.319  1.00  0.00     0.049 A 
ATOM     56  C   UNL A   1      41.042  32.357  35.543  1.00  0.00     0.074 A 
ATOM     57  C   UNL A   1      42.426  27.783  31.384  1.00  0.00     0.029 A 
ATOM     58  N   UNL A   1      41.498  29.492  32.463  1.00  0.00    -0.354 N 
ATOM     59  N   UNL A   1      41.264  31.450  34.624  1.00  0.00    -0.248 NA
ATOM     60  C   UNL A   1      41.923  32.252  36.715  1.00  0.00     0.031 C 
ATOM     61  C   UNL A   1      43.110  27.967  32.590  1.00  0.00     0.029 A 
ATOM     62  C   UNL A   1      42.550  29.049  33.248  1.00  0.00     0.049 A 
ATOM     63  H   UNL A   1      40.905  30.247  32.684  1.00  0.00     0.167 HD
ATOM     64  C   UNL A   1      42.335  30.695  35.087  1.00  0.00     0.074 A 
ATOM     65  C   UNL A   1      42.723  31.255  36.364  1.00  0.00     0.031 C 
ATOM     66  C   UNL A   1      42.943  29.634  34.504  1.00  0.00     0.037 A 
BRANCH  53  67
ATOM     67  C   UNL A   1      40.408  27.907  29.150  1.00  0.00     0.057 A 
ATOM     68  C   UNL A   1      39.581  26.776  29.145  1.00  0.00     0.134 A 
ATOM     69  C   UNL A   1      41.196  28.134  28.014  1.00  0.00     0.134 A 
ATOM     70  F   UNL A   1      38.808  26.494  30.205  1.00  0.00    -0.206 F 
ATOM     71  C   UNL A   1      39.553  25.896  28.062  1.00  0.00     0.040 A 
ATOM     72  C   UNL A   1      41.156  27.277  26.913  1.00  0.00     0.040 A 
ATOM     73  F   UNL A   1      42.005  29.203  27.948  1.00  0.00    -0.206 F 
ATOM     74  C   UNL A   1      40.336  26.152  26.937  1.00  0.00     0.006 A 
ENDBRANCH  53  67
BRANCH  54  75
ATOM     75  C   UNL A   1      39.947  34.400  36.710  1.00  0.00     0.057 A 
ATOM     76  C   UNL A   1      39.144  34.105  37.820  1.00  0.00     0.134 A 
ATOM     77  C   UNL A   1      40.635  35.618  36.721  1.00  0.00     0.134 A 
ATOM     78  F   UNL A   1      38.443  32.963  37.860  1.00  0.00    -0.206 F 
ATOM     79  C   UNL A   1      39.004  35.000  38.883  1.00  0.00     0.040 A 
ATOM     80  C   UNL A   1      40.530  36.509  37.791  1.00  0.00     0.040 A 
ATOM     81  F   UNL A   1      41.422  35.960  35.692  1.00  0.00    -0.206 F 
ATOM     82  C   UNL A   1      39.703  36.205  38.870  1.00  0.00     0.006 A 
ENDBRANCH  54  75
BRANCH  66  83
ATOM     83  C   UNL A   1      44.135  29.046  35.204  1.00  0.00     0.057 A 
ATOM     84  C   UNL A   1      45.438  29.495  34.961  1.00  0.00     0.134 A 
ATOM     85  C   UNL A   1      43.964  28.051  36.174  1.00  0.00     0.134 A 
ATOM     86  F   UNL A   1      45.672  30.439  34.036  1.00  0.00    -0.206 F 
ATOM     87  C   UNL A   1      46.532  28.960  35.644  1.00  0.00     0.040 A 
ATOM     88  C   UNL A   1      45.046  27.528  36.884  1.00  0.00     0.040 A 
ATOM     89  F   UNL A   1      42.740  27.582  36.463  1.00  0.00    -0.206 F 
ATOM     90  C   UNL A   1      46.335  27.980  36.614  1.00  0.00     0.006 A 
ENDBRANCH  66  83
ENDBRANCH  40  41
ENDBRANCH  32  35
ENDBRANCH  30  31
ENDBRANCH  29  30
ENDBRANCH   1  29
TORSDOF 14
ENDMDL
MODEL 2
REMARK VINA RESULT:     -12.9      1.003      6.162
REMARK SMILES CS(=O)(=O)c1ccc(C(=O)N2C[C@@H](C(=O)NCCCNC(=O)c3ccc(-c4c5nc(c(-c6c(F)cccc6F)c6ccc([nH]6)c(-c6c(F)cccc6F)c6nc(c(-c7c(F)cccc7F)c7ccc4[nH]7)C=C6)C=C5)cc3)[C@H](c3ccncc3)C2)cc1
REMARK SMILES IDX 17 1 16 2 14 3 15 4 13 6 11 7 12 8 84 9 77 10 9 11 10 12
REMARK SMILES IDX 8 13 5 14 6 15 86 16 7 17 85 18 2 19 1 20 3 21 4 22 78 23
REMARK SMILES IDX 79 24 83 25 80 26 82 27 81 28 18 29 19 30 20 31 21 32 22 34
REMARK SMILES IDX 23 35 24 36 76 37 25 38 75 39 26 40 27 41 28 42 69 43 29 44
REMARK SMILES IDX 74 45 68 46 70 47 30 48 73 49 67 50 66 51 31 53 57 54 40 55
REMARK SMILES IDX 56 56 41 57 44 58 55 59 71 60 42 61 43 62 54 64 72 65 45 66
REMARK SMILES IDX 32 67 33 68 38 69 34 70 35 71 37 72 39 73 36 74 58 75 59 76
REMARK SMILES IDX 64 77 60 78 61 79 63 80 65 81 62 82 46 83 47 84 52 85 48 86
REMARK SMILES IDX 49 87 51 88 53 89 50 90
REMARK H PARENT 16 5 20 33 70 52 44 63
REMARK Flexibility Score: inf
ROOT
ATOM      1  C   UNL A   1      31.791  30.542  26.571  1.00  0.00     0.117 C 
ENDROOT
BRANCH   1   2
ATOM      2  N   UNL A   1      32.676  30.185  25.476  1.00  0.00    -0.356 N 
ATOM      3  C   UNL A   1      32.625  29.127  24.617  1.00  0.00     0.225 C 
ATOM      4  O   UNL A   1      33.441  29.084  23.697  1.00  0.00    -0.275 OA
ATOM      5  H   UNL A   1      33.430  30.801  25.331  1.00  0.00     0.163 HD
BRANCH   3   6
ATOM      6  C   UNL A   1      31.586  28.046  24.814  1.00  0.00     0.107 C 
ATOM      7  N   UNL A   1      31.282  25.757  24.815  1.00  0.00    -0.337 N 
ATOM      8  C   UNL A   1      32.280  26.740  25.178  1.00  0.00     0.134 C 
ATOM      9  C   UNL A   1      30.670  26.147  23.558  1.00  0.00     0.129 C 
ATOM     10  C   UNL A   1      30.805  27.695  23.507  1.00  0.00     0.053 C 
BRANCH   7  11
ATOM     11  C   UNL A   1      30.904  24.596  25.458  1.00  0.00     0.253 C 
ATOM     12  O   UNL A   1      30.058  24.595  26.352  1.00  0.00    -0.269 OA
BRANCH  11  13
ATOM     13  C   UNL A   1      31.632  23.321  25.186  1.00  0.00     0.040 A 
ATOM     14  C   UNL A   1      32.670  20.769  24.660  1.00  0.00     0.067 A 
ATOM     15  C   UNL A   1      32.161  21.535  23.610  1.00  0.00     0.021 A 
ATOM     16  C   UNL A   1      32.662  21.264  25.965  1.00  0.00     0.021 A 
ATOM     17  C   UNL A   1      31.645  22.812  23.878  1.00  0.00     0.015 A 
ATOM     18  C   UNL A   1      32.124  22.523  26.227  1.00  0.00     0.015 A 
BRANCH  14  19
ATOM     19  S   UNL A   1      33.285  19.119  24.410  1.00  0.00     0.175 S 
ATOM     20  C   UNL A   1      32.659  18.127  25.735  1.00  0.00     0.163 C 
ATOM     21  O   UNL A   1      34.728  19.189  24.589  1.00  0.00    -0.224 OA
ATOM     22  O   UNL A   1      32.704  18.653  23.171  1.00  0.00    -0.224 OA
ENDBRANCH  14  19
ENDBRANCH  11  13
ENDBRANCH   7  11
BRANCH  10  23
ATOM     23  C   UNL A   1      29.527  28.520  23.381  1.00  0.00    -0.039 A 
ATOM     24  C   UNL A   1      28.293  27.852  23.338  1.00  0.00     0.024 A 
ATOM     25  C   UNL A   1      29.491  29.916  23.305  1.00  0.00     0.024 A 
ATOM     26  C   UNL A   1      27.121  28.578  23.170  1.00  0.00     0.111 A 
ATOM     27  C   UNL A   1      28.265  30.558  23.166  1.00  0.00     0.111 A 
ATOM     28  N   UNL A   1      27.082  29.919  23.078  1.00  0.00    -0.265 NA
ENDBRANCH  10  23
ENDBRANCH   3   6
ENDBRANCH   1   2
BRANCH   1  29
ATOM     29  C   UNL A   1      31.556  32.041  26.698  1.00  0.00     0.042 C 
BRANCH  29  30
ATOM     30  C   UNL A   1      32.818  32.862  26.945  1.00  0.00     0.118 C 
BRANCH  30  31
ATOM     31  N   UNL A   1      32.565  34.116  27.640  1.00  0.00    -0.352 N 
ATOM     32  C   UNL A   1      33.163  34.660  28.751  1.00  0.00     0.251 C 
ATOM     33  H   UNL A   1      31.847  34.665  27.249  1.00  0.00     0.163 HD
ATOM     34  O   UNL A   1      32.696  35.684  29.245  1.00  0.00    -0.269 OA
BRANCH  32  35
ATOM     35  C   UNL A   1      34.341  34.018  29.375  1.00  0.00     0.039 A 
ATOM     36  C   UNL A   1      34.138  33.122  30.430  1.00  0.00     0.014 A 
ATOM     37  C   UNL A   1      35.640  34.306  28.951  1.00  0.00     0.014 A 
ATOM     38  C   UNL A   1      35.228  32.460  31.004  1.00  0.00     0.010 A 
ATOM     39  C   UNL A   1      36.715  33.586  29.466  1.00  0.00     0.010 A 
ATOM     40  C   UNL A   1      36.523  32.655  30.498  1.00  0.00    -0.014 A 
BRANCH  40  41
ATOM     41  C   UNL A   1      37.690  31.905  31.034  1.00  0.00     0.031 A 
ATOM     42  C   UNL A   1      38.316  32.315  32.340  1.00  0.00     0.074 A 
ATOM     43  C   UNL A   1      38.235  30.906  30.312  1.00  0.00     0.049 A 
ATOM     44  N   UNL A   1      39.403  31.864  32.915  1.00  0.00    -0.248 NA
ATOM     45  C   UNL A   1      37.646  33.393  33.086  1.00  0.00     0.031 C 
ATOM     46  C   UNL A   1      37.749  30.432  29.014  1.00  0.00     0.029 A 
ATOM     47  N   UNL A   1      39.333  30.118  30.560  1.00  0.00    -0.354 N 
ATOM     48  C   UNL A   1      39.558  32.616  34.073  1.00  0.00     0.074 A 
ATOM     49  C   UNL A   1      38.480  33.581  34.099  1.00  0.00     0.031 C 
ATOM     50  C   UNL A   1      38.536  29.431  28.587  1.00  0.00     0.029 A 
ATOM     51  C   UNL A   1      39.607  29.221  29.555  1.00  0.00     0.049 A 
ATOM     52  H   UNL A   1      39.874  30.190  31.380  1.00  0.00     0.167 HD
ATOM     53  C   UNL A   1      40.499  32.500  35.038  1.00  0.00     0.037 A 
ATOM     54  C   UNL A   1      40.619  28.341  29.419  1.00  0.00     0.037 A 
ATOM     55  C   UNL A   1      41.554  31.520  35.029  1.00  0.00     0.049 A 
ATOM     56  C   UNL A   1      41.662  28.245  30.500  1.00  0.00     0.074 A 
ATOM     57  C   UNL A   1      42.521  31.286  35.991  1.00  0.00     0.029 A 
ATOM     58  N   UNL A   1      41.781  30.613  34.004  1.00  0.00    -0.354 N 
ATOM     59  N   UNL A   1      41.758  28.918  31.620  1.00  0.00    -0.248 NA
ATOM     60  C   UNL A   1      42.738  27.263  30.297  1.00  0.00     0.031 C 
ATOM     61  C   UNL A   1      43.362  30.269  35.528  1.00  0.00     0.029 A 
ATOM     62  C   UNL A   1      42.885  29.831  34.304  1.00  0.00     0.049 A 
ATOM     63  H   UNL A   1      41.238  30.536  33.187  1.00  0.00     0.167 HD
ATOM     64  C   UNL A   1      42.875  28.413  32.273  1.00  0.00     0.074 A 
ATOM     65  C   UNL A   1      43.420  27.372  31.429  1.00  0.00     0.031 C 
ATOM     66  C   UNL A   1      43.400  28.778  33.467  1.00  0.00     0.037 A 
BRANCH  53  67
ATOM     67  C   UNL A   1      40.437  33.453  36.197  1.00  0.00     0.057 A 
ATOM     68  C   UNL A   1      39.649  33.194  37.326  1.00  0.00     0.134 A 
ATOM     69  C   UNL A   1      41.220  34.614  36.210  1.00  0.00     0.134 A 
ATOM     70  F   UNL A   1      38.868  32.104  37.374  1.00  0.00    -0.206 F 
ATOM     71  C   UNL A   1      39.628  34.063  38.418  1.00  0.00     0.040 A 
ATOM     72  C   UNL A   1      41.229  35.477  37.307  1.00  0.00     0.040 A 
ATOM     73  F   UNL A   1      42.004  34.920  35.165  1.00  0.00    -0.206 F 
ATOM     74  C   UNL A   1      40.427  35.205  38.413  1.00  0.00     0.006 A 
ENDBRANCH  53  67
BRANCH  54  75
ATOM     75  C   UNL A   1      40.701  27.471  28.217  1.00  0.00     0.057 A 
ATOM     76  C   UNL A   1      41.379  27.891  27.065  1.00  0.00     0.134 A 
ATOM     77  C   UNL A   1      40.077  26.219  28.174  1.00  0.00     0.134 A 
ATOM     78  F   UNL A   1      41.980  29.090  27.037  1.00  0.00    -0.206 F 
ATOM     79  C   UNL A   1      41.407  27.114  25.906  1.00  0.00     0.040 A 
ATOM     80  C   UNL A   1      40.123  25.417  27.032  1.00  0.00     0.040 A 
ATOM     81  F   UNL A   1      39.414  25.756  29.242  1.00  0.00    -0.206 F 
ATOM     82  C   UNL A   1      40.779  25.870  25.890  1.00  0.00     0.006 A 
ENDBRANCH  54  75
BRANCH  66  83
ATOM     83  C   UNL A   1      44.587  28.007  33.969  1.00  0.00     0.057 A 
ATOM     84  C   UNL A   1      44.451  26.887  34.798  1.00  0.00     0.134 A 
ATOM     85  C   UNL A   1      45.881  28.364  33.571  1.00  0.00     0.134 A 
ATOM     86  F   UNL A   1      43.240  26.498  35.226  1.00  0.00    -0.206 F 
ATOM     87  C   UNL A   1      45.563  26.162  35.230  1.00  0.00     0.040 A 
ATOM     88  C   UNL A   1      46.998  27.630  33.972  1.00  0.00     0.040 A 
ATOM     89  F   UNL A   1      46.080  29.421  32.769  1.00  0.00    -0.206 F 
ATOM     90  C   UNL A   1      46.840  26.528  34.809  1.00  0.00     0.006 A 
ENDBRANCH  66  83
ENDBRANCH  40  41
ENDBRANCH  32  35
ENDBRANCH  30  31
ENDBRANCH  29  30
ENDBRANCH   1  29
TORSDOF 14
ENDMDL
MODEL 3
REMARK VINA RESULT:     -12.7      4.879      7.081
REMARK SMILES CS(=O)(=O)c1ccc(C(=O)N2C[C@@H](C(=O)NCCCNC(=O)c3ccc(-c4c5nc(c(-c6c(F)cccc6F)c6ccc([nH]6)c(-c6c(F)cccc6F)c6nc(c(-c7c(F)cccc7F)c7ccc4[nH]7)C=C6)C=C5)cc3)[C@H](c3ccncc3)C2)cc1
REMARK SMILES IDX 17 1 16 2 14 3 15 4 13 6 11 7 12 8 84 9 77 10 9 11 10 12
REMARK SMILES IDX 8 13 5 14 6 15 86 16 7 17 85 18 2 19 1 20 3 21 4 22 78 23
REMARK SMILES IDX 79 24 83 25 80 26 82 27 81 28 18 29 19 30 20 31 21 32 22 34
REMARK SMILES IDX 23 35 24 36 76 37 25 38 75 39 26 40 27 41 28 42 69 43 29 44
REMARK SMILES IDX 74 45 68 46 70 47 30 48 73 49 67 50 66 51 31 53 57 54 40 55
REMARK SMILES IDX 56 56 41 57 44 58 55 59 71 60 42 61 43 62 54 64 72 65 45 66
REMARK SMILES IDX 32 67 33 68 38 69 34 70 35 71 37 72 39 73 36 74 58 75 59 76
REMARK SMILES IDX 64 77 60 78 61 79 63 80 65 81 62 82 46 83 47 84 52 85 48 86
REMARK SMILES IDX 49 87 51 88 53 89 50 90
REMARK H PARENT 16 5 20 33 70 52 44 63
REMARK Flexibility Score: inf
ROOT
ATOM      1  C   UNL A   1      32.976  29.948  26.158  1.00  0.00     0.117 C 
ENDROOT
BRANCH   1   2
ATOM      2  N   UNL A   1      33.517  29.721  24.829  1.00  0.00    -0.356 N 
ATOM      3  C   UNL A   1      33.083  28.893  23.836  1.00  0.00     0.225 C 
ATOM      4  O   UNL A   1      33.654  28.941  22.747  1.00  0.00    -0.275 OA
ATOM      5  H   UNL A   1      34.320  30.246  24.610  1.00  0.00     0.163 HD
BRANCH   3   6
ATOM      6  C   UNL A   1      31.931  27.947  24.094  1.00  0.00     0.107 C 
ATOM      7  N   UNL A   1      31.378  25.709  24.230  1.00  0.00    -0.337 N 
ATOM      8  C   UNL A   1      32.479  26.595  24.537  1.00  0.00     0.134 C 
ATOM      9  C   UNL A   1      30.808  26.089  22.950  1.00  0.00     0.129 C 
ATOM     10  C   UNL A   1      31.112  27.607  22.807  1.00  0.00     0.053 C 
BRANCH   7  11
ATOM     11  C   UNL A   1      30.876  24.637  24.939  1.00  0.00     0.253 C 
ATOM     12  O   UNL A   1      30.016  24.779  25.809  1.00  0.00    -0.269 OA
BRANCH  11  13
ATOM     13  C   UNL A   1      31.482  23.283  24.773  1.00  0.00     0.040 A 
ATOM     14  C   UNL A   1      32.283  20.624  24.376  1.00  0.00     0.067 A 
ATOM     15  C   UNL A   1      32.086  21.456  23.272  1.00  0.00     0.021 A 
ATOM     16  C   UNL A   1      32.082  21.106  25.670  1.00  0.00     0.021 A 
ATOM     17  C   UNL A   1      31.687  22.785  23.476  1.00  0.00     0.015 A 
ATOM     18  C   UNL A   1      31.660  22.422  25.863  1.00  0.00     0.015 A 
BRANCH  14  19
ATOM     19  S   UNL A   1      32.729  18.911  24.198  1.00  0.00     0.175 S 
ATOM     20  C   UNL A   1      34.467  18.794  24.507  1.00  0.00     0.163 C 
ATOM     21  O   UNL A   1      32.534  18.582  22.793  1.00  0.00    -0.224 OA
ATOM     22  O   UNL A   1      32.025  18.199  25.241  1.00  0.00    -0.224 OA
ENDBRANCH  14  19
ENDBRANCH  11  13
ENDBRANCH   7  11
BRANCH  10  23
ATOM     23  C   UNL A   1      29.933  28.558  22.629  1.00  0.00    -0.039 A 
ATOM     24  C   UNL A   1      28.681  28.189  23.148  1.00  0.00     0.024 A 
ATOM     25  C   UNL A   1      30.004  29.794  21.977  1.00  0.00     0.024 A 
ATOM     26  C   UNL A   1      27.582  29.014  22.951  1.00  0.00     0.111 A 
ATOM     27  C   UNL A   1      28.853  30.566  21.853  1.00  0.00     0.111 A 
ATOM     28  N   UNL A   1      27.641  30.195  22.309  1.00  0.00    -0.265 NA
ENDBRANCH  10  23
ENDBRANCH   3   6
ENDBRANCH   1   2
BRANCH   1  29
ATOM     29  C   UNL A   1      33.548  29.012  27.214  1.00  0.00     0.042 C 
BRANCH  29  30
ATOM     30  C   UNL A   1      34.987  29.316  27.618  1.00  0.00     0.118 C 
BRANCH  30  31
ATOM     31  N   UNL A   1      35.089  30.188  28.779  1.00  0.00    -0.352 N 
ATOM     32  C   UNL A   1      36.157  30.469  29.597  1.00  0.00     0.251 C 
ATOM     33  H   UNL A   1      34.256  30.654  29.019  1.00  0.00     0.163 HD
ATOM     34  O   UNL A   1      35.980  31.144  30.608  1.00  0.00    -0.269 OA
BRANCH  32  35
ATOM     35  C   UNL A   1      37.509  29.947  29.293  1.00  0.00     0.039 A 
ATOM     36  C   UNL A   1      37.874  29.766  27.954  1.00  0.00     0.014 A 
ATOM     37  C   UNL A   1      38.408  29.613  30.308  1.00  0.00     0.014 A 
ATOM     38  C   UNL A   1      39.161  29.325  27.635  1.00  0.00     0.010 A 
ATOM     39  C   UNL A   1      39.715  29.254  29.987  1.00  0.00     0.010 A 
ATOM     40  C   UNL A   1      40.108  29.105  28.649  1.00  0.00    -0.014 A 
BRANCH  40  41
ATOM     41  C   UNL A   1      41.508  28.715  28.336  1.00  0.00     0.031 A 
ATOM     42  C   UNL A   1      41.834  27.286  27.991  1.00  0.00     0.074 A 
ATOM     43  C   UNL A   1      42.497  29.624  28.435  1.00  0.00     0.049 A 
ATOM     44  N   UNL A   1      43.002  26.726  27.801  1.00  0.00    -0.248 NA
ATOM     45  C   UNL A   1      40.698  26.358  27.870  1.00  0.00     0.031 C 
ATOM     46  C   UNL A   1      42.323  31.033  28.796  1.00  0.00     0.029 A 
ATOM     47  N   UNL A   1      43.854  29.494  28.261  1.00  0.00    -0.354 N 
ATOM     48  C   UNL A   1      42.744  25.382  27.562  1.00  0.00     0.074 A 
ATOM     49  C   UNL A   1      41.313  25.200  27.673  1.00  0.00     0.031 C 
ATOM     50  C   UNL A   1      43.522  31.638  28.804  1.00  0.00     0.029 A 
ATOM     51  C   UNL A   1      44.554  30.654  28.494  1.00  0.00     0.049 A 
ATOM     52  H   UNL A   1      44.284  28.650  27.994  1.00  0.00     0.167 HD
ATOM     53  C   UNL A   1      43.616  24.393  27.256  1.00  0.00     0.037 A 
ATOM     54  C   UNL A   1      45.880  30.894  28.479  1.00  0.00     0.037 A 
ATOM     55  C   UNL A   1      45.036  24.579  27.116  1.00  0.00     0.049 A 
ATOM     56  C   UNL A   1      46.829  29.771  28.154  1.00  0.00     0.074 A 
ATOM     57  C   UNL A   1      45.994  23.650  26.750  1.00  0.00     0.029 A 
ATOM     58  N   UNL A   1      45.702  25.775  27.335  1.00  0.00    -0.354 N 
ATOM     59  N   UNL A   1      46.563  28.520  27.866  1.00  0.00    -0.248 NA
ATOM     60  C   UNL A   1      48.263  30.095  28.148  1.00  0.00     0.031 C 
ATOM     61  C   UNL A   1      47.246  24.270  26.796  1.00  0.00     0.029 A 
ATOM     62  C   UNL A   1      47.062  25.602  27.132  1.00  0.00     0.049 A 
ATOM     63  H   UNL A   1      45.273  26.622  27.596  1.00  0.00     0.167 HD
ATOM     64  C   UNL A   1      47.789  27.922  27.604  1.00  0.00     0.074 A 
ATOM     65  C   UNL A   1      48.798  28.947  27.759  1.00  0.00     0.031 C 
ATOM     66  C   UNL A   1      48.053  26.638  27.262  1.00  0.00     0.037 A 
BRANCH  53  67
ATOM     67  C   UNL A   1      43.064  23.012  27.047  1.00  0.00     0.057 A 
ATOM     68  C   UNL A   1      42.757  22.168  28.121  1.00  0.00     0.134 A 
ATOM     69  C   UNL A   1      42.779  22.544  25.757  1.00  0.00     0.134 A 
ATOM     70  F   UNL A   1      43.014  22.550  29.382  1.00  0.00    -0.206 F 
ATOM     71  C   UNL A   1      42.205  20.902  27.922  1.00  0.00     0.040 A 
ATOM     72  C   UNL A   1      42.201  21.291  25.546  1.00  0.00     0.040 A 
ATOM     73  F   UNL A   1      43.040  23.304  24.683  1.00  0.00    -0.206 F 
ATOM     74  C   UNL A   1      41.916  20.464  26.630  1.00  0.00     0.006 A 
ENDBRANCH  53  67
BRANCH  54  75
ATOM     75  C   UNL A   1      46.401  32.253  28.777  1.00  0.00     0.057 A 
ATOM     76  C   UNL A   1      46.711  33.150  27.747  1.00  0.00     0.134 A 
ATOM     77  C   UNL A   1      46.638  32.676  30.090  1.00  0.00     0.134 A 
ATOM     78  F   UNL A   1      46.527  32.796  26.467  1.00  0.00    -0.206 F 
ATOM     79  C   UNL A   1      47.265  34.405  28.009  1.00  0.00     0.040 A 
ATOM     80  C   UNL A   1      47.162  33.940  30.369  1.00  0.00     0.040 A 
ATOM     81  F   UNL A   1      46.361  31.868  31.122  1.00  0.00    -0.206 F 
ATOM     82  C   UNL A   1      47.489  34.803  29.325  1.00  0.00     0.006 A 
ENDBRANCH  54  75
BRANCH  66  83
ATOM     83  C   UNL A   1      49.481  26.277  26.968  1.00  0.00     0.057 A 
ATOM     84  C   UNL A   1      50.368  25.868  27.970  1.00  0.00     0.134 A 
ATOM     85  C   UNL A   1      49.956  26.292  25.650  1.00  0.00     0.134 A 
ATOM     86  F   UNL A   1      49.981  25.843  29.254  1.00  0.00    -0.206 F 
ATOM     87  C   UNL A   1      51.684  25.506  27.674  1.00  0.00     0.040 A 
ATOM     88  C   UNL A   1      51.259  25.905  25.338  1.00  0.00     0.040 A 
ATOM     89  F   UNL A   1      49.154  26.665  24.641  1.00  0.00    -0.206 F 
ATOM     90  C   UNL A   1      52.129  25.515  26.354  1.00  0.00     0.006 A 
ENDBRANCH  66  83
ENDBRANCH  40  41
ENDBRANCH  32  35
ENDBRANCH  30  31
ENDBRANCH  29  30
ENDBRANCH   1  29
TORSDOF 14
ENDMDL
