MODEL 1
REMARK VINA RESULT:     -11.9      0.000      0.000
REMARK SMILES CCOc1cc(N2CCOCC2)ccc1[C@H]([NH3+])C(=O)NCCCNC(=O)c1ccc(-c2c3nc(c(-c4c(F)cccc4F)c4ccc([nH]4)c(-c4c(F)cccc4F)c4nc(c(-c5c(F)cccc5F)c5ccc2[nH]5)C=C4)C=C3)cc1
REMARK SMILES IDX 21 1 20 2 18 3 19 4 16 6 15 7 4 8 5 9 6 10 14 11 13 12 3 13
REMARK SMILES IDX 2 14 1 15 7 16 8 17 12 18 9 19 11 20 10 21 17 22 22 26 23 27
REMARK SMILES IDX 24 28 25 29 26 31 27 32 28 33 80 34 29 35 79 36 30 37 31 38
REMARK SMILES IDX 32 39 73 40 33 41 78 42 72 43 74 44 34 45 77 46 71 47 70 48
REMARK SMILES IDX 35 50 61 51 44 52 60 53 45 54 48 55 59 56 75 57 46 58 47 59
REMARK SMILES IDX 58 61 76 62 49 63 36 64 37 65 42 66 38 67 39 68 41 69 43 70
REMARK SMILES IDX 40 71 62 72 63 73 68 74 64 75 65 76 67 77 69 78 66 79 50 80
REMARK SMILES IDX 51 81 56 82 52 83 53 84 55 85 57 86 54 87
REMARK H PARENT 20 5 17 23 17 24 17 25 24 30 74 49 48 60
REMARK Flexibility Score: inf
ROOT
ATOM      1  C   UNL A   1      38.029  23.357  25.963  1.00  0.00     0.118 C 
ENDROOT
BRANCH   1   2
ATOM      2  N   UNL A   1      37.649  23.214  24.551  1.00  0.00    -0.351 N 
ATOM      3  C   UNL A   1      36.482  23.148  23.841  1.00  0.00     0.283 C 
ATOM      4  O   UNL A   1      36.650  22.963  22.621  1.00  0.00    -0.268 OA
ATOM      5  H   UNL A   1      38.438  23.149  23.965  1.00  0.00     0.163 HD
BRANCH   3   6
ATOM      6  C   UNL A   1      35.010  23.337  24.356  1.00  0.00     0.306 C 
BRANCH   6   7
ATOM      7  C   UNL A   1      34.256  22.132  24.836  1.00  0.00     0.061 A 
ATOM      8  C   UNL A   1      32.862  22.040  24.922  1.00  0.00     0.131 A 
ATOM      9  C   UNL A   1      32.275  20.761  24.922  1.00  0.00     0.072 A 
ATOM     10  C   UNL A   1      33.080  19.599  24.930  1.00  0.00     0.040 A 
ATOM     11  C   UNL A   1      35.023  20.997  25.145  1.00  0.00     0.016 A 
ATOM     12  C   UNL A   1      34.435  19.746  25.212  1.00  0.00     0.027 A 
BRANCH   8  13
ATOM     13  O   UNL A   1      32.109  23.150  25.228  1.00  0.00    -0.493 OA
BRANCH  13  14
ATOM     14  C   UNL A   1      31.741  23.326  26.594  1.00  0.00     0.226 C 
ATOM     15  C   UNL A   1      30.252  23.099  26.824  1.00  0.00     0.049 C 
ENDBRANCH  13  14
ENDBRANCH   8  13
BRANCH  10  16
ATOM     16  N   UNL A   1      32.581  18.364  24.537  1.00  0.00    -0.367 N 
ATOM     17  C   UNL A   1      32.509  17.259  25.504  1.00  0.00     0.145 C 
ATOM     18  C   UNL A   1      32.885  17.944  23.147  1.00  0.00     0.145 C 
ATOM     19  C   UNL A   1      33.675  16.270  25.324  1.00  0.00     0.181 C 
ATOM     20  C   UNL A   1      34.024  16.909  23.085  1.00  0.00     0.181 C 
ATOM     21  O   UNL A   1      33.783  15.805  23.967  1.00  0.00    -0.378 OA
ENDBRANCH  10  16
ENDBRANCH   6   7
BRANCH   6  22
ATOM     22  N   UNL A   1      34.196  24.129  23.408  1.00  0.00    -0.343 N 
ATOM     23  H   UNL A   1      33.238  23.782  23.410  1.00  0.00     0.345 HD
ATOM     24  H   UNL A   1      34.588  24.043  22.470  1.00  0.00     0.345 HD
ATOM     25  H   UNL A   1      34.203  25.109  23.690  1.00  0.00     0.345 HD
ENDBRANCH   6  22
ENDBRANCH   3   6
ENDBRANCH   1   2
BRANCH   1  26
ATOM     26  C   UNL A   1      39.147  22.387  26.414  1.00  0.00     0.042 C 
BRANCH  26  27
ATOM     27  C   UNL A   1      40.423  23.036  26.950  1.00  0.00     0.118 C 
BRANCH  27  28
ATOM     28  N   UNL A   1      40.995  23.969  25.995  1.00  0.00    -0.352 N 
ATOM     29  C   UNL A   1      41.154  25.334  26.041  1.00  0.00     0.251 C 
ATOM     30  H   UNL A   1      41.326  23.550  25.168  1.00  0.00     0.163 HD
ATOM     31  O   UNL A   1      41.399  25.921  24.988  1.00  0.00    -0.269 OA
BRANCH  29  32
ATOM     32  C   UNL A   1      41.063  26.128  27.299  1.00  0.00     0.039 A 
ATOM     33  C   UNL A   1      40.004  25.857  28.182  1.00  0.00     0.014 A 
ATOM     34  C   UNL A   1      41.894  27.216  27.568  1.00  0.00     0.014 A 
ATOM     35  C   UNL A   1      39.790  26.653  29.317  1.00  0.00     0.010 A 
ATOM     36  C   UNL A   1      41.725  27.967  28.737  1.00  0.00     0.010 A 
ATOM     37  C   UNL A   1      40.656  27.713  29.613  1.00  0.00    -0.014 A 
BRANCH  37  38
ATOM     38  C   UNL A   1      40.435  28.622  30.778  1.00  0.00     0.031 A 
ATOM     39  C   UNL A   1      39.365  29.683  30.703  1.00  0.00     0.074 A 
ATOM     40  C   UNL A   1      41.231  28.563  31.863  1.00  0.00     0.049 A 
ATOM     41  N   UNL A   1      39.143  30.702  31.495  1.00  0.00    -0.248 NA
ATOM     42  C   UNL A   1      38.446  29.604  29.558  1.00  0.00     0.031 C 
ATOM     43  C   UNL A   1      42.309  27.598  32.074  1.00  0.00     0.029 A 
ATOM     44  N   UNL A   1      41.270  29.357  32.985  1.00  0.00    -0.354 N 
ATOM     45  C   UNL A   1      38.099  31.414  30.914  1.00  0.00     0.074 A 
ATOM     46  C   UNL A   1      37.751  30.724  29.690  1.00  0.00     0.031 C 
ATOM     47  C   UNL A   1      42.904  27.855  33.250  1.00  0.00     0.029 A 
ATOM     48  C   UNL A   1      42.281  29.029  33.856  1.00  0.00     0.049 A 
ATOM     49  H   UNL A   1      40.634  30.090  33.149  1.00  0.00     0.167 HD
ATOM     50  C   UNL A   1      37.480  32.534  31.361  1.00  0.00     0.037 A 
ATOM     51  C   UNL A   1      42.679  29.619  35.001  1.00  0.00     0.037 A 
ATOM     52  C   UNL A   1      37.782  33.184  32.609  1.00  0.00     0.049 A 
ATOM     53  C   UNL A   1      41.959  30.842  35.497  1.00  0.00     0.074 A 
ATOM     54  C   UNL A   1      37.167  34.285  33.181  1.00  0.00     0.029 A 
ATOM     55  N   UNL A   1      38.779  32.783  33.486  1.00  0.00    -0.354 N 
ATOM     56  N   UNL A   1      40.963  31.494  34.947  1.00  0.00    -0.248 NA
ATOM     57  C   UNL A   1      42.415  31.410  36.775  1.00  0.00     0.031 C 
ATOM     58  C   UNL A   1      37.811  34.566  34.391  1.00  0.00     0.029 A 
ATOM     59  C   UNL A   1      38.800  33.618  34.590  1.00  0.00     0.049 A 
ATOM     60  H   UNL A   1      39.383  32.018  33.343  1.00  0.00     0.167 HD
ATOM     61  C   UNL A   1      40.655  32.527  35.822  1.00  0.00     0.074 A 
ATOM     62  C   UNL A   1      41.566  32.415  36.942  1.00  0.00     0.031 C 
ATOM     63  C   UNL A   1      39.699  33.481  35.709  1.00  0.00     0.037 A 
BRANCH  50  64
ATOM     64  C   UNL A   1      36.414  33.131  30.486  1.00  0.00     0.057 A 
ATOM     65  C   UNL A   1      36.721  33.968  29.405  1.00  0.00     0.134 A 
ATOM     66  C   UNL A   1      35.061  32.856  30.722  1.00  0.00     0.134 A 
ATOM     67  F   UNL A   1      37.996  34.281  29.127  1.00  0.00    -0.206 F 
ATOM     68  C   UNL A   1      35.720  34.541  28.616  1.00  0.00     0.040 A 
ATOM     69  C   UNL A   1      34.052  33.399  29.923  1.00  0.00     0.040 A 
ATOM     70  F   UNL A   1      34.694  32.053  31.733  1.00  0.00    -0.206 F 
ATOM     71  C   UNL A   1      34.381  34.254  28.873  1.00  0.00     0.006 A 
ENDBRANCH  50  64
BRANCH  51  72
ATOM     72  C   UNL A   1      43.813  29.044  35.768  1.00  0.00     0.057 A 
ATOM     73  C   UNL A   1      45.109  29.551  35.621  1.00  0.00     0.134 A 
ATOM     74  C   UNL A   1      43.629  27.991  36.672  1.00  0.00     0.134 A 
ATOM     75  F   UNL A   1      45.350  30.545  34.753  1.00  0.00    -0.206 F 
ATOM     76  C   UNL A   1      46.184  29.028  36.341  1.00  0.00     0.040 A 
ATOM     77  C   UNL A   1      44.692  27.472  37.414  1.00  0.00     0.040 A 
ATOM     78  F   UNL A   1      42.410  27.464  36.860  1.00  0.00    -0.206 F 
ATOM     79  C   UNL A   1      45.975  27.990  37.247  1.00  0.00     0.006 A 
ENDBRANCH  51  72
BRANCH  63  80
ATOM     80  C   UNL A   1      39.548  34.450  36.843  1.00  0.00     0.057 A 
ATOM     81  C   UNL A   1      38.804  34.142  37.987  1.00  0.00     0.134 A 
ATOM     82  C   UNL A   1      40.209  35.685  36.812  1.00  0.00     0.134 A 
ATOM     83  F   UNL A   1      38.139  32.980  38.073  1.00  0.00    -0.206 F 
ATOM     84  C   UNL A   1      38.712  35.034  39.058  1.00  0.00     0.040 A 
ATOM     85  C   UNL A   1      40.141  36.576  37.884  1.00  0.00     0.040 A 
ATOM     86  F   UNL A   1      40.944  36.038  35.747  1.00  0.00    -0.206 F 
ATOM     87  C   UNL A   1      39.388  36.252  39.010  1.00  0.00     0.006 A 
ENDBRANCH  63  80
ENDBRANCH  37  38
ENDBRANCH  29  32
ENDBRANCH  27  28
ENDBRANCH  26  27
ENDBRANCH   1  26
TORSDOF 15
ENDMDL
MODEL 2
REMARK VINA RESULT:     -11.8      4.082      8.546
REMARK SMILES CCOc1cc(N2CCOCC2)ccc1[C@H]([NH3+])C(=O)NCCCNC(=O)c1ccc(-c2c3nc(c(-c4c(F)cccc4F)c4ccc([nH]4)c(-c4c(F)cccc4F)c4nc(c(-c5c(F)cccc5F)c5ccc2[nH]5)C=C4)C=C3)cc1
REMARK SMILES IDX 21 1 20 2 18 3 19 4 16 6 15 7 4 8 5 9 6 10 14 11 13 12 3 13
REMARK SMILES IDX 2 14 1 15 7 16 8 17 12 18 9 19 11 20 10 21 17 22 22 26 23 27
REMARK SMILES IDX 24 28 25 29 26 31 27 32 28 33 80 34 29 35 79 36 30 37 31 38
REMARK SMILES IDX 32 39 73 40 33 41 78 42 72 43 74 44 34 45 77 46 71 47 70 48
REMARK SMILES IDX 35 50 61 51 44 52 60 53 45 54 48 55 59 56 75 57 46 58 47 59
REMARK SMILES IDX 58 61 76 62 49 63 36 64 37 65 42 66 38 67 39 68 41 69 43 70
REMARK SMILES IDX 40 71 62 72 63 73 68 74 64 75 65 76 67 77 69 78 66 79 50 80
REMARK SMILES IDX 51 81 56 82 52 83 53 84 55 85 57 86 54 87
REMARK H PARENT 20 5 17 23 17 24 17 25 24 30 74 49 48 60
REMARK Flexibility Score: inf
ROOT
ATOM      1  C   UNL A   1      31.447  30.814  25.883  1.00  0.00     0.118 C 
ENDROOT
BRANCH   1   2
ATOM      2  N   UNL A   1      32.331  29.864  26.571  1.00  0.00    -0.351 N 
ATOM      3  C   UNL A   1      33.008  28.723  26.241  1.00  0.00     0.283 C 
ATOM      4  O   UNL A   1      33.612  28.205  27.199  1.00  0.00    -0.268 OA
ATOM      5  H   UNL A   1      32.473  30.114  27.513  1.00  0.00     0.163 HD
BRANCH   3   6
ATOM      6  C   UNL A   1      33.162  28.048  24.830  1.00  0.00     0.306 C 
BRANCH   6   7
ATOM      7  C   UNL A   1      31.991  28.070  23.892  1.00  0.00     0.061 A 
ATOM      8  C   UNL A   1      30.778  27.406  24.109  1.00  0.00     0.131 A 
ATOM      9  C   UNL A   1      29.633  27.867  23.435  1.00  0.00     0.072 A 
ATOM     10  C   UNL A   1      29.726  28.915  22.491  1.00  0.00     0.040 A 
ATOM     11  C   UNL A   1      32.115  28.884  22.755  1.00  0.00     0.016 A 
ATOM     12  C   UNL A   1      30.993  29.285  22.050  1.00  0.00     0.027 A 
BRANCH   8  13
ATOM     13  O   UNL A   1      30.753  26.203  24.779  1.00  0.00    -0.493 OA
BRANCH  13  14
ATOM     14  C   UNL A   1      30.298  25.066  24.049  1.00  0.00     0.226 C 
ATOM     15  C   UNL A   1      31.385  24.482  23.156  1.00  0.00     0.049 C 
ENDBRANCH  13  14
ENDBRANCH   8  13
BRANCH  10  16
ATOM     16  N   UNL A   1      28.614  29.654  22.109  1.00  0.00    -0.367 N 
ATOM     17  C   UNL A   1      28.767  30.793  21.194  1.00  0.00     0.145 C 
ATOM     18  C   UNL A   1      27.557  29.829  23.136  1.00  0.00     0.145 C 
ATOM     19  C   UNL A   1      28.759  32.134  21.951  1.00  0.00     0.181 C 
ATOM     20  C   UNL A   1      27.600  31.223  23.787  1.00  0.00     0.181 C 
ATOM     21  O   UNL A   1      27.607  32.266  22.803  1.00  0.00    -0.378 OA
ENDBRANCH  10  16
ENDBRANCH   6   7
BRANCH   6  22
ATOM     22  N   UNL A   1      33.735  26.689  24.934  1.00  0.00    -0.343 N 
ATOM     23  H   UNL A   1      34.545  26.614  24.319  1.00  0.00     0.345 HD
ATOM     24  H   UNL A   1      33.034  26.002  24.657  1.00  0.00     0.345 HD
ATOM     25  H   UNL A   1      34.022  26.513  25.896  1.00  0.00     0.345 HD
ENDBRANCH   6  22
ENDBRANCH   3   6
ENDBRANCH   1   2
BRANCH   1  26
ATOM     26  C   UNL A   1      31.293  32.170  26.613  1.00  0.00     0.042 C 
BRANCH  26  27
ATOM     27  C   UNL A   1      32.561  32.735  27.254  1.00  0.00     0.118 C 
BRANCH  27  28
ATOM     28  N   UNL A   1      32.413  34.141  27.590  1.00  0.00    -0.352 N 
ATOM     29  C   UNL A   1      32.983  34.905  28.581  1.00  0.00     0.251 C 
ATOM     30  H   UNL A   1      31.794  34.634  27.004  1.00  0.00     0.163 HD
ATOM     31  O   UNL A   1      32.474  35.996  28.832  1.00  0.00    -0.269 OA
BRANCH  29  32
ATOM     32  C   UNL A   1      34.191  34.484  29.347  1.00  0.00     0.039 A 
ATOM     33  C   UNL A   1      35.446  34.592  28.723  1.00  0.00     0.014 A 
ATOM     34  C   UNL A   1      34.116  33.860  30.592  1.00  0.00     0.014 A 
ATOM     35  C   UNL A   1      36.603  34.096  29.341  1.00  0.00     0.010 A 
ATOM     36  C   UNL A   1      35.280  33.428  31.241  1.00  0.00     0.010 A 
ATOM     37  C   UNL A   1      36.534  33.515  30.614  1.00  0.00    -0.014 A 
BRANCH  37  38
ATOM     38  C   UNL A   1      37.729  32.922  31.285  1.00  0.00     0.031 A 
ATOM     39  C   UNL A   1      38.419  31.732  30.665  1.00  0.00     0.074 A 
ATOM     40  C   UNL A   1      38.151  33.380  32.479  1.00  0.00     0.049 A 
ATOM     41  N   UNL A   1      39.327  30.936  31.171  1.00  0.00    -0.248 NA
ATOM     42  C   UNL A   1      37.999  31.371  29.302  1.00  0.00     0.031 C 
ATOM     43  C   UNL A   1      37.580  34.515  33.203  1.00  0.00     0.029 A 
ATOM     44  N   UNL A   1      39.148  32.923  33.309  1.00  0.00    -0.354 N 
ATOM     45  C   UNL A   1      39.543  29.950  30.214  1.00  0.00     0.074 A 
ATOM     46  C   UNL A   1      38.653  30.236  29.110  1.00  0.00     0.031 C 
ATOM     47  C   UNL A   1      38.233  34.666  34.367  1.00  0.00     0.029 A 
ATOM     48  C   UNL A   1      39.237  33.614  34.494  1.00  0.00     0.049 A 
ATOM     49  H   UNL A   1      39.742  32.173  33.076  1.00  0.00     0.167 HD
ATOM     50  C   UNL A   1      40.410  28.909  30.246  1.00  0.00     0.037 A 
ATOM     51  C   UNL A   1      40.022  33.411  35.571  1.00  0.00     0.037 A 
ATOM     52  C   UNL A   1      41.340  28.660  31.316  1.00  0.00     0.049 A 
ATOM     53  C   UNL A   1      40.999  32.268  35.575  1.00  0.00     0.074 A 
ATOM     54  C   UNL A   1      42.304  27.670  31.412  1.00  0.00     0.029 A 
ATOM     55  N   UNL A   1      41.433  29.421  32.473  1.00  0.00    -0.354 N 
ATOM     56  N   UNL A   1      41.206  31.355  34.657  1.00  0.00    -0.248 NA
ATOM     57  C   UNL A   1      41.855  32.129  36.763  1.00  0.00     0.031 C 
ATOM     58  C   UNL A   1      42.960  27.814  32.639  1.00  0.00     0.029 A 
ATOM     59  C   UNL A   1      42.432  28.917  33.289  1.00  0.00     0.049 A 
ATOM     60  H   UNL A   1      40.871  30.201  32.682  1.00  0.00     0.167 HD
ATOM     61  C   UNL A   1      42.232  30.554  35.140  1.00  0.00     0.074 A 
ATOM     62  C   UNL A   1      42.610  31.090  36.432  1.00  0.00     0.031 C 
ATOM     63  C   UNL A   1      42.811  29.474  34.563  1.00  0.00     0.037 A 
BRANCH  50  64
ATOM     64  C   UNL A   1      40.384  27.952  29.087  1.00  0.00     0.057 A 
ATOM     65  C   UNL A   1      41.161  28.152  27.938  1.00  0.00     0.134 A 
ATOM     66  C   UNL A   1      39.578  26.806  29.127  1.00  0.00     0.134 A 
ATOM     67  F   UNL A   1      41.949  29.233  27.830  1.00  0.00    -0.206 F 
ATOM     68  C   UNL A   1      41.106  27.271  26.856  1.00  0.00     0.040 A 
ATOM     69  C   UNL A   1      39.536  25.903  28.064  1.00  0.00     0.040 A 
ATOM     70  F   UNL A   1      38.817  26.545  30.201  1.00  0.00    -0.206 F 
ATOM     71  C   UNL A   1      40.294  26.140  26.919  1.00  0.00     0.006 A 
ENDBRANCH  50  64
BRANCH  51  72
ATOM     72  C   UNL A   1      39.923  34.328  36.735  1.00  0.00     0.057 A 
ATOM     73  C   UNL A   1      40.609  35.547  36.748  1.00  0.00     0.134 A 
ATOM     74  C   UNL A   1      39.134  34.018  37.849  1.00  0.00     0.134 A 
ATOM     75  F   UNL A   1      41.398  35.889  35.719  1.00  0.00    -0.206 F 
ATOM     76  C   UNL A   1      40.520  36.424  37.830  1.00  0.00     0.040 A 
ATOM     77  C   UNL A   1      39.018  34.895  38.929  1.00  0.00     0.040 A 
ATOM     78  F   UNL A   1      38.449  32.865  37.894  1.00  0.00    -0.206 F 
ATOM     79  C   UNL A   1      39.715  36.102  38.922  1.00  0.00     0.006 A 
ENDBRANCH  51  72
BRANCH  63  80
ATOM     80  C   UNL A   1      43.950  28.825  35.293  1.00  0.00     0.057 A 
ATOM     81  C   UNL A   1      43.746  27.804  36.228  1.00  0.00     0.134 A 
ATOM     82  C   UNL A   1      45.272  29.190  35.008  1.00  0.00     0.134 A 
ATOM     83  F   UNL A   1      42.503  27.418  36.552  1.00  0.00    -0.206 F 
ATOM     84  C   UNL A   1      44.818  27.175  36.863  1.00  0.00     0.040 A 
ATOM     85  C   UNL A   1      46.352  28.554  35.622  1.00  0.00     0.040 A 
ATOM     86  F   UNL A   1      45.536  30.157  34.116  1.00  0.00    -0.206 F 
ATOM     87  C   UNL A   1      46.126  27.545  36.555  1.00  0.00     0.006 A 
ENDBRANCH  63  80
ENDBRANCH  37  38
ENDBRANCH  29  32
ENDBRANCH  27  28
ENDBRANCH  26  27
ENDBRANCH   1  26
TORSDOF 15
ENDMDL
MODEL 3
REMARK VINA RESULT:     -11.8      5.060      7.617
REMARK SMILES CCOc1cc(N2CCOCC2)ccc1[C@H]([NH3+])C(=O)NCCCNC(=O)c1ccc(-c2c3nc(c(-c4c(F)cccc4F)c4ccc([nH]4)c(-c4c(F)cccc4F)c4nc(c(-c5c(F)cccc5F)c5ccc2[nH]5)C=C4)C=C3)cc1
REMARK SMILES IDX 21 1 20 2 18 3 19 4 16 6 15 7 4 8 5 9 6 10 14 11 13 12 3 13
REMARK SMILES IDX 2 14 1 15 7 16 8 17 12 18 9 19 11 20 10 21 17 22 22 26 23 27
REMARK SMILES IDX 24 28 25 29 26 31 27 32 28 33 80 34 29 35 79 36 30 37 31 38
REMARK SMILES IDX 32 39 73 40 33 41 78 42 72 43 74 44 34 45 77 46 71 47 70 48
REMARK SMILES IDX 35 50 61 51 44 52 60 53 45 54 48 55 59 56 75 57 46 58 47 59
REMARK SMILES IDX 58 61 76 62 49 63 36 64 37 65 42 66 38 67 39 68 41 69 43 70
REMARK SMILES IDX 40 71 62 72 63 73 68 74 64 75 65 76 67 77 69 78 66 79 50 80
REMARK SMILES IDX 51 81 56 82 52 83 53 84 55 85 57 86 54 87
REMARK H PARENT 20 5 17 23 17 24 17 25 24 30 74 49 48 60
REMARK Flexibility Score: inf
ROOT
ATOM      1  C   UNL A   1      38.112  22.896  26.030  1.00  0.00     0.118 C 
ENDROOT
BRANCH   1   2
ATOM      2  N   UNL A   1      37.742  22.976  24.611  1.00  0.00    -0.351 N 
ATOM      3  C   UNL A   1      36.582  23.077  23.894  1.00  0.00     0.283 C 
ATOM      4  O   UNL A   1      36.753  23.060  22.660  1.00  0.00    -0.268 OA
ATOM      5  H   UNL A   1      38.533  22.952  24.024  1.00  0.00     0.163 HD
BRANCH   3   6
ATOM      6  C   UNL A   1      35.116  23.272  24.425  1.00  0.00     0.306 C 
BRANCH   6   7
ATOM      7  C   UNL A   1      34.358  22.068  24.900  1.00  0.00     0.061 A 
ATOM      8  C   UNL A   1      32.965  21.995  25.024  1.00  0.00     0.131 A 
ATOM      9  C   UNL A   1      32.359  20.726  25.012  1.00  0.00     0.072 A 
ATOM     10  C   UNL A   1      33.145  19.552  24.972  1.00  0.00     0.040 A 
ATOM     11  C   UNL A   1      35.115  20.915  25.162  1.00  0.00     0.016 A 
ATOM     12  C   UNL A   1      34.509  19.672  25.218  1.00  0.00     0.027 A 
BRANCH   8  13
ATOM     13  O   UNL A   1      32.238  23.109  25.376  1.00  0.00    -0.493 OA
BRANCH  13  14
ATOM     14  C   UNL A   1      31.819  23.206  26.735  1.00  0.00     0.226 C 
ATOM     15  C   UNL A   1      30.303  23.165  26.874  1.00  0.00     0.049 C 
ENDBRANCH  13  14
ENDBRANCH   8  13
BRANCH  10  16
ATOM     16  N   UNL A   1      32.616  18.333  24.567  1.00  0.00    -0.367 N 
ATOM     17  C   UNL A   1      32.515  17.221  25.523  1.00  0.00     0.145 C 
ATOM     18  C   UNL A   1      32.911  17.919  23.173  1.00  0.00     0.145 C 
ATOM     19  C   UNL A   1      33.657  16.205  25.334  1.00  0.00     0.181 C 
ATOM     20  C   UNL A   1      34.023  16.857  23.101  1.00  0.00     0.181 C 
ATOM     21  O   UNL A   1      33.754  15.751  23.973  1.00  0.00    -0.378 OA
ENDBRANCH  10  16
ENDBRANCH   6   7
BRANCH   6  22
ATOM     22  N   UNL A   1      34.299  24.080  23.492  1.00  0.00    -0.343 N 
ATOM     23  H   UNL A   1      33.376  23.658  23.396  1.00  0.00     0.345 HD
ATOM     24  H   UNL A   1      34.756  24.112  22.581  1.00  0.00     0.345 HD
ATOM     25  H   UNL A   1      34.203  25.027  23.857  1.00  0.00     0.345 HD
ENDBRANCH   6  22
ENDBRANCH   3   6
ENDBRANCH   1   2
BRANCH   1  26
ATOM     26  C   UNL A   1      39.048  21.711  26.368  1.00  0.00     0.042 C 
BRANCH  26  27
ATOM     27  C   UNL A   1      39.006  20.525  25.403  1.00  0.00     0.118 C 
BRANCH  27  28
ATOM     28  N   UNL A   1      39.938  19.481  25.793  1.00  0.00    -0.352 N 
ATOM     29  C   UNL A   1      41.284  19.520  26.071  1.00  0.00     0.251 C 
ATOM     30  H   UNL A   1      39.534  18.587  25.872  1.00  0.00     0.163 HD
ATOM     31  O   UNL A   1      41.899  18.455  26.093  1.00  0.00    -0.269 OA
BRANCH  29  32
ATOM     32  C   UNL A   1      42.024  20.781  26.361  1.00  0.00     0.039 A 
ATOM     33  C   UNL A   1      42.271  21.113  27.705  1.00  0.00     0.014 A 
ATOM     34  C   UNL A   1      42.354  21.709  25.373  1.00  0.00     0.014 A 
ATOM     35  C   UNL A   1      42.848  22.344  28.048  1.00  0.00     0.010 A 
ATOM     36  C   UNL A   1      42.994  22.908  25.710  1.00  0.00     0.010 A 
ATOM     37  C   UNL A   1      43.226  23.254  27.051  1.00  0.00    -0.014 A 
BRANCH  37  38
ATOM     38  C   UNL A   1      43.790  24.599  27.372  1.00  0.00     0.031 A 
ATOM     39  C   UNL A   1      42.869  25.706  27.822  1.00  0.00     0.074 A 
ATOM     40  C   UNL A   1      45.097  24.864  27.185  1.00  0.00     0.049 A 
ATOM     41  N   UNL A   1      43.104  26.988  27.947  1.00  0.00    -0.248 NA
ATOM     42  C   UNL A   1      41.486  25.317  28.137  1.00  0.00     0.031 C 
ATOM     43  C   UNL A   1      46.105  23.899  26.748  1.00  0.00     0.029 A 
ATOM     44  N   UNL A   1      45.797  26.040  27.316  1.00  0.00    -0.354 N 
ATOM     45  C   UNL A   1      41.887  27.564  28.298  1.00  0.00     0.074 A 
ATOM     46  C   UNL A   1      40.914  26.494  28.341  1.00  0.00     0.031 C 
ATOM     47  C   UNL A   1      47.292  24.519  26.646  1.00  0.00     0.029 A 
ATOM     48  C   UNL A   1      47.123  25.934  26.966  1.00  0.00     0.049 A 
ATOM     49  H   UNL A   1      45.389  26.879  27.632  1.00  0.00     0.167 HD
ATOM     50  C   UNL A   1      41.607  28.862  28.571  1.00  0.00     0.037 A 
ATOM     51  C   UNL A   1      48.087  26.872  26.887  1.00  0.00     0.037 A 
ATOM     52  C   UNL A   1      42.587  29.916  28.590  1.00  0.00     0.049 A 
ATOM     53  C   UNL A   1      47.763  28.302  27.223  1.00  0.00     0.074 A 
ATOM     54  C   UNL A   1      42.415  31.250  28.918  1.00  0.00     0.029 A 
ATOM     55  N   UNL A   1      43.929  29.751  28.282  1.00  0.00    -0.354 N 
ATOM     56  N   UNL A   1      46.615  28.829  27.571  1.00  0.00    -0.248 NA
ATOM     57  C   UNL A   1      48.872  29.267  27.159  1.00  0.00     0.031 C 
ATOM     58  C   UNL A   1      43.647  31.898  28.780  1.00  0.00     0.029 A 
ATOM     59  C   UNL A   1      44.594  30.959  28.405  1.00  0.00     0.049 A 
ATOM     60  H   UNL A   1      44.347  28.901  28.014  1.00  0.00     0.167 HD
ATOM     61  C   UNL A   1      46.866  30.176  27.796  1.00  0.00     0.074 A 
ATOM     62  C   UNL A   1      48.278  30.387  27.549  1.00  0.00     0.031 C 
ATOM     63  C   UNL A   1      46.004  31.150  28.177  1.00  0.00     0.037 A 
BRANCH  50  64
ATOM     64  C   UNL A   1      40.175  29.214  28.862  1.00  0.00     0.057 A 
ATOM     65  C   UNL A   1      39.698  29.370  30.170  1.00  0.00     0.134 A 
ATOM     66  C   UNL A   1      39.263  29.411  27.816  1.00  0.00     0.134 A 
ATOM     67  F   UNL A   1      40.514  29.187  31.219  1.00  0.00    -0.206 F 
ATOM     68  C   UNL A   1      38.358  29.668  30.429  1.00  0.00     0.040 A 
ATOM     69  C   UNL A   1      37.928  29.738  28.061  1.00  0.00     0.040 A 
ATOM     70  F   UNL A   1      39.655  29.289  26.538  1.00  0.00    -0.206 F 
ATOM     71  C   UNL A   1      37.469  29.856  29.371  1.00  0.00     0.006 A 
ENDBRANCH  50  64
BRANCH  51  72
ATOM     72  C   UNL A   1      49.461  26.481  26.485  1.00  0.00     0.057 A 
ATOM     73  C   UNL A   1      49.908  26.673  25.173  1.00  0.00     0.134 A 
ATOM     74  C   UNL A   1      50.362  25.922  27.399  1.00  0.00     0.134 A 
ATOM     75  F   UNL A   1      49.083  27.185  24.248  1.00  0.00    -0.206 F 
ATOM     76  C   UNL A   1      51.200  26.319  24.781  1.00  0.00     0.040 A 
ATOM     77  C   UNL A   1      51.664  25.582  27.027  1.00  0.00     0.040 A 
ATOM     78  F   UNL A   1      49.995  25.716  28.673  1.00  0.00    -0.206 F 
ATOM     79  C   UNL A   1      52.085  25.779  25.713  1.00  0.00     0.006 A 
ENDBRANCH  51  72
BRANCH  63  80
ATOM     80  C   UNL A   1      46.565  32.523  28.403  1.00  0.00     0.057 A 
ATOM     81  C   UNL A   1      46.596  33.487  27.389  1.00  0.00     0.134 A 
ATOM     82  C   UNL A   1      47.024  32.899  29.672  1.00  0.00     0.134 A 
ATOM     83  F   UNL A   1      46.182  33.184  26.150  1.00  0.00    -0.206 F 
ATOM     84  C   UNL A   1      47.076  34.776  27.627  1.00  0.00     0.040 A 
ATOM     85  C   UNL A   1      47.486  34.191  29.926  1.00  0.00     0.040 A 
ATOM     86  F   UNL A   1      47.014  32.023  30.689  1.00  0.00    -0.206 F 
ATOM     87  C   UNL A   1      47.516  35.133  28.901  1.00  0.00     0.006 A 
ENDBRANCH  63  80
ENDBRANCH  37  38
ENDBRANCH  29  32
ENDBRANCH  27  28
ENDBRANCH  26  27
ENDBRANCH   1  26
TORSDOF 15
ENDMDL
