MODEL 1
REMARK VINA RESULT:     -10.4      0.000      0.000
REMARK SMILES C[C@H](C(=O)NCCCNC(=O)c1ccc(-c2c3nc(c(-c4c(F)cccc4F)c4ccc([nH]4)c(-c4c(F)cccc4F)c4nc(c(-c5c(F)cccc5F)c5ccc2[nH]5)C=C4)C=C3)cc1)[C@@H](C)[N@@H+](C)C[C@H]1C[C@H](O)C1
REMARK SMILES IDX 3 1 4 2 5 3 2 5 1 6 66 7 67 8 68 9 69 10 70 12 71 13 75 14
REMARK SMILES IDX 72 15 73 16 74 17 6 19 7 20 8 21 9 22 10 23 11 25 12 26
REMARK SMILES IDX 13 27 65 28 14 29 64 30 15 31 16 32 17 33 58 34 18 35 63 36
REMARK SMILES IDX 57 37 59 38 19 39 62 40 56 41 55 42 20 44 46 45 29 46 45 47
REMARK SMILES IDX 30 48 33 49 44 50 60 51 31 52 32 53 43 55 61 56 34 57 21 58
REMARK SMILES IDX 22 59 27 60 23 61 24 62 26 63 28 64 25 65 47 66 48 67 53 68
REMARK SMILES IDX 49 69 50 70 52 71 54 72 51 73 35 74 36 75 41 76 37 77 38 78
REMARK SMILES IDX 40 79 42 80 39 81
REMARK H PARENT 5 4 68 11 74 18 9 24 59 43 33 54
REMARK Flexibility Score: inf
ROOT
ATOM      1  C   UNL A   1      36.111  22.700  23.777  1.00  0.00     0.228 C 
ATOM      2  O   UNL A   1      36.224  23.340  22.731  1.00  0.00    -0.275 OA
ATOM      3  N   UNL A   1      36.979  21.666  23.986  1.00  0.00    -0.356 N 
ATOM      4  H   UNL A   1      37.622  21.525  23.253  1.00  0.00     0.163 HD
ENDROOT
BRANCH   1   5
ATOM      5  C   UNL A   1      35.036  23.019  24.808  1.00  0.00     0.133 C 
ATOM      6  C   UNL A   1      34.888  24.548  24.897  1.00  0.00     0.024 C 
BRANCH   5   7
ATOM      7  C   UNL A   1      33.658  22.358  24.489  1.00  0.00     0.192 C 
ATOM      8  C   UNL A   1      33.252  22.410  23.005  1.00  0.00     0.076 C 
BRANCH   7   9
ATOM      9  N   UNL A   1      33.480  21.025  25.128  1.00  0.00    -0.334 N 
ATOM     10  C   UNL A   1      33.590  21.027  26.581  1.00  0.00     0.332 C 
ATOM     11  H   UNL A   1      34.316  20.579  24.751  1.00  0.00     0.348 HD
BRANCH   9  12
ATOM     12  C   UNL A   1      32.450  20.103  24.628  1.00  0.00     0.265 C 
BRANCH  12  13
ATOM     13  C   UNL A   1      32.868  18.640  24.545  1.00  0.00     0.049 C 
ATOM     14  C   UNL A   1      34.375  18.333  24.319  1.00  0.00     0.041 C 
ATOM     15  C   UNL A   1      32.610  17.939  23.185  1.00  0.00     0.041 C 
ATOM     16  C   UNL A   1      33.939  17.178  23.388  1.00  0.00     0.115 C 
BRANCH  16  17
ATOM     17  O   UNL A   1      33.846  15.870  23.988  1.00  0.00    -0.393 OA
ATOM     18  H   UNL A   1      34.205  15.208  23.377  1.00  0.00     0.210 HD
ENDBRANCH  16  17
ENDBRANCH  12  13
ENDBRANCH   9  12
ENDBRANCH   7   9
ENDBRANCH   5   7
ENDBRANCH   1   5
BRANCH   3  19
ATOM     19  C   UNL A   1      37.125  20.733  25.096  1.00  0.00     0.117 C 
BRANCH  19  20
ATOM     20  C   UNL A   1      38.306  19.782  24.919  1.00  0.00     0.042 C 
BRANCH  20  21
ATOM     21  C   UNL A   1      39.215  19.672  26.137  1.00  0.00     0.118 C 
BRANCH  21  22
ATOM     22  N   UNL A   1      40.487  19.044  25.826  1.00  0.00    -0.352 N 
ATOM     23  C   UNL A   1      41.760  19.558  25.867  1.00  0.00     0.251 C 
ATOM     24  H   UNL A   1      40.428  18.103  25.541  1.00  0.00     0.163 HD
ATOM     25  O   UNL A   1      42.686  18.912  25.384  1.00  0.00    -0.269 OA
BRANCH  23  26
ATOM     26  C   UNL A   1      42.032  20.887  26.468  1.00  0.00     0.039 A 
ATOM     27  C   UNL A   1      42.374  21.945  25.619  1.00  0.00     0.014 A 
ATOM     28  C   UNL A   1      42.010  21.090  27.850  1.00  0.00     0.014 A 
ATOM     29  C   UNL A   1      42.645  23.209  26.151  1.00  0.00     0.010 A 
ATOM     30  C   UNL A   1      42.207  22.368  28.373  1.00  0.00     0.010 A 
ATOM     31  C   UNL A   1      42.541  23.439  27.532  1.00  0.00    -0.014 A 
BRANCH  31  32
ATOM     32  C   UNL A   1      42.803  24.785  28.104  1.00  0.00     0.031 A 
ATOM     33  C   UNL A   1      44.192  25.171  28.537  1.00  0.00     0.074 A 
ATOM     34  C   UNL A   1      41.786  25.654  28.271  1.00  0.00     0.049 A 
ATOM     35  N   UNL A   1      44.609  26.285  29.087  1.00  0.00    -0.248 NA
ATOM     36  C   UNL A   1      45.250  24.165  28.349  1.00  0.00     0.031 C 
ATOM     37  C   UNL A   1      40.385  25.390  27.943  1.00  0.00     0.029 A 
ATOM     38  N   UNL A   1      41.777  26.934  28.766  1.00  0.00    -0.354 N 
ATOM     39  C   UNL A   1      45.966  26.108  29.322  1.00  0.00     0.074 A 
ATOM     40  C   UNL A   1      46.295  24.763  28.903  1.00  0.00     0.031 C 
ATOM     41  C   UNL A   1      39.656  26.482  28.223  1.00  0.00     0.029 A 
ATOM     42  C   UNL A   1      40.531  27.512  28.775  1.00  0.00     0.049 A 
ATOM     43  H   UNL A   1      42.586  27.394  29.084  1.00  0.00     0.167 HD
ATOM     44  C   UNL A   1      46.866  26.991  29.818  1.00  0.00     0.037 A 
ATOM     45  C   UNL A   1      40.138  28.735  29.178  1.00  0.00     0.037 A 
ATOM     46  C   UNL A   1      46.552  28.341  30.209  1.00  0.00     0.049 A 
ATOM     47  C   UNL A   1      41.158  29.706  29.699  1.00  0.00     0.074 A 
ATOM     48  C   UNL A   1      47.406  29.324  30.677  1.00  0.00     0.029 A 
ATOM     49  N   UNL A   1      45.284  28.898  30.169  1.00  0.00    -0.354 N 
ATOM     50  N   UNL A   1      42.448  29.542  29.863  1.00  0.00    -0.248 NA
ATOM     51  C   UNL A   1      40.669  31.040  30.083  1.00  0.00     0.031 C 
ATOM     52  C   UNL A   1      46.649  30.470  30.946  1.00  0.00     0.029 A 
ATOM     53  C   UNL A   1      45.330  30.210  30.613  1.00  0.00     0.049 A 
ATOM     54  H   UNL A   1      44.470  28.430  29.870  1.00  0.00     0.167 HD
ATOM     55  C   UNL A   1      42.927  30.752  30.347  1.00  0.00     0.074 A 
ATOM     56  C   UNL A   1      41.793  31.648  30.435  1.00  0.00     0.031 C 
ATOM     57  C   UNL A   1      44.194  31.090  30.689  1.00  0.00     0.037 A 
BRANCH  44  58
ATOM     58  C   UNL A   1      48.286  26.525  29.953  1.00  0.00     0.057 A 
ATOM     59  C   UNL A   1      49.235  26.764  28.951  1.00  0.00     0.134 A 
ATOM     60  C   UNL A   1      48.716  25.857  31.106  1.00  0.00     0.134 A 
ATOM     61  F   UNL A   1      48.883  27.389  27.817  1.00  0.00    -0.206 F 
ATOM     62  C   UNL A   1      50.556  26.334  29.079  1.00  0.00     0.040 A 
ATOM     63  C   UNL A   1      50.041  25.442  31.256  1.00  0.00     0.040 A 
ATOM     64  F   UNL A   1      47.859  25.601  32.105  1.00  0.00    -0.206 F 
ATOM     65  C   UNL A   1      50.963  25.675  30.237  1.00  0.00     0.006 A 
ENDBRANCH  44  58
BRANCH  45  66
ATOM     66  C   UNL A   1      38.710  29.123  29.074  1.00  0.00     0.057 A 
ATOM     67  C   UNL A   1      38.174  29.588  27.868  1.00  0.00     0.134 A 
ATOM     68  C   UNL A   1      37.850  29.044  30.175  1.00  0.00     0.134 A 
ATOM     69  F   UNL A   1      38.956  29.704  26.784  1.00  0.00    -0.206 F 
ATOM     70  C   UNL A   1      36.839  29.978  27.763  1.00  0.00     0.040 A 
ATOM     71  C   UNL A   1      36.507  29.410  30.081  1.00  0.00     0.040 A 
ATOM     72  F   UNL A   1      38.303  28.600  31.358  1.00  0.00    -0.206 F 
ATOM     73  C   UNL A   1      35.999  29.885  28.872  1.00  0.00     0.006 A 
ENDBRANCH  45  66
BRANCH  57  74
ATOM     74  C   UNL A   1      44.422  32.494  31.165  1.00  0.00     0.057 A 
ATOM     75  C   UNL A   1      44.710  33.535  30.274  1.00  0.00     0.134 A 
ATOM     76  C   UNL A   1      44.325  32.811  32.525  1.00  0.00     0.134 A 
ATOM     77  F   UNL A   1      44.830  33.292  28.960  1.00  0.00    -0.206 F 
ATOM     78  C   UNL A   1      44.915  34.840  30.724  1.00  0.00     0.040 A 
ATOM     79  C   UNL A   1      44.507  34.116  32.984  1.00  0.00     0.040 A 
ATOM     80  F   UNL A   1      44.044  31.859  33.429  1.00  0.00    -0.206 F 
ATOM     81  C   UNL A   1      44.808  35.134  32.081  1.00  0.00     0.006 A 
ENDBRANCH  57  74
ENDBRANCH  31  32
ENDBRANCH  23  26
ENDBRANCH  21  22
ENDBRANCH  20  21
ENDBRANCH  19  20
ENDBRANCH   3  19
TORSDOF 15
ENDMDL
MODEL 2
REMARK VINA RESULT:     -10.3      5.509     10.111
REMARK SMILES C[C@H](C(=O)NCCCNC(=O)c1ccc(-c2c3nc(c(-c4c(F)cccc4F)c4ccc([nH]4)c(-c4c(F)cccc4F)c4nc(c(-c5c(F)cccc5F)c5ccc2[nH]5)C=C4)C=C3)cc1)[C@@H](C)[N@@H+](C)C[C@H]1C[C@H](O)C1
REMARK SMILES IDX 3 1 4 2 5 3 2 5 1 6 66 7 67 8 68 9 69 10 70 12 71 13 75 14
REMARK SMILES IDX 72 15 73 16 74 17 6 19 7 20 8 21 9 22 10 23 11 25 12 26
REMARK SMILES IDX 13 27 65 28 14 29 64 30 15 31 16 32 17 33 58 34 18 35 63 36
REMARK SMILES IDX 57 37 59 38 19 39 62 40 56 41 55 42 20 44 46 45 29 46 45 47
REMARK SMILES IDX 30 48 33 49 44 50 60 51 31 52 32 53 43 55 61 56 34 57 21 58
REMARK SMILES IDX 22 59 27 60 23 61 24 62 26 63 28 64 25 65 47 66 48 67 53 68
REMARK SMILES IDX 49 69 50 70 52 71 54 72 51 73 35 74 36 75 41 76 37 77 38 78
REMARK SMILES IDX 40 79 42 80 39 81
REMARK H PARENT 5 4 68 11 74 18 9 24 59 43 33 54
REMARK Flexibility Score: inf
ROOT
ATOM      1  C   UNL A   1      33.067  29.128  25.664  1.00  0.00     0.228 C 
ATOM      2  O   UNL A   1      34.072  28.690  26.225  1.00  0.00    -0.275 OA
ATOM      3  N   UNL A   1      32.448  30.210  26.221  1.00  0.00    -0.356 N 
ATOM      4  H   UNL A   1      32.875  30.537  27.046  1.00  0.00     0.163 HD
ENDROOT
BRANCH   1   5
ATOM      5  C   UNL A   1      32.503  28.487  24.401  1.00  0.00     0.133 C 
ATOM      6  C   UNL A   1      33.680  28.069  23.503  1.00  0.00     0.024 C 
BRANCH   5   7
ATOM      7  C   UNL A   1      31.578  27.263  24.690  1.00  0.00     0.192 C 
ATOM      8  C   UNL A   1      31.035  27.196  26.128  1.00  0.00     0.076 C 
BRANCH   7   9
ATOM      9  N   UNL A   1      30.551  27.037  23.635  1.00  0.00    -0.334 N 
ATOM     10  C   UNL A   1      29.401  26.250  24.063  1.00  0.00     0.332 C 
ATOM     11  H   UNL A   1      31.116  26.455  23.016  1.00  0.00     0.348 HD
BRANCH   9  12
ATOM     12  C   UNL A   1      30.195  28.123  22.711  1.00  0.00     0.265 C 
BRANCH  12  13
ATOM     13  C   UNL A   1      29.185  29.131  23.245  1.00  0.00     0.049 C 
ATOM     14  C   UNL A   1      27.713  28.999  22.764  1.00  0.00     0.041 C 
ATOM     15  C   UNL A   1      29.192  30.524  22.561  1.00  0.00     0.041 C 
ATOM     16  C   UNL A   1      27.654  30.543  22.708  1.00  0.00     0.115 C 
BRANCH  16  17
ATOM     17  O   UNL A   1      27.128  31.209  23.874  1.00  0.00    -0.393 OA
ATOM     18  H   UNL A   1      27.170  30.609  24.635  1.00  0.00     0.210 HD
ENDBRANCH  16  17
ENDBRANCH  12  13
ENDBRANCH   9  12
ENDBRANCH   7   9
ENDBRANCH   5   7
ENDBRANCH   1   5
BRANCH   3  19
ATOM     19  C   UNL A   1      31.270  30.967  25.816  1.00  0.00     0.117 C 
BRANCH  19  20
ATOM     20  C   UNL A   1      31.180  32.330  26.498  1.00  0.00     0.042 C 
BRANCH  20  21
ATOM     21  C   UNL A   1      32.523  32.920  26.911  1.00  0.00     0.118 C 
BRANCH  21  22
ATOM     22  N   UNL A   1      32.385  34.201  27.581  1.00  0.00    -0.352 N 
ATOM     23  C   UNL A   1      33.053  34.705  28.671  1.00  0.00     0.251 C 
ATOM     24  H   UNL A   1      31.707  34.801  27.195  1.00  0.00     0.163 HD
ATOM     25  O   UNL A   1      32.654  35.741  29.195  1.00  0.00    -0.269 OA
BRANCH  23  26
ATOM     26  C   UNL A   1      34.237  34.010  29.234  1.00  0.00     0.039 A 
ATOM     27  C   UNL A   1      34.029  32.986  30.163  1.00  0.00     0.014 A 
ATOM     28  C   UNL A   1      35.540  34.388  28.903  1.00  0.00     0.014 A 
ATOM     29  C   UNL A   1      35.121  32.314  30.722  1.00  0.00     0.010 A 
ATOM     30  C   UNL A   1      36.627  33.669  29.403  1.00  0.00     0.010 A 
ATOM     31  C   UNL A   1      36.431  32.633  30.328  1.00  0.00    -0.014 A 
BRANCH  31  32
ATOM     32  C   UNL A   1      37.596  31.909  30.897  1.00  0.00     0.031 A 
ATOM     33  C   UNL A   1      38.091  32.230  32.282  1.00  0.00     0.074 A 
ATOM     34  C   UNL A   1      38.239  30.984  30.157  1.00  0.00     0.049 A 
ATOM     35  N   UNL A   1      39.111  31.729  32.935  1.00  0.00    -0.248 NA
ATOM     36  C   UNL A   1      37.358  33.268  33.025  1.00  0.00     0.031 C 
ATOM     37  C   UNL A   1      37.898  30.613  28.783  1.00  0.00     0.029 A 
ATOM     38  N   UNL A   1      39.320  30.193  30.457  1.00  0.00    -0.354 N 
ATOM     39  C   UNL A   1      39.149  32.398  34.151  1.00  0.00     0.074 A 
ATOM     40  C   UNL A   1      38.083  33.375  34.129  1.00  0.00     0.031 C 
ATOM     41  C   UNL A   1      38.737  29.650  28.367  1.00  0.00     0.029 A 
ATOM     42  C   UNL A   1      39.690  29.355  29.433  1.00  0.00     0.049 A 
ATOM     43  H   UNL A   1      39.785  30.222  31.323  1.00  0.00     0.167 HD
ATOM     44  C   UNL A   1      39.978  32.201  35.205  1.00  0.00     0.037 A 
ATOM     45  C   UNL A   1      40.683  28.449  29.361  1.00  0.00     0.037 A 
ATOM     46  C   UNL A   1      41.021  31.210  35.246  1.00  0.00     0.049 A 
ATOM     47  C   UNL A   1      41.573  28.230  30.551  1.00  0.00     0.074 A 
ATOM     48  C   UNL A   1      41.881  30.904  36.287  1.00  0.00     0.029 A 
ATOM     49  N   UNL A   1      41.341  30.358  34.200  1.00  0.00    -0.354 N 
ATOM     50  N   UNL A   1      41.560  28.832  31.715  1.00  0.00    -0.248 NA
ATOM     51  C   UNL A   1      42.611  27.196  30.422  1.00  0.00     0.031 C 
ATOM     52  C   UNL A   1      42.739  29.884  35.861  1.00  0.00     0.029 A 
ATOM     53  C   UNL A   1      42.390  29.532  34.568  1.00  0.00     0.049 A 
ATOM     54  H   UNL A   1      40.888  30.342  33.325  1.00  0.00     0.167 HD
ATOM     55  C   UNL A   1      42.569  28.239  32.462  1.00  0.00     0.074 A 
ATOM     56  C   UNL A   1      43.165  27.217  31.626  1.00  0.00     0.031 C 
ATOM     57  C   UNL A   1      42.968  28.516  33.727  1.00  0.00     0.037 A 
BRANCH  44  58
ATOM     58  C   UNL A   1      39.779  33.073  36.409  1.00  0.00     0.057 A 
ATOM     59  C   UNL A   1      40.477  34.277  36.566  1.00  0.00     0.134 A 
ATOM     60  C   UNL A   1      38.861  32.722  37.407  1.00  0.00     0.134 A 
ATOM     61  F   UNL A   1      41.379  34.664  35.652  1.00  0.00    -0.206 F 
ATOM     62  C   UNL A   1      40.287  35.090  37.685  1.00  0.00     0.040 A 
ATOM     63  C   UNL A   1      38.646  33.538  38.519  1.00  0.00     0.040 A 
ATOM     64  F   UNL A   1      38.156  31.584  37.314  1.00  0.00    -0.206 F 
ATOM     65  C   UNL A   1      39.365  34.723  38.663  1.00  0.00     0.006 A 
ENDBRANCH  44  58
BRANCH  45  66
ATOM     66  C   UNL A   1      40.870  27.655  28.122  1.00  0.00     0.057 A 
ATOM     67  C   UNL A   1      41.668  28.129  27.075  1.00  0.00     0.134 A 
ATOM     68  C   UNL A   1      40.253  26.410  27.953  1.00  0.00     0.134 A 
ATOM     69  F   UNL A   1      42.268  29.324  27.173  1.00  0.00    -0.206 F 
ATOM     70  C   UNL A   1      41.834  27.403  25.895  1.00  0.00     0.040 A 
ATOM     71  C   UNL A   1      40.426  25.663  26.788  1.00  0.00     0.040 A 
ATOM     72  F   UNL A   1      39.481  25.900  28.924  1.00  0.00    -0.206 F 
ATOM     73  C   UNL A   1      41.214  26.162  25.752  1.00  0.00     0.006 A 
ENDBRANCH  45  66
BRANCH  57  74
ATOM     74  C   UNL A   1      44.083  27.686  34.290  1.00  0.00     0.057 A 
ATOM     75  C   UNL A   1      45.419  28.099  34.212  1.00  0.00     0.134 A 
ATOM     76  C   UNL A   1      43.813  26.476  34.940  1.00  0.00     0.134 A 
ATOM     77  F   UNL A   1      45.743  29.242  33.590  1.00  0.00    -0.206 F 
ATOM     78  C   UNL A   1      46.451  27.324  34.745  1.00  0.00     0.040 A 
ATOM     79  C   UNL A   1      44.834  25.704  35.495  1.00  0.00     0.040 A 
ATOM     80  F   UNL A   1      42.553  26.029  35.054  1.00  0.00    -0.206 F 
ATOM     81  C   UNL A   1      46.159  26.126  35.392  1.00  0.00     0.006 A 
ENDBRANCH  57  74
ENDBRANCH  31  32
ENDBRANCH  23  26
ENDBRANCH  21  22
ENDBRANCH  20  21
ENDBRANCH  19  20
ENDBRANCH   3  19
TORSDOF 15
ENDMDL
MODEL 3
REMARK VINA RESULT:     -10.3      2.525      7.557
REMARK SMILES C[C@H](C(=O)NCCCNC(=O)c1ccc(-c2c3nc(c(-c4c(F)cccc4F)c4ccc([nH]4)c(-c4c(F)cccc4F)c4nc(c(-c5c(F)cccc5F)c5ccc2[nH]5)C=C4)C=C3)cc1)[C@@H](C)[N@@H+](C)C[C@H]1C[C@H](O)C1
REMARK SMILES IDX 3 1 4 2 5 3 2 5 1 6 66 7 67 8 68 9 69 10 70 12 71 13 75 14
REMARK SMILES IDX 72 15 73 16 74 17 6 19 7 20 8 21 9 22 10 23 11 25 12 26
REMARK SMILES IDX 13 27 65 28 14 29 64 30 15 31 16 32 17 33 58 34 18 35 63 36
REMARK SMILES IDX 57 37 59 38 19 39 62 40 56 41 55 42 20 44 46 45 29 46 45 47
REMARK SMILES IDX 30 48 33 49 44 50 60 51 31 52 32 53 43 55 61 56 34 57 21 58
REMARK SMILES IDX 22 59 27 60 23 61 24 62 26 63 28 64 25 65 47 66 48 67 53 68
REMARK SMILES IDX 49 69 50 70 52 71 54 72 51 73 35 74 36 75 41 76 37 77 38 78
REMARK SMILES IDX 40 79 42 80 39 81
REMARK H PARENT 5 4 68 11 74 18 9 24 59 43 33 54
REMARK Flexibility Score: inf
ROOT
ATOM      1  C   UNL A   1      31.315  24.252  26.781  1.00  0.00     0.228 C 
ATOM      2  O   UNL A   1      30.257  23.808  27.228  1.00  0.00    -0.275 OA
ATOM      3  N   UNL A   1      31.423  25.605  26.628  1.00  0.00    -0.356 N 
ATOM      4  H   UNL A   1      30.615  26.105  26.889  1.00  0.00     0.163 HD
ENDROOT
BRANCH   1   5
ATOM      5  C   UNL A   1      32.471  23.341  26.387  1.00  0.00     0.133 C 
ATOM      6  C   UNL A   1      32.899  22.536  27.627  1.00  0.00     0.024 C 
BRANCH   5   7
ATOM      7  C   UNL A   1      32.125  22.378  25.208  1.00  0.00     0.192 C 
ATOM      8  C   UNL A   1      31.433  23.054  24.011  1.00  0.00     0.076 C 
BRANCH   7   9
ATOM      9  N   UNL A   1      33.246  21.471  24.836  1.00  0.00    -0.334 N 
ATOM     10  C   UNL A   1      32.834  20.195  24.266  1.00  0.00     0.332 C 
ATOM     11  H   UNL A   1      33.597  21.294  25.778  1.00  0.00     0.348 HD
BRANCH   9  12
ATOM     12  C   UNL A   1      34.457  22.018  24.210  1.00  0.00     0.265 C 
BRANCH  12  13
ATOM     13  C   UNL A   1      35.707  22.007  25.082  1.00  0.00     0.049 C 
ATOM     14  C   UNL A   1      36.193  23.366  25.660  1.00  0.00     0.041 C 
ATOM     15  C   UNL A   1      37.060  21.944  24.325  1.00  0.00     0.041 C 
ATOM     16  C   UNL A   1      37.641  22.892  25.397  1.00  0.00     0.115 C 
BRANCH  16  17
ATOM     17  O   UNL A   1      38.324  22.269  26.504  1.00  0.00    -0.393 OA
ATOM     18  H   UNL A   1      37.762  21.574  26.881  1.00  0.00     0.210 HD
ENDBRANCH  16  17
ENDBRANCH  12  13
ENDBRANCH   9  12
ENDBRANCH   7   9
ENDBRANCH   5   7
ENDBRANCH   1   5
BRANCH   3  19
ATOM     19  C   UNL A   1      32.515  26.441  26.147  1.00  0.00     0.117 C 
BRANCH  19  20
ATOM     20  C   UNL A   1      32.466  27.859  26.709  1.00  0.00     0.042 C 
BRANCH  20  21
ATOM     21  C   UNL A   1      33.818  28.412  27.144  1.00  0.00     0.118 C 
BRANCH  21  22
ATOM     22  N   UNL A   1      33.733  29.788  27.603  1.00  0.00    -0.352 N 
ATOM     23  C   UNL A   1      34.657  30.555  28.270  1.00  0.00     0.251 C 
ATOM     24  H   UNL A   1      32.882  30.241  27.405  1.00  0.00     0.163 HD
ATOM     25  O   UNL A   1      34.317  31.641  28.731  1.00  0.00    -0.269 OA
BRANCH  23  26
ATOM     26  C   UNL A   1      36.052  30.086  28.459  1.00  0.00     0.039 A 
ATOM     27  C   UNL A   1      36.930  30.152  27.372  1.00  0.00     0.014 A 
ATOM     28  C   UNL A   1      36.489  29.536  29.666  1.00  0.00     0.014 A 
ATOM     29  C   UNL A   1      38.250  29.711  27.510  1.00  0.00     0.010 A 
ATOM     30  C   UNL A   1      37.825  29.167  29.825  1.00  0.00     0.010 A 
ATOM     31  C   UNL A   1      38.717  29.237  28.745  1.00  0.00    -0.014 A 
BRANCH  31  32
ATOM     32  C   UNL A   1      40.124  28.789  28.909  1.00  0.00     0.031 A 
ATOM     33  C   UNL A   1      41.158  29.721  29.483  1.00  0.00     0.074 A 
ATOM     34  C   UNL A   1      40.488  27.556  28.507  1.00  0.00     0.049 A 
ATOM     35  N   UNL A   1      42.439  29.523  29.671  1.00  0.00    -0.248 NA
ATOM     36  C   UNL A   1      40.697  31.062  29.876  1.00  0.00     0.031 C 
ATOM     37  C   UNL A   1      39.601  26.571  27.888  1.00  0.00     0.029 A 
ATOM     38  N   UNL A   1      41.705  26.922  28.556  1.00  0.00    -0.354 N 
ATOM     39  C   UNL A   1      42.936  30.712  30.188  1.00  0.00     0.074 A 
ATOM     40  C   UNL A   1      41.831  31.644  30.238  1.00  0.00     0.031 C 
ATOM     41  C   UNL A   1      40.296  25.450  27.636  1.00  0.00     0.029 A 
ATOM     42  C   UNL A   1      41.682  25.645  28.050  1.00  0.00     0.049 A 
ATOM     43  H   UNL A   1      42.517  27.343  28.919  1.00  0.00     0.167 HD
ATOM     44  C   UNL A   1      44.192  30.997  30.609  1.00  0.00     0.037 A 
ATOM     45  C   UNL A   1      42.666  24.733  27.935  1.00  0.00     0.037 A 
ATOM     46  C   UNL A   1      45.289  30.066  30.591  1.00  0.00     0.049 A 
ATOM     47  C   UNL A   1      44.044  25.063  28.433  1.00  0.00     0.074 A 
ATOM     48  C   UNL A   1      46.585  30.249  31.040  1.00  0.00     0.029 A 
ATOM     49  N   UNL A   1      45.215  28.771  30.101  1.00  0.00    -0.354 N 
ATOM     50  N   UNL A   1      44.484  26.174  28.972  1.00  0.00    -0.248 NA
ATOM     51  C   UNL A   1      45.062  24.008  28.318  1.00  0.00     0.031 C 
ATOM     52  C   UNL A   1      47.303  29.072  30.799  1.00  0.00     0.029 A 
ATOM     53  C   UNL A   1      46.445  28.146  30.231  1.00  0.00     0.049 A 
ATOM     54  H   UNL A   1      44.407  28.356  29.719  1.00  0.00     0.167 HD
ATOM     55  C   UNL A   1      45.819  25.947  29.277  1.00  0.00     0.074 A 
ATOM     56  C   UNL A   1      46.114  24.585  28.880  1.00  0.00     0.031 C 
ATOM     57  C   UNL A   1      46.720  26.790  29.836  1.00  0.00     0.037 A 
BRANCH  44  58
ATOM     58  C   UNL A   1      44.442  32.379  31.140  1.00  0.00     0.057 A 
ATOM     59  C   UNL A   1      44.820  33.431  30.296  1.00  0.00     0.134 A 
ATOM     60  C   UNL A   1      44.276  32.667  32.499  1.00  0.00     0.134 A 
ATOM     61  F   UNL A   1      45.008  33.217  28.984  1.00  0.00    -0.206 F 
ATOM     62  C   UNL A   1      45.048  34.716  30.789  1.00  0.00     0.040 A 
ATOM     63  C   UNL A   1      44.479  33.954  33.002  1.00  0.00     0.040 A 
ATOM     64  F   UNL A   1      43.910  31.705  33.360  1.00  0.00    -0.206 F 
ATOM     65  C   UNL A   1      44.872  34.981  32.146  1.00  0.00     0.006 A 
ENDBRANCH  44  58
BRANCH  45  66
ATOM     66  C   UNL A   1      42.374  23.402  27.349  1.00  0.00     0.057 A 
ATOM     67  C   UNL A   1      42.004  22.323  28.160  1.00  0.00     0.134 A 
ATOM     68  C   UNL A   1      42.463  23.175  25.972  1.00  0.00     0.134 A 
ATOM     69  F   UNL A   1      41.922  22.475  29.490  1.00  0.00    -0.206 F 
ATOM     70  C   UNL A   1      41.749  21.060  27.624  1.00  0.00     0.040 A 
ATOM     71  C   UNL A   1      42.190  21.924  25.419  1.00  0.00     0.040 A 
ATOM     72  F   UNL A   1      42.806  24.172  25.142  1.00  0.00    -0.206 F 
ATOM     73  C   UNL A   1      41.837  20.860  26.247  1.00  0.00     0.006 A 
ENDBRANCH  45  66
BRANCH  57  74
ATOM     74  C   UNL A   1      48.102  26.255  30.073  1.00  0.00     0.057 A 
ATOM     75  C   UNL A   1      49.074  26.257  29.065  1.00  0.00     0.134 A 
ATOM     76  C   UNL A   1      48.469  25.758  31.329  1.00  0.00     0.134 A 
ATOM     77  F   UNL A   1      48.780  26.708  27.837  1.00  0.00    -0.206 F 
ATOM     78  C   UNL A   1      50.360  25.764  29.295  1.00  0.00     0.040 A 
ATOM     79  C   UNL A   1      49.757  25.281  31.576  1.00  0.00     0.040 A 
ATOM     80  F   UNL A   1      47.584  25.735  32.338  1.00  0.00    -0.206 F 
ATOM     81  C   UNL A   1      50.705  25.279  30.554  1.00  0.00     0.006 A 
ENDBRANCH  57  74
ENDBRANCH  31  32
ENDBRANCH  23  26
ENDBRANCH  21  22
ENDBRANCH  20  21
ENDBRANCH  19  20
ENDBRANCH   3  19
TORSDOF 15
ENDMDL
