MODEL 1
REMARK VINA RESULT:     -11.9      0.000      0.000
REMARK SMILES C[C@@H]1OCC[C@@H]1C(=O)Nc1ccc(C(=O)NCCCNC(=O)c2ccc(-c3c4nc(c(-c5c(F)cccc5F)c5ccc([nH]5)c(-c5c(F)cccc5F)c5nc(c(-c6c(F)cccc6F)c6ccc3[nH]6)C=C5)C=C4)cc2)cc1F
REMARK SMILES IDX 18 1 17 2 16 3 14 4 15 5 13 7 10 8 11 9 78 10 12 11 77 12
REMARK SMILES IDX 79 13 9 14 7 15 8 16 6 18 1 19 2 20 3 21 4 22 5 23 19 24
REMARK SMILES IDX 20 25 21 26 22 28 23 29 24 30 76 31 25 32 75 33 26 34 27 35
REMARK SMILES IDX 28 36 69 37 29 38 74 39 68 40 70 41 30 42 73 43 67 44 66 45
REMARK SMILES IDX 31 47 57 48 40 49 56 50 41 51 44 52 55 53 71 54 42 55 43 56
REMARK SMILES IDX 54 58 72 59 45 60 32 61 33 62 38 63 34 64 35 65 37 66 39 67
REMARK SMILES IDX 36 68 58 69 59 70 64 71 60 72 61 73 63 74 65 75 62 76 46 77
REMARK SMILES IDX 47 78 52 79 48 80 49 81 51 82 53 83 50 84
REMARK H PARENT 16 6 9 17 20 27 70 46 44 57
REMARK Flexibility Score: inf
ROOT
ATOM      1  C   UNL A   1      31.406  32.191  26.721  1.00  0.00     0.042 C 
ENDROOT
BRANCH   1   2
ATOM      2  C   UNL A   1      31.597  30.790  26.120  1.00  0.00     0.118 C 
BRANCH   2   3
ATOM      3  N   UNL A   1      31.525  29.744  27.142  1.00  0.00    -0.352 N 
ATOM      4  C   UNL A   1      31.713  28.376  27.120  1.00  0.00     0.251 C 
ATOM      5  O   UNL A   1      31.641  27.762  28.183  1.00  0.00    -0.269 OA
ATOM      6  H   UNL A   1      31.295  30.089  28.034  1.00  0.00     0.163 HD
BRANCH   4   7
ATOM      7  C   UNL A   1      32.058  27.623  25.883  1.00  0.00     0.042 A 
ATOM      8  C   UNL A   1      32.695  25.874  23.725  1.00  0.00     0.077 A 
ATOM      9  C   UNL A   1      31.420  26.448  23.834  1.00  0.00     0.030 A 
ATOM     10  C   UNL A   1      33.578  26.182  24.745  1.00  0.00     0.147 A 
ATOM     11  C   UNL A   1      31.086  27.270  24.937  1.00  0.00     0.016 A 
ATOM     12  C   UNL A   1      33.333  27.170  25.668  1.00  0.00     0.055 A 
ATOM     13  F   UNL A   1      34.666  25.478  25.034  1.00  0.00    -0.205 F 
BRANCH   8  14
ATOM     14  N   UNL A   1      32.994  25.096  22.582  1.00  0.00    -0.323 N 
ATOM     15  C   UNL A   1      33.109  23.747  22.341  1.00  0.00     0.230 C 
ATOM     16  O   UNL A   1      33.514  23.410  21.224  1.00  0.00    -0.274 OA
ATOM     17  H   UNL A   1      33.154  25.641  21.779  1.00  0.00     0.170 HD
BRANCH  15  18
ATOM     18  C   UNL A   1      32.723  22.701  23.365  1.00  0.00     0.110 C 
ATOM     19  C   UNL A   1      35.210  22.318  23.999  1.00  0.00     0.039 C 
ATOM     20  C   UNL A   1      33.758  22.361  24.450  1.00  0.00     0.127 C 
ATOM     21  O   UNL A   1      33.405  21.048  24.947  1.00  0.00    -0.378 OA
ATOM     22  C   UNL A   1      32.302  20.569  24.167  1.00  0.00     0.161 C 
ATOM     23  C   UNL A   1      32.393  21.312  22.849  1.00  0.00     0.044 C 
ENDBRANCH  15  18
ENDBRANCH   8  14
ENDBRANCH   4   7
ENDBRANCH   2   3
ENDBRANCH   1   2
BRANCH   1  24
ATOM     24  C   UNL A   1      32.722  32.922  26.945  1.00  0.00     0.118 C 
BRANCH  24  25
ATOM     25  N   UNL A   1      32.522  34.153  27.692  1.00  0.00    -0.352 N 
ATOM     26  C   UNL A   1      33.158  34.634  28.805  1.00  0.00     0.251 C 
ATOM     27  H   UNL A   1      31.813  34.738  27.338  1.00  0.00     0.163 HD
ATOM     28  O   UNL A   1      32.688  35.611  29.379  1.00  0.00    -0.269 OA
BRANCH  26  29
ATOM     29  C   UNL A   1      34.382  33.991  29.333  1.00  0.00     0.039 A 
ATOM     30  C   UNL A   1      34.230  32.984  30.292  1.00  0.00     0.014 A 
ATOM     31  C   UNL A   1      35.663  34.400  28.954  1.00  0.00     0.014 A 
ATOM     32  C   UNL A   1      35.355  32.370  30.842  1.00  0.00     0.010 A 
ATOM     33  C   UNL A   1      36.786  33.738  29.450  1.00  0.00     0.010 A 
ATOM     34  C   UNL A   1      36.643  32.722  30.405  1.00  0.00    -0.014 A 
BRANCH  34  35
ATOM     35  C   UNL A   1      37.834  32.013  30.936  1.00  0.00     0.031 A 
ATOM     36  C   UNL A   1      38.380  32.337  32.298  1.00  0.00     0.074 A 
ATOM     37  C   UNL A   1      38.437  31.085  30.168  1.00  0.00     0.049 A 
ATOM     38  N   UNL A   1      39.404  31.808  32.921  1.00  0.00    -0.248 NA
ATOM     39  C   UNL A   1      37.707  33.405  33.054  1.00  0.00     0.031 C 
ATOM     40  C   UNL A   1      38.029  30.724  28.810  1.00  0.00     0.029 A 
ATOM     41  N   UNL A   1      39.516  30.276  30.418  1.00  0.00    -0.354 N 
ATOM     42  C   UNL A   1      39.499  32.479  34.133  1.00  0.00     0.074 A 
ATOM     43  C   UNL A   1      38.463  33.488  34.141  1.00  0.00     0.031 C 
ATOM     44  C   UNL A   1      38.822  29.737  28.362  1.00  0.00     0.029 A 
ATOM     45  C   UNL A   1      39.816  29.425  29.383  1.00  0.00     0.049 A 
ATOM     46  H   UNL A   1      40.027  30.303  31.260  1.00  0.00     0.167 HD
ATOM     47  C   UNL A   1      40.359  32.256  35.155  1.00  0.00     0.037 A 
ATOM     48  C   UNL A   1      40.782  28.495  29.267  1.00  0.00     0.037 A 
ATOM     49  C   UNL A   1      41.371  31.232  35.153  1.00  0.00     0.049 A 
ATOM     50  C   UNL A   1      41.719  28.264  30.418  1.00  0.00     0.074 A 
ATOM     51  C   UNL A   1      42.244  30.884  36.169  1.00  0.00     0.029 A 
ATOM     52  N   UNL A   1      41.648  30.394  34.083  1.00  0.00    -0.354 N 
ATOM     53  N   UNL A   1      41.753  28.859  31.585  1.00  0.00    -0.248 NA
ATOM     54  C   UNL A   1      42.749  27.231  30.239  1.00  0.00     0.031 C 
ATOM     55  C   UNL A   1      43.083  29.872  35.696  1.00  0.00     0.029 A 
ATOM     56  C   UNL A   1      42.698  29.549  34.406  1.00  0.00     0.049 A 
ATOM     57  H   UNL A   1      41.168  30.397  33.223  1.00  0.00     0.167 HD
ATOM     58  C   UNL A   1      42.794  28.267  32.285  1.00  0.00     0.074 A 
ATOM     59  C   UNL A   1      43.353  27.247  31.420  1.00  0.00     0.031 C 
ATOM     60  C   UNL A   1      43.250  28.545  33.531  1.00  0.00     0.037 A 
BRANCH  47  61
ATOM     61  C   UNL A   1      40.241  33.122  36.377  1.00  0.00     0.057 A 
ATOM     62  C   UNL A   1      39.286  32.841  37.363  1.00  0.00     0.134 A 
ATOM     63  C   UNL A   1      41.012  34.280  36.535  1.00  0.00     0.134 A 
ATOM     64  F   UNL A   1      38.510  31.751  37.269  1.00  0.00    -0.206 F 
ATOM     65  C   UNL A   1      39.091  33.691  38.453  1.00  0.00     0.040 A 
ATOM     66  C   UNL A   1      40.844  35.124  37.635  1.00  0.00     0.040 A 
ATOM     67  F   UNL A   1      41.950  34.602  35.633  1.00  0.00    -0.206 F 
ATOM     68  C   UNL A   1      39.873  34.836  38.592  1.00  0.00     0.006 A 
ENDBRANCH  47  61
BRANCH  48  69
ATOM     69  C   UNL A   1      40.882  27.695  28.021  1.00  0.00     0.057 A 
ATOM     70  C   UNL A   1      40.261  26.444  27.904  1.00  0.00     0.134 A 
ATOM     71  C   UNL A   1      41.633  28.146  26.929  1.00  0.00     0.134 A 
ATOM     72  F   UNL A   1      39.535  25.951  28.918  1.00  0.00    -0.206 F 
ATOM     73  C   UNL A   1      40.399  25.664  26.755  1.00  0.00     0.040 A 
ATOM     74  C   UNL A   1      41.758  27.388  25.765  1.00  0.00     0.040 A 
ATOM     75  F   UNL A   1      42.238  29.342  26.975  1.00  0.00    -0.206 F 
ATOM     76  C   UNL A   1      41.146  26.139  25.679  1.00  0.00     0.006 A 
ENDBRANCH  48  69
BRANCH  60  77
ATOM     77  C   UNL A   1      44.409  27.738  34.040  1.00  0.00     0.057 A 
ATOM     78  C   UNL A   1      44.199  26.516  34.691  1.00  0.00     0.134 A 
ATOM     79  C   UNL A   1      45.727  28.202  33.942  1.00  0.00     0.134 A 
ATOM     80  F   UNL A   1      42.961  26.020  34.828  1.00  0.00    -0.206 F 
ATOM     81  C   UNL A   1      45.258  25.789  35.236  1.00  0.00     0.040 A 
ATOM     82  C   UNL A   1      46.797  27.471  34.459  1.00  0.00     0.040 A 
ATOM     83  F   UNL A   1      45.995  29.361  33.321  1.00  0.00    -0.206 F 
ATOM     84  C   UNL A   1      46.563  26.264  35.117  1.00  0.00     0.006 A 
ENDBRANCH  60  77
ENDBRANCH  34  35
ENDBRANCH  26  29
ENDBRANCH  24  25
ENDBRANCH   1  24
TORSDOF 12
ENDMDL
MODEL 2
REMARK VINA RESULT:     -11.9      4.169      9.346
REMARK SMILES C[C@@H]1OCC[C@@H]1C(=O)Nc1ccc(C(=O)NCCCNC(=O)c2ccc(-c3c4nc(c(-c5c(F)cccc5F)c5ccc([nH]5)c(-c5c(F)cccc5F)c5nc(c(-c6c(F)cccc6F)c6ccc3[nH]6)C=C5)C=C4)cc2)cc1F
REMARK SMILES IDX 18 1 17 2 16 3 14 4 15 5 13 7 10 8 11 9 78 10 12 11 77 12
REMARK SMILES IDX 79 13 9 14 7 15 8 16 6 18 1 19 2 20 3 21 4 22 5 23 19 24
REMARK SMILES IDX 20 25 21 26 22 28 23 29 24 30 76 31 25 32 75 33 26 34 27 35
REMARK SMILES IDX 28 36 69 37 29 38 74 39 68 40 70 41 30 42 73 43 67 44 66 45
REMARK SMILES IDX 31 47 57 48 40 49 56 50 41 51 44 52 55 53 71 54 42 55 43 56
REMARK SMILES IDX 54 58 72 59 45 60 32 61 33 62 38 63 34 64 35 65 37 66 39 67
REMARK SMILES IDX 36 68 58 69 59 70 64 71 60 72 61 73 63 74 65 75 62 76 46 77
REMARK SMILES IDX 47 78 52 79 48 80 49 81 51 82 53 83 50 84
REMARK H PARENT 16 6 9 17 20 27 70 46 44 57
REMARK Flexibility Score: inf
ROOT
ATOM      1  C   UNL A   1      37.430  19.495  24.946  1.00  0.00     0.042 C 
ENDROOT
BRANCH   1   2
ATOM      2  C   UNL A   1      36.157  20.355  24.968  1.00  0.00     0.118 C 
BRANCH   2   3
ATOM      3  N   UNL A   1      34.944  19.534  24.984  1.00  0.00    -0.352 N 
ATOM      4  C   UNL A   1      33.616  19.799  25.259  1.00  0.00     0.251 C 
ATOM      5  O   UNL A   1      32.802  18.888  25.123  1.00  0.00    -0.269 OA
ATOM      6  H   UNL A   1      35.111  18.593  24.749  1.00  0.00     0.163 HD
BRANCH   4   7
ATOM      7  C   UNL A   1      33.122  21.147  25.650  1.00  0.00     0.042 A 
ATOM      8  C   UNL A   1      31.847  23.562  26.466  1.00  0.00     0.077 A 
ATOM      9  C   UNL A   1      32.743  22.897  27.318  1.00  0.00     0.030 A 
ATOM     10  C   UNL A   1      31.608  22.944  25.252  1.00  0.00     0.147 A 
ATOM     11  C   UNL A   1      33.331  21.667  26.935  1.00  0.00     0.016 A 
ATOM     12  C   UNL A   1      32.364  21.896  24.788  1.00  0.00     0.055 A 
ATOM     13  F   UNL A   1      30.553  23.187  24.482  1.00  0.00    -0.205 F 
BRANCH   8  14
ATOM     14  N   UNL A   1      31.321  24.809  26.877  1.00  0.00    -0.323 N 
ATOM     15  C   UNL A   1      31.382  26.089  26.379  1.00  0.00     0.230 C 
ATOM     16  O   UNL A   1      30.896  26.985  27.076  1.00  0.00    -0.274 OA
ATOM     17  H   UNL A   1      30.790  24.746  27.704  1.00  0.00     0.170 HD
BRANCH  15  18
ATOM     18  C   UNL A   1      31.973  26.407  25.023  1.00  0.00     0.110 C 
ATOM     19  C   UNL A   1      33.979  27.636  26.120  1.00  0.00     0.039 C 
ATOM     20  C   UNL A   1      33.465  26.778  24.974  1.00  0.00     0.127 C 
ATOM     21  O   UNL A   1      33.657  27.516  23.743  1.00  0.00    -0.378 OA
ATOM     22  C   UNL A   1      32.373  27.676  23.126  1.00  0.00     0.161 C 
ATOM     23  C   UNL A   1      31.371  27.573  24.259  1.00  0.00     0.044 C 
ENDBRANCH  15  18
ENDBRANCH   8  14
ENDBRANCH   4   7
ENDBRANCH   2   3
ENDBRANCH   1   2
BRANCH   1  24
ATOM     24  C   UNL A   1      38.660  20.250  25.430  1.00  0.00     0.118 C 
BRANCH  24  25
ATOM     25  N   UNL A   1      39.789  19.354  25.619  1.00  0.00    -0.352 N 
ATOM     26  C   UNL A   1      41.059  19.603  26.066  1.00  0.00     0.251 C 
ATOM     27  H   UNL A   1      39.611  18.414  25.387  1.00  0.00     0.163 HD
ATOM     28  O   UNL A   1      41.907  18.722  25.958  1.00  0.00    -0.269 OA
BRANCH  26  29
ATOM     29  C   UNL A   1      41.427  20.908  26.658  1.00  0.00     0.039 A 
ATOM     30  C   UNL A   1      41.886  21.910  25.797  1.00  0.00     0.014 A 
ATOM     31  C   UNL A   1      41.392  21.140  28.036  1.00  0.00     0.014 A 
ATOM     32  C   UNL A   1      42.274  23.147  26.311  1.00  0.00     0.010 A 
ATOM     33  C   UNL A   1      41.711  22.399  28.543  1.00  0.00     0.010 A 
ATOM     34  C   UNL A   1      42.164  23.412  27.686  1.00  0.00    -0.014 A 
BRANCH  34  35
ATOM     35  C   UNL A   1      42.505  24.755  28.220  1.00  0.00     0.031 A 
ATOM     36  C   UNL A   1      43.920  25.100  28.591  1.00  0.00     0.074 A 
ATOM     37  C   UNL A   1      41.521  25.659  28.392  1.00  0.00     0.049 A 
ATOM     38  N   UNL A   1      44.396  26.227  29.060  1.00  0.00    -0.248 NA
ATOM     39  C   UNL A   1      44.931  24.043  28.436  1.00  0.00     0.031 C 
ATOM     40  C   UNL A   1      40.103  25.420  28.117  1.00  0.00     0.029 A 
ATOM     41  N   UNL A   1      41.561  26.956  28.832  1.00  0.00    -0.354 N 
ATOM     42  C   UNL A   1      45.754  26.012  29.259  1.00  0.00     0.074 A 
ATOM     43  C   UNL A   1      46.020  24.634  28.909  1.00  0.00     0.031 C 
ATOM     44  C   UNL A   1      39.414  26.546  28.357  1.00  0.00     0.029 A 
ATOM     45  C   UNL A   1      40.333  27.572  28.838  1.00  0.00     0.049 A 
ATOM     46  H   UNL A   1      42.390  27.405  29.117  1.00  0.00     0.167 HD
ATOM     47  C   UNL A   1      46.694  26.893  29.674  1.00  0.00     0.037 A 
ATOM     48  C   UNL A   1      39.983  28.824  29.191  1.00  0.00     0.037 A 
ATOM     49  C   UNL A   1      46.428  28.271  29.996  1.00  0.00     0.049 A 
ATOM     50  C   UNL A   1      41.048  29.782  29.642  1.00  0.00     0.074 A 
ATOM     51  C   UNL A   1      47.327  29.258  30.359  1.00  0.00     0.029 A 
ATOM     52  N   UNL A   1      45.170  28.856  29.995  1.00  0.00    -0.354 N 
ATOM     53  N   UNL A   1      42.339  29.585  29.759  1.00  0.00    -0.248 NA
ATOM     54  C   UNL A   1      40.611  31.137  30.006  1.00  0.00     0.031 C 
ATOM     55  C   UNL A   1      46.609  30.426  30.629  1.00  0.00     0.029 A 
ATOM     56  C   UNL A   1      45.268  30.183  30.380  1.00  0.00     0.049 A 
ATOM     57  H   UNL A   1      44.333  28.397  29.756  1.00  0.00     0.167 HD
ATOM     58  C   UNL A   1      42.871  30.790  30.196  1.00  0.00     0.074 A 
ATOM     59  C   UNL A   1      41.765  31.721  30.300  1.00  0.00     0.031 C 
ATOM     60  C   UNL A   1      44.158  31.096  30.489  1.00  0.00     0.037 A 
BRANCH  47  61
ATOM     61  C   UNL A   1      48.111  26.407  29.793  1.00  0.00     0.057 A 
ATOM     62  C   UNL A   1      48.986  26.481  28.702  1.00  0.00     0.134 A 
ATOM     63  C   UNL A   1      48.581  25.788  30.958  1.00  0.00     0.134 A 
ATOM     64  F   UNL A   1      48.597  27.054  27.554  1.00  0.00    -0.206 F 
ATOM     65  C   UNL A   1      50.272  25.941  28.761  1.00  0.00     0.040 A 
ATOM     66  C   UNL A   1      49.874  25.268  31.037  1.00  0.00     0.040 A 
ATOM     67  F   UNL A   1      47.797  25.693  32.042  1.00  0.00    -0.206 F 
ATOM     68  C   UNL A   1      50.720  25.334  29.931  1.00  0.00     0.006 A 
ENDBRANCH  47  61
BRANCH  48  69
ATOM     69  C   UNL A   1      38.563  29.242  29.095  1.00  0.00     0.057 A 
ATOM     70  C   UNL A   1      38.017  29.705  27.891  1.00  0.00     0.134 A 
ATOM     71  C   UNL A   1      37.725  29.222  30.216  1.00  0.00     0.134 A 
ATOM     72  F   UNL A   1      38.770  29.758  26.782  1.00  0.00    -0.206 F 
ATOM     73  C   UNL A   1      36.697  30.152  27.810  1.00  0.00     0.040 A 
ATOM     74  C   UNL A   1      36.397  29.641  30.144  1.00  0.00     0.040 A 
ATOM     75  F   UNL A   1      38.185  28.774  31.394  1.00  0.00    -0.206 F 
ATOM     76  C   UNL A   1      35.882  30.116  28.939  1.00  0.00     0.006 A 
ENDBRANCH  48  69
BRANCH  60  77
ATOM     77  C   UNL A   1      44.448  32.495  30.950  1.00  0.00     0.057 A 
ATOM     78  C   UNL A   1      44.755  33.504  30.027  1.00  0.00     0.134 A 
ATOM     79  C   UNL A   1      44.487  32.828  32.309  1.00  0.00     0.134 A 
ATOM     80  F   UNL A   1      44.746  33.249  28.710  1.00  0.00    -0.206 F 
ATOM     81  C   UNL A   1      45.100  34.791  30.442  1.00  0.00     0.040 A 
ATOM     82  C   UNL A   1      44.805  34.118  32.735  1.00  0.00     0.040 A 
ATOM     83  F   UNL A   1      44.194  31.909  33.243  1.00  0.00    -0.206 F 
ATOM     84  C   UNL A   1      45.122  35.102  31.800  1.00  0.00     0.006 A 
ENDBRANCH  60  77
ENDBRANCH  34  35
ENDBRANCH  26  29
ENDBRANCH  24  25
ENDBRANCH   1  24
TORSDOF 12
ENDMDL
MODEL 3
REMARK VINA RESULT:     -11.9      0.119      1.320
REMARK SMILES C[C@@H]1OCC[C@@H]1C(=O)Nc1ccc(C(=O)NCCCNC(=O)c2ccc(-c3c4nc(c(-c5c(F)cccc5F)c5ccc([nH]5)c(-c5c(F)cccc5F)c5nc(c(-c6c(F)cccc6F)c6ccc3[nH]6)C=C5)C=C4)cc2)cc1F
REMARK SMILES IDX 18 1 17 2 16 3 14 4 15 5 13 7 10 8 11 9 78 10 12 11 77 12
REMARK SMILES IDX 79 13 9 14 7 15 8 16 6 18 1 19 2 20 3 21 4 22 5 23 19 24
REMARK SMILES IDX 20 25 21 26 22 28 23 29 24 30 76 31 25 32 75 33 26 34 27 35
REMARK SMILES IDX 28 36 69 37 29 38 74 39 68 40 70 41 30 42 73 43 67 44 66 45
REMARK SMILES IDX 31 47 57 48 40 49 56 50 41 51 44 52 55 53 71 54 42 55 43 56
REMARK SMILES IDX 54 58 72 59 45 60 32 61 33 62 38 63 34 64 35 65 37 66 39 67
REMARK SMILES IDX 36 68 58 69 59 70 64 71 60 72 61 73 63 74 65 75 62 76 46 77
REMARK SMILES IDX 47 78 52 79 48 80 49 81 51 82 53 83 50 84
REMARK H PARENT 16 6 9 17 20 27 70 46 44 57
REMARK Flexibility Score: inf
ROOT
ATOM      1  C   UNL A   1      31.383  32.186  26.579  1.00  0.00     0.042 C 
ENDROOT
BRANCH   1   2
ATOM      2  C   UNL A   1      31.517  30.764  26.013  1.00  0.00     0.118 C 
BRANCH   2   3
ATOM      3  N   UNL A   1      31.500  29.753  27.072  1.00  0.00    -0.352 N 
ATOM      4  C   UNL A   1      31.716  28.388  27.091  1.00  0.00     0.251 C 
ATOM      5  O   UNL A   1      31.691  27.811  28.176  1.00  0.00    -0.269 OA
ATOM      6  H   UNL A   1      31.292  30.124  27.959  1.00  0.00     0.163 HD
BRANCH   4   7
ATOM      7  C   UNL A   1      32.035  27.601  25.869  1.00  0.00     0.042 A 
ATOM      8  C   UNL A   1      32.645  25.791  23.753  1.00  0.00     0.077 A 
ATOM      9  C   UNL A   1      31.355  26.327  23.894  1.00  0.00     0.030 A 
ATOM     10  C   UNL A   1      33.557  26.167  24.723  1.00  0.00     0.147 A 
ATOM     11  C   UNL A   1      31.039  27.180  24.978  1.00  0.00     0.016 A 
ATOM     12  C   UNL A   1      33.316  27.181  25.618  1.00  0.00     0.055 A 
ATOM     13  F   UNL A   1      34.680  25.511  24.992  1.00  0.00    -0.205 F 
BRANCH   8  14
ATOM     14  N   UNL A   1      32.923  24.980  22.628  1.00  0.00    -0.323 N 
ATOM     15  C   UNL A   1      33.046  23.625  22.428  1.00  0.00     0.230 C 
ATOM     16  O   UNL A   1      33.427  23.256  21.312  1.00  0.00    -0.274 OA
ATOM     17  H   UNL A   1      33.058  25.501  21.805  1.00  0.00     0.170 HD
BRANCH  15  18
ATOM     18  C   UNL A   1      32.696  22.609  23.493  1.00  0.00     0.110 C 
ATOM     19  C   UNL A   1      35.199  22.300  24.105  1.00  0.00     0.039 C 
ATOM     20  C   UNL A   1      33.753  22.330  24.575  1.00  0.00     0.127 C 
ATOM     21  O   UNL A   1      33.435  21.028  25.123  1.00  0.00    -0.378 OA
ATOM     22  C   UNL A   1      32.331  20.499  24.377  1.00  0.00     0.161 C 
ATOM     23  C   UNL A   1      32.389  21.196  23.031  1.00  0.00     0.044 C 
ENDBRANCH  15  18
ENDBRANCH   8  14
ENDBRANCH   4   7
ENDBRANCH   2   3
ENDBRANCH   1   2
BRANCH   1  24
ATOM     24  C   UNL A   1      32.717  32.776  27.016  1.00  0.00     0.118 C 
BRANCH  24  25
ATOM     25  N   UNL A   1      32.534  34.043  27.704  1.00  0.00    -0.352 N 
ATOM     26  C   UNL A   1      33.185  34.572  28.787  1.00  0.00     0.251 C 
ATOM     27  H   UNL A   1      31.826  34.616  27.331  1.00  0.00     0.163 HD
ATOM     28  O   UNL A   1      32.728  35.580  29.317  1.00  0.00    -0.269 OA
BRANCH  26  29
ATOM     29  C   UNL A   1      34.410  33.946  29.332  1.00  0.00     0.039 A 
ATOM     30  C   UNL A   1      34.257  32.911  30.261  1.00  0.00     0.014 A 
ATOM     31  C   UNL A   1      35.691  34.396  28.999  1.00  0.00     0.014 A 
ATOM     32  C   UNL A   1      35.382  32.311  30.827  1.00  0.00     0.010 A 
ATOM     33  C   UNL A   1      36.815  33.748  29.510  1.00  0.00     0.010 A 
ATOM     34  C   UNL A   1      36.672  32.705  30.436  1.00  0.00    -0.014 A 
BRANCH  34  35
ATOM     35  C   UNL A   1      37.865  32.012  30.982  1.00  0.00     0.031 A 
ATOM     36  C   UNL A   1      38.402  32.357  32.342  1.00  0.00     0.074 A 
ATOM     37  C   UNL A   1      38.480  31.080  30.228  1.00  0.00     0.049 A 
ATOM     38  N   UNL A   1      39.426  31.844  32.977  1.00  0.00    -0.248 NA
ATOM     39  C   UNL A   1      37.717  33.429  33.081  1.00  0.00     0.031 C 
ATOM     40  C   UNL A   1      38.082  30.698  28.872  1.00  0.00     0.029 A 
ATOM     41  N   UNL A   1      39.564  30.282  30.494  1.00  0.00    -0.354 N 
ATOM     42  C   UNL A   1      39.510  32.531  34.181  1.00  0.00     0.074 A 
ATOM     43  C   UNL A   1      38.466  33.532  34.170  1.00  0.00     0.031 C 
ATOM     44  C   UNL A   1      38.884  29.712  28.441  1.00  0.00     0.029 A 
ATOM     45  C   UNL A   1      39.875  29.420  29.472  1.00  0.00     0.049 A 
ATOM     46  H   UNL A   1      40.070  30.323  31.338  1.00  0.00     0.167 HD
ATOM     47  C   UNL A   1      40.366  32.327  35.210  1.00  0.00     0.037 A 
ATOM     48  C   UNL A   1      40.850  28.496  29.372  1.00  0.00     0.037 A 
ATOM     49  C   UNL A   1      41.386  31.311  35.226  1.00  0.00     0.049 A 
ATOM     50  C   UNL A   1      41.782  28.286  30.531  1.00  0.00     0.074 A 
ATOM     51  C   UNL A   1      42.256  30.983  36.251  1.00  0.00     0.029 A 
ATOM     52  N   UNL A   1      41.674  30.461  34.168  1.00  0.00    -0.354 N 
ATOM     53  N   UNL A   1      41.805  28.897  31.691  1.00  0.00    -0.248 NA
ATOM     54  C   UNL A   1      42.820  27.259  30.371  1.00  0.00     0.031 C 
ATOM     55  C   UNL A   1      43.105  29.971  35.796  1.00  0.00     0.029 A 
ATOM     56  C   UNL A   1      42.729  29.629  34.507  1.00  0.00     0.049 A 
ATOM     57  H   UNL A   1      41.200  30.450  33.306  1.00  0.00     0.167 HD
ATOM     58  C   UNL A   1      42.847  28.321  32.404  1.00  0.00     0.074 A 
ATOM     59  C   UNL A   1      43.417  27.295  31.555  1.00  0.00     0.031 C 
ATOM     60  C   UNL A   1      43.294  28.618  33.648  1.00  0.00     0.037 A 
BRANCH  47  61
ATOM     61  C   UNL A   1      40.235  33.207  36.421  1.00  0.00     0.057 A 
ATOM     62  C   UNL A   1      39.286  32.924  37.411  1.00  0.00     0.134 A 
ATOM     63  C   UNL A   1      40.986  34.380  36.562  1.00  0.00     0.134 A 
ATOM     64  F   UNL A   1      38.527  31.820  37.333  1.00  0.00    -0.206 F 
ATOM     65  C   UNL A   1      39.078  33.785  38.490  1.00  0.00     0.040 A 
ATOM     66  C   UNL A   1      40.806  35.236  37.651  1.00  0.00     0.040 A 
ATOM     67  F   UNL A   1      41.918  34.705  35.654  1.00  0.00    -0.206 F 
ATOM     68  C   UNL A   1      39.840  34.945  38.613  1.00  0.00     0.006 A 
ENDBRANCH  47  61
BRANCH  48  69
ATOM     69  C   UNL A   1      40.962  27.681  28.137  1.00  0.00     0.057 A 
ATOM     70  C   UNL A   1      41.695  28.128  27.030  1.00  0.00     0.134 A 
ATOM     71  C   UNL A   1      40.308  26.449  28.022  1.00  0.00     0.134 A 
ATOM     72  F   UNL A   1      42.336  29.305  27.074  1.00  0.00    -0.206 F 
ATOM     73  C   UNL A   1      41.756  27.390  25.847  1.00  0.00     0.040 A 
ATOM     74  C   UNL A   1      40.382  25.688  26.854  1.00  0.00     0.040 A 
ATOM     75  F   UNL A   1      39.604  25.960  29.053  1.00  0.00    -0.206 F 
ATOM     76  C   UNL A   1      41.102  26.163  25.760  1.00  0.00     0.006 A 
ENDBRANCH  48  69
BRANCH  60  77
ATOM     77  C   UNL A   1      44.455  27.827  34.173  1.00  0.00     0.057 A 
ATOM     78  C   UNL A   1      45.771  28.266  33.975  1.00  0.00     0.134 A 
ATOM     79  C   UNL A   1      44.275  26.598  34.821  1.00  0.00     0.134 A 
ATOM     80  F   UNL A   1      46.014  29.429  33.352  1.00  0.00    -0.206 F 
ATOM     81  C   UNL A   1      46.865  27.507  34.391  1.00  0.00     0.040 A 
ATOM     82  C   UNL A   1      45.360  25.842  35.266  1.00  0.00     0.040 A 
ATOM     83  F   UNL A   1      43.040  26.127  35.051  1.00  0.00    -0.206 F 
ATOM     84  C   UNL A   1      46.661  26.292  35.043  1.00  0.00     0.006 A 
ENDBRANCH  60  77
ENDBRANCH  34  35
ENDBRANCH  26  29
ENDBRANCH  24  25
ENDBRANCH   1  24
TORSDOF 12
ENDMDL
