MODEL 1
REMARK VINA RESULT:     -12.3      0.000      0.000
REMARK SMILES CCN(CC)c1ncc(NC(=O)c2ccc(C)cc2)cc1C(=O)NCCCNC(=O)c1ccc(-c2c3nc(c(-c4c(F)cccc4F)c4ccc([nH]4)c(-c4c(F)cccc4F)c4nc(c(-c5c(F)cccc5F)c5ccc2[nH]5)C=C4)C=C3)cc1
REMARK SMILES IDX 26 1 25 2 24 3 22 4 23 5 21 7 6 8 7 9 8 10 20 11 9 12 3 13
REMARK SMILES IDX 2 14 1 15 4 16 5 17 10 18 11 19 12 21 13 22 14 23 19 24
REMARK SMILES IDX 15 25 18 26 16 27 17 28 27 29 28 30 29 31 30 33 31 34 32 35
REMARK SMILES IDX 84 36 33 37 83 38 34 39 35 40 36 41 77 42 37 43 82 44 76 45
REMARK SMILES IDX 78 46 38 47 81 48 75 49 74 50 39 52 65 53 48 54 64 55 49 56
REMARK SMILES IDX 52 57 63 58 79 59 50 60 51 61 62 63 80 64 53 65 40 66 41 67
REMARK SMILES IDX 46 68 42 69 43 70 45 71 47 72 44 73 66 74 67 75 72 76 68 77
REMARK SMILES IDX 69 78 71 79 73 80 70 81 54 82 55 83 60 84 56 85 57 86 59 87
REMARK SMILES IDX 61 88 58 89
REMARK H PARENT 24 6 10 20 28 32 78 51 52 62
REMARK Flexibility Score: inf
ROOT
ATOM      1  C   UNL A   1      33.125  30.923  27.114  1.00  0.00     0.042 C 
ENDROOT
BRANCH   1   2
ATOM      2  C   UNL A   1      32.504  30.079  26.006  1.00  0.00     0.118 C 
BRANCH   2   3
ATOM      3  N   UNL A   1      31.610  29.038  26.486  1.00  0.00    -0.352 N 
ATOM      4  C   UNL A   1      31.671  27.659  26.507  1.00  0.00     0.255 C 
ATOM      5  O   UNL A   1      31.064  27.152  27.452  1.00  0.00    -0.269 OA
ATOM      6  H   UNL A   1      30.782  29.394  26.882  1.00  0.00     0.163 HD
BRANCH   4   7
ATOM      7  C   UNL A   1      32.389  26.803  25.503  1.00  0.00     0.084 A 
ATOM      8  C   UNL A   1      31.773  26.440  24.284  1.00  0.00     0.141 A 
ATOM      9  N   UNL A   1      32.362  25.549  23.442  1.00  0.00    -0.236 NA
ATOM     10  C   UNL A   1      33.562  25.019  23.754  1.00  0.00     0.139 A 
ATOM     11  C   UNL A   1      33.663  26.266  25.753  1.00  0.00     0.045 A 
ATOM     12  C   UNL A   1      34.285  25.382  24.870  1.00  0.00     0.060 A 
BRANCH   8  13
ATOM     13  N   UNL A   1      30.572  26.959  23.828  1.00  0.00    -0.357 N 
BRANCH  13  14
ATOM     14  C   UNL A   1      30.584  27.712  22.575  1.00  0.00     0.114 C 
ATOM     15  C   UNL A   1      31.506  28.920  22.640  1.00  0.00     0.027 C 
ENDBRANCH  13  14
BRANCH  13  16
ATOM     16  C   UNL A   1      29.351  26.232  24.183  1.00  0.00     0.114 C 
ATOM     17  C   UNL A   1      28.065  26.951  23.787  1.00  0.00     0.027 C 
ENDBRANCH  13  16
ENDBRANCH   8  13
BRANCH  12  18
ATOM     18  N   UNL A   1      35.553  24.891  25.233  1.00  0.00    -0.321 N 
ATOM     19  C   UNL A   1      35.973  23.701  25.783  1.00  0.00     0.255 C 
ATOM     20  H   UNL A   1      36.286  25.524  25.057  1.00  0.00     0.170 HD
ATOM     21  O   UNL A   1      37.102  23.638  26.266  1.00  0.00    -0.269 OA
BRANCH  19  22
ATOM     22  C   UNL A   1      35.146  22.478  25.757  1.00  0.00     0.040 A 
ATOM     23  C   UNL A   1      35.345  21.560  24.722  1.00  0.00     0.014 A 
ATOM     24  C   UNL A   1      34.131  22.266  26.695  1.00  0.00     0.014 A 
ATOM     25  C   UNL A   1      34.578  20.396  24.668  1.00  0.00     0.004 A 
ATOM     26  C   UNL A   1      33.375  21.092  26.646  1.00  0.00     0.004 A 
ATOM     27  C   UNL A   1      33.604  20.143  25.642  1.00  0.00    -0.051 A 
ATOM     28  C   UNL A   1      32.791  18.883  25.577  1.00  0.00     0.044 C 
ENDBRANCH  19  22
ENDBRANCH  12  18
ENDBRANCH   4   7
ENDBRANCH   2   3
ENDBRANCH   1   2
BRANCH   1  29
ATOM     29  C   UNL A   1      34.517  30.440  27.500  1.00  0.00     0.118 C 
BRANCH  29  30
ATOM     30  N   UNL A   1      35.272  31.381  28.327  1.00  0.00    -0.352 N 
ATOM     31  C   UNL A   1      36.478  31.200  28.995  1.00  0.00     0.251 C 
ATOM     32  H   UNL A   1      34.867  32.273  28.426  1.00  0.00     0.163 HD
ATOM     33  O   UNL A   1      36.972  32.107  29.634  1.00  0.00    -0.269 OA
BRANCH  31  34
ATOM     34  C   UNL A   1      37.215  29.926  28.806  1.00  0.00     0.039 A 
ATOM     35  C   UNL A   1      37.354  29.071  29.908  1.00  0.00     0.014 A 
ATOM     36  C   UNL A   1      37.948  29.703  27.647  1.00  0.00     0.014 A 
ATOM     37  C   UNL A   1      38.419  28.176  29.941  1.00  0.00     0.010 A 
ATOM     38  C   UNL A   1      39.070  28.907  27.725  1.00  0.00     0.010 A 
ATOM     39  C   UNL A   1      39.344  28.197  28.899  1.00  0.00    -0.014 A 
BRANCH  39  40
ATOM     40  C   UNL A   1      40.675  27.604  28.983  1.00  0.00     0.031 A 
ATOM     41  C   UNL A   1      40.889  26.192  28.608  1.00  0.00     0.074 A 
ATOM     42  C   UNL A   1      41.738  28.392  29.262  1.00  0.00     0.049 A 
ATOM     43  N   UNL A   1      41.947  25.517  28.897  1.00  0.00    -0.248 NA
ATOM     44  C   UNL A   1      39.893  25.412  27.886  1.00  0.00     0.031 C 
ATOM     45  C   UNL A   1      43.152  28.076  29.073  1.00  0.00     0.029 A 
ATOM     46  N   UNL A   1      41.748  29.589  29.994  1.00  0.00    -0.354 N 
ATOM     47  C   UNL A   1      41.908  24.336  28.191  1.00  0.00     0.074 A 
ATOM     48  C   UNL A   1      40.583  24.300  27.614  1.00  0.00     0.031 C 
ATOM     49  C   UNL A   1      43.878  28.835  29.906  1.00  0.00     0.029 A 
ATOM     50  C   UNL A   1      42.946  29.559  30.750  1.00  0.00     0.049 A 
ATOM     51  H   UNL A   1      41.066  30.298  29.985  1.00  0.00     0.167 HD
ATOM     52  C   UNL A   1      43.044  23.586  28.093  1.00  0.00     0.037 A 
ATOM     53  C   UNL A   1      42.911  29.503  32.114  1.00  0.00     0.037 A 
ATOM     54  C   UNL A   1      44.114  24.126  28.935  1.00  0.00     0.049 A 
ATOM     55  C   UNL A   1      43.522  28.251  32.714  1.00  0.00     0.074 A 
ATOM     56  C   UNL A   1      45.246  24.895  28.714  1.00  0.00     0.029 A 
ATOM     57  N   UNL A   1      43.928  24.116  30.304  1.00  0.00    -0.354 N 
ATOM     58  N   UNL A   1      44.020  27.268  32.017  1.00  0.00    -0.248 NA
ATOM     59  C   UNL A   1      43.536  27.971  34.151  1.00  0.00     0.031 C 
ATOM     60  C   UNL A   1      45.723  25.357  29.976  1.00  0.00     0.029 A 
ATOM     61  C   UNL A   1      44.881  24.867  30.958  1.00  0.00     0.049 A 
ATOM     62  H   UNL A   1      43.202  23.631  30.758  1.00  0.00     0.167 HD
ATOM     63  C   UNL A   1      44.337  26.232  32.854  1.00  0.00     0.074 A 
ATOM     64  C   UNL A   1      44.035  26.723  34.183  1.00  0.00     0.031 C 
ATOM     65  C   UNL A   1      44.775  25.023  32.398  1.00  0.00     0.037 A 
BRANCH  52  66
ATOM     66  C   UNL A   1      43.255  22.482  27.083  1.00  0.00     0.057 A 
ATOM     67  C   UNL A   1      42.493  21.298  27.143  1.00  0.00     0.134 A 
ATOM     68  C   UNL A   1      44.215  22.494  26.056  1.00  0.00     0.134 A 
ATOM     69  F   UNL A   1      41.465  21.162  27.992  1.00  0.00    -0.206 F 
ATOM     70  C   UNL A   1      42.746  20.182  26.334  1.00  0.00     0.040 A 
ATOM     71  C   UNL A   1      44.519  21.366  25.278  1.00  0.00     0.040 A 
ATOM     72  F   UNL A   1      44.857  23.612  25.705  1.00  0.00    -0.206 F 
ATOM     73  C   UNL A   1      43.790  20.198  25.424  1.00  0.00     0.006 A 
ENDBRANCH  52  66
BRANCH  53  74
ATOM     74  C   UNL A   1      41.765  30.263  32.679  1.00  0.00     0.057 A 
ATOM     75  C   UNL A   1      40.616  29.548  33.064  1.00  0.00     0.134 A 
ATOM     76  C   UNL A   1      41.922  31.549  33.203  1.00  0.00     0.134 A 
ATOM     77  F   UNL A   1      40.406  28.307  32.597  1.00  0.00    -0.206 F 
ATOM     78  C   UNL A   1      39.731  30.037  34.026  1.00  0.00     0.040 A 
ATOM     79  C   UNL A   1      41.031  32.056  34.155  1.00  0.00     0.040 A 
ATOM     80  F   UNL A   1      43.002  32.282  32.900  1.00  0.00    -0.206 F 
ATOM     81  C   UNL A   1      39.959  31.283  34.601  1.00  0.00     0.006 A 
ENDBRANCH  53  74
BRANCH  65  82
ATOM     82  C   UNL A   1      45.128  23.874  33.294  1.00  0.00     0.057 A 
ATOM     83  C   UNL A   1      44.194  22.898  33.660  1.00  0.00     0.134 A 
ATOM     84  C   UNL A   1      46.382  23.797  33.931  1.00  0.00     0.134 A 
ATOM     85  F   UNL A   1      42.958  22.898  33.139  1.00  0.00    -0.206 F 
ATOM     86  C   UNL A   1      44.493  21.901  34.598  1.00  0.00     0.040 A 
ATOM     87  C   UNL A   1      46.675  22.838  34.901  1.00  0.00     0.040 A 
ATOM     88  F   UNL A   1      47.379  24.640  33.621  1.00  0.00    -0.206 F 
ATOM     89  C   UNL A   1      45.729  21.880  35.236  1.00  0.00     0.006 A 
ENDBRANCH  65  82
ENDBRANCH  39  40
ENDBRANCH  31  34
ENDBRANCH  29  30
ENDBRANCH   1  29
TORSDOF 15
ENDMDL
MODEL 2
REMARK VINA RESULT:     -12.1      1.606      2.500
REMARK SMILES CCN(CC)c1ncc(NC(=O)c2ccc(C)cc2)cc1C(=O)NCCCNC(=O)c1ccc(-c2c3nc(c(-c4c(F)cccc4F)c4ccc([nH]4)c(-c4c(F)cccc4F)c4nc(c(-c5c(F)cccc5F)c5ccc2[nH]5)C=C4)C=C3)cc1
REMARK SMILES IDX 26 1 25 2 24 3 22 4 23 5 21 7 6 8 7 9 8 10 20 11 9 12 3 13
REMARK SMILES IDX 2 14 1 15 4 16 5 17 10 18 11 19 12 21 13 22 14 23 19 24
REMARK SMILES IDX 15 25 18 26 16 27 17 28 27 29 28 30 29 31 30 33 31 34 32 35
REMARK SMILES IDX 84 36 33 37 83 38 34 39 35 40 36 41 77 42 37 43 82 44 76 45
REMARK SMILES IDX 78 46 38 47 81 48 75 49 74 50 39 52 65 53 48 54 64 55 49 56
REMARK SMILES IDX 52 57 63 58 79 59 50 60 51 61 62 63 80 64 53 65 40 66 41 67
REMARK SMILES IDX 46 68 42 69 43 70 45 71 47 72 44 73 66 74 67 75 72 76 68 77
REMARK SMILES IDX 69 78 71 79 73 80 70 81 54 82 55 83 60 84 56 85 57 86 59 87
REMARK SMILES IDX 61 88 58 89
REMARK H PARENT 24 6 10 20 28 32 78 51 52 62
REMARK Flexibility Score: inf
ROOT
ATOM      1  C   UNL A   1      32.710  31.347  27.286  1.00  0.00     0.042 C 
ENDROOT
BRANCH   1   2
ATOM      2  C   UNL A   1      32.234  30.522  26.095  1.00  0.00     0.118 C 
BRANCH   2   3
ATOM      3  N   UNL A   1      33.258  29.660  25.526  1.00  0.00    -0.352 N 
ATOM      4  C   UNL A   1      33.231  28.448  24.866  1.00  0.00     0.255 C 
ATOM      5  O   UNL A   1      34.150  28.304  24.058  1.00  0.00    -0.269 OA
ATOM      6  H   UNL A   1      34.168  30.020  25.636  1.00  0.00     0.163 HD
BRANCH   4   7
ATOM      7  C   UNL A   1      32.208  27.367  25.070  1.00  0.00     0.084 A 
ATOM      8  C   UNL A   1      30.971  27.399  24.388  1.00  0.00     0.141 A 
ATOM      9  N   UNL A   1      29.989  26.504  24.681  1.00  0.00    -0.236 NA
ATOM     10  C   UNL A   1      30.200  25.554  25.614  1.00  0.00     0.139 A 
ATOM     11  C   UNL A   1      32.396  26.324  25.992  1.00  0.00     0.045 A 
ATOM     12  C   UNL A   1      31.403  25.381  26.263  1.00  0.00     0.060 A 
BRANCH   8  13
ATOM     13  N   UNL A   1      30.657  28.288  23.373  1.00  0.00    -0.357 N 
BRANCH  13  14
ATOM     14  C   UNL A   1      30.654  27.785  22.000  1.00  0.00     0.114 C 
ATOM     15  C   UNL A   1      31.667  26.670  21.794  1.00  0.00     0.027 C 
ENDBRANCH  13  14
BRANCH  13  16
ATOM     16  C   UNL A   1      29.753  29.391  23.705  1.00  0.00     0.114 C 
ATOM     17  C   UNL A   1      29.022  29.977  22.500  1.00  0.00     0.027 C 
ENDBRANCH  13  16
ENDBRANCH   8  13
BRANCH  12  18
ATOM     18  N   UNL A   1      31.695  24.392  27.220  1.00  0.00    -0.321 N 
ATOM     19  C   UNL A   1      32.514  23.286  27.201  1.00  0.00     0.255 C 
ATOM     20  H   UNL A   1      31.220  24.516  28.073  1.00  0.00     0.170 HD
ATOM     21  O   UNL A   1      32.369  22.426  28.069  1.00  0.00    -0.269 OA
BRANCH  19  22
ATOM     22  C   UNL A   1      33.604  23.121  26.220  1.00  0.00     0.040 A 
ATOM     23  C   UNL A   1      33.338  22.425  25.037  1.00  0.00     0.014 A 
ATOM     24  C   UNL A   1      34.899  23.579  26.486  1.00  0.00     0.014 A 
ATOM     25  C   UNL A   1      34.349  22.250  24.091  1.00  0.00     0.004 A 
ATOM     26  C   UNL A   1      35.904  23.414  25.530  1.00  0.00     0.004 A 
ATOM     27  C   UNL A   1      35.631  22.763  24.320  1.00  0.00    -0.051 A 
ATOM     28  C   UNL A   1      36.707  22.574  23.290  1.00  0.00     0.044 C 
ENDBRANCH  19  22
ENDBRANCH  12  18
ENDBRANCH   4   7
ENDBRANCH   2   3
ENDBRANCH   1   2
BRANCH   1  29
ATOM     29  C   UNL A   1      34.110  30.955  27.741  1.00  0.00     0.118 C 
BRANCH  29  30
ATOM     30  N   UNL A   1      34.613  31.732  28.874  1.00  0.00    -0.352 N 
ATOM     31  C   UNL A   1      35.703  31.484  29.700  1.00  0.00     0.251 C 
ATOM     32  H   UNL A   1      34.106  32.550  29.082  1.00  0.00     0.163 HD
ATOM     33  O   UNL A   1      35.986  32.254  30.597  1.00  0.00    -0.269 OA
BRANCH  31  34
ATOM     34  C   UNL A   1      36.590  30.336  29.387  1.00  0.00     0.039 A 
ATOM     35  C   UNL A   1      36.734  29.329  30.350  1.00  0.00     0.014 A 
ATOM     36  C   UNL A   1      37.435  30.382  28.285  1.00  0.00     0.014 A 
ATOM     37  C   UNL A   1      37.887  28.548  30.346  1.00  0.00     0.010 A 
ATOM     38  C   UNL A   1      38.629  29.697  28.346  1.00  0.00     0.010 A 
ATOM     39  C   UNL A   1      38.886  28.832  29.416  1.00  0.00    -0.014 A 
BRANCH  39  40
ATOM     40  C   UNL A   1      40.263  28.366  29.536  1.00  0.00     0.031 A 
ATOM     41  C   UNL A   1      40.660  27.058  28.977  1.00  0.00     0.074 A 
ATOM     42  C   UNL A   1      41.207  29.199  30.027  1.00  0.00     0.049 A 
ATOM     43  N   UNL A   1      41.761  26.452  29.260  1.00  0.00    -0.248 NA
ATOM     44  C   UNL A   1      39.816  26.308  28.057  1.00  0.00     0.031 C 
ATOM     45  C   UNL A   1      42.657  29.056  29.927  1.00  0.00     0.029 A 
ATOM     46  N   UNL A   1      41.028  30.261  30.927  1.00  0.00    -0.354 N 
ATOM     47  C   UNL A   1      41.908  25.399  28.387  1.00  0.00     0.074 A 
ATOM     48  C   UNL A   1      40.644  25.325  27.689  1.00  0.00     0.031 C 
ATOM     49  C   UNL A   1      43.228  29.742  30.928  1.00  0.00     0.029 A 
ATOM     50  C   UNL A   1      42.159  30.230  31.779  1.00  0.00     0.049 A 
ATOM     51  H   UNL A   1      40.274  30.894  30.959  1.00  0.00     0.167 HD
ATOM     52  C   UNL A   1      43.124  24.788  28.286  1.00  0.00     0.037 A 
ATOM     53  C   UNL A   1      42.024  29.956  33.109  1.00  0.00     0.037 A 
ATOM     54  C   UNL A   1      44.059  25.290  29.296  1.00  0.00     0.049 A 
ATOM     55  C   UNL A   1      42.721  28.692  33.572  1.00  0.00     0.074 A 
ATOM     56  C   UNL A   1      45.112  26.191  29.299  1.00  0.00     0.029 A 
ATOM     57  N   UNL A   1      43.768  25.047  30.625  1.00  0.00    -0.354 N 
ATOM     58  N   UNL A   1      43.378  27.883  32.787  1.00  0.00    -0.248 NA
ATOM     59  C   UNL A   1      42.654  28.191  34.946  1.00  0.00     0.031 C 
ATOM     60  C   UNL A   1      45.436  26.492  30.654  1.00  0.00     0.029 A 
ATOM     61  C   UNL A   1      44.580  25.774  31.469  1.00  0.00     0.049 A 
ATOM     62  H   UNL A   1      43.068  24.428  30.931  1.00  0.00     0.167 HD
ATOM     63  C   UNL A   1      43.741  26.764  33.487  1.00  0.00     0.074 A 
ATOM     64  C   UNL A   1      43.284  27.009  34.840  1.00  0.00     0.031 C 
ATOM     65  C   UNL A   1      44.345  25.691  32.900  1.00  0.00     0.037 A 
BRANCH  52  66
ATOM     66  C   UNL A   1      43.534  23.883  27.147  1.00  0.00     0.057 A 
ATOM     67  C   UNL A   1      44.282  24.384  26.064  1.00  0.00     0.134 A 
ATOM     68  C   UNL A   1      43.191  22.525  27.026  1.00  0.00     0.134 A 
ATOM     69  F   UNL A   1      44.782  25.627  26.066  1.00  0.00    -0.206 F 
ATOM     70  C   UNL A   1      44.559  23.636  24.912  1.00  0.00     0.040 A 
ATOM     71  C   UNL A   1      43.409  21.780  25.857  1.00  0.00     0.040 A 
ATOM     72  F   UNL A   1      42.693  21.829  28.054  1.00  0.00    -0.206 F 
ATOM     73  C   UNL A   1      44.086  22.340  24.787  1.00  0.00     0.006 A 
ENDBRANCH  52  66
BRANCH  53  74
ATOM     74  C   UNL A   1      40.761  30.503  33.671  1.00  0.00     0.057 A 
ATOM     75  C   UNL A   1      40.705  31.878  33.970  1.00  0.00     0.134 A 
ATOM     76  C   UNL A   1      39.544  29.830  33.540  1.00  0.00     0.134 A 
ATOM     77  F   UNL A   1      41.839  32.584  34.108  1.00  0.00    -0.206 F 
ATOM     78  C   UNL A   1      39.497  32.576  34.008  1.00  0.00     0.040 A 
ATOM     79  C   UNL A   1      38.326  30.517  33.594  1.00  0.00     0.040 A 
ATOM     80  F   UNL A   1      39.516  28.525  33.233  1.00  0.00    -0.206 F 
ATOM     81  C   UNL A   1      38.303  31.898  33.784  1.00  0.00     0.006 A 
ENDBRANCH  53  74
BRANCH  65  82
ATOM     82  C   UNL A   1      44.752  24.455  33.644  1.00  0.00     0.057 A 
ATOM     83  C   UNL A   1      46.093  24.081  33.793  1.00  0.00     0.134 A 
ATOM     84  C   UNL A   1      43.799  23.528  34.108  1.00  0.00     0.134 A 
ATOM     85  F   UNL A   1      47.082  24.875  33.356  1.00  0.00    -0.206 F 
ATOM     86  C   UNL A   1      46.463  22.862  34.375  1.00  0.00     0.040 A 
ATOM     87  C   UNL A   1      44.153  22.290  34.647  1.00  0.00     0.040 A 
ATOM     88  F   UNL A   1      42.485  23.797  34.075  1.00  0.00    -0.206 F 
ATOM     89  C   UNL A   1      45.492  21.954  34.786  1.00  0.00     0.006 A 
ENDBRANCH  65  82
ENDBRANCH  39  40
ENDBRANCH  31  34
ENDBRANCH  29  30
ENDBRANCH   1  29
TORSDOF 15
ENDMDL
MODEL 3
REMARK VINA RESULT:     -12.0      3.696      9.384
REMARK SMILES CCN(CC)c1ncc(NC(=O)c2ccc(C)cc2)cc1C(=O)NCCCNC(=O)c1ccc(-c2c3nc(c(-c4c(F)cccc4F)c4ccc([nH]4)c(-c4c(F)cccc4F)c4nc(c(-c5c(F)cccc5F)c5ccc2[nH]5)C=C4)C=C3)cc1
REMARK SMILES IDX 26 1 25 2 24 3 22 4 23 5 21 7 6 8 7 9 8 10 20 11 9 12 3 13
REMARK SMILES IDX 2 14 1 15 4 16 5 17 10 18 11 19 12 21 13 22 14 23 19 24
REMARK SMILES IDX 15 25 18 26 16 27 17 28 27 29 28 30 29 31 30 33 31 34 32 35
REMARK SMILES IDX 84 36 33 37 83 38 34 39 35 40 36 41 77 42 37 43 82 44 76 45
REMARK SMILES IDX 78 46 38 47 81 48 75 49 74 50 39 52 65 53 48 54 64 55 49 56
REMARK SMILES IDX 52 57 63 58 79 59 50 60 51 61 62 63 80 64 53 65 40 66 41 67
REMARK SMILES IDX 46 68 42 69 43 70 45 71 47 72 44 73 66 74 67 75 72 76 68 77
REMARK SMILES IDX 69 78 71 79 73 80 70 81 54 82 55 83 60 84 56 85 57 86 59 87
REMARK SMILES IDX 61 88 58 89
REMARK H PARENT 24 6 10 20 28 32 78 51 52 62
REMARK Flexibility Score: inf
ROOT
ATOM      1  C   UNL A   1      38.180  21.569  25.518  1.00  0.00     0.042 C 
ENDROOT
BRANCH   1   2
ATOM      2  C   UNL A   1      36.661  21.437  25.485  1.00  0.00     0.118 C 
BRANCH   2   3
ATOM      3  N   UNL A   1      36.056  21.885  24.241  1.00  0.00    -0.352 N 
ATOM      4  C   UNL A   1      35.283  22.973  23.890  1.00  0.00     0.255 C 
ATOM      5  O   UNL A   1      35.432  23.329  22.720  1.00  0.00    -0.269 OA
ATOM      6  H   UNL A   1      36.238  21.280  23.485  1.00  0.00     0.163 HD
BRANCH   4   7
ATOM      7  C   UNL A   1      34.331  23.696  24.800  1.00  0.00     0.084 A 
ATOM      8  C   UNL A   1      33.074  23.140  25.127  1.00  0.00     0.141 A 
ATOM      9  N   UNL A   1      32.155  23.855  25.829  1.00  0.00    -0.236 NA
ATOM     10  C   UNL A   1      32.448  25.103  26.246  1.00  0.00     0.139 A 
ATOM     11  C   UNL A   1      34.607  24.977  25.305  1.00  0.00     0.045 A 
ATOM     12  C   UNL A   1      33.678  25.696  26.061  1.00  0.00     0.060 A 
BRANCH   8  13
ATOM     13  N   UNL A   1      32.680  21.851  24.805  1.00  0.00    -0.357 N 
BRANCH  13  14
ATOM     14  C   UNL A   1      32.530  21.514  23.390  1.00  0.00     0.114 C 
ATOM     15  C   UNL A   1      31.742  22.569  22.629  1.00  0.00     0.027 C 
ENDBRANCH  13  14
BRANCH  13  16
ATOM     16  C   UNL A   1      33.064  20.783  25.730  1.00  0.00     0.114 C 
ATOM     17  C   UNL A   1      33.329  19.441  25.053  1.00  0.00     0.027 C 
ENDBRANCH  13  16
ENDBRANCH   8  13
BRANCH  12  18
ATOM     18  N   UNL A   1      34.056  26.979  26.499  1.00  0.00    -0.321 N 
ATOM     19  C   UNL A   1      33.866  28.238  25.978  1.00  0.00     0.255 C 
ATOM     20  H   UNL A   1      34.554  26.975  27.348  1.00  0.00     0.170 HD
ATOM     21  O   UNL A   1      34.545  29.168  26.411  1.00  0.00    -0.269 OA
BRANCH  19  22
ATOM     22  C   UNL A   1      32.832  28.531  24.965  1.00  0.00     0.040 A 
ATOM     23  C   UNL A   1      33.139  28.321  23.618  1.00  0.00     0.014 A 
ATOM     24  C   UNL A   1      31.597  29.080  25.324  1.00  0.00     0.014 A 
ATOM     25  C   UNL A   1      32.184  28.591  22.637  1.00  0.00     0.004 A 
ATOM     26  C   UNL A   1      30.638  29.336  24.341  1.00  0.00     0.004 A 
ATOM     27  C   UNL A   1      30.920  29.078  22.993  1.00  0.00    -0.051 A 
ATOM     28  C   UNL A   1      29.899  29.358  21.928  1.00  0.00     0.044 C 
ENDBRANCH  19  22
ENDBRANCH  12  18
ENDBRANCH   4   7
ENDBRANCH   2   3
ENDBRANCH   1   2
BRANCH   1  29
ATOM     29  C   UNL A   1      38.634  22.911  26.078  1.00  0.00     0.118 C 
BRANCH  29  30
ATOM     30  N   UNL A   1      40.035  22.945  26.497  1.00  0.00    -0.352 N 
ATOM     31  C   UNL A   1      40.800  24.019  26.937  1.00  0.00     0.251 C 
ATOM     32  H   UNL A   1      40.506  22.080  26.462  1.00  0.00     0.163 HD
ATOM     33  O   UNL A   1      41.960  23.859  27.260  1.00  0.00    -0.269 OA
BRANCH  31  34
ATOM     34  C   UNL A   1      40.140  25.334  27.131  1.00  0.00     0.039 A 
ATOM     35  C   UNL A   1      40.603  26.424  26.382  1.00  0.00     0.014 A 
ATOM     36  C   UNL A   1      39.263  25.530  28.190  1.00  0.00     0.014 A 
ATOM     37  C   UNL A   1      40.406  27.713  26.870  1.00  0.00     0.010 A 
ATOM     38  C   UNL A   1      39.169  26.791  28.738  1.00  0.00     0.010 A 
ATOM     39  C   UNL A   1      39.801  27.874  28.114  1.00  0.00    -0.014 A 
BRANCH  39  40
ATOM     40  C   UNL A   1      39.872  29.101  28.900  1.00  0.00     0.031 A 
ATOM     41  C   UNL A   1      38.824  30.133  28.769  1.00  0.00     0.074 A 
ATOM     42  C   UNL A   1      40.819  29.226  29.856  1.00  0.00     0.049 A 
ATOM     43  N   UNL A   1      38.935  31.340  29.207  1.00  0.00    -0.248 NA
ATOM     44  C   UNL A   1      37.555  29.883  28.099  1.00  0.00     0.031 C 
ATOM     45  C   UNL A   1      40.860  30.199  30.945  1.00  0.00     0.029 A 
ATOM     46  N   UNL A   1      42.079  28.608  29.899  1.00  0.00    -0.354 N 
ATOM     47  C   UNL A   1      37.698  31.937  29.133  1.00  0.00     0.074 A 
ATOM     48  C   UNL A   1      36.884  31.002  28.390  1.00  0.00     0.031 C 
ATOM     49  C   UNL A   1      42.133  30.350  31.340  1.00  0.00     0.029 A 
ATOM     50  C   UNL A   1      42.960  29.584  30.427  1.00  0.00     0.049 A 
ATOM     51  H   UNL A   1      42.302  27.691  29.621  1.00  0.00     0.167 HD
ATOM     52  C   UNL A   1      37.487  33.106  29.806  1.00  0.00     0.037 A 
ATOM     53  C   UNL A   1      43.974  30.093  29.667  1.00  0.00     0.037 A 
ATOM     54  C   UNL A   1      38.730  33.618  30.388  1.00  0.00     0.049 A 
ATOM     55  C   UNL A   1      43.878  31.581  29.393  1.00  0.00     0.074 A 
ATOM     56  C   UNL A   1      39.297  33.618  31.652  1.00  0.00     0.029 A 
ATOM     57  N   UNL A   1      39.736  34.009  29.524  1.00  0.00    -0.354 N 
ATOM     58  N   UNL A   1      42.902  32.343  29.801  1.00  0.00    -0.248 NA
ATOM     59  C   UNL A   1      44.833  32.310  28.556  1.00  0.00     0.031 C 
ATOM     60  C   UNL A   1      40.665  33.999  31.526  1.00  0.00     0.029 A 
ATOM     61  C   UNL A   1      40.923  34.232  30.188  1.00  0.00     0.049 A 
ATOM     62  H   UNL A   1      39.618  34.115  28.553  1.00  0.00     0.167 HD
ATOM     63  C   UNL A   1      43.036  33.589  29.250  1.00  0.00     0.074 A 
ATOM     64  C   UNL A   1      44.270  33.529  28.493  1.00  0.00     0.031 C 
ATOM     65  C   UNL A   1      42.101  34.570  29.407  1.00  0.00     0.037 A 
BRANCH  52  66
ATOM     66  C   UNL A   1      36.123  33.681  30.113  1.00  0.00     0.057 A 
ATOM     67  C   UNL A   1      35.293  34.153  29.076  1.00  0.00     0.134 A 
ATOM     68  C   UNL A   1      35.582  33.845  31.399  1.00  0.00     0.134 A 
ATOM     69  F   UNL A   1      35.607  33.980  27.785  1.00  0.00    -0.206 F 
ATOM     70  C   UNL A   1      34.090  34.833  29.307  1.00  0.00     0.040 A 
ATOM     71  C   UNL A   1      34.409  34.574  31.651  1.00  0.00     0.040 A 
ATOM     72  F   UNL A   1      36.117  33.250  32.470  1.00  0.00    -0.206 F 
ATOM     73  C   UNL A   1      33.663  35.083  30.601  1.00  0.00     0.006 A 
ENDBRANCH  52  66
BRANCH  53  74
ATOM     74  C   UNL A   1      44.551  29.078  28.746  1.00  0.00     0.057 A 
ATOM     75  C   UNL A   1      45.425  28.114  29.281  1.00  0.00     0.134 A 
ATOM     76  C   UNL A   1      43.973  28.797  27.506  1.00  0.00     0.134 A 
ATOM     77  F   UNL A   1      46.013  28.322  30.471  1.00  0.00    -0.206 F 
ATOM     78  C   UNL A   1      45.614  26.872  28.673  1.00  0.00     0.040 A 
ATOM     79  C   UNL A   1      44.170  27.561  26.879  1.00  0.00     0.040 A 
ATOM     80  F   UNL A   1      43.112  29.657  26.943  1.00  0.00    -0.206 F 
ATOM     81  C   UNL A   1      44.956  26.580  27.483  1.00  0.00     0.006 A 
ENDBRANCH  53  74
BRANCH  65  82
ATOM     82  C   UNL A   1      42.225  35.941  28.814  1.00  0.00     0.057 A 
ATOM     83  C   UNL A   1      41.675  36.269  27.569  1.00  0.00     0.134 A 
ATOM     84  C   UNL A   1      43.027  36.932  29.413  1.00  0.00     0.134 A 
ATOM     85  F   UNL A   1      40.922  35.386  26.895  1.00  0.00    -0.206 F 
ATOM     86  C   UNL A   1      41.903  37.510  26.961  1.00  0.00     0.040 A 
ATOM     87  C   UNL A   1      43.300  38.154  28.796  1.00  0.00     0.040 A 
ATOM     88  F   UNL A   1      43.561  36.759  30.632  1.00  0.00    -0.206 F 
ATOM     89  C   UNL A   1      42.733  38.449  27.566  1.00  0.00     0.006 A 
ENDBRANCH  65  82
ENDBRANCH  39  40
ENDBRANCH  31  34
ENDBRANCH  29  30
ENDBRANCH   1  29
TORSDOF 15
ENDMDL
