MODEL 1
REMARK VINA RESULT:     -12.7      0.000      0.000
REMARK SMILES CCc1ccc(-c2cc(Cl)cc3c2O[C@H](C(F)(F)F)C(C(=O)NCCCNC(=O)c2ccc(-c4c5nc(c(-c6c(F)cccc6F)c6ccc([nH]6)c(-c6c(F)cccc6F)c6nc(c(-c7c(F)cccc7F)c7ccc4[nH]7)C=C6)C=C5)cc2)=C3)cc1
REMARK SMILES IDX 25 1 24 2 23 3 21 4 22 5 20 7 7 8 8 9 13 10 9 11 12 12 14 13
REMARK SMILES IDX 10 14 11 15 84 16 15 17 6 18 3 19 4 20 86 21 5 22 85 23 2 24
REMARK SMILES IDX 1 25 16 26 17 27 18 28 19 29 26 30 27 31 28 32 29 34 30 35
REMARK SMILES IDX 31 36 83 37 32 38 82 39 33 40 34 41 35 42 76 43 36 44 81 45
REMARK SMILES IDX 75 46 77 47 37 48 80 49 74 50 73 51 38 53 64 54 47 55 63 56
REMARK SMILES IDX 48 57 51 58 62 59 78 60 49 61 50 62 61 64 79 65 52 66 39 67
REMARK SMILES IDX 40 68 45 69 41 70 42 71 44 72 46 73 43 74 65 75 66 76 71 77
REMARK SMILES IDX 67 78 68 79 70 80 72 81 69 82 53 83 54 84 59 85 55 86 56 87
REMARK SMILES IDX 58 88 60 89 57 90
REMARK H PARENT 23 6 27 33 77 52 51 63
REMARK Flexibility Score: inf
ROOT
ATOM      1  C   UNL A   1      32.898  28.477  26.057  1.00  0.00     0.042 C 
ENDROOT
BRANCH   1   2
ATOM      2  C   UNL A   1      33.478  27.579  24.963  1.00  0.00     0.118 C 
BRANCH   2   3
ATOM      3  N   UNL A   1      34.114  26.420  25.560  1.00  0.00    -0.352 N 
ATOM      4  C   UNL A   1      33.669  25.140  25.510  1.00  0.00     0.251 C 
ATOM      5  O   UNL A   1      33.751  24.427  26.503  1.00  0.00    -0.270 OA
ATOM      6  H   UNL A   1      34.953  26.579  26.049  1.00  0.00     0.163 HD
BRANCH   4   7
ATOM      7  C   UNL A   1      33.227  24.631  24.180  1.00  0.00     0.067 C 
ATOM      8  C   UNL A   1      34.371  20.748  24.557  1.00  0.00     0.026 A 
ATOM      9  C   UNL A   1      35.710  20.724  25.028  1.00  0.00     0.033 A 
ATOM     10  C   UNL A   1      33.897  21.982  24.084  1.00  0.00     0.135 A 
ATOM     11  C   UNL A   1      36.565  21.819  24.923  1.00  0.00     0.042 A 
ATOM     12  C   UNL A   1      34.811  23.048  23.882  1.00  0.00     0.019 A 
ATOM     13  O   UNL A   1      32.553  22.225  23.839  1.00  0.00    -0.475 OA
ATOM     14  Cl  UNL A   1      38.158  21.724  25.559  1.00  0.00    -0.084 Cl
ATOM     15  C   UNL A   1      36.139  22.972  24.293  1.00  0.00     0.032 A 
ATOM     16  C   UNL A   1      34.273  24.334  23.385  1.00  0.00     0.025 C 
ATOM     17  C   UNL A   1      32.115  23.592  24.232  1.00  0.00     0.314 C 
BRANCH   8  18
ATOM     18  C   UNL A   1      33.710  19.422  24.477  1.00  0.00    -0.015 A 
ATOM     19  C   UNL A   1      33.286  16.663  25.070  1.00  0.00    -0.048 A 
ATOM     20  C   UNL A   1      32.604  17.665  25.773  1.00  0.00     0.004 A 
ATOM     21  C   UNL A   1      34.065  17.051  23.975  1.00  0.00     0.004 A 
ATOM     22  C   UNL A   1      32.799  19.021  25.471  1.00  0.00     0.009 A 
ATOM     23  C   UNL A   1      34.270  18.411  23.677  1.00  0.00     0.009 A 
BRANCH  19  24
ATOM     24  C   UNL A   1      33.174  15.240  25.578  1.00  0.00     0.032 C 
ATOM     25  C   UNL A   1      31.837  14.797  26.159  1.00  0.00     0.009 C 
ENDBRANCH  19  24
ENDBRANCH   8  18
BRANCH  17  26
ATOM     26  C   UNL A   1      30.941  24.089  23.360  1.00  0.00     0.429 C 
ATOM     27  F   UNL A   1      31.347  24.825  22.302  1.00  0.00    -0.167 F 
ATOM     28  F   UNL A   1      30.212  23.050  22.884  1.00  0.00    -0.167 F 
ATOM     29  F   UNL A   1      30.071  24.868  24.058  1.00  0.00    -0.167 F 
ENDBRANCH  17  26
ENDBRANCH   4   7
ENDBRANCH   2   3
ENDBRANCH   1   2
BRANCH   1  30
ATOM     30  C   UNL A   1      33.815  28.685  27.260  1.00  0.00     0.118 C 
BRANCH  30  31
ATOM     31  N   UNL A   1      33.777  30.042  27.782  1.00  0.00    -0.352 N 
ATOM     32  C   UNL A   1      34.759  30.740  28.442  1.00  0.00     0.251 C 
ATOM     33  H   UNL A   1      32.932  30.527  27.643  1.00  0.00     0.163 HD
ATOM     34  O   UNL A   1      34.514  31.835  28.942  1.00  0.00    -0.269 OA
BRANCH  32  35
ATOM     35  C   UNL A   1      36.108  30.152  28.574  1.00  0.00     0.039 A 
ATOM     36  C   UNL A   1      36.985  30.218  27.490  1.00  0.00     0.014 A 
ATOM     37  C   UNL A   1      36.512  29.563  29.776  1.00  0.00     0.014 A 
ATOM     38  C   UNL A   1      38.295  29.757  27.634  1.00  0.00     0.010 A 
ATOM     39  C   UNL A   1      37.838  29.180  29.942  1.00  0.00     0.010 A 
ATOM     40  C   UNL A   1      38.744  29.271  28.873  1.00  0.00    -0.014 A 
BRANCH  40  41
ATOM     41  C   UNL A   1      40.150  28.838  29.073  1.00  0.00     0.031 A 
ATOM     42  C   UNL A   1      41.153  29.795  29.659  1.00  0.00     0.074 A 
ATOM     43  C   UNL A   1      40.544  27.615  28.666  1.00  0.00     0.049 A 
ATOM     44  N   UNL A   1      42.444  29.649  29.816  1.00  0.00    -0.248 NA
ATOM     45  C   UNL A   1      40.638  31.102  30.100  1.00  0.00     0.031 C 
ATOM     46  C   UNL A   1      39.679  26.607  28.049  1.00  0.00     0.029 A 
ATOM     47  N   UNL A   1      41.777  27.015  28.700  1.00  0.00    -0.354 N 
ATOM     48  C   UNL A   1      42.895  30.848  30.355  1.00  0.00     0.074 A 
ATOM     49  C   UNL A   1      41.753  31.730  30.443  1.00  0.00     0.031 C 
ATOM     50  C   UNL A   1      40.403  25.507  27.786  1.00  0.00     0.029 A 
ATOM     51  C   UNL A   1      41.790  25.745  28.174  1.00  0.00     0.049 A 
ATOM     52  H   UNL A   1      42.579  27.453  29.066  1.00  0.00     0.167 HD
ATOM     53  C   UNL A   1      44.143  31.175  30.768  1.00  0.00     0.037 A 
ATOM     54  C   UNL A   1      42.806  24.876  28.014  1.00  0.00     0.037 A 
ATOM     55  C   UNL A   1      45.273  30.288  30.704  1.00  0.00     0.049 A 
ATOM     56  C   UNL A   1      44.187  25.273  28.461  1.00  0.00     0.074 A 
ATOM     57  C   UNL A   1      46.570  30.510  31.133  1.00  0.00     0.029 A 
ATOM     58  N   UNL A   1      45.238  29.004  30.182  1.00  0.00    -0.354 N 
ATOM     59  N   UNL A   1      44.588  26.390  29.016  1.00  0.00    -0.248 NA
ATOM     60  C   UNL A   1      45.256  24.283  28.262  1.00  0.00     0.031 C 
ATOM     61  C   UNL A   1      47.329  29.374  30.834  1.00  0.00     0.029 A 
ATOM     62  C   UNL A   1      46.495  28.426  30.266  1.00  0.00     0.049 A 
ATOM     63  H   UNL A   1      44.439  28.567  29.807  1.00  0.00     0.167 HD
ATOM     64  C   UNL A   1      45.945  26.224  29.269  1.00  0.00     0.074 A 
ATOM     65  C   UNL A   1      46.295  24.895  28.813  1.00  0.00     0.031 C 
ATOM     66  C   UNL A   1      46.821  27.093  29.829  1.00  0.00     0.037 A 
BRANCH  53  67
ATOM     67  C   UNL A   1      44.345  32.551  31.335  1.00  0.00     0.057 A 
ATOM     68  C   UNL A   1      44.682  33.641  30.520  1.00  0.00     0.134 A 
ATOM     69  C   UNL A   1      44.171  32.797  32.701  1.00  0.00     0.134 A 
ATOM     70  F   UNL A   1      44.876  33.471  29.203  1.00  0.00    -0.206 F 
ATOM     71  C   UNL A   1      44.866  34.919  31.048  1.00  0.00     0.040 A 
ATOM     72  C   UNL A   1      44.325  34.077  33.238  1.00  0.00     0.040 A 
ATOM     73  F   UNL A   1      43.841  31.802  33.538  1.00  0.00    -0.206 F 
ATOM     74  C   UNL A   1      44.681  35.141  32.411  1.00  0.00     0.006 A 
ENDBRANCH  53  67
BRANCH  54  75
ATOM     75  C   UNL A   1      42.561  23.534  27.424  1.00  0.00     0.057 A 
ATOM     76  C   UNL A   1      42.643  23.330  26.041  1.00  0.00     0.134 A 
ATOM     77  C   UNL A   1      42.212  22.435  28.217  1.00  0.00     0.134 A 
ATOM     78  F   UNL A   1      42.953  24.350  25.227  1.00  0.00    -0.206 F 
ATOM     79  C   UNL A   1      42.362  22.091  25.466  1.00  0.00     0.040 A 
ATOM     80  C   UNL A   1      41.955  21.182  27.658  1.00  0.00     0.040 A 
ATOM     81  F   UNL A   1      42.124  22.561  29.549  1.00  0.00    -0.206 F 
ATOM     82  C   UNL A   1      42.019  21.010  26.277  1.00  0.00     0.006 A 
ENDBRANCH  54  75
BRANCH  66  83
ATOM     83  C   UNL A   1      48.228  26.617  30.036  1.00  0.00     0.057 A 
ATOM     84  C   UNL A   1      48.618  25.932  31.194  1.00  0.00     0.134 A 
ATOM     85  C   UNL A   1      49.194  26.806  29.038  1.00  0.00     0.134 A 
ATOM     86  F   UNL A   1      47.744  25.730  32.191  1.00  0.00    -0.206 F 
ATOM     87  C   UNL A   1      49.925  25.469  31.361  1.00  0.00     0.040 A 
ATOM     88  C   UNL A   1      50.495  26.324  29.182  1.00  0.00     0.040 A 
ATOM     89  F   UNL A   1      48.883  27.447  27.902  1.00  0.00    -0.206 F 
ATOM     90  C   UNL A   1      50.865  25.657  30.349  1.00  0.00     0.006 A 
ENDBRANCH  66  83
ENDBRANCH  40  41
ENDBRANCH  32  35
ENDBRANCH  30  31
ENDBRANCH   1  30
TORSDOF 13
ENDMDL
MODEL 2
REMARK VINA RESULT:     -12.6      2.742      7.728
REMARK SMILES CCc1ccc(-c2cc(Cl)cc3c2O[C@H](C(F)(F)F)C(C(=O)NCCCNC(=O)c2ccc(-c4c5nc(c(-c6c(F)cccc6F)c6ccc([nH]6)c(-c6c(F)cccc6F)c6nc(c(-c7c(F)cccc7F)c7ccc4[nH]7)C=C6)C=C5)cc2)=C3)cc1
REMARK SMILES IDX 25 1 24 2 23 3 21 4 22 5 20 7 7 8 8 9 13 10 9 11 12 12 14 13
REMARK SMILES IDX 10 14 11 15 84 16 15 17 6 18 3 19 4 20 86 21 5 22 85 23 2 24
REMARK SMILES IDX 1 25 16 26 17 27 18 28 19 29 26 30 27 31 28 32 29 34 30 35
REMARK SMILES IDX 31 36 83 37 32 38 82 39 33 40 34 41 35 42 76 43 36 44 81 45
REMARK SMILES IDX 75 46 77 47 37 48 80 49 74 50 73 51 38 53 64 54 47 55 63 56
REMARK SMILES IDX 48 57 51 58 62 59 78 60 49 61 50 62 61 64 79 65 52 66 39 67
REMARK SMILES IDX 40 68 45 69 41 70 42 71 44 72 46 73 43 74 65 75 66 76 71 77
REMARK SMILES IDX 67 78 68 79 70 80 72 81 69 82 53 83 54 84 59 85 55 86 56 87
REMARK SMILES IDX 58 88 60 89 57 90
REMARK H PARENT 23 6 27 33 77 52 51 63
REMARK Flexibility Score: inf
ROOT
ATOM      1  C   UNL A   1      37.374  20.722  24.662  1.00  0.00     0.042 C 
ENDROOT
BRANCH   1   2
ATOM      2  C   UNL A   1      36.041  21.304  25.137  1.00  0.00     0.118 C 
BRANCH   2   3
ATOM      3  N   UNL A   1      35.898  22.666  24.663  1.00  0.00    -0.352 N 
ATOM      4  C   UNL A   1      34.962  23.126  23.796  1.00  0.00     0.251 C 
ATOM      5  O   UNL A   1      35.274  23.937  22.933  1.00  0.00    -0.270 OA
ATOM      6  H   UNL A   1      36.546  23.323  25.004  1.00  0.00     0.163 HD
BRANCH   4   7
ATOM      7  C   UNL A   1      33.551  22.709  24.045  1.00  0.00     0.067 C 
ATOM      8  C   UNL A   1      31.773  26.364  23.987  1.00  0.00     0.026 A 
ATOM      9  C   UNL A   1      32.519  27.234  24.825  1.00  0.00     0.033 A 
ATOM     10  C   UNL A   1      32.050  24.993  24.105  1.00  0.00     0.135 A 
ATOM     11  C   UNL A   1      33.393  26.769  25.805  1.00  0.00     0.042 A 
ATOM     12  C   UNL A   1      32.855  24.535  25.178  1.00  0.00     0.019 A 
ATOM     13  O   UNL A   1      31.600  24.056  23.186  1.00  0.00    -0.475 OA
ATOM     14  Cl  UNL A   1      34.295  27.887  26.747  1.00  0.00    -0.084 Cl
ATOM     15  C   UNL A   1      33.523  25.412  26.029  1.00  0.00     0.032 A 
ATOM     16  C   UNL A   1      33.128  23.083  25.267  1.00  0.00     0.025 C 
ATOM     17  C   UNL A   1      32.593  22.985  22.895  1.00  0.00     0.314 C 
BRANCH   8  18
ATOM     18  C   UNL A   1      30.684  27.015  23.218  1.00  0.00    -0.015 A 
ATOM     19  C   UNL A   1      28.688  28.972  22.640  1.00  0.00    -0.048 A 
ATOM     20  C   UNL A   1      29.983  29.085  22.117  1.00  0.00     0.004 A 
ATOM     21  C   UNL A   1      28.365  27.799  23.331  1.00  0.00     0.004 A 
ATOM     22  C   UNL A   1      30.960  28.116  22.386  1.00  0.00     0.009 A 
ATOM     23  C   UNL A   1      29.347  26.830  23.610  1.00  0.00     0.009 A 
BRANCH  19  24
ATOM     24  C   UNL A   1      27.750  30.149  22.470  1.00  0.00     0.032 C 
ATOM     25  C   UNL A   1      27.626  31.132  23.627  1.00  0.00     0.009 C 
ENDBRANCH  19  24
ENDBRANCH   8  18
BRANCH  17  26
ATOM     26  C   UNL A   1      31.904  21.659  22.504  1.00  0.00     0.429 C 
ATOM     27  F   UNL A   1      32.248  20.630  23.310  1.00  0.00    -0.167 F 
ATOM     28  F   UNL A   1      30.554  21.778  22.542  1.00  0.00    -0.167 F 
ATOM     29  F   UNL A   1      32.210  21.271  21.235  1.00  0.00    -0.167 F 
ENDBRANCH  17  26
ENDBRANCH   4   7
ENDBRANCH   2   3
ENDBRANCH   1   2
BRANCH   1  30
ATOM     30  C   UNL A   1      38.542  20.950  25.619  1.00  0.00     0.118 C 
BRANCH  30  31
ATOM     31  N   UNL A   1      39.503  19.857  25.621  1.00  0.00    -0.352 N 
ATOM     32  C   UNL A   1      40.828  19.874  25.984  1.00  0.00     0.251 C 
ATOM     33  H   UNL A   1      39.155  18.986  25.324  1.00  0.00     0.163 HD
ATOM     34  O   UNL A   1      41.536  18.890  25.792  1.00  0.00    -0.269 OA
BRANCH  32  35
ATOM     35  C   UNL A   1      41.405  21.098  26.577  1.00  0.00     0.039 A 
ATOM     36  C   UNL A   1      41.956  22.065  25.734  1.00  0.00     0.014 A 
ATOM     37  C   UNL A   1      41.375  21.300  27.960  1.00  0.00     0.014 A 
ATOM     38  C   UNL A   1      42.413  23.270  26.272  1.00  0.00     0.010 A 
ATOM     39  C   UNL A   1      41.755  22.532  28.483  1.00  0.00     0.010 A 
ATOM     40  C   UNL A   1      42.280  23.529  27.645  1.00  0.00    -0.014 A 
BRANCH  40  41
ATOM     41  C   UNL A   1      42.694  24.828  28.234  1.00  0.00     0.031 A 
ATOM     42  C   UNL A   1      41.670  25.904  28.472  1.00  0.00     0.074 A 
ATOM     43  C   UNL A   1      43.996  25.068  28.489  1.00  0.00     0.049 A 
ATOM     44  N   UNL A   1      41.841  27.137  28.875  1.00  0.00    -0.248 NA
ATOM     45  C   UNL A   1      40.268  25.554  28.190  1.00  0.00     0.031 C 
ATOM     46  C   UNL A   1      45.092  24.123  28.268  1.00  0.00     0.029 A 
ATOM     47  N   UNL A   1      44.620  26.187  28.980  1.00  0.00    -0.354 N 
ATOM     48  C   UNL A   1      40.576  27.712  28.877  1.00  0.00     0.074 A 
ATOM     49  C   UNL A   1      39.656  26.714  28.380  1.00  0.00     0.031 C 
ATOM     50  C   UNL A   1      46.248  24.692  28.646  1.00  0.00     0.029 A 
ATOM     51  C   UNL A   1      45.983  26.056  29.093  1.00  0.00     0.049 A 
ATOM     52  H   UNL A   1      44.136  27.008  29.228  1.00  0.00     0.167 HD
ATOM     53  C   UNL A   1      40.209  28.950  29.284  1.00  0.00     0.037 A 
ATOM     54  C   UNL A   1      46.914  26.939  29.501  1.00  0.00     0.037 A 
ATOM     55  C   UNL A   1      41.121  29.933  29.803  1.00  0.00     0.049 A 
ATOM     56  C   UNL A   1      46.482  28.316  29.928  1.00  0.00     0.074 A 
ATOM     57  C   UNL A   1      40.843  31.202  30.280  1.00  0.00     0.029 A 
ATOM     58  N   UNL A   1      42.491  29.753  29.919  1.00  0.00    -0.354 N 
ATOM     59  N   UNL A   1      45.275  28.828  29.974  1.00  0.00    -0.248 NA
ATOM     60  C   UNL A   1      47.541  29.237  30.365  1.00  0.00     0.031 C 
ATOM     61  C   UNL A   1      42.050  31.805  30.648  1.00  0.00     0.029 A 
ATOM     62  C   UNL A   1      43.074  30.894  30.447  1.00  0.00     0.049 A 
ATOM     63  H   UNL A   1      42.979  28.937  29.663  1.00  0.00     0.167 HD
ATOM     64  C   UNL A   1      45.427  30.113  30.480  1.00  0.00     0.074 A 
ATOM     65  C   UNL A   1      46.840  30.299  30.733  1.00  0.00     0.031 C 
ATOM     66  C   UNL A   1      44.480  31.054  30.715  1.00  0.00     0.037 A 
BRANCH  53  67
ATOM     67  C   UNL A   1      38.752  29.304  29.193  1.00  0.00     0.057 A 
ATOM     68  C   UNL A   1      37.912  29.262  30.313  1.00  0.00     0.134 A 
ATOM     69  C   UNL A   1      38.189  29.721  27.981  1.00  0.00     0.134 A 
ATOM     70  F   UNL A   1      38.385  28.859  31.503  1.00  0.00    -0.206 F 
ATOM     71  C   UNL A   1      36.560  29.594  30.227  1.00  0.00     0.040 A 
ATOM     72  C   UNL A   1      36.844  30.083  27.887  1.00  0.00     0.040 A 
ATOM     73  F   UNL A   1      38.937  29.791  26.869  1.00  0.00    -0.206 F 
ATOM     74  C   UNL A   1      36.024  30.013  29.011  1.00  0.00     0.006 A 
ENDBRANCH  53  67
BRANCH  54  75
ATOM     75  C   UNL A   1      48.347  26.551  29.551  1.00  0.00     0.057 A 
ATOM     76  C   UNL A   1      49.202  26.815  28.474  1.00  0.00     0.134 A 
ATOM     77  C   UNL A   1      48.890  25.883  30.655  1.00  0.00     0.134 A 
ATOM     78  F   UNL A   1      48.736  27.434  27.379  1.00  0.00    -0.206 F 
ATOM     79  C   UNL A   1      50.537  26.407  28.481  1.00  0.00     0.040 A 
ATOM     80  C   UNL A   1      50.231  25.493  30.687  1.00  0.00     0.040 A 
ATOM     81  F   UNL A   1      48.127  25.606  31.722  1.00  0.00    -0.206 F 
ATOM     82  C   UNL A   1      51.055  25.746  29.593  1.00  0.00     0.006 A 
ENDBRANCH  54  75
BRANCH  66  83
ATOM     83  C   UNL A   1      44.929  32.347  31.330  1.00  0.00     0.057 A 
ATOM     84  C   UNL A   1      45.011  32.522  32.717  1.00  0.00     0.134 A 
ATOM     85  C   UNL A   1      45.332  33.415  30.517  1.00  0.00     0.134 A 
ATOM     86  F   UNL A   1      44.629  31.542  33.549  1.00  0.00    -0.206 F 
ATOM     87  C   UNL A   1      45.459  33.721  33.274  1.00  0.00     0.040 A 
ATOM     88  C   UNL A   1      45.807  34.608  31.062  1.00  0.00     0.040 A 
ATOM     89  F   UNL A   1      45.287  33.309  29.180  1.00  0.00    -0.206 F 
ATOM     90  C   UNL A   1      45.867  34.765  32.445  1.00  0.00     0.006 A 
ENDBRANCH  66  83
ENDBRANCH  40  41
ENDBRANCH  32  35
ENDBRANCH  30  31
ENDBRANCH   1  30
TORSDOF 13
ENDMDL
MODEL 3
REMARK VINA RESULT:     -12.3      4.122      5.733
REMARK SMILES CCc1ccc(-c2cc(Cl)cc3c2O[C@H](C(F)(F)F)C(C(=O)NCCCNC(=O)c2ccc(-c4c5nc(c(-c6c(F)cccc6F)c6ccc([nH]6)c(-c6c(F)cccc6F)c6nc(c(-c7c(F)cccc7F)c7ccc4[nH]7)C=C6)C=C5)cc2)=C3)cc1
REMARK SMILES IDX 25 1 24 2 23 3 21 4 22 5 20 7 7 8 8 9 13 10 9 11 12 12 14 13
REMARK SMILES IDX 10 14 11 15 84 16 15 17 6 18 3 19 4 20 86 21 5 22 85 23 2 24
REMARK SMILES IDX 1 25 16 26 17 27 18 28 19 29 26 30 27 31 28 32 29 34 30 35
REMARK SMILES IDX 31 36 83 37 32 38 82 39 33 40 34 41 35 42 76 43 36 44 81 45
REMARK SMILES IDX 75 46 77 47 37 48 80 49 74 50 73 51 38 53 64 54 47 55 63 56
REMARK SMILES IDX 48 57 51 58 62 59 78 60 49 61 50 62 61 64 79 65 52 66 39 67
REMARK SMILES IDX 40 68 45 69 41 70 42 71 44 72 46 73 43 74 65 75 66 76 71 77
REMARK SMILES IDX 67 78 68 79 70 80 72 81 69 82 53 83 54 84 59 85 55 86 56 87
REMARK SMILES IDX 58 88 60 89 57 90
REMARK H PARENT 23 6 27 33 77 52 51 63
REMARK Flexibility Score: inf
ROOT
ATOM      1  C   UNL A   1      31.538  32.625  25.985  1.00  0.00     0.042 C 
ENDROOT
BRANCH   1   2
ATOM      2  C   UNL A   1      30.604  31.414  25.947  1.00  0.00     0.118 C 
BRANCH   2   3
ATOM      3  N   UNL A   1      31.095  30.440  24.993  1.00  0.00    -0.352 N 
ATOM      4  C   UNL A   1      32.293  29.803  25.031  1.00  0.00     0.251 C 
ATOM      5  O   UNL A   1      32.923  29.627  23.996  1.00  0.00    -0.270 OA
ATOM      6  H   UNL A   1      30.500  30.218  24.241  1.00  0.00     0.163 HD
BRANCH   4   7
ATOM      7  C   UNL A   1      32.706  29.224  26.342  1.00  0.00     0.067 C 
ATOM      8  C   UNL A   1      33.341  25.379  25.183  1.00  0.00     0.026 A 
ATOM      9  C   UNL A   1      32.216  24.952  24.429  1.00  0.00     0.033 A 
ATOM     10  C   UNL A   1      33.187  26.566  25.917  1.00  0.00     0.135 A 
ATOM     11  C   UNL A   1      30.979  25.590  24.494  1.00  0.00     0.042 A 
ATOM     12  C   UNL A   1      31.895  27.135  26.058  1.00  0.00     0.019 A 
ATOM     13  O   UNL A   1      34.258  27.242  26.484  1.00  0.00    -0.475 OA
ATOM     14  Cl  UNL A   1      29.680  25.039  23.514  1.00  0.00    -0.084 Cl
ATOM     15  C   UNL A   1      30.793  26.653  25.357  1.00  0.00     0.032 A 
ATOM     16  C   UNL A   1      31.773  28.388  26.836  1.00  0.00     0.025 C 
ATOM     17  C   UNL A   1      34.142  28.722  26.393  1.00  0.00     0.314 C 
BRANCH   8  18
ATOM     18  C   UNL A   1      34.472  24.420  25.222  1.00  0.00    -0.015 A 
ATOM     19  C   UNL A   1      35.753  21.871  25.148  1.00  0.00    -0.048 A 
ATOM     20  C   UNL A   1      35.626  22.649  23.989  1.00  0.00     0.004 A 
ATOM     21  C   UNL A   1      35.365  22.445  26.363  1.00  0.00     0.004 A 
ATOM     22  C   UNL A   1      35.012  23.909  24.027  1.00  0.00     0.009 A 
ATOM     23  C   UNL A   1      34.740  23.706  26.402  1.00  0.00     0.009 A 
BRANCH  19  24
ATOM     24  C   UNL A   1      36.248  20.447  24.995  1.00  0.00     0.032 C 
ATOM     25  C   UNL A   1      37.750  20.228  24.869  1.00  0.00     0.009 C 
ENDBRANCH  19  24
ENDBRANCH   8  18
BRANCH  17  26
ATOM     26  C   UNL A   1      34.864  29.425  27.564  1.00  0.00     0.429 C 
ATOM     27  F   UNL A   1      35.281  30.672  27.252  1.00  0.00    -0.167 F 
ATOM     28  F   UNL A   1      34.058  29.520  28.649  1.00  0.00    -0.167 F 
ATOM     29  F   UNL A   1      35.968  28.744  27.975  1.00  0.00    -0.167 F 
ENDBRANCH  17  26
ENDBRANCH   4   7
ENDBRANCH   2   3
ENDBRANCH   1   2
BRANCH   1  30
ATOM     30  C   UNL A   1      32.323  32.781  27.285  1.00  0.00     0.118 C 
BRANCH  30  31
ATOM     31  N   UNL A   1      32.598  34.168  27.627  1.00  0.00    -0.352 N 
ATOM     32  C   UNL A   1      33.618  34.683  28.389  1.00  0.00     0.251 C 
ATOM     33  H   UNL A   1      31.967  34.828  27.261  1.00  0.00     0.163 HD
ATOM     34  O   UNL A   1      33.624  35.872  28.697  1.00  0.00    -0.269 OA
BRANCH  32  35
ATOM     35  C   UNL A   1      34.695  33.790  28.864  1.00  0.00     0.039 A 
ATOM     36  C   UNL A   1      36.014  34.065  28.498  1.00  0.00     0.014 A 
ATOM     37  C   UNL A   1      34.403  32.702  29.692  1.00  0.00     0.014 A 
ATOM     38  C   UNL A   1      37.051  33.290  29.022  1.00  0.00     0.010 A 
ATOM     39  C   UNL A   1      35.441  31.984  30.276  1.00  0.00     0.010 A 
ATOM     40  C   UNL A   1      36.776  32.269  29.946  1.00  0.00    -0.014 A 
BRANCH  40  41
ATOM     41  C   UNL A   1      37.864  31.474  30.570  1.00  0.00     0.031 A 
ATOM     42  C   UNL A   1      38.236  31.713  32.009  1.00  0.00     0.074 A 
ATOM     43  C   UNL A   1      38.564  30.590  29.831  1.00  0.00     0.049 A 
ATOM     44  N   UNL A   1      39.220  31.204  32.706  1.00  0.00    -0.248 NA
ATOM     45  C   UNL A   1      37.409  32.676  32.753  1.00  0.00     0.031 C 
ATOM     46  C   UNL A   1      38.328  30.293  28.417  1.00  0.00     0.029 A 
ATOM     47  N   UNL A   1      39.625  29.787  30.164  1.00  0.00    -0.354 N 
ATOM     48  C   UNL A   1      39.139  31.798  33.960  1.00  0.00     0.074 A 
ATOM     49  C   UNL A   1      38.049  32.746  33.910  1.00  0.00     0.031 C 
ATOM     50  C   UNL A   1      39.201  29.356  28.012  1.00  0.00     0.029 A 
ATOM     51  C   UNL A   1      40.086  29.019  29.123  1.00  0.00     0.049 A 
ATOM     52  H   UNL A   1      40.020  29.764  31.066  1.00  0.00     0.167 HD
ATOM     53  C   UNL A   1      39.885  31.553  35.063  1.00  0.00     0.037 A 
ATOM     54  C   UNL A   1      41.112  28.148  29.067  1.00  0.00     0.037 A 
ATOM     55  C   UNL A   1      40.952  30.589  35.119  1.00  0.00     0.049 A 
ATOM     56  C   UNL A   1      41.940  27.910  30.301  1.00  0.00     0.074 A 
ATOM     57  C   UNL A   1      41.742  30.239  36.199  1.00  0.00     0.029 A 
ATOM     58  N   UNL A   1      41.374  29.818  34.046  1.00  0.00    -0.354 N 
ATOM     59  N   UNL A   1      41.818  28.440  31.494  1.00  0.00    -0.248 NA
ATOM     60  C   UNL A   1      43.045  26.949  30.181  1.00  0.00     0.031 C 
ATOM     61  C   UNL A   1      42.669  29.283  35.771  1.00  0.00     0.029 A 
ATOM     62  C   UNL A   1      42.423  29.002  34.437  1.00  0.00     0.049 A 
ATOM     63  H   UNL A   1      40.986  29.846  33.142  1.00  0.00     0.167 HD
ATOM     64  C   UNL A   1      42.804  27.849  32.275  1.00  0.00     0.074 A 
ATOM     65  C   UNL A   1      43.508  26.914  31.423  1.00  0.00     0.031 C 
ATOM     66  C   UNL A   1      43.097  28.060  33.582  1.00  0.00     0.037 A 
BRANCH  53  67
ATOM     67  C   UNL A   1      39.563  32.336  36.303  1.00  0.00     0.057 A 
ATOM     68  C   UNL A   1      40.278  33.490  36.651  1.00  0.00     0.134 A 
ATOM     69  C   UNL A   1      38.511  31.953  37.142  1.00  0.00     0.134 A 
ATOM     70  F   UNL A   1      41.307  33.906  35.897  1.00  0.00    -0.206 F 
ATOM     71  C   UNL A   1      39.975  34.219  37.802  1.00  0.00     0.040 A 
ATOM     72  C   UNL A   1      38.179  32.689  38.281  1.00  0.00     0.040 A 
ATOM     73  F   UNL A   1      37.780  30.862  36.865  1.00  0.00    -0.206 F 
ATOM     74  C   UNL A   1      38.918  33.822  38.618  1.00  0.00     0.006 A 
ENDBRANCH  53  67
BRANCH  54  75
ATOM     75  C   UNL A   1      41.407  27.415  27.809  1.00  0.00     0.057 A 
ATOM     76  C   UNL A   1      42.221  27.981  26.820  1.00  0.00     0.134 A 
ATOM     77  C   UNL A   1      40.865  26.151  27.550  1.00  0.00     0.134 A 
ATOM     78  F   UNL A   1      42.753  29.199  27.001  1.00  0.00    -0.206 F 
ATOM     79  C   UNL A   1      42.464  27.331  25.610  1.00  0.00     0.040 A 
ATOM     80  C   UNL A   1      41.121  25.476  26.355  1.00  0.00     0.040 A 
ATOM     81  F   UNL A   1      40.084  25.549  28.459  1.00  0.00    -0.206 F 
ATOM     82  C   UNL A   1      41.914  26.071  25.376  1.00  0.00     0.006 A 
ENDBRANCH  54  75
BRANCH  66  83
ATOM     83  C   UNL A   1      44.188  27.226  34.187  1.00  0.00     0.057 A 
ATOM     84  C   UNL A   1      43.941  25.958  34.727  1.00  0.00     0.134 A 
ATOM     85  C   UNL A   1      45.513  27.682  34.183  1.00  0.00     0.134 A 
ATOM     86  F   UNL A   1      42.692  25.470  34.772  1.00  0.00    -0.206 F 
ATOM     87  C   UNL A   1      44.970  25.181  35.261  1.00  0.00     0.040 A 
ATOM     88  C   UNL A   1      46.554  26.903  34.689  1.00  0.00     0.040 A 
ATOM     89  F   UNL A   1      45.819  28.884  33.672  1.00  0.00    -0.206 F 
ATOM     90  C   UNL A   1      46.283  25.650  35.235  1.00  0.00     0.006 A 
ENDBRANCH  66  83
ENDBRANCH  40  41
ENDBRANCH  32  35
ENDBRANCH  30  31
ENDBRANCH   1  30
TORSDOF 13
ENDMDL
