MODEL 1
REMARK VINA RESULT:     -11.0      0.000      0.000
REMARK SMILES COC(=O)[C@@H](C)S(=O)(=O)N(C)c1snc(C)c1C(=O)NCCCNC(=O)c1ccc(-c2c3nc(c(-c4c(F)cccc4F)c4ccc([nH]4)c(-c4c(F)cccc4F)c4nc(c(-c5c(F)cccc5F)c5ccc2[nH]5)C=C4)C=C3)cc1
REMARK SMILES IDX 18 1 19 2 20 3 17 5 12 6 13 7 14 8 15 9 16 10 10 11 11 12
REMARK SMILES IDX 7 13 8 14 9 15 5 16 6 17 3 18 4 19 2 20 1 21 21 22 22 23
REMARK SMILES IDX 23 24 24 25 25 26 26 28 27 29 28 30 80 31 29 32 79 33 30 34
REMARK SMILES IDX 31 35 32 36 73 37 33 38 78 39 72 40 74 41 34 42 77 43 71 44
REMARK SMILES IDX 70 45 35 47 61 48 44 49 60 50 45 51 48 52 59 53 75 54 46 55
REMARK SMILES IDX 47 56 58 58 76 59 49 60 36 61 37 62 42 63 38 64 39 65 41 66
REMARK SMILES IDX 43 67 40 68 62 69 63 70 68 71 64 72 65 73 67 74 69 75 66 76
REMARK SMILES IDX 50 77 51 78 56 79 52 80 53 81 55 82 57 83 54 84
REMARK H PARENT 20 4 24 27 74 46 48 57
REMARK Flexibility Score: inf
ROOT
ATOM      1  C   UNL A   1      31.763  27.428  26.711  1.00  0.00     0.256 C 
ATOM      2  O   UNL A   1      30.860  26.793  27.260  1.00  0.00    -0.269 OA
ATOM      3  N   UNL A   1      32.374  28.399  27.472  1.00  0.00    -0.352 N 
ATOM      4  H   UNL A   1      31.974  28.590  28.352  1.00  0.00     0.163 HD
ENDROOT
BRANCH   1   5
ATOM      5  C   UNL A   1      32.063  27.246  25.288  1.00  0.00     0.098 A 
ATOM      6  C   UNL A   1      31.349  27.609  24.141  1.00  0.00     0.138 A 
ATOM      7  S   UNL A   1      32.305  27.226  22.757  1.00  0.00    -0.017 S 
ATOM      8  N   UNL A   1      33.516  26.476  23.561  1.00  0.00    -0.195 NA
ATOM      9  C   UNL A   1      33.291  26.560  24.869  1.00  0.00     0.066 A 
ATOM     10  C   UNL A   1      34.297  25.879  25.743  1.00  0.00     0.069 C 
BRANCH   6  11
ATOM     11  N   UNL A   1      29.984  28.146  24.007  1.00  0.00    -0.261 N 
ATOM     12  C   UNL A   1      29.017  27.189  23.407  1.00  0.00     0.164 C 
BRANCH  11  13
ATOM     13  S   UNL A   1      30.000  29.721  23.323  1.00  0.00     0.249 S 
ATOM     14  O   UNL A   1      30.935  29.696  22.217  1.00  0.00    -0.206 OA
ATOM     15  O   UNL A   1      30.222  30.626  24.438  1.00  0.00    -0.206 OA
BRANCH  13  16
ATOM     16  C   UNL A   1      28.353  30.096  22.704  1.00  0.00     0.236 C 
ATOM     17  C   UNL A   1      28.094  30.091  21.204  1.00  0.00     0.039 C 
BRANCH  16  18
ATOM     18  C   UNL A   1      27.894  31.407  23.255  1.00  0.00     0.325 C 
ATOM     19  O   UNL A   1      27.106  31.525  24.183  1.00  0.00    -0.251 OA
BRANCH  18  20
ATOM     20  O   UNL A   1      28.319  32.430  22.460  1.00  0.00    -0.468 OA
ATOM     21  C   UNL A   1      29.016  33.465  23.150  1.00  0.00     0.282 C 
ENDBRANCH  18  20
ENDBRANCH  16  18
ENDBRANCH  13  16
ENDBRANCH  11  13
ENDBRANCH   6  11
ENDBRANCH   1   5
BRANCH   3  22
ATOM     22  C   UNL A   1      33.535  29.158  27.114  1.00  0.00     0.118 C 
BRANCH  22  23
ATOM     23  C   UNL A   1      33.333  30.581  26.638  1.00  0.00     0.042 C 
BRANCH  23  24
ATOM     24  C   UNL A   1      33.660  31.633  27.691  1.00  0.00     0.118 C 
BRANCH  24  25
ATOM     25  N   UNL A   1      32.939  32.913  27.590  1.00  0.00    -0.352 N 
ATOM     26  C   UNL A   1      33.079  34.047  28.395  1.00  0.00     0.251 C 
ATOM     27  H   UNL A   1      32.277  32.980  26.865  1.00  0.00     0.163 HD
ATOM     28  O   UNL A   1      32.323  34.993  28.340  1.00  0.00    -0.269 OA
BRANCH  26  29
ATOM     29  C   UNL A   1      34.302  34.080  29.213  1.00  0.00     0.039 A 
ATOM     30  C   UNL A   1      34.444  33.336  30.385  1.00  0.00     0.014 A 
ATOM     31  C   UNL A   1      35.391  34.537  28.499  1.00  0.00     0.014 A 
ATOM     32  C   UNL A   1      35.721  32.879  30.728  1.00  0.00     0.010 A 
ATOM     33  C   UNL A   1      36.556  33.851  28.691  1.00  0.00     0.010 A 
ATOM     34  C   UNL A   1      36.778  33.060  29.823  1.00  0.00    -0.014 A 
BRANCH  34  35
ATOM     35  C   UNL A   1      38.057  32.336  29.922  1.00  0.00     0.031 A 
ATOM     36  C   UNL A   1      38.144  30.938  29.384  1.00  0.00     0.074 A 
ATOM     37  C   UNL A   1      39.223  32.972  30.199  1.00  0.00     0.049 A 
ATOM     38  N   UNL A   1      38.540  29.873  30.009  1.00  0.00    -0.248 NA
ATOM     39  C   UNL A   1      37.752  30.682  27.988  1.00  0.00     0.031 C 
ATOM     40  C   UNL A   1      39.454  34.394  30.503  1.00  0.00     0.029 A 
ATOM     41  N   UNL A   1      40.493  32.488  30.113  1.00  0.00    -0.354 N 
ATOM     42  C   UNL A   1      38.612  28.849  29.062  1.00  0.00     0.074 A 
ATOM     43  C   UNL A   1      38.011  29.377  27.864  1.00  0.00     0.031 C 
ATOM     44  C   UNL A   1      40.740  34.711  30.260  1.00  0.00     0.029 A 
ATOM     45  C   UNL A   1      41.463  33.474  30.072  1.00  0.00     0.049 A 
ATOM     46  H   UNL A   1      40.702  31.526  30.081  1.00  0.00     0.167 HD
ATOM     47  C   UNL A   1      39.323  27.704  29.289  1.00  0.00     0.037 A 
ATOM     48  C   UNL A   1      42.798  33.324  29.959  1.00  0.00     0.037 A 
ATOM     49  C   UNL A   1      39.631  27.544  30.688  1.00  0.00     0.049 A 
ATOM     50  C   UNL A   1      43.120  31.965  30.435  1.00  0.00     0.074 A 
ATOM     51  C   UNL A   1      38.897  27.434  31.852  1.00  0.00     0.029 A 
ATOM     52  N   UNL A   1      40.918  27.787  31.095  1.00  0.00    -0.354 N 
ATOM     53  N   UNL A   1      42.953  31.568  31.667  1.00  0.00    -0.248 NA
ATOM     54  C   UNL A   1      43.263  30.906  29.451  1.00  0.00     0.031 C 
ATOM     55  C   UNL A   1      39.670  28.122  32.838  1.00  0.00     0.029 A 
ATOM     56  C   UNL A   1      40.837  28.569  32.217  1.00  0.00     0.049 A 
ATOM     57  H   UNL A   1      41.742  27.461  30.665  1.00  0.00     0.167 HD
ATOM     58  C   UNL A   1      42.547  30.248  31.559  1.00  0.00     0.074 A 
ATOM     59  C   UNL A   1      42.893  29.861  30.195  1.00  0.00     0.031 C 
ATOM     60  C   UNL A   1      41.720  29.681  32.489  1.00  0.00     0.037 A 
BRANCH  47  61
ATOM     61  C   UNL A   1      40.027  26.871  28.235  1.00  0.00     0.057 A 
ATOM     62  C   UNL A   1      40.895  27.498  27.317  1.00  0.00     0.134 A 
ATOM     63  C   UNL A   1      39.670  25.550  27.900  1.00  0.00     0.134 A 
ATOM     64  F   UNL A   1      41.307  28.761  27.509  1.00  0.00    -0.206 F 
ATOM     65  C   UNL A   1      41.307  26.890  26.123  1.00  0.00     0.040 A 
ATOM     66  C   UNL A   1      40.119  24.914  26.735  1.00  0.00     0.040 A 
ATOM     67  F   UNL A   1      38.798  24.841  28.626  1.00  0.00    -0.206 F 
ATOM     68  C   UNL A   1      40.911  25.595  25.823  1.00  0.00     0.006 A 
ENDBRANCH  47  61
BRANCH  48  69
ATOM     69  C   UNL A   1      43.755  34.245  29.326  1.00  0.00     0.057 A 
ATOM     70  C   UNL A   1      44.019  34.203  27.956  1.00  0.00     0.134 A 
ATOM     71  C   UNL A   1      44.271  35.350  30.032  1.00  0.00     0.134 A 
ATOM     72  F   UNL A   1      43.537  33.204  27.202  1.00  0.00    -0.206 F 
ATOM     73  C   UNL A   1      44.744  35.213  27.313  1.00  0.00     0.040 A 
ATOM     74  C   UNL A   1      45.001  36.361  29.405  1.00  0.00     0.040 A 
ATOM     75  F   UNL A   1      44.014  35.515  31.339  1.00  0.00    -0.206 F 
ATOM     76  C   UNL A   1      45.229  36.301  28.035  1.00  0.00     0.006 A 
ENDBRANCH  48  69
BRANCH  60  77
ATOM     77  C   UNL A   1      41.484  30.421  33.780  1.00  0.00     0.057 A 
ATOM     78  C   UNL A   1      40.408  31.293  33.995  1.00  0.00     0.134 A 
ATOM     79  C   UNL A   1      42.265  30.109  34.896  1.00  0.00     0.134 A 
ATOM     80  F   UNL A   1      39.539  31.573  33.019  1.00  0.00    -0.206 F 
ATOM     81  C   UNL A   1      40.142  31.860  35.245  1.00  0.00     0.040 A 
ATOM     82  C   UNL A   1      41.995  30.643  36.161  1.00  0.00     0.040 A 
ATOM     83  F   UNL A   1      43.275  29.231  34.790  1.00  0.00    -0.206 F 
ATOM     84  C   UNL A   1      40.934  31.529  36.337  1.00  0.00     0.006 A 
ENDBRANCH  60  77
ENDBRANCH  34  35
ENDBRANCH  26  29
ENDBRANCH  24  25
ENDBRANCH  23  24
ENDBRANCH  22  23
ENDBRANCH   3  22
TORSDOF 15
ENDMDL
MODEL 2
REMARK VINA RESULT:     -11.0      1.766      3.541
REMARK SMILES COC(=O)[C@@H](C)S(=O)(=O)N(C)c1snc(C)c1C(=O)NCCCNC(=O)c1ccc(-c2c3nc(c(-c4c(F)cccc4F)c4ccc([nH]4)c(-c4c(F)cccc4F)c4nc(c(-c5c(F)cccc5F)c5ccc2[nH]5)C=C4)C=C3)cc1
REMARK SMILES IDX 18 1 19 2 20 3 17 5 12 6 13 7 14 8 15 9 16 10 10 11 11 12
REMARK SMILES IDX 7 13 8 14 9 15 5 16 6 17 3 18 4 19 2 20 1 21 21 22 22 23
REMARK SMILES IDX 23 24 24 25 25 26 26 28 27 29 28 30 80 31 29 32 79 33 30 34
REMARK SMILES IDX 31 35 32 36 73 37 33 38 78 39 72 40 74 41 34 42 77 43 71 44
REMARK SMILES IDX 70 45 35 47 61 48 44 49 60 50 45 51 48 52 59 53 75 54 46 55
REMARK SMILES IDX 47 56 58 58 76 59 49 60 36 61 37 62 42 63 38 64 39 65 41 66
REMARK SMILES IDX 43 67 40 68 62 69 63 70 68 71 64 72 65 73 67 74 69 75 66 76
REMARK SMILES IDX 50 77 51 78 56 79 52 80 53 81 55 82 57 83 54 84
REMARK H PARENT 20 4 24 27 74 46 48 57
REMARK Flexibility Score: inf
ROOT
ATOM      1  C   UNL A   1      32.588  28.947  23.546  1.00  0.00     0.256 C 
ATOM      2  O   UNL A   1      33.315  28.963  22.551  1.00  0.00    -0.269 OA
ATOM      3  N   UNL A   1      32.997  29.716  24.612  1.00  0.00    -0.352 N 
ATOM      4  H   UNL A   1      33.889  30.128  24.546  1.00  0.00     0.163 HD
ENDROOT
BRANCH   1   5
ATOM      5  C   UNL A   1      31.432  28.050  23.626  1.00  0.00     0.098 A 
ATOM      6  C   UNL A   1      31.334  26.702  23.988  1.00  0.00     0.138 A 
ATOM      7  S   UNL A   1      29.666  26.259  24.003  1.00  0.00    -0.017 S 
ATOM      8  N   UNL A   1      29.086  27.671  23.415  1.00  0.00    -0.195 NA
ATOM      9  C   UNL A   1      30.092  28.530  23.270  1.00  0.00     0.066 A 
ATOM     10  C   UNL A   1      29.724  29.863  22.697  1.00  0.00     0.069 C 
BRANCH   6  11
ATOM     11  N   UNL A   1      32.393  25.713  24.248  1.00  0.00    -0.261 N 
ATOM     12  C   UNL A   1      33.350  26.120  25.311  1.00  0.00     0.164 C 
BRANCH  11  13
ATOM     13  S   UNL A   1      33.095  25.155  22.783  1.00  0.00     0.249 S 
ATOM     14  O   UNL A   1      34.310  25.914  22.576  1.00  0.00    -0.206 OA
ATOM     15  O   UNL A   1      32.029  25.209  21.796  1.00  0.00    -0.206 OA
BRANCH  13  16
ATOM     16  C   UNL A   1      33.504  23.413  22.968  1.00  0.00     0.236 C 
ATOM     17  C   UNL A   1      32.662  22.535  23.883  1.00  0.00     0.039 C 
BRANCH  16  18
ATOM     18  C   UNL A   1      34.936  23.271  23.371  1.00  0.00     0.325 C 
ATOM     19  O   UNL A   1      35.866  23.176  22.582  1.00  0.00    -0.251 OA
BRANCH  18  20
ATOM     20  O   UNL A   1      35.033  23.068  24.715  1.00  0.00    -0.468 OA
ATOM     21  C   UNL A   1      36.089  23.786  25.349  1.00  0.00     0.282 C 
ENDBRANCH  18  20
ENDBRANCH  16  18
ENDBRANCH  13  16
ENDBRANCH  11  13
ENDBRANCH   6  11
ENDBRANCH   1   5
BRANCH   3  22
ATOM     22  C   UNL A   1      32.254  29.977  25.808  1.00  0.00     0.118 C 
BRANCH  22  23
ATOM     23  C   UNL A   1      32.988  29.899  27.131  1.00  0.00     0.042 C 
BRANCH  23  24
ATOM     24  C   UNL A   1      33.659  31.205  27.539  1.00  0.00     0.118 C 
BRANCH  24  25
ATOM     25  N   UNL A   1      32.887  32.440  27.321  1.00  0.00    -0.352 N 
ATOM     26  C   UNL A   1      32.986  33.651  28.011  1.00  0.00     0.251 C 
ATOM     27  H   UNL A   1      32.217  32.408  26.601  1.00  0.00     0.163 HD
ATOM     28  O   UNL A   1      32.192  34.557  27.872  1.00  0.00    -0.269 OA
BRANCH  26  29
ATOM     29  C   UNL A   1      34.211  33.812  28.809  1.00  0.00     0.039 A 
ATOM     30  C   UNL A   1      34.370  33.237  30.071  1.00  0.00     0.014 A 
ATOM     31  C   UNL A   1      35.290  34.183  28.032  1.00  0.00     0.014 A 
ATOM     32  C   UNL A   1      35.655  32.849  30.464  1.00  0.00     0.010 A 
ATOM     33  C   UNL A   1      36.466  33.545  28.308  1.00  0.00     0.010 A 
ATOM     34  C   UNL A   1      36.704  32.920  29.536  1.00  0.00    -0.014 A 
BRANCH  34  35
ATOM     35  C   UNL A   1      37.995  32.234  29.724  1.00  0.00     0.031 A 
ATOM     36  C   UNL A   1      38.145  30.822  29.239  1.00  0.00     0.074 A 
ATOM     37  C   UNL A   1      39.128  32.909  30.039  1.00  0.00     0.049 A 
ATOM     38  N   UNL A   1      38.534  29.789  29.919  1.00  0.00    -0.248 NA
ATOM     39  C   UNL A   1      37.832  30.511  27.835  1.00  0.00     0.031 C 
ATOM     40  C   UNL A   1      39.307  34.347  30.306  1.00  0.00     0.029 A 
ATOM     41  N   UNL A   1      40.413  32.457  30.034  1.00  0.00    -0.354 N 
ATOM     42  C   UNL A   1      38.681  28.737  29.012  1.00  0.00     0.074 A 
ATOM     43  C   UNL A   1      38.130  29.210  27.767  1.00  0.00     0.031 C 
ATOM     44  C   UNL A   1      40.596  34.690  30.119  1.00  0.00     0.029 A 
ATOM     45  C   UNL A   1      41.359  33.467  30.009  1.00  0.00     0.049 A 
ATOM     46  H   UNL A   1      40.648  31.500  30.045  1.00  0.00     0.167 HD
ATOM     47  C   UNL A   1      39.408  27.619  29.313  1.00  0.00     0.037 A 
ATOM     48  C   UNL A   1      42.701  33.349  29.969  1.00  0.00     0.037 A 
ATOM     49  C   UNL A   1      39.647  27.513  30.730  1.00  0.00     0.049 A 
ATOM     50  C   UNL A   1      43.033  32.015  30.507  1.00  0.00     0.074 A 
ATOM     51  C   UNL A   1      38.857  27.422  31.859  1.00  0.00     0.029 A 
ATOM     52  N   UNL A   1      40.904  27.804  31.195  1.00  0.00    -0.354 N 
ATOM     53  N   UNL A   1      42.811  31.654  31.741  1.00  0.00    -0.248 NA
ATOM     54  C   UNL A   1      43.252  30.930  29.568  1.00  0.00     0.031 C 
ATOM     55  C   UNL A   1      39.560  28.162  32.859  1.00  0.00     0.029 A 
ATOM     56  C   UNL A   1      40.746  28.619  32.283  1.00  0.00     0.049 A 
ATOM     57  H   UNL A   1      41.758  27.486  30.818  1.00  0.00     0.167 HD
ATOM     58  C   UNL A   1      42.445  30.321  31.658  1.00  0.00     0.074 A 
ATOM     59  C   UNL A   1      42.871  29.900  30.326  1.00  0.00     0.031 C 
ATOM     60  C   UNL A   1      41.586  29.762  32.563  1.00  0.00     0.037 A 
BRANCH  47  61
ATOM     61  C   UNL A   1      40.186  26.772  28.326  1.00  0.00     0.057 A 
ATOM     62  C   UNL A   1      41.167  27.376  27.511  1.00  0.00     0.134 A 
ATOM     63  C   UNL A   1      39.818  25.470  27.936  1.00  0.00     0.134 A 
ATOM     64  F   UNL A   1      41.603  28.620  27.763  1.00  0.00    -0.206 F 
ATOM     65  C   UNL A   1      41.678  26.766  26.356  1.00  0.00     0.040 A 
ATOM     66  C   UNL A   1      40.361  24.829  26.814  1.00  0.00     0.040 A 
ATOM     67  F   UNL A   1      38.850  24.786  28.558  1.00  0.00    -0.206 F 
ATOM     68  C   UNL A   1      41.268  25.489  25.999  1.00  0.00     0.006 A 
ENDBRANCH  47  61
BRANCH  48  69
ATOM     69  C   UNL A   1      43.666  34.275  29.355  1.00  0.00     0.057 A 
ATOM     70  C   UNL A   1      44.008  34.191  28.004  1.00  0.00     0.134 A 
ATOM     71  C   UNL A   1      44.111  35.419  30.046  1.00  0.00     0.134 A 
ATOM     72  F   UNL A   1      43.597  33.151  27.264  1.00  0.00    -0.206 F 
ATOM     73  C   UNL A   1      44.740  35.198  27.364  1.00  0.00     0.040 A 
ATOM     74  C   UNL A   1      44.847  36.429  29.422  1.00  0.00     0.040 A 
ATOM     75  F   UNL A   1      43.777  35.625  31.329  1.00  0.00    -0.206 F 
ATOM     76  C   UNL A   1      45.153  36.326  28.070  1.00  0.00     0.006 A 
ENDBRANCH  48  69
BRANCH  60  77
ATOM     77  C   UNL A   1      41.264  30.538  33.814  1.00  0.00     0.057 A 
ATOM     78  C   UNL A   1      40.155  31.384  33.946  1.00  0.00     0.134 A 
ATOM     79  C   UNL A   1      41.997  30.286  34.978  1.00  0.00     0.134 A 
ATOM     80  F   UNL A   1      39.329  31.605  32.920  1.00  0.00    -0.206 F 
ATOM     81  C   UNL A   1      39.811  31.984  35.161  1.00  0.00     0.040 A 
ATOM     82  C   UNL A   1      41.649  30.853  36.209  1.00  0.00     0.040 A 
ATOM     83  F   UNL A   1      43.035  29.436  34.951  1.00  0.00    -0.206 F 
ATOM     84  C   UNL A   1      40.556  31.712  36.302  1.00  0.00     0.006 A 
ENDBRANCH  60  77
ENDBRANCH  34  35
ENDBRANCH  26  29
ENDBRANCH  24  25
ENDBRANCH  23  24
ENDBRANCH  22  23
ENDBRANCH   3  22
TORSDOF 15
ENDMDL
MODEL 3
REMARK VINA RESULT:     -11.0      2.904      7.242
REMARK SMILES COC(=O)[C@@H](C)S(=O)(=O)N(C)c1snc(C)c1C(=O)NCCCNC(=O)c1ccc(-c2c3nc(c(-c4c(F)cccc4F)c4ccc([nH]4)c(-c4c(F)cccc4F)c4nc(c(-c5c(F)cccc5F)c5ccc2[nH]5)C=C4)C=C3)cc1
REMARK SMILES IDX 18 1 19 2 20 3 17 5 12 6 13 7 14 8 15 9 16 10 10 11 11 12
REMARK SMILES IDX 7 13 8 14 9 15 5 16 6 17 3 18 4 19 2 20 1 21 21 22 22 23
REMARK SMILES IDX 23 24 24 25 25 26 26 28 27 29 28 30 80 31 29 32 79 33 30 34
REMARK SMILES IDX 31 35 32 36 73 37 33 38 78 39 72 40 74 41 34 42 77 43 71 44
REMARK SMILES IDX 70 45 35 47 61 48 44 49 60 50 45 51 48 52 59 53 75 54 46 55
REMARK SMILES IDX 47 56 58 58 76 59 49 60 36 61 37 62 42 63 38 64 39 65 41 66
REMARK SMILES IDX 43 67 40 68 62 69 63 70 68 71 64 72 65 73 67 74 69 75 66 76
REMARK SMILES IDX 50 77 51 78 56 79 52 80 53 81 55 82 57 83 54 84
REMARK H PARENT 20 4 24 27 74 46 48 57
REMARK Flexibility Score: inf
ROOT
ATOM      1  C   UNL A   1      32.548  28.830  23.624  1.00  0.00     0.256 C 
ATOM      2  O   UNL A   1      33.337  28.760  22.679  1.00  0.00    -0.269 OA
ATOM      3  N   UNL A   1      32.923  29.641  24.672  1.00  0.00    -0.352 N 
ATOM      4  H   UNL A   1      33.834  30.012  24.642  1.00  0.00     0.163 HD
ENDROOT
BRANCH   1   5
ATOM      5  C   UNL A   1      31.351  27.986  23.677  1.00  0.00     0.098 A 
ATOM      6  C   UNL A   1      31.187  26.638  24.016  1.00  0.00     0.138 A 
ATOM      7  S   UNL A   1      29.501  26.272  24.007  1.00  0.00    -0.017 S 
ATOM      8  N   UNL A   1      28.993  27.719  23.437  1.00  0.00    -0.195 NA
ATOM      9  C   UNL A   1      30.038  28.533  23.317  1.00  0.00     0.066 A 
ATOM     10  C   UNL A   1      29.738  29.891  22.764  1.00  0.00     0.069 C 
BRANCH   6  11
ATOM     11  N   UNL A   1      32.197  25.596  24.268  1.00  0.00    -0.261 N 
ATOM     12  C   UNL A   1      32.149  24.465  23.305  1.00  0.00     0.164 C 
BRANCH  11  13
ATOM     13  S   UNL A   1      32.243  25.164  25.929  1.00  0.00     0.249 S 
ATOM     14  O   UNL A   1      31.507  26.179  26.655  1.00  0.00    -0.206 OA
ATOM     15  O   UNL A   1      33.644  24.929  26.232  1.00  0.00    -0.206 OA
BRANCH  13  16
ATOM     16  C   UNL A   1      31.423  23.575  26.133  1.00  0.00     0.236 C 
ATOM     17  C   UNL A   1      30.042  23.517  26.771  1.00  0.00     0.039 C 
BRANCH  16  18
ATOM     18  C   UNL A   1      32.320  22.635  26.870  1.00  0.00     0.325 C 
ATOM     19  O   UNL A   1      32.491  22.655  28.081  1.00  0.00    -0.251 OA
BRANCH  18  20
ATOM     20  O   UNL A   1      33.058  21.898  25.992  1.00  0.00    -0.468 OA
ATOM     21  C   UNL A   1      32.289  21.115  25.083  1.00  0.00     0.282 C 
ENDBRANCH  18  20
ENDBRANCH  16  18
ENDBRANCH  13  16
ENDBRANCH  11  13
ENDBRANCH   6  11
ENDBRANCH   1   5
BRANCH   3  22
ATOM     22  C   UNL A   1      32.118  29.999  25.802  1.00  0.00     0.118 C 
BRANCH  22  23
ATOM     23  C   UNL A   1      32.593  29.573  27.176  1.00  0.00     0.042 C 
BRANCH  23  24
ATOM     24  C   UNL A   1      34.086  29.781  27.401  1.00  0.00     0.118 C 
BRANCH  24  25
ATOM     25  N   UNL A   1      34.615  31.125  27.115  1.00  0.00    -0.352 N 
ATOM     26  C   UNL A   1      35.541  31.862  27.857  1.00  0.00     0.251 C 
ATOM     27  H   UNL A   1      34.275  31.558  26.299  1.00  0.00     0.163 HD
ATOM     28  O   UNL A   1      35.789  33.028  27.632  1.00  0.00    -0.269 OA
BRANCH  26  29
ATOM     29  C   UNL A   1      36.311  31.083  28.840  1.00  0.00     0.039 A 
ATOM     30  C   UNL A   1      36.320  29.687  28.854  1.00  0.00     0.014 A 
ATOM     31  C   UNL A   1      37.320  31.828  29.416  1.00  0.00     0.014 A 
ATOM     32  C   UNL A   1      37.480  29.039  29.289  1.00  0.00     0.010 A 
ATOM     33  C   UNL A   1      38.520  31.192  29.557  1.00  0.00     0.010 A 
ATOM     34  C   UNL A   1      38.629  29.798  29.558  1.00  0.00    -0.014 A 
BRANCH  34  35
ATOM     35  C   UNL A   1      39.974  29.208  29.687  1.00  0.00     0.031 A 
ATOM     36  C   UNL A   1      40.563  29.037  31.056  1.00  0.00     0.074 A 
ATOM     37  C   UNL A   1      40.569  28.547  28.664  1.00  0.00     0.049 A 
ATOM     38  N   UNL A   1      41.708  29.471  31.483  1.00  0.00    -0.248 NA
ATOM     39  C   UNL A   1      39.802  28.298  32.076  1.00  0.00     0.031 C 
ATOM     40  C   UNL A   1      40.084  28.336  27.289  1.00  0.00     0.029 A 
ATOM     41  N   UNL A   1      41.691  27.776  28.693  1.00  0.00    -0.354 N 
ATOM     42  C   UNL A   1      41.899  28.928  32.756  1.00  0.00     0.074 A 
ATOM     43  C   UNL A   1      40.648  28.307  33.111  1.00  0.00     0.031 C 
ATOM     44  C   UNL A   1      40.707  27.275  26.741  1.00  0.00     0.029 A 
ATOM     45  C   UNL A   1      41.814  26.929  27.605  1.00  0.00     0.049 A 
ATOM     46  H   UNL A   1      42.354  27.816  29.420  1.00  0.00     0.167 HD
ATOM     47  C   UNL A   1      43.131  28.881  33.344  1.00  0.00     0.037 A 
ATOM     48  C   UNL A   1      42.786  26.029  27.356  1.00  0.00     0.037 A 
ATOM     49  C   UNL A   1      44.063  29.762  32.686  1.00  0.00     0.049 A 
ATOM     50  C   UNL A   1      43.975  26.458  28.119  1.00  0.00     0.074 A 
ATOM     51  C   UNL A   1      44.128  31.118  32.435  1.00  0.00     0.029 A 
ATOM     52  N   UNL A   1      45.018  29.201  31.878  1.00  0.00    -0.354 N 
ATOM     53  N   UNL A   1      44.627  27.564  27.886  1.00  0.00    -0.248 NA
ATOM     54  C   UNL A   1      44.217  25.850  29.415  1.00  0.00     0.031 C 
ATOM     55  C   UNL A   1      44.735  31.223  31.146  1.00  0.00     0.029 A 
ATOM     56  C   UNL A   1      45.033  29.928  30.718  1.00  0.00     0.049 A 
ATOM     57  H   UNL A   1      45.586  28.424  32.091  1.00  0.00     0.167 HD
ATOM     58  C   UNL A   1      45.019  28.011  29.137  1.00  0.00     0.074 A 
ATOM     59  C   UNL A   1      44.865  26.853  30.013  1.00  0.00     0.031 C 
ATOM     60  C   UNL A   1      45.166  29.344  29.402  1.00  0.00     0.037 A 
BRANCH  47  61
ATOM     61  C   UNL A   1      43.614  27.819  34.314  1.00  0.00     0.057 A 
ATOM     62  C   UNL A   1      44.109  28.203  35.578  1.00  0.00     0.134 A 
ATOM     63  C   UNL A   1      43.886  26.484  33.956  1.00  0.00     0.134 A 
ATOM     64  F   UNL A   1      43.930  29.451  36.040  1.00  0.00    -0.206 F 
ATOM     65  C   UNL A   1      44.881  27.353  36.382  1.00  0.00     0.040 A 
ATOM     66  C   UNL A   1      44.611  25.610  34.776  1.00  0.00     0.040 A 
ATOM     67  F   UNL A   1      43.549  25.984  32.761  1.00  0.00    -0.206 F 
ATOM     68  C   UNL A   1      45.143  26.052  35.978  1.00  0.00     0.006 A 
ENDBRANCH  47  61
BRANCH  48  69
ATOM     69  C   UNL A   1      42.669  24.762  26.617  1.00  0.00     0.057 A 
ATOM     70  C   UNL A   1      43.347  24.547  25.416  1.00  0.00     0.134 A 
ATOM     71  C   UNL A   1      42.054  23.638  27.202  1.00  0.00     0.134 A 
ATOM     72  F   UNL A   1      43.988  25.556  24.809  1.00  0.00    -0.206 F 
ATOM     73  C   UNL A   1      43.425  23.278  24.830  1.00  0.00     0.040 A 
ATOM     74  C   UNL A   1      42.119  22.368  26.626  1.00  0.00     0.040 A 
ATOM     75  F   UNL A   1      41.436  23.729  28.390  1.00  0.00    -0.206 F 
ATOM     76  C   UNL A   1      42.819  22.182  25.440  1.00  0.00     0.006 A 
ENDBRANCH  48  69
BRANCH  60  77
ATOM     77  C   UNL A   1      45.169  30.306  28.241  1.00  0.00     0.057 A 
ATOM     78  C   UNL A   1      44.030  30.982  27.784  1.00  0.00     0.134 A 
ATOM     79  C   UNL A   1      46.391  30.693  27.683  1.00  0.00     0.134 A 
ATOM     80  F   UNL A   1      42.830  30.761  28.326  1.00  0.00    -0.206 F 
ATOM     81  C   UNL A   1      44.093  31.967  26.793  1.00  0.00     0.040 A 
ATOM     82  C   UNL A   1      46.475  31.698  26.713  1.00  0.00     0.040 A 
ATOM     83  F   UNL A   1      47.536  30.140  28.113  1.00  0.00    -0.206 F 
ATOM     84  C   UNL A   1      45.322  32.333  26.258  1.00  0.00     0.006 A 
ENDBRANCH  60  77
ENDBRANCH  34  35
ENDBRANCH  26  29
ENDBRANCH  24  25
ENDBRANCH  23  24
ENDBRANCH  22  23
ENDBRANCH   3  22
TORSDOF 15
ENDMDL
