MODEL 1
REMARK VINA RESULT:     -11.9      0.000      0.000
REMARK SMILES C[C@H](C(=O)NCCCNC(=O)c1ccc(-c2c3nc(c(-c4c(F)cccc4F)c4ccc([nH]4)c(-c4c(F)cccc4F)c4nc(c(-c5c(F)cccc5F)c5ccc2[nH]5)C=C4)C=C3)cc1)[C@@H](C(=O)c1ccccc1)c1ccc(F)cc1
REMARK SMILES IDX 6 1 5 2 3 3 4 4 2 6 1 7 66 8 67 9 68 10 69 11 70 12 74 13
REMARK SMILES IDX 71 14 73 15 72 16 75 17 76 18 81 19 77 20 80 21 78 22 79 23
REMARK SMILES IDX 7 24 8 25 9 26 10 27 11 29 12 30 13 31 65 32 14 33 64 34
REMARK SMILES IDX 15 35 16 36 17 37 58 38 18 39 63 40 57 41 59 42 19 43 62 44
REMARK SMILES IDX 56 45 55 46 20 48 46 49 29 50 45 51 30 52 33 53 44 54 60 55
REMARK SMILES IDX 31 56 32 57 43 59 61 60 34 61 21 62 22 63 27 64 23 65 24 66
REMARK SMILES IDX 26 67 28 68 25 69 47 70 48 71 53 72 49 73 50 74 52 75 54 76
REMARK SMILES IDX 51 77 35 78 36 79 41 80 37 81 38 82 40 83 42 84 39 85
REMARK H PARENT 5 5 9 28 59 47 33 58
REMARK Flexibility Score: inf
ROOT
ATOM      1  C   UNL A   1      36.200  20.794  25.011  1.00  0.00     0.117 C 
ENDROOT
BRANCH   1   2
ATOM      2  N   UNL A   1      35.616  21.048  26.311  1.00  0.00    -0.356 N 
ATOM      3  C   UNL A   1      34.544  21.777  26.709  1.00  0.00     0.223 C 
ATOM      4  O   UNL A   1      34.182  21.601  27.880  1.00  0.00    -0.275 OA
ATOM      5  H   UNL A   1      36.090  20.604  27.051  1.00  0.00     0.163 HD
BRANCH   3   6
ATOM      6  C   UNL A   1      33.879  22.879  25.879  1.00  0.00     0.090 C 
ATOM      7  C   UNL A   1      34.852  24.053  26.027  1.00  0.00     0.019 C 
BRANCH   6   8
ATOM      8  C   UNL A   1      33.310  22.493  24.464  1.00  0.00     0.103 C 
BRANCH   8   9
ATOM      9  C   UNL A   1      32.235  21.380  24.715  1.00  0.00     0.171 C 
ATOM     10  O   UNL A   1      31.249  21.521  25.435  1.00  0.00    -0.293 OA
BRANCH   9  11
ATOM     11  C   UNL A   1      32.427  20.033  24.128  1.00  0.00     0.018 A 
ATOM     12  C   UNL A   1      32.189  19.768  22.778  1.00  0.00     0.012 A 
ATOM     13  C   UNL A   1      32.844  19.008  24.984  1.00  0.00     0.012 A 
ATOM     14  C   UNL A   1      32.447  18.486  22.277  1.00  0.00     0.001 A 
ATOM     15  C   UNL A   1      33.135  17.745  24.474  1.00  0.00     0.001 A 
ATOM     16  C   UNL A   1      32.944  17.486  23.118  1.00  0.00     0.000 A 
ENDBRANCH   9  11
ENDBRANCH   8   9
BRANCH   8  17
ATOM     17  C   UNL A   1      32.712  23.627  23.566  1.00  0.00    -0.036 A 
ATOM     18  C   UNL A   1      33.195  23.985  22.295  1.00  0.00     0.007 A 
ATOM     19  C   UNL A   1      31.563  24.329  23.998  1.00  0.00     0.007 A 
ATOM     20  C   UNL A   1      32.661  25.051  21.557  1.00  0.00     0.039 A 
ATOM     21  C   UNL A   1      31.019  25.395  23.264  1.00  0.00     0.039 A 
ATOM     22  C   UNL A   1      31.588  25.760  22.058  1.00  0.00     0.123 A 
ATOM     23  F   UNL A   1      31.092  26.792  21.363  1.00  0.00    -0.207 F 
ENDBRANCH   8  17
ENDBRANCH   6   8
ENDBRANCH   3   6
ENDBRANCH   1   2
BRANCH   1  24
ATOM     24  C   UNL A   1      37.479  21.565  24.720  1.00  0.00     0.042 C 
BRANCH  24  25
ATOM     25  C   UNL A   1      38.610  21.432  25.733  1.00  0.00     0.118 C 
BRANCH  25  26
ATOM     26  N   UNL A   1      39.411  20.222  25.611  1.00  0.00    -0.352 N 
ATOM     27  C   UNL A   1      40.719  19.982  25.993  1.00  0.00     0.251 C 
ATOM     28  H   UNL A   1      38.951  19.458  25.194  1.00  0.00     0.163 HD
ATOM     29  O   UNL A   1      41.233  18.897  25.774  1.00  0.00    -0.269 OA
BRANCH  27  30
ATOM     30  C   UNL A   1      41.521  21.073  26.601  1.00  0.00     0.039 A 
ATOM     31  C   UNL A   1      42.096  22.029  25.759  1.00  0.00     0.014 A 
ATOM     32  C   UNL A   1      41.638  21.206  27.986  1.00  0.00     0.014 A 
ATOM     33  C   UNL A   1      42.650  23.191  26.305  1.00  0.00     0.010 A 
ATOM     34  C   UNL A   1      42.110  22.402  28.525  1.00  0.00     0.010 A 
ATOM     35  C   UNL A   1      42.583  23.424  27.689  1.00  0.00    -0.014 A 
BRANCH  35  36
ATOM     36  C   UNL A   1      42.910  24.754  28.272  1.00  0.00     0.031 A 
ATOM     37  C   UNL A   1      41.836  25.785  28.485  1.00  0.00     0.074 A 
ATOM     38  C   UNL A   1      44.202  25.077  28.497  1.00  0.00     0.049 A 
ATOM     39  N   UNL A   1      41.954  27.035  28.851  1.00  0.00    -0.248 NA
ATOM     40  C   UNL A   1      40.451  25.364  28.224  1.00  0.00     0.031 C 
ATOM     41  C   UNL A   1      45.350  24.196  28.271  1.00  0.00     0.029 A 
ATOM     42  N   UNL A   1      44.770  26.246  28.943  1.00  0.00    -0.354 N 
ATOM     43  C   UNL A   1      40.668  27.558  28.840  1.00  0.00     0.074 A 
ATOM     44  C   UNL A   1      39.786  26.499  28.399  1.00  0.00     0.031 C 
ATOM     45  C   UNL A   1      46.480  24.848  28.590  1.00  0.00     0.029 A 
ATOM     46  C   UNL A   1      46.144  26.207  29.001  1.00  0.00     0.049 A 
ATOM     47  H   UNL A   1      44.244  27.037  29.200  1.00  0.00     0.167 HD
ATOM     48  C   UNL A   1      40.257  28.801  29.181  1.00  0.00     0.037 A 
ATOM     49  C   UNL A   1      47.038  27.161  29.324  1.00  0.00     0.037 A 
ATOM     50  C   UNL A   1      41.126  29.841  29.668  1.00  0.00     0.049 A 
ATOM     51  C   UNL A   1      46.550  28.531  29.703  1.00  0.00     0.074 A 
ATOM     52  C   UNL A   1      40.782  31.093  30.149  1.00  0.00     0.029 A 
ATOM     53  N   UNL A   1      42.507  29.753  29.731  1.00  0.00    -0.354 N 
ATOM     54  N   UNL A   1      45.321  28.978  29.777  1.00  0.00    -0.248 NA
ATOM     55  C   UNL A   1      47.574  29.532  30.038  1.00  0.00     0.031 C 
ATOM     56  C   UNL A   1      41.959  31.779  30.464  1.00  0.00     0.029 A 
ATOM     57  C   UNL A   1      43.032  30.942  30.212  1.00  0.00     0.049 A 
ATOM     58  H   UNL A   1      43.035  28.964  29.475  1.00  0.00     0.167 HD
ATOM     59  C   UNL A   1      45.423  30.303  30.179  1.00  0.00     0.074 A 
ATOM     60  C   UNL A   1      46.832  30.583  30.355  1.00  0.00     0.031 C 
ATOM     61  C   UNL A   1      44.436  31.208  30.380  1.00  0.00     0.037 A 
BRANCH  48  62
ATOM     62  C   UNL A   1      38.797  29.116  29.061  1.00  0.00     0.057 A 
ATOM     63  C   UNL A   1      37.939  29.067  30.166  1.00  0.00     0.134 A 
ATOM     64  C   UNL A   1      38.260  29.550  27.841  1.00  0.00     0.134 A 
ATOM     65  F   UNL A   1      38.392  28.653  31.359  1.00  0.00    -0.206 F 
ATOM     66  C   UNL A   1      36.597  29.429  30.062  1.00  0.00     0.040 A 
ATOM     67  C   UNL A   1      36.924  29.934  27.730  1.00  0.00     0.040 A 
ATOM     68  F   UNL A   1      39.032  29.625  26.746  1.00  0.00    -0.206 F 
ATOM     69  C   UNL A   1      36.087  29.874  28.843  1.00  0.00     0.006 A 
ENDBRANCH  48  62
BRANCH  49  70
ATOM     70  C   UNL A   1      48.493  26.868  29.294  1.00  0.00     0.057 A 
ATOM     71  C   UNL A   1      49.141  26.317  30.406  1.00  0.00     0.134 A 
ATOM     72  C   UNL A   1      49.277  27.166  28.172  1.00  0.00     0.134 A 
ATOM     73  F   UNL A   1      48.447  26.032  31.518  1.00  0.00    -0.206 F 
ATOM     74  C   UNL A   1      50.519  26.094  30.414  1.00  0.00     0.040 A 
ATOM     75  C   UNL A   1      50.652  26.926  28.159  1.00  0.00     0.040 A 
ATOM     76  F   UNL A   1      48.716  27.691  27.074  1.00  0.00    -0.206 F 
ATOM     77  C   UNL A   1      51.278  26.397  29.286  1.00  0.00     0.006 A 
ENDBRANCH  49  70
BRANCH  61  78
ATOM     78  C   UNL A   1      44.843  32.580  30.822  1.00  0.00     0.057 A 
ATOM     79  C   UNL A   1      45.009  32.893  32.177  1.00  0.00     0.134 A 
ATOM     80  C   UNL A   1      45.112  33.586  29.885  1.00  0.00     0.134 A 
ATOM     81  F   UNL A   1      44.751  31.976  33.122  1.00  0.00    -0.206 F 
ATOM     82  C   UNL A   1      45.413  34.164  32.586  1.00  0.00     0.040 A 
ATOM     83  C   UNL A   1      45.539  34.854  30.281  1.00  0.00     0.040 A 
ATOM     84  F   UNL A   1      44.977  33.348  28.573  1.00  0.00    -0.206 F 
ATOM     85  C   UNL A   1      45.687  35.146  31.636  1.00  0.00     0.006 A 
ENDBRANCH  61  78
ENDBRANCH  35  36
ENDBRANCH  27  30
ENDBRANCH  25  26
ENDBRANCH  24  25
ENDBRANCH   1  24
TORSDOF 14
ENDMDL
MODEL 2
REMARK VINA RESULT:     -11.8      1.799      3.269
REMARK SMILES C[C@H](C(=O)NCCCNC(=O)c1ccc(-c2c3nc(c(-c4c(F)cccc4F)c4ccc([nH]4)c(-c4c(F)cccc4F)c4nc(c(-c5c(F)cccc5F)c5ccc2[nH]5)C=C4)C=C3)cc1)[C@@H](C(=O)c1ccccc1)c1ccc(F)cc1
REMARK SMILES IDX 6 1 5 2 3 3 4 4 2 6 1 7 66 8 67 9 68 10 69 11 70 12 74 13
REMARK SMILES IDX 71 14 73 15 72 16 75 17 76 18 81 19 77 20 80 21 78 22 79 23
REMARK SMILES IDX 7 24 8 25 9 26 10 27 11 29 12 30 13 31 65 32 14 33 64 34
REMARK SMILES IDX 15 35 16 36 17 37 58 38 18 39 63 40 57 41 59 42 19 43 62 44
REMARK SMILES IDX 56 45 55 46 20 48 46 49 29 50 45 51 30 52 33 53 44 54 60 55
REMARK SMILES IDX 31 56 32 57 43 59 61 60 34 61 21 62 22 63 27 64 23 65 24 66
REMARK SMILES IDX 26 67 28 68 25 69 47 70 48 71 53 72 49 73 50 74 52 75 54 76
REMARK SMILES IDX 51 77 35 78 36 79 41 80 37 81 38 82 40 83 42 84 39 85
REMARK H PARENT 5 5 9 28 59 47 33 58
REMARK Flexibility Score: inf
ROOT
ATOM      1  C   UNL A   1      35.814  22.901  25.845  1.00  0.00     0.117 C 
ENDROOT
BRANCH   1   2
ATOM      2  N   UNL A   1      34.851  22.914  26.925  1.00  0.00    -0.356 N 
ATOM      3  C   UNL A   1      33.495  22.910  26.946  1.00  0.00     0.223 C 
ATOM      4  O   UNL A   1      32.976  22.696  28.049  1.00  0.00    -0.275 OA
ATOM      5  H   UNL A   1      35.260  22.929  27.820  1.00  0.00     0.163 HD
BRANCH   3   6
ATOM      6  C   UNL A   1      32.601  23.297  25.764  1.00  0.00     0.090 C 
ATOM      7  C   UNL A   1      31.189  23.066  26.313  1.00  0.00     0.019 C 
BRANCH   6   8
ATOM      8  C   UNL A   1      32.942  24.620  24.983  1.00  0.00     0.103 C 
BRANCH   8   9
ATOM      9  C   UNL A   1      31.992  24.649  23.737  1.00  0.00     0.171 C 
ATOM     10  O   UNL A   1      31.981  23.791  22.856  1.00  0.00    -0.293 OA
BRANCH   9  11
ATOM     11  C   UNL A   1      31.093  25.808  23.531  1.00  0.00     0.018 A 
ATOM     12  C   UNL A   1      31.511  26.968  22.875  1.00  0.00     0.012 A 
ATOM     13  C   UNL A   1      29.792  25.717  24.039  1.00  0.00     0.012 A 
ATOM     14  C   UNL A   1      30.591  28.003  22.663  1.00  0.00     0.001 A 
ATOM     15  C   UNL A   1      28.871  26.733  23.793  1.00  0.00     0.001 A 
ATOM     16  C   UNL A   1      29.269  27.873  23.098  1.00  0.00     0.000 A 
ENDBRANCH   9  11
ENDBRANCH   8   9
BRANCH   8  17
ATOM     17  C   UNL A   1      32.864  25.981  25.752  1.00  0.00    -0.036 A 
ATOM     18  C   UNL A   1      31.816  26.363  26.607  1.00  0.00     0.007 A 
ATOM     19  C   UNL A   1      33.934  26.901  25.656  1.00  0.00     0.007 A 
ATOM     20  C   UNL A   1      31.765  27.621  27.223  1.00  0.00     0.039 A 
ATOM     21  C   UNL A   1      33.894  28.161  26.273  1.00  0.00     0.039 A 
ATOM     22  C   UNL A   1      32.797  28.518  27.035  1.00  0.00     0.123 A 
ATOM     23  F   UNL A   1      32.737  29.728  27.606  1.00  0.00    -0.207 F 
ENDBRANCH   8  17
ENDBRANCH   6   8
ENDBRANCH   3   6
ENDBRANCH   1   2
BRANCH   1  24
ATOM     24  C   UNL A   1      36.592  21.601  25.694  1.00  0.00     0.042 C 
BRANCH  24  25
ATOM     25  C   UNL A   1      38.103  21.716  25.542  1.00  0.00     0.118 C 
BRANCH  25  26
ATOM     26  N   UNL A   1      38.814  20.448  25.448  1.00  0.00    -0.352 N 
ATOM     27  C   UNL A   1      40.082  20.108  25.884  1.00  0.00     0.251 C 
ATOM     28  H   UNL A   1      38.315  19.723  25.008  1.00  0.00     0.163 HD
ATOM     29  O   UNL A   1      40.521  18.988  25.681  1.00  0.00    -0.269 OA
BRANCH  27  30
ATOM     30  C   UNL A   1      40.939  21.134  26.530  1.00  0.00     0.039 A 
ATOM     31  C   UNL A   1      41.646  22.024  25.716  1.00  0.00     0.014 A 
ATOM     32  C   UNL A   1      40.985  21.275  27.918  1.00  0.00     0.014 A 
ATOM     33  C   UNL A   1      42.266  23.141  26.285  1.00  0.00     0.010 A 
ATOM     34  C   UNL A   1      41.526  22.433  28.475  1.00  0.00     0.010 A 
ATOM     35  C   UNL A   1      42.137  23.398  27.660  1.00  0.00    -0.014 A 
BRANCH  35  36
ATOM     36  C   UNL A   1      42.543  24.703  28.250  1.00  0.00     0.031 A 
ATOM     37  C   UNL A   1      41.532  25.791  28.480  1.00  0.00     0.074 A 
ATOM     38  C   UNL A   1      43.853  24.950  28.466  1.00  0.00     0.049 A 
ATOM     39  N   UNL A   1      41.724  27.030  28.855  1.00  0.00    -0.248 NA
ATOM     40  C   UNL A   1      40.122  25.451  28.229  1.00  0.00     0.031 C 
ATOM     41  C   UNL A   1      44.948  24.008  28.223  1.00  0.00     0.029 A 
ATOM     42  N   UNL A   1      44.491  26.082  28.917  1.00  0.00    -0.354 N 
ATOM     43  C   UNL A   1      40.469  27.624  28.859  1.00  0.00     0.074 A 
ATOM     44  C   UNL A   1      39.524  26.621  28.419  1.00  0.00     0.031 C 
ATOM     45  C   UNL A   1      46.115  24.592  28.537  1.00  0.00     0.029 A 
ATOM     46  C   UNL A   1      45.861  25.964  28.961  1.00  0.00     0.049 A 
ATOM     47  H   UNL A   1      44.013  26.899  29.184  1.00  0.00     0.167 HD
ATOM     48  C   UNL A   1      40.132  28.887  29.214  1.00  0.00     0.037 A 
ATOM     49  C   UNL A   1      46.810  26.863  29.284  1.00  0.00     0.037 A 
ATOM     50  C   UNL A   1      41.063  29.872  29.701  1.00  0.00     0.049 A 
ATOM     51  C   UNL A   1      46.404  28.256  29.677  1.00  0.00     0.074 A 
ATOM     52  C   UNL A   1      40.794  31.137  30.195  1.00  0.00     0.029 A 
ATOM     53  N   UNL A   1      42.437  29.704  29.751  1.00  0.00    -0.354 N 
ATOM     54  N   UNL A   1      45.203  28.771  29.766  1.00  0.00    -0.248 NA
ATOM     55  C   UNL A   1      47.486  29.194  30.011  1.00  0.00     0.031 C 
ATOM     56  C   UNL A   1      42.011  31.753  30.504  1.00  0.00     0.029 A 
ATOM     57  C   UNL A   1      43.033  30.858  30.236  1.00  0.00     0.049 A 
ATOM     58  H   UNL A   1      42.918  28.889  29.484  1.00  0.00     0.167 HD
ATOM     59  C   UNL A   1      45.383  30.084  30.178  1.00  0.00     0.074 A 
ATOM     60  C   UNL A   1      46.807  30.283  30.343  1.00  0.00     0.031 C 
ATOM     61  C   UNL A   1      44.451  31.042  30.394  1.00  0.00     0.037 A 
BRANCH  48  62
ATOM     62  C   UNL A   1      38.691  29.284  29.109  1.00  0.00     0.057 A 
ATOM     63  C   UNL A   1      38.114  29.643  27.885  1.00  0.00     0.134 A 
ATOM     64  C   UNL A   1      37.853  29.228  30.230  1.00  0.00     0.134 A 
ATOM     65  F   UNL A   1      38.866  29.721  26.776  1.00  0.00    -0.206 F 
ATOM     66  C   UNL A   1      36.756  29.943  27.781  1.00  0.00     0.040 A 
ATOM     67  C   UNL A   1      36.490  29.507  30.134  1.00  0.00     0.040 A 
ATOM     68  F   UNL A   1      38.345  28.885  31.431  1.00  0.00    -0.206 F 
ATOM     69  C   UNL A   1      35.937  29.865  28.907  1.00  0.00     0.006 A 
ENDBRANCH  48  62
BRANCH  49  70
ATOM     70  C   UNL A   1      48.246  26.488  29.239  1.00  0.00     0.057 A 
ATOM     71  C   UNL A   1      49.006  26.677  28.078  1.00  0.00     0.134 A 
ATOM     72  C   UNL A   1      48.883  25.898  30.338  1.00  0.00     0.134 A 
ATOM     73  F   UNL A   1      48.444  27.216  26.986  1.00  0.00    -0.206 F 
ATOM     74  C   UNL A   1      50.339  26.272  28.002  1.00  0.00     0.040 A 
ATOM     75  C   UNL A   1      50.222  25.510  30.283  1.00  0.00     0.040 A 
ATOM     76  F   UNL A   1      48.211  25.694  31.480  1.00  0.00    -0.206 F 
ATOM     77  C   UNL A   1      50.952  25.688  29.109  1.00  0.00     0.006 A 
ENDBRANCH  49  70
BRANCH  61  78
ATOM     78  C   UNL A   1      44.939  32.386  30.842  1.00  0.00     0.057 A 
ATOM     79  C   UNL A   1      45.141  32.675  32.198  1.00  0.00     0.134 A 
ATOM     80  C   UNL A   1      45.249  33.385  29.912  1.00  0.00     0.134 A 
ATOM     81  F   UNL A   1      44.848  31.764  33.138  1.00  0.00    -0.206 F 
ATOM     82  C   UNL A   1      45.621  33.918  32.613  1.00  0.00     0.040 A 
ATOM     83  C   UNL A   1      45.750  34.624  30.313  1.00  0.00     0.040 A 
ATOM     84  F   UNL A   1      45.082  33.168  28.599  1.00  0.00    -0.206 F 
ATOM     85  C   UNL A   1      45.934  34.893  31.668  1.00  0.00     0.006 A 
ENDBRANCH  61  78
ENDBRANCH  35  36
ENDBRANCH  27  30
ENDBRANCH  25  26
ENDBRANCH  24  25
ENDBRANCH   1  24
TORSDOF 14
ENDMDL
MODEL 3
REMARK VINA RESULT:     -11.8      4.971      9.419
REMARK SMILES C[C@H](C(=O)NCCCNC(=O)c1ccc(-c2c3nc(c(-c4c(F)cccc4F)c4ccc([nH]4)c(-c4c(F)cccc4F)c4nc(c(-c5c(F)cccc5F)c5ccc2[nH]5)C=C4)C=C3)cc1)[C@@H](C(=O)c1ccccc1)c1ccc(F)cc1
REMARK SMILES IDX 6 1 5 2 3 3 4 4 2 6 1 7 66 8 67 9 68 10 69 11 70 12 74 13
REMARK SMILES IDX 71 14 73 15 72 16 75 17 76 18 81 19 77 20 80 21 78 22 79 23
REMARK SMILES IDX 7 24 8 25 9 26 10 27 11 29 12 30 13 31 65 32 14 33 64 34
REMARK SMILES IDX 15 35 16 36 17 37 58 38 18 39 63 40 57 41 59 42 19 43 62 44
REMARK SMILES IDX 56 45 55 46 20 48 46 49 29 50 45 51 30 52 33 53 44 54 60 55
REMARK SMILES IDX 31 56 32 57 43 59 61 60 34 61 21 62 22 63 27 64 23 65 24 66
REMARK SMILES IDX 26 67 28 68 25 69 47 70 48 71 53 72 49 73 50 74 52 75 54 76
REMARK SMILES IDX 51 77 35 78 36 79 41 80 37 81 38 82 40 83 42 84 39 85
REMARK H PARENT 5 5 9 28 59 47 33 58
REMARK Flexibility Score: inf
ROOT
ATOM      1  C   UNL A   1      31.867  30.113  25.690  1.00  0.00     0.117 C 
ENDROOT
BRANCH   1   2
ATOM      2  N   UNL A   1      32.884  29.996  24.667  1.00  0.00    -0.356 N 
ATOM      3  C   UNL A   1      33.258  28.975  23.856  1.00  0.00     0.223 C 
ATOM      4  O   UNL A   1      34.020  29.278  22.929  1.00  0.00    -0.275 OA
ATOM      5  H   UNL A   1      33.407  30.820  24.532  1.00  0.00     0.163 HD
BRANCH   3   6
ATOM      6  C   UNL A   1      32.933  27.499  24.104  1.00  0.00     0.090 C 
ATOM      7  C   UNL A   1      33.973  27.091  25.152  1.00  0.00     0.019 C 
BRANCH   6   8
ATOM      8  C   UNL A   1      31.422  27.097  24.286  1.00  0.00     0.103 C 
BRANCH   8   9
ATOM      9  C   UNL A   1      30.733  27.355  22.902  1.00  0.00     0.171 C 
ATOM     10  O   UNL A   1      31.103  26.857  21.841  1.00  0.00    -0.293 OA
BRANCH   9  11
ATOM     11  C   UNL A   1      29.610  28.319  22.814  1.00  0.00     0.018 A 
ATOM     12  C   UNL A   1      28.301  27.971  23.151  1.00  0.00     0.012 A 
ATOM     13  C   UNL A   1      29.900  29.609  22.354  1.00  0.00     0.012 A 
ATOM     14  C   UNL A   1      27.299  28.948  23.100  1.00  0.00     0.001 A 
ATOM     15  C   UNL A   1      28.908  30.587  22.342  1.00  0.00     0.001 A 
ATOM     16  C   UNL A   1      27.608  30.258  22.721  1.00  0.00     0.000 A 
ENDBRANCH   9  11
ENDBRANCH   8   9
BRANCH   8  17
ATOM     17  C   UNL A   1      31.089  25.655  24.793  1.00  0.00    -0.036 A 
ATOM     18  C   UNL A   1      30.454  25.357  26.011  1.00  0.00     0.007 A 
ATOM     19  C   UNL A   1      31.376  24.540  23.970  1.00  0.00     0.007 A 
ATOM     20  C   UNL A   1      30.235  24.042  26.446  1.00  0.00     0.039 A 
ATOM     21  C   UNL A   1      31.156  23.221  24.395  1.00  0.00     0.039 A 
ATOM     22  C   UNL A   1      30.606  22.984  25.642  1.00  0.00     0.123 A 
ATOM     23  F   UNL A   1      30.416  21.728  26.067  1.00  0.00    -0.207 F 
ENDBRANCH   8  17
ENDBRANCH   6   8
ENDBRANCH   3   6
ENDBRANCH   1   2
BRANCH   1  24
ATOM     24  C   UNL A   1      32.394  30.411  27.087  1.00  0.00     0.042 C 
BRANCH  24  25
ATOM     25  C   UNL A   1      33.402  31.545  27.215  1.00  0.00     0.118 C 
BRANCH  25  26
ATOM     26  N   UNL A   1      32.826  32.864  27.440  1.00  0.00    -0.352 N 
ATOM     27  C   UNL A   1      33.242  33.883  28.278  1.00  0.00     0.251 C 
ATOM     28  H   UNL A   1      32.018  33.060  26.913  1.00  0.00     0.163 HD
ATOM     29  O   UNL A   1      32.598  34.917  28.353  1.00  0.00    -0.269 OA
BRANCH  27  30
ATOM     30  C   UNL A   1      34.430  33.684  29.146  1.00  0.00     0.039 A 
ATOM     31  C   UNL A   1      34.282  32.942  30.322  1.00  0.00     0.014 A 
ATOM     32  C   UNL A   1      35.691  34.149  28.771  1.00  0.00     0.014 A 
ATOM     33  C   UNL A   1      35.416  32.537  31.033  1.00  0.00     0.010 A 
ATOM     34  C   UNL A   1      36.824  33.671  29.429  1.00  0.00     0.010 A 
ATOM     35  C   UNL A   1      36.700  32.827  30.543  1.00  0.00    -0.014 A 
BRANCH  35  36
ATOM     36  C   UNL A   1      37.915  32.186  31.115  1.00  0.00     0.031 A 
ATOM     37  C   UNL A   1      38.610  31.069  30.387  1.00  0.00     0.074 A 
ATOM     38  C   UNL A   1      38.322  32.533  32.355  1.00  0.00     0.049 A 
ATOM     39  N   UNL A   1      39.593  30.307  30.793  1.00  0.00    -0.248 NA
ATOM     40  C   UNL A   1      38.117  30.747  29.039  1.00  0.00     0.031 C 
ATOM     41  C   UNL A   1      37.699  33.554  33.200  1.00  0.00     0.029 A 
ATOM     42  N   UNL A   1      39.345  32.045  33.133  1.00  0.00    -0.354 N 
ATOM     43  C   UNL A   1      39.819  29.400  29.765  1.00  0.00     0.074 A 
ATOM     44  C   UNL A   1      38.850  29.685  28.729  1.00  0.00     0.031 C 
ATOM     45  C   UNL A   1      38.356  33.625  34.369  1.00  0.00     0.029 A 
ATOM     46  C   UNL A   1      39.420  32.626  34.377  1.00  0.00     0.049 A 
ATOM     47  H   UNL A   1      39.967  31.346  32.828  1.00  0.00     0.167 HD
ATOM     48  C   UNL A   1      40.760  28.430  29.685  1.00  0.00     0.037 A 
ATOM     49  C   UNL A   1      40.234  32.372  35.419  1.00  0.00     0.037 A 
ATOM     50  C   UNL A   1      41.758  28.177  30.692  1.00  0.00     0.049 A 
ATOM     51  C   UNL A   1      41.271  31.291  35.298  1.00  0.00     0.074 A 
ATOM     52  C   UNL A   1      42.822  27.294  30.644  1.00  0.00     0.029 A 
ATOM     53  N   UNL A   1      41.811  28.803  31.927  1.00  0.00    -0.354 N 
ATOM     54  N   UNL A   1      41.531  30.507  34.281  1.00  0.00    -0.248 NA
ATOM     55  C   UNL A   1      42.125  31.055  36.471  1.00  0.00     0.031 C 
ATOM     56  C   UNL A   1      43.496  27.354  31.868  1.00  0.00     0.029 A 
ATOM     57  C   UNL A   1      42.871  28.300  32.663  1.00  0.00     0.049 A 
ATOM     58  H   UNL A   1      41.190  29.501  32.234  1.00  0.00     0.167 HD
ATOM     59  C   UNL A   1      42.584  29.697  34.685  1.00  0.00     0.074 A 
ATOM     60  C   UNL A   1      42.930  30.098  36.032  1.00  0.00     0.031 C 
ATOM     61  C   UNL A   1      43.204  28.706  34.003  1.00  0.00     0.037 A 
BRANCH  48  62
ATOM     62  C   UNL A   1      40.776  27.568  28.460  1.00  0.00     0.057 A 
ATOM     63  C   UNL A   1      40.000  26.407  28.366  1.00  0.00     0.134 A 
ATOM     64  C   UNL A   1      41.514  27.949  27.331  1.00  0.00     0.134 A 
ATOM     65  F   UNL A   1      39.277  25.987  29.415  1.00  0.00    -0.206 F 
ATOM     66  C   UNL A   1      39.965  25.648  27.196  1.00  0.00     0.040 A 
ATOM     67  C   UNL A   1      41.471  27.208  26.149  1.00  0.00     0.040 A 
ATOM     68  F   UNL A   1      42.274  29.055  27.355  1.00  0.00    -0.206 F 
ATOM     69  C   UNL A   1      40.694  26.054  26.079  1.00  0.00     0.006 A 
ENDBRANCH  48  62
BRANCH  49  70
ATOM     70  C   UNL A   1      40.102  33.142  36.682  1.00  0.00     0.057 A 
ATOM     71  C   UNL A   1      39.144  32.796  37.642  1.00  0.00     0.134 A 
ATOM     72  C   UNL A   1      40.901  34.263  36.942  1.00  0.00     0.134 A 
ATOM     73  F   UNL A   1      38.334  31.747  37.437  1.00  0.00    -0.206 F 
ATOM     74  C   UNL A   1      38.967  33.549  38.803  1.00  0.00     0.040 A 
ATOM     75  C   UNL A   1      40.751  35.010  38.111  1.00  0.00     0.040 A 
ATOM     76  F   UNL A   1      41.840  34.644  36.064  1.00  0.00    -0.206 F 
ATOM     77  C   UNL A   1      39.775  34.659  39.042  1.00  0.00     0.006 A 
ENDBRANCH  49  70
BRANCH  61  78
ATOM     78  C   UNL A   1      44.326  27.995  34.695  1.00  0.00     0.057 A 
ATOM     79  C   UNL A   1      44.108  26.815  35.417  1.00  0.00     0.134 A 
ATOM     80  C   UNL A   1      45.640  28.469  34.606  1.00  0.00     0.134 A 
ATOM     81  F   UNL A   1      42.869  26.319  35.551  1.00  0.00    -0.206 F 
ATOM     82  C   UNL A   1      45.158  26.139  36.040  1.00  0.00     0.040 A 
ATOM     83  C   UNL A   1      46.702  27.790  35.206  1.00  0.00     0.040 A 
ATOM     84  F   UNL A   1      45.915  29.591  33.925  1.00  0.00    -0.206 F 
ATOM     85  C   UNL A   1      46.460  26.622  35.928  1.00  0.00     0.006 A 
ENDBRANCH  61  78
ENDBRANCH  35  36
ENDBRANCH  27  30
ENDBRANCH  25  26
ENDBRANCH  24  25
ENDBRANCH   1  24
TORSDOF 14
ENDMDL
