MODEL 1
REMARK VINA RESULT:     -12.9      0.000      0.000
REMARK SMILES CC(C)C(=O)Nc1ccc2c([C@H](C(=O)NCCCNC(=O)c3ccc(-c4c5nc(c(-c6c(F)cccc6F)c6ccc([nH]6)c(-c6c(F)cccc6F)c6nc(c(-c7c(F)cccc7F)c7ccc4[nH]7)C=C6)C=C5)cc3)[NH+]3CC[NH+](CC(=O)N(C)C)CC3)c[nH]c2c1
REMARK SMILES IDX 16 1 15 2 13 3 14 4 12 6 11 7 7 8 8 9 91 10 9 11 90 12 10 13
REMARK SMILES IDX 89 14 88 15 6 17 4 18 5 19 2 21 1 22 3 23 76 24 77 25 87 26
REMARK SMILES IDX 78 28 86 29 79 30 80 32 81 33 82 34 83 35 84 36 85 37 17 38
REMARK SMILES IDX 18 39 19 40 20 41 21 43 22 44 23 45 75 46 24 47 74 48 25 49
REMARK SMILES IDX 26 50 27 51 68 52 28 53 73 54 67 55 69 56 29 57 72 58 66 59
REMARK SMILES IDX 65 60 30 62 56 63 39 64 55 65 40 66 43 67 54 68 70 69 41 70
REMARK SMILES IDX 42 71 53 73 71 74 44 75 31 76 32 77 37 78 33 79 34 80 36 81
REMARK SMILES IDX 38 82 35 83 57 84 58 85 63 86 59 87 60 88 62 89 64 90 61 91
REMARK SMILES IDX 45 92 46 93 51 94 47 95 48 96 50 97 52 98 49 99
REMARK H PARENT 15 5 89 16 6 20 76 27 79 31 19 42 69 61 43 72
REMARK Flexibility Score: inf
ROOT
ATOM      1  C   UNL A   1      34.922  24.504  25.873  1.00  0.00     0.118 C 
ENDROOT
BRANCH   1   2
ATOM      2  N   UNL A   1      33.519  24.206  26.111  1.00  0.00    -0.351 N 
ATOM      3  C   UNL A   1      32.543  23.773  25.257  1.00  0.00     0.283 C 
ATOM      4  O   UNL A   1      31.460  23.479  25.768  1.00  0.00    -0.268 OA
ATOM      5  H   UNL A   1      33.224  24.338  27.041  1.00  0.00     0.163 HD
BRANCH   3   6
ATOM      6  C   UNL A   1      32.839  23.669  23.750  1.00  0.00     0.308 C 
BRANCH   6   7
ATOM      7  C   UNL A   1      32.555  22.297  23.195  1.00  0.00     0.044 A 
ATOM      8  C   UNL A   1      32.624  18.475  24.894  1.00  0.00     0.043 A 
ATOM      9  C   UNL A   1      33.337  19.446  25.585  1.00  0.00     0.027 A 
ATOM     10  C   UNL A   1      32.154  18.719  23.598  1.00  0.00     0.052 A 
ATOM     11  C   UNL A   1      33.413  20.752  25.107  1.00  0.00     0.013 A 
ATOM     12  C   UNL A   1      32.228  20.038  23.134  1.00  0.00     0.048 A 
ATOM     13  C   UNL A   1      32.793  21.067  23.885  1.00  0.00     0.009 A 
ATOM     14  N   UNL A   1      31.778  20.600  21.964  1.00  0.00    -0.361 N 
ATOM     15  C   UNL A   1      31.944  21.958  22.000  1.00  0.00     0.094 A 
ATOM     16  H   UNL A   1      31.392  20.099  21.209  1.00  0.00     0.166 HD
BRANCH   8  17
ATOM     17  N   UNL A   1      32.364  17.228  25.465  1.00  0.00    -0.326 N 
ATOM     18  C   UNL A   1      32.957  16.019  25.235  1.00  0.00     0.226 C 
ATOM     19  O   UNL A   1      32.423  15.023  25.741  1.00  0.00    -0.274 OA
ATOM     20  H   UNL A   1      31.644  17.218  26.136  1.00  0.00     0.169 HD
BRANCH  18  21
ATOM     21  C   UNL A   1      34.297  15.856  24.496  1.00  0.00     0.072 C 
ATOM     22  C   UNL A   1      34.402  16.564  23.151  1.00  0.00     0.018 C 
ATOM     23  C   UNL A   1      35.526  16.086  25.376  1.00  0.00     0.018 C 
ENDBRANCH  18  21
ENDBRANCH   8  17
ENDBRANCH   6   7
BRANCH   6  24
ATOM     24  N   UNL A   1      32.248  24.748  22.941  1.00  0.00    -0.312 N 
ATOM     25  C   UNL A   1      30.816  25.015  23.093  1.00  0.00     0.325 C 
ATOM     26  C   UNL A   1      33.062  25.962  22.900  1.00  0.00     0.325 C 
ATOM     27  H   UNL A   1      32.279  24.332  22.010  1.00  0.00     0.349 HD
ATOM     28  C   UNL A   1      30.407  26.191  24.010  1.00  0.00     0.325 C 
ATOM     29  C   UNL A   1      32.649  27.099  23.859  1.00  0.00     0.325 C 
ATOM     30  N   UNL A   1      31.223  27.411  23.921  1.00  0.00    -0.318 N 
ATOM     31  H   UNL A   1      31.102  27.918  24.799  1.00  0.00     0.348 HD
BRANCH  30  32
ATOM     32  C   UNL A   1      30.732  28.409  22.953  1.00  0.00     0.364 C 
BRANCH  32  33
ATOM     33  C   UNL A   1      30.160  29.686  23.573  1.00  0.00     0.277 C 
ATOM     34  O   UNL A   1      30.653  30.127  24.618  1.00  0.00    -0.268 OA
ATOM     35  N   UNL A   1      29.069  30.308  22.979  1.00  0.00    -0.344 N 
ATOM     36  C   UNL A   1      28.585  30.093  21.625  1.00  0.00     0.146 C 
ATOM     37  C   UNL A   1      28.366  31.314  23.760  1.00  0.00     0.146 C 
ENDBRANCH  32  33
ENDBRANCH  30  32
ENDBRANCH   6  24
ENDBRANCH   3   6
ENDBRANCH   1   2
BRANCH   1  38
ATOM     38  C   UNL A   1      35.820  23.322  26.211  1.00  0.00     0.042 C 
BRANCH  38  39
ATOM     39  C   UNL A   1      37.050  23.208  25.316  1.00  0.00     0.118 C 
BRANCH  39  40
ATOM     40  N   UNL A   1      38.068  22.323  25.870  1.00  0.00    -0.352 N 
ATOM     41  C   UNL A   1      39.247  22.619  26.501  1.00  0.00     0.251 C 
ATOM     42  H   UNL A   1      37.877  21.362  25.775  1.00  0.00     0.163 HD
ATOM     43  O   UNL A   1      40.068  21.731  26.714  1.00  0.00    -0.269 OA
BRANCH  41  44
ATOM     44  C   UNL A   1      39.535  24.007  26.903  1.00  0.00     0.039 A 
ATOM     45  C   UNL A   1      39.282  24.395  28.220  1.00  0.00     0.014 A 
ATOM     46  C   UNL A   1      40.054  24.921  25.983  1.00  0.00     0.014 A 
ATOM     47  C   UNL A   1      39.618  25.684  28.632  1.00  0.00     0.010 A 
ATOM     48  C   UNL A   1      40.472  26.172  26.417  1.00  0.00     0.010 A 
ATOM     49  C   UNL A   1      40.253  26.568  27.744  1.00  0.00    -0.014 A 
BRANCH  49  50
ATOM     50  C   UNL A   1      40.694  27.914  28.185  1.00  0.00     0.031 A 
ATOM     51  C   UNL A   1      42.157  28.254  28.219  1.00  0.00     0.074 A 
ATOM     52  C   UNL A   1      39.779  28.804  28.617  1.00  0.00     0.049 A 
ATOM     53  N   UNL A   1      42.743  29.346  28.642  1.00  0.00    -0.248 NA
ATOM     54  C   UNL A   1      43.089  27.218  27.746  1.00  0.00     0.031 C 
ATOM     55  C   UNL A   1      38.335  28.570  28.679  1.00  0.00     0.029 A 
ATOM     56  N   UNL A   1      39.931  30.080  29.097  1.00  0.00    -0.354 N 
ATOM     57  C   UNL A   1      44.105  29.125  28.490  1.00  0.00     0.074 A 
ATOM     58  C   UNL A   1      44.263  27.772  28.004  1.00  0.00     0.031 C 
ATOM     59  C   UNL A   1      37.732  29.675  29.149  1.00  0.00     0.029 A 
ATOM     60  C   UNL A   1      38.747  30.675  29.461  1.00  0.00     0.049 A 
ATOM     61  H   UNL A   1      40.805  30.527  29.174  1.00  0.00     0.167 HD
ATOM     62  C   UNL A   1      45.130  29.982  28.708  1.00  0.00     0.037 A 
ATOM     63  C   UNL A   1      38.509  31.887  29.997  1.00  0.00     0.037 A 
ATOM     64  C   UNL A   1      44.965  31.331  29.183  1.00  0.00     0.049 A 
ATOM     65  C   UNL A   1      39.666  32.814  30.251  1.00  0.00     0.074 A 
ATOM     66  C   UNL A   1      45.934  32.294  29.396  1.00  0.00     0.029 A 
ATOM     67  N   UNL A   1      43.749  31.904  29.525  1.00  0.00    -0.354 N 
ATOM     68  N   UNL A   1      40.944  32.617  30.041  1.00  0.00    -0.248 NA
ATOM     69  C   UNL A   1      39.344  34.134  30.809  1.00  0.00     0.031 C 
ATOM     70  C   UNL A   1      45.311  33.433  29.918  1.00  0.00     0.029 A 
ATOM     71  C   UNL A   1      43.946  33.200  29.972  1.00  0.00     0.049 A 
ATOM     72  H   UNL A   1      42.875  31.455  29.461  1.00  0.00     0.167 HD
ATOM     73  C   UNL A   1      41.578  33.795  30.413  1.00  0.00     0.074 A 
ATOM     74  C   UNL A   1      40.539  34.707  30.847  1.00  0.00     0.031 C 
ATOM     75  C   UNL A   1      42.900  34.096  30.397  1.00  0.00     0.037 A 
BRANCH  62  76
ATOM     76  C   UNL A   1      46.519  29.480  28.431  1.00  0.00     0.057 A 
ATOM     77  C   UNL A   1      47.292  28.857  29.422  1.00  0.00     0.134 A 
ATOM     78  C   UNL A   1      47.086  29.602  27.156  1.00  0.00     0.134 A 
ATOM     79  F   UNL A   1      46.815  28.720  30.668  1.00  0.00    -0.206 F 
ATOM     80  C   UNL A   1      48.588  28.408  29.165  1.00  0.00     0.040 A 
ATOM     81  C   UNL A   1      48.369  29.126  26.878  1.00  0.00     0.040 A 
ATOM     82  F   UNL A   1      46.402  30.181  26.158  1.00  0.00    -0.206 F 
ATOM     83  C   UNL A   1      49.127  28.536  27.887  1.00  0.00     0.006 A 
ENDBRANCH  62  76
BRANCH  63  84
ATOM     84  C   UNL A   1      37.118  32.294  30.316  1.00  0.00     0.057 A 
ATOM     85  C   UNL A   1      36.541  31.994  31.555  1.00  0.00     0.134 A 
ATOM     86  C   UNL A   1      36.331  32.994  29.392  1.00  0.00     0.134 A 
ATOM     87  F   UNL A   1      37.238  31.312  32.477  1.00  0.00    -0.206 F 
ATOM     88  C   UNL A   1      35.226  32.354  31.857  1.00  0.00     0.040 A 
ATOM     89  C   UNL A   1      35.025  33.386  29.692  1.00  0.00     0.040 A 
ATOM     90  F   UNL A   1      36.829  33.324  28.191  1.00  0.00    -0.206 F 
ATOM     91  C   UNL A   1      34.466  33.058  30.925  1.00  0.00     0.006 A 
ENDBRANCH  63  84
BRANCH  75  92
ATOM     92  C   UNL A   1      43.295  35.480  30.828  1.00  0.00     0.057 A 
ATOM     93  C   UNL A   1      43.422  36.534  29.916  1.00  0.00     0.134 A 
ATOM     94  C   UNL A   1      43.511  35.766  32.182  1.00  0.00     0.134 A 
ATOM     95  F   UNL A   1      43.242  36.325  28.604  1.00  0.00    -0.206 F 
ATOM     96  C   UNL A   1      43.775  37.820  30.333  1.00  0.00     0.040 A 
ATOM     97  C   UNL A   1      43.833  37.054  32.615  1.00  0.00     0.040 A 
ATOM     98  F   UNL A   1      43.396  34.804  33.111  1.00  0.00    -0.206 F 
ATOM     99  C   UNL A   1      43.974  38.084  31.687  1.00  0.00     0.006 A 
ENDBRANCH  75  92
ENDBRANCH  49  50
ENDBRANCH  41  44
ENDBRANCH  39  40
ENDBRANCH  38  39
ENDBRANCH   1  38
TORSDOF 16
ENDMDL
MODEL 2
REMARK VINA RESULT:     -12.6      2.468      8.505
REMARK SMILES CC(C)C(=O)Nc1ccc2c([C@H](C(=O)NCCCNC(=O)c3ccc(-c4c5nc(c(-c6c(F)cccc6F)c6ccc([nH]6)c(-c6c(F)cccc6F)c6nc(c(-c7c(F)cccc7F)c7ccc4[nH]7)C=C6)C=C5)cc3)[NH+]3CC[NH+](CC(=O)N(C)C)CC3)c[nH]c2c1
REMARK SMILES IDX 16 1 15 2 13 3 14 4 12 6 11 7 7 8 8 9 91 10 9 11 90 12 10 13
REMARK SMILES IDX 89 14 88 15 6 17 4 18 5 19 2 21 1 22 3 23 76 24 77 25 87 26
REMARK SMILES IDX 78 28 86 29 79 30 80 32 81 33 82 34 83 35 84 36 85 37 17 38
REMARK SMILES IDX 18 39 19 40 20 41 21 43 22 44 23 45 75 46 24 47 74 48 25 49
REMARK SMILES IDX 26 50 27 51 68 52 28 53 73 54 67 55 69 56 29 57 72 58 66 59
REMARK SMILES IDX 65 60 30 62 56 63 39 64 55 65 40 66 43 67 54 68 70 69 41 70
REMARK SMILES IDX 42 71 53 73 71 74 44 75 31 76 32 77 37 78 33 79 34 80 36 81
REMARK SMILES IDX 38 82 35 83 57 84 58 85 63 86 59 87 60 88 62 89 64 90 61 91
REMARK SMILES IDX 45 92 46 93 51 94 47 95 48 96 50 97 52 98 49 99
REMARK H PARENT 15 5 89 16 6 20 76 27 79 31 19 42 69 61 43 72
REMARK Flexibility Score: inf
ROOT
ATOM      1  C   UNL A   1      35.450  22.977  23.542  1.00  0.00     0.118 C 
ENDROOT
BRANCH   1   2
ATOM      2  N   UNL A   1      34.408  23.779  22.921  1.00  0.00    -0.351 N 
ATOM      3  C   UNL A   1      33.213  24.226  23.415  1.00  0.00     0.283 C 
ATOM      4  O   UNL A   1      32.580  25.003  22.697  1.00  0.00    -0.268 OA
ATOM      5  H   UNL A   1      34.594  24.044  21.991  1.00  0.00     0.163 HD
BRANCH   3   6
ATOM      6  C   UNL A   1      32.739  23.758  24.803  1.00  0.00     0.308 C 
BRANCH   6   7
ATOM      7  C   UNL A   1      32.044  24.848  25.578  1.00  0.00     0.044 A 
ATOM      8  C   UNL A   1      33.248  28.652  26.833  1.00  0.00     0.043 A 
ATOM      9  C   UNL A   1      34.278  27.778  26.511  1.00  0.00     0.027 A 
ATOM     10  C   UNL A   1      31.934  28.188  26.975  1.00  0.00     0.052 A 
ATOM     11  C   UNL A   1      34.007  26.474  26.105  1.00  0.00     0.013 A 
ATOM     12  C   UNL A   1      31.675  26.878  26.554  1.00  0.00     0.048 A 
ATOM     13  C   UNL A   1      32.672  26.035  26.069  1.00  0.00     0.009 A 
ATOM     14  N   UNL A   1      30.494  26.179  26.486  1.00  0.00    -0.361 N 
ATOM     15  C   UNL A   1      30.697  24.970  25.877  1.00  0.00     0.094 A 
ATOM     16  H   UNL A   1      29.627  26.501  26.825  1.00  0.00     0.166 HD
BRANCH   8  17
ATOM     17  N   UNL A   1      33.491  30.011  27.034  1.00  0.00    -0.326 N 
ATOM     18  C   UNL A   1      34.505  30.629  27.711  1.00  0.00     0.226 C 
ATOM     19  O   UNL A   1      34.399  31.848  27.897  1.00  0.00    -0.274 OA
ATOM     20  H   UNL A   1      32.833  30.618  26.625  1.00  0.00     0.169 HD
BRANCH  18  21
ATOM     21  C   UNL A   1      35.802  29.917  28.135  1.00  0.00     0.072 C 
ATOM     22  C   UNL A   1      37.085  30.451  27.513  1.00  0.00     0.018 C 
ATOM     23  C   UNL A   1      35.929  29.700  29.643  1.00  0.00     0.018 C 
ENDBRANCH  18  21
ENDBRANCH   8  17
ENDBRANCH   6   7
BRANCH   6  24
ATOM     24  N   UNL A   1      31.986  22.493  24.791  1.00  0.00    -0.312 N 
ATOM     25  C   UNL A   1      31.605  21.933  23.492  1.00  0.00     0.325 C 
ATOM     26  C   UNL A   1      32.505  21.493  25.723  1.00  0.00     0.325 C 
ATOM     27  H   UNL A   1      31.083  22.801  25.151  1.00  0.00     0.349 HD
ATOM     28  C   UNL A   1      32.492  20.803  22.919  1.00  0.00     0.325 C 
ATOM     29  C   UNL A   1      33.421  20.404  25.122  1.00  0.00     0.325 C 
ATOM     30  N   UNL A   1      32.971  19.792  23.874  1.00  0.00    -0.318 N 
ATOM     31  H   UNL A   1      33.808  19.370  23.471  1.00  0.00     0.348 HD
BRANCH  30  32
ATOM     32  C   UNL A   1      32.099  18.610  24.007  1.00  0.00     0.364 C 
BRANCH  32  33
ATOM     33  C   UNL A   1      32.671  17.476  24.862  1.00  0.00     0.277 C 
ATOM     34  O   UNL A   1      32.210  17.277  25.992  1.00  0.00    -0.268 OA
ATOM     35  N   UNL A   1      33.726  16.715  24.375  1.00  0.00    -0.344 N 
ATOM     36  C   UNL A   1      34.161  16.630  22.990  1.00  0.00     0.146 C 
ATOM     37  C   UNL A   1      34.440  15.877  25.325  1.00  0.00     0.146 C 
ENDBRANCH  32  33
ENDBRANCH  30  32
ENDBRANCH   6  24
ENDBRANCH   3   6
ENDBRANCH   1   2
BRANCH   1  38
ATOM     38  C   UNL A   1      36.192  23.749  24.624  1.00  0.00     0.042 C 
BRANCH  38  39
ATOM     39  C   UNL A   1      36.292  23.006  25.952  1.00  0.00     0.118 C 
BRANCH  39  40
ATOM     40  N   UNL A   1      37.207  21.873  25.894  1.00  0.00    -0.352 N 
ATOM     41  C   UNL A   1      38.567  21.825  26.056  1.00  0.00     0.251 C 
ATOM     42  H   UNL A   1      36.780  21.004  25.711  1.00  0.00     0.163 HD
ATOM     43  O   UNL A   1      39.183  20.803  25.767  1.00  0.00    -0.269 OA
BRANCH  41  44
ATOM     44  C   UNL A   1      39.287  23.010  26.555  1.00  0.00     0.039 A 
ATOM     45  C   UNL A   1      40.171  22.862  27.625  1.00  0.00     0.014 A 
ATOM     46  C   UNL A   1      39.091  24.262  25.966  1.00  0.00     0.014 A 
ATOM     47  C   UNL A   1      40.913  23.960  28.060  1.00  0.00     0.010 A 
ATOM     48  C   UNL A   1      39.895  25.331  26.340  1.00  0.00     0.010 A 
ATOM     49  C   UNL A   1      40.810  25.192  27.393  1.00  0.00    -0.014 A 
BRANCH  49  50
ATOM     50  C   UNL A   1      41.650  26.349  27.785  1.00  0.00     0.031 A 
ATOM     51  C   UNL A   1      41.076  27.441  28.643  1.00  0.00     0.074 A 
ATOM     52  C   UNL A   1      42.908  26.448  27.312  1.00  0.00     0.049 A 
ATOM     53  N   UNL A   1      41.625  28.565  29.030  1.00  0.00    -0.248 NA
ATOM     54  C   UNL A   1      39.690  27.262  29.103  1.00  0.00     0.031 C 
ATOM     55  C   UNL A   1      43.558  25.477  26.429  1.00  0.00     0.029 A 
ATOM     56  N   UNL A   1      43.859  27.418  27.498  1.00  0.00    -0.354 N 
ATOM     57  C   UNL A   1      40.652  29.224  29.769  1.00  0.00     0.074 A 
ATOM     58  C   UNL A   1      39.458  28.410  29.719  1.00  0.00     0.031 C 
ATOM     59  C   UNL A   1      44.809  25.890  26.169  1.00  0.00     0.029 A 
ATOM     60  C   UNL A   1      45.033  27.172  26.829  1.00  0.00     0.049 A 
ATOM     61  H   UNL A   1      43.715  28.215  28.059  1.00  0.00     0.167 HD
ATOM     62  C   UNL A   1      40.754  30.389  30.453  1.00  0.00     0.037 A 
ATOM     63  C   UNL A   1      46.160  27.905  26.746  1.00  0.00     0.037 A 
ATOM     64  C   UNL A   1      41.949  31.189  30.506  1.00  0.00     0.049 A 
ATOM     65  C   UNL A   1      46.242  29.206  27.496  1.00  0.00     0.074 A 
ATOM     66  C   UNL A   1      42.170  32.363  31.204  1.00  0.00     0.029 A 
ATOM     67  N   UNL A   1      43.125  30.900  29.828  1.00  0.00    -0.354 N 
ATOM     68  N   UNL A   1      45.338  29.787  28.246  1.00  0.00    -0.248 NA
ATOM     69  C   UNL A   1      47.506  29.949  27.394  1.00  0.00     0.031 C 
ATOM     70  C   UNL A   1      43.462  32.812  30.906  1.00  0.00     0.029 A 
ATOM     71  C   UNL A   1      44.067  31.886  30.071  1.00  0.00     0.049 A 
ATOM     72  H   UNL A   1      43.267  30.110  29.256  1.00  0.00     0.167 HD
ATOM     73  C   UNL A   1      45.929  30.947  28.728  1.00  0.00     0.074 A 
ATOM     74  C   UNL A   1      47.277  30.978  28.197  1.00  0.00     0.031 C 
ATOM     75  C   UNL A   1      45.405  31.900  29.537  1.00  0.00     0.037 A 
BRANCH  62  76
ATOM     76  C   UNL A   1      39.537  30.860  31.198  1.00  0.00     0.057 A 
ATOM     77  C   UNL A   1      38.684  31.841  30.673  1.00  0.00     0.134 A 
ATOM     78  C   UNL A   1      39.202  30.315  32.443  1.00  0.00     0.134 A 
ATOM     79  F   UNL A   1      38.953  32.415  29.490  1.00  0.00    -0.206 F 
ATOM     80  C   UNL A   1      37.564  32.288  31.376  1.00  0.00     0.040 A 
ATOM     81  C   UNL A   1      38.065  30.730  33.140  1.00  0.00     0.040 A 
ATOM     82  F   UNL A   1      39.969  29.367  33.002  1.00  0.00    -0.206 F 
ATOM     83  C   UNL A   1      37.248  31.726  32.611  1.00  0.00     0.006 A 
ENDBRANCH  62  76
BRANCH  63  84
ATOM     84  C   UNL A   1      47.302  27.418  25.932  1.00  0.00     0.057 A 
ATOM     85  C   UNL A   1      48.356  26.706  26.516  1.00  0.00     0.134 A 
ATOM     86  C   UNL A   1      47.368  27.651  24.553  1.00  0.00     0.134 A 
ATOM     87  F   UNL A   1      48.359  26.463  27.835  1.00  0.00    -0.206 F 
ATOM     88  C   UNL A   1      49.445  26.263  25.762  1.00  0.00     0.040 A 
ATOM     89  C   UNL A   1      48.437  27.189  23.783  1.00  0.00     0.040 A 
ATOM     90  F   UNL A   1      46.384  28.317  23.930  1.00  0.00    -0.206 F 
ATOM     91  C   UNL A   1      49.484  26.499  24.390  1.00  0.00     0.006 A 
ENDBRANCH  63  84
BRANCH  75  92
ATOM     92  C   UNL A   1      46.303  33.040  29.928  1.00  0.00     0.057 A 
ATOM     93  C   UNL A   1      46.356  34.229  29.191  1.00  0.00     0.134 A 
ATOM     94  C   UNL A   1      47.093  32.958  31.081  1.00  0.00     0.134 A 
ATOM     95  F   UNL A   1      45.634  34.368  28.069  1.00  0.00    -0.206 F 
ATOM     96  C   UNL A   1      47.183  35.287  29.574  1.00  0.00     0.040 A 
ATOM     97  C   UNL A   1      47.899  34.020  31.492  1.00  0.00     0.040 A 
ATOM     98  F   UNL A   1      47.082  31.850  31.839  1.00  0.00    -0.206 F 
ATOM     99  C   UNL A   1      47.952  35.187  30.732  1.00  0.00     0.006 A 
ENDBRANCH  75  92
ENDBRANCH  49  50
ENDBRANCH  41  44
ENDBRANCH  39  40
ENDBRANCH  38  39
ENDBRANCH   1  38
TORSDOF 16
ENDMDL
MODEL 3
REMARK VINA RESULT:     -12.5      2.697      6.943
REMARK SMILES CC(C)C(=O)Nc1ccc2c([C@H](C(=O)NCCCNC(=O)c3ccc(-c4c5nc(c(-c6c(F)cccc6F)c6ccc([nH]6)c(-c6c(F)cccc6F)c6nc(c(-c7c(F)cccc7F)c7ccc4[nH]7)C=C6)C=C5)cc3)[NH+]3CC[NH+](CC(=O)N(C)C)CC3)c[nH]c2c1
REMARK SMILES IDX 16 1 15 2 13 3 14 4 12 6 11 7 7 8 8 9 91 10 9 11 90 12 10 13
REMARK SMILES IDX 89 14 88 15 6 17 4 18 5 19 2 21 1 22 3 23 76 24 77 25 87 26
REMARK SMILES IDX 78 28 86 29 79 30 80 32 81 33 82 34 83 35 84 36 85 37 17 38
REMARK SMILES IDX 18 39 19 40 20 41 21 43 22 44 23 45 75 46 24 47 74 48 25 49
REMARK SMILES IDX 26 50 27 51 68 52 28 53 73 54 67 55 69 56 29 57 72 58 66 59
REMARK SMILES IDX 65 60 30 62 56 63 39 64 55 65 40 66 43 67 54 68 70 69 41 70
REMARK SMILES IDX 42 71 53 73 71 74 44 75 31 76 32 77 37 78 33 79 34 80 36 81
REMARK SMILES IDX 38 82 35 83 57 84 58 85 63 86 59 87 60 88 62 89 64 90 61 91
REMARK SMILES IDX 45 92 46 93 51 94 47 95 48 96 50 97 52 98 49 99
REMARK H PARENT 15 5 89 16 6 20 76 27 79 31 19 42 69 61 43 72
REMARK Flexibility Score: inf
ROOT
ATOM      1  C   UNL A   1      33.970  26.306  26.080  1.00  0.00     0.118 C 
ENDROOT
BRANCH   1   2
ATOM      2  N   UNL A   1      32.682  25.647  26.226  1.00  0.00    -0.351 N 
ATOM      3  C   UNL A   1      31.963  24.892  25.341  1.00  0.00     0.283 C 
ATOM      4  O   UNL A   1      30.949  24.348  25.785  1.00  0.00    -0.268 OA
ATOM      5  H   UNL A   1      32.259  25.765  27.107  1.00  0.00     0.163 HD
BRANCH   3   6
ATOM      6  C   UNL A   1      32.445  24.756  23.886  1.00  0.00     0.308 C 
BRANCH   6   7
ATOM      7  C   UNL A   1      32.411  23.332  23.392  1.00  0.00     0.044 A 
ATOM      8  C   UNL A   1      32.801  19.645  25.328  1.00  0.00     0.043 A 
ATOM      9  C   UNL A   1      33.296  20.739  26.026  1.00  0.00     0.027 A 
ATOM     10  C   UNL A   1      32.449  19.758  23.978  1.00  0.00     0.052 A 
ATOM     11  C   UNL A   1      33.249  22.017  25.477  1.00  0.00     0.013 A 
ATOM     12  C   UNL A   1      32.397  21.050  23.441  1.00  0.00     0.048 A 
ATOM     13  C   UNL A   1      32.733  22.183  24.180  1.00  0.00     0.009 A 
ATOM     14  N   UNL A   1      32.009  21.486  22.198  1.00  0.00    -0.361 N 
ATOM     15  C   UNL A   1      31.987  22.854  22.164  1.00  0.00     0.094 A 
ATOM     16  H   UNL A   1      31.780  20.900  21.440  1.00  0.00     0.166 HD
BRANCH   8  17
ATOM     17  N   UNL A   1      32.648  18.403  25.947  1.00  0.00    -0.326 N 
ATOM     18  C   UNL A   1      33.194  17.192  25.626  1.00  0.00     0.226 C 
ATOM     19  O   UNL A   1      32.759  16.201  26.227  1.00  0.00    -0.274 OA
ATOM     20  H   UNL A   1      32.059  18.399  26.736  1.00  0.00     0.169 HD
BRANCH  18  21
ATOM     21  C   UNL A   1      34.382  17.023  24.663  1.00  0.00     0.072 C 
ATOM     22  C   UNL A   1      35.533  16.167  25.175  1.00  0.00     0.018 C 
ATOM     23  C   UNL A   1      33.978  16.664  23.232  1.00  0.00     0.018 C 
ENDBRANCH  18  21
ENDBRANCH   8  17
ENDBRANCH   6   7
BRANCH   6  24
ATOM     24  N   UNL A   1      31.817  25.703  22.949  1.00  0.00    -0.312 N 
ATOM     25  C   UNL A   1      30.508  26.254  23.305  1.00  0.00     0.325 C 
ATOM     26  C   UNL A   1      32.742  26.704  22.420  1.00  0.00     0.325 C 
ATOM     27  H   UNL A   1      31.572  25.081  22.179  1.00  0.00     0.349 HD
ATOM     28  C   UNL A   1      30.479  27.668  23.932  1.00  0.00     0.325 C 
ATOM     29  C   UNL A   1      32.715  28.091  23.098  1.00  0.00     0.325 C 
ATOM     30  N   UNL A   1      31.396  28.663  23.355  1.00  0.00    -0.318 N 
ATOM     31  H   UNL A   1      31.553  29.375  24.069  1.00  0.00     0.348 HD
BRANCH  30  32
ATOM     32  C   UNL A   1      30.816  29.476  22.271  1.00  0.00     0.364 C 
BRANCH  32  33
ATOM     33  C   UNL A   1      29.350  29.869  22.469  1.00  0.00     0.277 C 
ATOM     34  O   UNL A   1      28.475  29.306  21.800  1.00  0.00    -0.268 OA
ATOM     35  N   UNL A   1      29.025  30.880  23.365  1.00  0.00    -0.344 N 
ATOM     36  C   UNL A   1      29.881  31.409  24.415  1.00  0.00     0.146 C 
ATOM     37  C   UNL A   1      27.682  31.434  23.290  1.00  0.00     0.146 C 
ENDBRANCH  32  33
ENDBRANCH  30  32
ENDBRANCH   6  24
ENDBRANCH   3   6
ENDBRANCH   1   2
BRANCH   1  38
ATOM     38  C   UNL A   1      33.842  27.822  26.135  1.00  0.00     0.042 C 
BRANCH  38  39
ATOM     39  C   UNL A   1      33.417  28.354  27.500  1.00  0.00     0.118 C 
BRANCH  39  40
ATOM     40  N   UNL A   1      33.440  29.810  27.568  1.00  0.00    -0.352 N 
ATOM     41  C   UNL A   1      34.415  30.658  28.025  1.00  0.00     0.251 C 
ATOM     42  H   UNL A   1      32.628  30.254  27.232  1.00  0.00     0.163 HD
ATOM     43  O   UNL A   1      34.164  31.849  28.189  1.00  0.00    -0.269 OA
BRANCH  41  44
ATOM     44  C   UNL A   1      35.755  30.132  28.339  1.00  0.00     0.039 A 
ATOM     45  C   UNL A   1      36.732  30.132  27.341  1.00  0.00     0.014 A 
ATOM     46  C   UNL A   1      36.047  29.643  29.615  1.00  0.00     0.014 A 
ATOM     47  C   UNL A   1      38.024  29.705  27.645  1.00  0.00     0.010 A 
ATOM     48  C   UNL A   1      37.354  29.305  29.940  1.00  0.00     0.010 A 
ATOM     49  C   UNL A   1      38.354  29.328  28.957  1.00  0.00    -0.014 A 
BRANCH  49  50
ATOM     50  C   UNL A   1      39.741  28.950  29.321  1.00  0.00     0.031 A 
ATOM     51  C   UNL A   1      40.596  29.896  30.116  1.00  0.00     0.074 A 
ATOM     52  C   UNL A   1      40.250  27.785  28.878  1.00  0.00     0.049 A 
ATOM     53  N   UNL A   1      41.851  29.780  30.468  1.00  0.00    -0.248 NA
ATOM     54  C   UNL A   1      39.966  31.155  30.547  1.00  0.00     0.031 C 
ATOM     55  C   UNL A   1      39.535  26.808  28.054  1.00  0.00     0.029 A 
ATOM     56  N   UNL A   1      41.494  27.231  29.046  1.00  0.00    -0.354 N 
ATOM     57  C   UNL A   1      42.160  30.949  31.153  1.00  0.00     0.074 A 
ATOM     58  C   UNL A   1      40.984  31.789  31.107  1.00  0.00     0.031 C 
ATOM     59  C   UNL A   1      40.344  25.764  27.809  1.00  0.00     0.029 A 
ATOM     60  C   UNL A   1      41.645  26.018  28.419  1.00  0.00     0.049 A 
ATOM     61  H   UNL A   1      42.210  27.661  29.568  1.00  0.00     0.167 HD
ATOM     62  C   UNL A   1      43.309  31.278  31.789  1.00  0.00     0.037 A 
ATOM     63  C   UNL A   1      42.717  25.208  28.334  1.00  0.00     0.037 A 
ATOM     64  C   UNL A   1      44.473  30.432  31.838  1.00  0.00     0.049 A 
ATOM     65  C   UNL A   1      43.990  25.605  29.029  1.00  0.00     0.074 A 
ATOM     66  C   UNL A   1      45.672  30.653  32.490  1.00  0.00     0.029 A 
ATOM     67  N   UNL A   1      44.583  29.203  31.204  1.00  0.00    -0.354 N 
ATOM     68  N   UNL A   1      44.248  26.682  29.729  1.00  0.00    -0.248 NA
ATOM     69  C   UNL A   1      45.118  24.669  28.928  1.00  0.00     0.031 C 
ATOM     70  C   UNL A   1      46.528  29.583  32.207  1.00  0.00     0.029 A 
ATOM     71  C   UNL A   1      45.840  28.665  31.428  1.00  0.00     0.049 A 
ATOM     72  H   UNL A   1      43.873  28.777  30.671  1.00  0.00     0.167 HD
ATOM     73  C   UNL A   1      45.556  26.543  30.176  1.00  0.00     0.074 A 
ATOM     74  C   UNL A   1      46.031  25.267  29.680  1.00  0.00     0.031 C 
ATOM     75  C   UNL A   1      46.296  27.392  30.930  1.00  0.00     0.037 A 
BRANCH  62  76
ATOM     76  C   UNL A   1      43.357  32.611  32.480  1.00  0.00     0.057 A 
ATOM     77  C   UNL A   1      43.799  33.769  31.824  1.00  0.00     0.134 A 
ATOM     78  C   UNL A   1      42.939  32.745  33.810  1.00  0.00     0.134 A 
ATOM     79  F   UNL A   1      44.226  33.708  30.553  1.00  0.00    -0.206 F 
ATOM     80  C   UNL A   1      43.858  35.002  32.475  1.00  0.00     0.040 A 
ATOM     81  C   UNL A   1      42.962  33.980  34.462  1.00  0.00     0.040 A 
ATOM     82  F   UNL A   1      42.498  31.681  34.497  1.00  0.00    -0.206 F 
ATOM     83  C   UNL A   1      43.431  35.111  33.797  1.00  0.00     0.006 A 
ENDBRANCH  62  76
BRANCH  63  84
ATOM     84  C   UNL A   1      42.626  23.937  27.572  1.00  0.00     0.057 A 
ATOM     85  C   UNL A   1      42.849  23.902  26.191  1.00  0.00     0.134 A 
ATOM     86  C   UNL A   1      42.314  22.727  28.205  1.00  0.00     0.134 A 
ATOM     87  F   UNL A   1      43.137  25.031  25.524  1.00  0.00    -0.206 F 
ATOM     88  C   UNL A   1      42.745  22.715  25.462  1.00  0.00     0.040 A 
ATOM     89  C   UNL A   1      42.235  21.528  27.493  1.00  0.00     0.040 A 
ATOM     90  F   UNL A   1      42.100  22.690  29.528  1.00  0.00    -0.206 F 
ATOM     91  C   UNL A   1      42.442  21.523  26.116  1.00  0.00     0.006 A 
ENDBRANCH  63  84
BRANCH  75  92
ATOM     92  C   UNL A   1      47.686  26.955  31.294  1.00  0.00     0.057 A 
ATOM     93  C   UNL A   1      47.948  26.180  32.430  1.00  0.00     0.134 A 
ATOM     94  C   UNL A   1      48.771  27.282  30.471  1.00  0.00     0.134 A 
ATOM     95  F   UNL A   1      46.955  25.842  33.267  1.00  0.00    -0.206 F 
ATOM     96  C   UNL A   1      49.243  25.766  32.748  1.00  0.00     0.040 A 
ATOM     97  C   UNL A   1      50.066  26.849  30.761  1.00  0.00     0.040 A 
ATOM     98  F   UNL A   1      48.590  28.015  29.361  1.00  0.00    -0.206 F 
ATOM     99  C   UNL A   1      50.306  26.094  31.908  1.00  0.00     0.006 A 
ENDBRANCH  75  92
ENDBRANCH  49  50
ENDBRANCH  41  44
ENDBRANCH  39  40
ENDBRANCH  38  39
ENDBRANCH   1  38
TORSDOF 16
ENDMDL
