MODEL 1
REMARK VINA RESULT:     -12.9      0.000      0.000
REMARK SMILES Cc1c(C(=O)NCCCNC(=O)c2ccc(-c3c4nc(c(-c5c(F)cccc5F)c5ccc([nH]5)c(-c5c(F)cccc5F)c5nc(c(-c6c(F)cccc6F)c6ccc3[nH]6)C=C5)C=C4)cc2)cccc1N1[C@@H](C)C=C(/C=C(\C#N)C(=O)NCCc2c[nH]c3ccccc23)[C@@H]1C
REMARK SMILES IDX 4 1 5 2 6 3 3 5 1 6 2 7 70 8 67 9 69 10 68 11 71 12 72 13
REMARK SMILES IDX 94 14 74 15 73 16 75 17 95 18 76 19 77 20 78 21 79 22 80 23
REMARK SMILES IDX 81 24 82 25 83 27 84 28 85 29 86 30 93 31 87 32 88 33 92 34
REMARK SMILES IDX 89 36 91 37 90 38 7 39 8 40 9 41 10 42 11 43 12 45 13 46
REMARK SMILES IDX 14 47 66 48 15 49 65 50 16 51 17 52 18 53 59 54 19 55 64 56
REMARK SMILES IDX 58 57 60 58 20 59 63 60 57 61 56 62 21 64 47 65 30 66 46 67
REMARK SMILES IDX 31 68 34 69 45 70 61 71 32 72 33 73 44 75 62 76 35 77 22 78
REMARK SMILES IDX 23 79 28 80 24 81 25 82 27 83 29 84 26 85 48 86 49 87 54 88
REMARK SMILES IDX 50 89 51 90 53 91 55 92 52 93 36 94 37 95 42 96 38 97 39 98
REMARK SMILES IDX 41 99 43 100 40 101
REMARK H PARENT 6 4 82 26 87 35 10 44 60 63 34 74
REMARK Flexibility Score: inf
ROOT
ATOM      1  C   UNL A   1      30.829  29.611  24.004  1.00  0.00     0.251 C 
ATOM      2  O   UNL A   1      29.762  29.665  23.379  1.00  0.00    -0.269 OA
ATOM      3  N   UNL A   1      30.858  30.427  25.103  1.00  0.00    -0.352 N 
ATOM      4  H   UNL A   1      30.006  30.899  25.241  1.00  0.00     0.163 HD
ENDROOT
BRANCH   1   5
ATOM      5  C   UNL A   1      31.889  28.642  23.527  1.00  0.00     0.044 A 
ATOM      6  C   UNL A   1      31.345  26.551  24.890  1.00  0.00     0.047 C 
ATOM      7  C   UNL A   1      32.090  27.268  23.819  1.00  0.00    -0.015 A 
ATOM      8  C   UNL A   1      33.162  26.538  23.236  1.00  0.00     0.041 A 
ATOM      9  C   UNL A   1      32.895  29.284  22.775  1.00  0.00     0.014 A 
ATOM     10  C   UNL A   1      34.127  27.240  22.507  1.00  0.00     0.026 A 
ATOM     11  C   UNL A   1      34.014  28.606  22.300  1.00  0.00     0.003 A 
BRANCH   8  12
ATOM     12  N   UNL A   1      33.388  25.205  23.523  1.00  0.00    -0.358 N 
ATOM     13  C   UNL A   1      32.740  24.169  22.710  1.00  0.00     0.103 C 
ATOM     14  C   UNL A   1      34.521  24.688  24.317  1.00  0.00     0.110 C 
ATOM     15  C   UNL A   1      33.647  23.004  22.942  1.00  0.00     0.003 C 
ATOM     16  C   UNL A   1      32.729  24.451  21.202  1.00  0.00     0.035 C 
ATOM     17  C   UNL A   1      34.705  23.305  23.708  1.00  0.00    -0.026 C 
ATOM     18  C   UNL A   1      34.131  24.627  25.794  1.00  0.00     0.036 C 
BRANCH  17  19
ATOM     19  C   UNL A   1      35.873  22.480  23.959  1.00  0.00     0.031 C 
ATOM     20  C   UNL A   1      36.106  21.637  24.994  1.00  0.00     0.117 C 
BRANCH  20  21
ATOM     21  C   UNL A   1      35.183  21.419  26.054  1.00  0.00     0.105 C 
ATOM     22  N   UNL A   1      34.439  21.218  26.913  1.00  0.00    -0.192 NA
ENDBRANCH  20  21
BRANCH  20  23
ATOM     23  C   UNL A   1      37.499  21.119  25.126  1.00  0.00     0.261 C 
ATOM     24  O   UNL A   1      37.775  19.956  24.824  1.00  0.00    -0.268 OA
ATOM     25  N   UNL A   1      38.530  21.980  25.338  1.00  0.00    -0.351 N 
ATOM     26  H   UNL A   1      39.266  21.874  24.694  1.00  0.00     0.163 HD
BRANCH  25  27
ATOM     27  C   UNL A   1      38.773  23.040  26.334  1.00  0.00     0.121 C 
BRANCH  27  28
ATOM     28  C   UNL A   1      39.975  22.794  27.300  1.00  0.00     0.059 C 
BRANCH  28  29
ATOM     29  C   UNL A   1      40.990  23.940  27.375  1.00  0.00    -0.021 A 
ATOM     30  C   UNL A   1      41.123  24.894  26.365  1.00  0.00     0.087 A 
ATOM     31  C   UNL A   1      42.366  23.803  27.747  1.00  0.00     0.003 A 
ATOM     32  N   UNL A   1      42.119  24.265  25.607  1.00  0.00    -0.361 N 
ATOM     33  C   UNL A   1      43.006  23.707  26.509  1.00  0.00     0.046 A 
ATOM     34  C   UNL A   1      43.151  23.702  28.909  1.00  0.00     0.010 A 
ATOM     35  H   UNL A   1      42.177  24.227  24.625  1.00  0.00     0.166 HD
ATOM     36  C   UNL A   1      44.297  23.219  26.345  1.00  0.00     0.026 A 
ATOM     37  C   UNL A   1      44.522  23.430  28.758  1.00  0.00     0.001 A 
ATOM     38  C   UNL A   1      45.060  23.112  27.507  1.00  0.00     0.002 A 
ENDBRANCH  28  29
ENDBRANCH  27  28
ENDBRANCH  25  27
ENDBRANCH  20  23
ENDBRANCH  17  19
ENDBRANCH   8  12
ENDBRANCH   1   5
BRANCH   3  39
ATOM     39  C   UNL A   1      31.842  30.759  26.109  1.00  0.00     0.118 C 
BRANCH  39  40
ATOM     40  C   UNL A   1      31.368  31.969  26.905  1.00  0.00     0.042 C 
BRANCH  40  41
ATOM     41  C   UNL A   1      32.163  33.212  26.691  1.00  0.00     0.118 C 
BRANCH  41  42
ATOM     42  N   UNL A   1      32.614  33.818  27.932  1.00  0.00    -0.352 N 
ATOM     43  C   UNL A   1      33.694  33.493  28.730  1.00  0.00     0.251 C 
ATOM     44  H   UNL A   1      32.069  34.572  28.251  1.00  0.00     0.163 HD
ATOM     45  O   UNL A   1      33.846  34.082  29.796  1.00  0.00    -0.269 OA
BRANCH  43  46
ATOM     46  C   UNL A   1      34.768  32.598  28.214  1.00  0.00     0.039 A 
ATOM     47  C   UNL A   1      34.780  31.327  28.803  1.00  0.00     0.014 A 
ATOM     48  C   UNL A   1      35.962  33.164  27.814  1.00  0.00     0.014 A 
ATOM     49  C   UNL A   1      35.963  30.861  29.348  1.00  0.00     0.010 A 
ATOM     50  C   UNL A   1      37.035  32.906  28.615  1.00  0.00     0.010 A 
ATOM     51  C   UNL A   1      37.024  31.747  29.396  1.00  0.00    -0.014 A 
BRANCH  51  52
ATOM     52  C   UNL A   1      38.333  31.460  29.924  1.00  0.00     0.031 A 
ATOM     53  C   UNL A   1      38.986  30.316  29.255  1.00  0.00     0.074 A 
ATOM     54  C   UNL A   1      38.940  32.418  30.657  1.00  0.00     0.049 A 
ATOM     55  N   UNL A   1      40.100  29.815  29.619  1.00  0.00    -0.248 NA
ATOM     56  C   UNL A   1      38.404  29.604  28.105  1.00  0.00     0.031 C 
ATOM     57  C   UNL A   1      40.365  32.666  30.843  1.00  0.00     0.029 A 
ATOM     58  N   UNL A   1      38.332  33.289  31.575  1.00  0.00    -0.354 N 
ATOM     59  C   UNL A   1      40.542  29.006  28.593  1.00  0.00     0.074 A 
ATOM     60  C   UNL A   1      39.403  28.796  27.746  1.00  0.00     0.031 C 
ATOM     61  C   UNL A   1      40.544  33.358  31.985  1.00  0.00     0.029 A 
ATOM     62  C   UNL A   1      39.254  33.416  32.648  1.00  0.00     0.049 A 
ATOM     63  H   UNL A   1      37.451  33.720  31.492  1.00  0.00     0.167 HD
ATOM     64  C   UNL A   1      41.878  28.756  28.538  1.00  0.00     0.037 A 
ATOM     65  C   UNL A   1      38.973  32.846  33.863  1.00  0.00     0.037 A 
ATOM     66  C   UNL A   1      42.517  29.370  29.697  1.00  0.00     0.049 A 
ATOM     67  C   UNL A   1      39.904  31.703  34.225  1.00  0.00     0.074 A 
ATOM     68  C   UNL A   1      43.159  30.572  29.928  1.00  0.00     0.029 A 
ATOM     69  N   UNL A   1      42.175  28.875  30.933  1.00  0.00    -0.354 N 
ATOM     70  N   UNL A   1      40.720  31.132  33.381  1.00  0.00    -0.248 NA
ATOM     71  C   UNL A   1      39.948  31.072  35.542  1.00  0.00     0.031 C 
ATOM     72  C   UNL A   1      43.189  30.778  31.343  1.00  0.00     0.029 A 
ATOM     73  C   UNL A   1      42.583  29.693  31.955  1.00  0.00     0.049 A 
ATOM     74  H   UNL A   1      41.690  28.029  31.069  1.00  0.00     0.167 HD
ATOM     75  C   UNL A   1      41.354  30.077  33.981  1.00  0.00     0.074 A 
ATOM     76  C   UNL A   1      40.810  30.062  35.328  1.00  0.00     0.031 C 
ATOM     77  C   UNL A   1      42.249  29.288  33.311  1.00  0.00     0.037 A 
BRANCH  64  78
ATOM     78  C   UNL A   1      42.677  28.136  27.425  1.00  0.00     0.057 A 
ATOM     79  C   UNL A   1      43.764  27.300  27.758  1.00  0.00     0.134 A 
ATOM     80  C   UNL A   1      42.495  28.320  26.044  1.00  0.00     0.134 A 
ATOM     81  F   UNL A   1      44.035  26.968  29.029  1.00  0.00    -0.206 F 
ATOM     82  C   UNL A   1      44.633  26.754  26.812  1.00  0.00     0.040 A 
ATOM     83  C   UNL A   1      43.357  27.772  25.082  1.00  0.00     0.040 A 
ATOM     84  F   UNL A   1      41.473  29.015  25.537  1.00  0.00    -0.206 F 
ATOM     85  C   UNL A   1      44.439  26.997  25.465  1.00  0.00     0.006 A 
ENDBRANCH  64  78
BRANCH  65  86
ATOM     86  C   UNL A   1      37.499  32.876  34.137  1.00  0.00     0.057 A 
ATOM     87  C   UNL A   1      36.954  34.100  34.577  1.00  0.00     0.134 A 
ATOM     88  C   UNL A   1      36.650  32.017  33.433  1.00  0.00     0.134 A 
ATOM     89  F   UNL A   1      37.698  34.945  35.308  1.00  0.00    -0.206 F 
ATOM     90  C   UNL A   1      35.720  34.556  34.108  1.00  0.00     0.040 A 
ATOM     91  C   UNL A   1      35.395  32.452  32.995  1.00  0.00     0.040 A 
ATOM     92  F   UNL A   1      37.086  30.822  33.008  1.00  0.00    -0.206 F 
ATOM     93  C   UNL A   1      34.966  33.753  33.259  1.00  0.00     0.006 A 
ENDBRANCH  65  86
BRANCH  77  94
ATOM     94  C   UNL A   1      42.869  28.025  33.862  1.00  0.00     0.057 A 
ATOM     95  C   UNL A   1      44.249  27.838  33.946  1.00  0.00     0.134 A 
ATOM     96  C   UNL A   1      42.091  26.903  34.247  1.00  0.00     0.134 A 
ATOM     97  F   UNL A   1      45.102  28.771  33.501  1.00  0.00    -0.206 F 
ATOM     98  C   UNL A   1      44.813  26.665  34.466  1.00  0.00     0.040 A 
ATOM     99  C   UNL A   1      42.642  25.703  34.693  1.00  0.00     0.040 A 
ATOM    100  F   UNL A   1      40.752  26.912  34.250  1.00  0.00    -0.206 F 
ATOM    101  C   UNL A   1      44.011  25.592  34.837  1.00  0.00     0.006 A 
ENDBRANCH  77  94
ENDBRANCH  51  52
ENDBRANCH  43  46
ENDBRANCH  41  42
ENDBRANCH  40  41
ENDBRANCH  39  40
ENDBRANCH   3  39
TORSDOF 17
ENDMDL
MODEL 2
REMARK VINA RESULT:     -12.2      2.359      5.974
REMARK SMILES Cc1c(C(=O)NCCCNC(=O)c2ccc(-c3c4nc(c(-c5c(F)cccc5F)c5ccc([nH]5)c(-c5c(F)cccc5F)c5nc(c(-c6c(F)cccc6F)c6ccc3[nH]6)C=C5)C=C4)cc2)cccc1N1[C@@H](C)C=C(/C=C(\C#N)C(=O)NCCc2c[nH]c3ccccc23)[C@@H]1C
REMARK SMILES IDX 4 1 5 2 6 3 3 5 1 6 2 7 70 8 67 9 69 10 68 11 71 12 72 13
REMARK SMILES IDX 94 14 74 15 73 16 75 17 95 18 76 19 77 20 78 21 79 22 80 23
REMARK SMILES IDX 81 24 82 25 83 27 84 28 85 29 86 30 93 31 87 32 88 33 92 34
REMARK SMILES IDX 89 36 91 37 90 38 7 39 8 40 9 41 10 42 11 43 12 45 13 46
REMARK SMILES IDX 14 47 66 48 15 49 65 50 16 51 17 52 18 53 59 54 19 55 64 56
REMARK SMILES IDX 58 57 60 58 20 59 63 60 57 61 56 62 21 64 47 65 30 66 46 67
REMARK SMILES IDX 31 68 34 69 45 70 61 71 32 72 33 73 44 75 62 76 35 77 22 78
REMARK SMILES IDX 23 79 28 80 24 81 25 82 27 83 29 84 26 85 48 86 49 87 54 88
REMARK SMILES IDX 50 89 51 90 53 91 55 92 52 93 36 94 37 95 42 96 38 97 39 98
REMARK SMILES IDX 41 99 43 100 40 101
REMARK H PARENT 6 4 82 26 87 35 10 44 60 63 34 74
REMARK Flexibility Score: inf
ROOT
ATOM      1  C   UNL A   1      32.564  28.292  24.959  1.00  0.00     0.251 C 
ATOM      2  O   UNL A   1      31.873  28.999  24.213  1.00  0.00    -0.269 OA
ATOM      3  N   UNL A   1      33.701  28.915  25.398  1.00  0.00    -0.352 N 
ATOM      4  H   UNL A   1      33.767  29.843  25.078  1.00  0.00     0.163 HD
ENDROOT
BRANCH   1   5
ATOM      5  C   UNL A   1      32.046  26.918  25.325  1.00  0.00     0.044 A 
ATOM      6  C   UNL A   1      34.069  25.440  24.826  1.00  0.00     0.047 C 
ATOM      7  C   UNL A   1      32.701  25.660  25.371  1.00  0.00    -0.015 A 
ATOM      8  C   UNL A   1      32.010  24.481  25.764  1.00  0.00     0.041 A 
ATOM      9  C   UNL A   1      30.648  26.912  25.518  1.00  0.00     0.014 A 
ATOM     10  C   UNL A   1      30.624  24.547  25.933  1.00  0.00     0.026 A 
ATOM     11  C   UNL A   1      29.940  25.744  25.784  1.00  0.00     0.003 A 
BRANCH   8  12
ATOM     12  N   UNL A   1      32.624  23.244  25.795  1.00  0.00    -0.358 N 
ATOM     13  C   UNL A   1      32.292  22.244  24.772  1.00  0.00     0.103 C 
ATOM     14  C   UNL A   1      33.878  22.936  26.514  1.00  0.00     0.110 C 
ATOM     15  C   UNL A   1      33.507  21.375  24.806  1.00  0.00     0.003 C 
ATOM     16  C   UNL A   1      32.164  22.801  23.349  1.00  0.00     0.035 C 
ATOM     17  C   UNL A   1      34.446  21.816  25.655  1.00  0.00    -0.026 C 
ATOM     18  C   UNL A   1      33.556  22.474  27.935  1.00  0.00     0.036 C 
BRANCH  17  19
ATOM     19  C   UNL A   1      35.811  21.337  25.783  1.00  0.00     0.031 C 
ATOM     20  C   UNL A   1      36.881  21.614  24.999  1.00  0.00     0.117 C 
BRANCH  20  21
ATOM     21  C   UNL A   1      36.824  22.471  23.864  1.00  0.00     0.105 C 
ATOM     22  N   UNL A   1      36.759  23.151  22.934  1.00  0.00    -0.192 NA
ENDBRANCH  20  21
BRANCH  20  23
ATOM     23  C   UNL A   1      38.097  20.776  25.215  1.00  0.00     0.261 C 
ATOM     24  O   UNL A   1      38.087  19.568  24.968  1.00  0.00    -0.268 OA
ATOM     25  N   UNL A   1      39.300  21.367  25.446  1.00  0.00    -0.351 N 
ATOM     26  H   UNL A   1      40.011  21.053  24.842  1.00  0.00     0.163 HD
BRANCH  25  27
ATOM     27  C   UNL A   1      39.761  22.378  26.414  1.00  0.00     0.121 C 
BRANCH  27  28
ATOM     28  C   UNL A   1      40.532  21.824  27.653  1.00  0.00     0.059 C 
BRANCH  28  29
ATOM     29  C   UNL A   1      42.024  22.171  27.695  1.00  0.00    -0.021 A 
ATOM     30  C   UNL A   1      42.637  22.718  28.823  1.00  0.00     0.087 A 
ATOM     31  C   UNL A   1      42.737  22.882  26.676  1.00  0.00     0.003 A 
ATOM     32  N   UNL A   1      42.486  24.076  28.511  1.00  0.00    -0.361 N 
ATOM     33  C   UNL A   1      42.717  24.194  27.153  1.00  0.00     0.046 A 
ATOM     34  C   UNL A   1      43.344  22.637  25.432  1.00  0.00     0.010 A 
ATOM     35  H   UNL A   1      42.261  24.802  29.135  1.00  0.00     0.166 HD
ATOM     36  C   UNL A   1      42.976  25.306  26.360  1.00  0.00     0.026 A 
ATOM     37  C   UNL A   1      43.824  23.739  24.703  1.00  0.00     0.001 A 
ATOM     38  C   UNL A   1      43.567  25.048  25.123  1.00  0.00     0.002 A 
ENDBRANCH  28  29
ENDBRANCH  27  28
ENDBRANCH  25  27
ENDBRANCH  20  23
ENDBRANCH  17  19
ENDBRANCH   8  12
ENDBRANCH   1   5
BRANCH   3  39
ATOM     39  C   UNL A   1      34.828  28.534  26.221  1.00  0.00     0.118 C 
BRANCH  39  40
ATOM     40  C   UNL A   1      34.602  29.015  27.649  1.00  0.00     0.042 C 
BRANCH  40  41
ATOM     41  C   UNL A   1      35.088  30.396  27.930  1.00  0.00     0.118 C 
BRANCH  41  42
ATOM     42  N   UNL A   1      34.115  31.420  27.587  1.00  0.00    -0.352 N 
ATOM     43  C   UNL A   1      34.000  32.716  28.050  1.00  0.00     0.251 C 
ATOM     44  H   UNL A   1      33.438  31.149  26.927  1.00  0.00     0.163 HD
ATOM     45  O   UNL A   1      33.041  33.394  27.693  1.00  0.00    -0.269 OA
BRANCH  43  46
ATOM     46  C   UNL A   1      35.124  33.351  28.797  1.00  0.00     0.039 A 
ATOM     47  C   UNL A   1      36.391  33.051  28.279  1.00  0.00     0.014 A 
ATOM     48  C   UNL A   1      34.983  33.549  30.155  1.00  0.00     0.014 A 
ATOM     49  C   UNL A   1      37.354  32.553  29.137  1.00  0.00     0.010 A 
ATOM     50  C   UNL A   1      35.762  32.761  30.951  1.00  0.00     0.010 A 
ATOM     51  C   UNL A   1      36.954  32.252  30.426  1.00  0.00    -0.014 A 
BRANCH  51  52
ATOM     52  C   UNL A   1      37.799  31.725  31.466  1.00  0.00     0.031 A 
ATOM     53  C   UNL A   1      38.320  32.770  32.371  1.00  0.00     0.074 A 
ATOM     54  C   UNL A   1      37.733  30.399  31.718  1.00  0.00     0.049 A 
ATOM     55  N   UNL A   1      39.167  32.555  33.299  1.00  0.00    -0.248 NA
ATOM     56  C   UNL A   1      37.938  34.189  32.281  1.00  0.00     0.031 C 
ATOM     57  C   UNL A   1      37.995  29.689  32.965  1.00  0.00     0.029 A 
ATOM     58  N   UNL A   1      37.583  29.368  30.778  1.00  0.00    -0.354 N 
ATOM     59  C   UNL A   1      39.164  33.663  34.122  1.00  0.00     0.074 A 
ATOM     60  C   UNL A   1      38.500  34.696  33.380  1.00  0.00     0.031 C 
ATOM     61  C   UNL A   1      38.296  28.407  32.684  1.00  0.00     0.029 A 
ATOM     62  C   UNL A   1      38.407  28.308  31.239  1.00  0.00     0.049 A 
ATOM     63  H   UNL A   1      37.024  29.380  29.967  1.00  0.00     0.167 HD
ATOM     64  C   UNL A   1      39.604  33.483  35.397  1.00  0.00     0.037 A 
ATOM     65  C   UNL A   1      39.557  27.991  30.563  1.00  0.00     0.037 A 
ATOM     66  C   UNL A   1      40.073  32.109  35.541  1.00  0.00     0.049 A 
ATOM     67  C   UNL A   1      40.822  28.279  31.353  1.00  0.00     0.074 A 
ATOM     68  C   UNL A   1      39.508  30.933  35.996  1.00  0.00     0.029 A 
ATOM     69  N   UNL A   1      41.169  31.744  34.797  1.00  0.00    -0.354 N 
ATOM     70  N   UNL A   1      40.852  28.991  32.446  1.00  0.00    -0.248 NA
ATOM     71  C   UNL A   1      42.155  27.842  30.945  1.00  0.00     0.031 C 
ATOM     72  C   UNL A   1      40.304  29.853  35.501  1.00  0.00     0.029 A 
ATOM     73  C   UNL A   1      41.352  30.385  34.767  1.00  0.00     0.049 A 
ATOM     74  H   UNL A   1      41.758  32.385  34.337  1.00  0.00     0.167 HD
ATOM     75  C   UNL A   1      42.146  29.149  32.868  1.00  0.00     0.074 A 
ATOM     76  C   UNL A   1      42.928  28.435  31.873  1.00  0.00     0.031 C 
ATOM     77  C   UNL A   1      42.465  29.876  33.982  1.00  0.00     0.037 A 
BRANCH  64  78
ATOM     78  C   UNL A   1      39.487  34.411  36.574  1.00  0.00     0.057 A 
ATOM     79  C   UNL A   1      40.192  35.633  36.543  1.00  0.00     0.134 A 
ATOM     80  C   UNL A   1      38.768  34.192  37.762  1.00  0.00     0.134 A 
ATOM     81  F   UNL A   1      40.874  36.027  35.457  1.00  0.00    -0.206 F 
ATOM     82  C   UNL A   1      40.237  36.524  37.617  1.00  0.00     0.040 A 
ATOM     83  C   UNL A   1      38.800  35.080  38.847  1.00  0.00     0.040 A 
ATOM     84  F   UNL A   1      37.981  33.128  37.942  1.00  0.00    -0.206 F 
ATOM     85  C   UNL A   1      39.547  36.245  38.783  1.00  0.00     0.006 A 
ENDBRANCH  64  78
BRANCH  65  86
ATOM     86  C   UNL A   1      39.390  28.220  29.091  1.00  0.00     0.057 A 
ATOM     87  C   UNL A   1      39.917  29.417  28.566  1.00  0.00     0.134 A 
ATOM     88  C   UNL A   1      39.318  27.123  28.227  1.00  0.00     0.134 A 
ATOM     89  F   UNL A   1      39.962  30.524  29.324  1.00  0.00    -0.206 F 
ATOM     90  C   UNL A   1      40.581  29.442  27.337  1.00  0.00     0.040 A 
ATOM     91  C   UNL A   1      39.945  27.154  26.977  1.00  0.00     0.040 A 
ATOM     92  F   UNL A   1      38.801  25.958  28.644  1.00  0.00    -0.206 F 
ATOM     93  C   UNL A   1      40.651  28.285  26.569  1.00  0.00     0.006 A 
ENDBRANCH  65  86
BRANCH  77  94
ATOM     94  C   UNL A   1      43.872  30.215  34.419  1.00  0.00     0.057 A 
ATOM     95  C   UNL A   1      44.468  29.646  35.545  1.00  0.00     0.134 A 
ATOM     96  C   UNL A   1      44.652  31.203  33.766  1.00  0.00     0.134 A 
ATOM     97  F   UNL A   1      43.795  28.788  36.326  1.00  0.00    -0.206 F 
ATOM     98  C   UNL A   1      45.776  29.962  35.937  1.00  0.00     0.040 A 
ATOM     99  C   UNL A   1      45.925  31.580  34.191  1.00  0.00     0.040 A 
ATOM    100  F   UNL A   1      44.248  31.836  32.658  1.00  0.00    -0.206 F 
ATOM    101  C   UNL A   1      46.507  30.934  35.264  1.00  0.00     0.006 A 
ENDBRANCH  77  94
ENDBRANCH  51  52
ENDBRANCH  43  46
ENDBRANCH  41  42
ENDBRANCH  40  41
ENDBRANCH  39  40
ENDBRANCH   3  39
TORSDOF 17
ENDMDL
MODEL 3
REMARK VINA RESULT:     -12.2      4.391     10.362
REMARK SMILES Cc1c(C(=O)NCCCNC(=O)c2ccc(-c3c4nc(c(-c5c(F)cccc5F)c5ccc([nH]5)c(-c5c(F)cccc5F)c5nc(c(-c6c(F)cccc6F)c6ccc3[nH]6)C=C5)C=C4)cc2)cccc1N1[C@@H](C)C=C(/C=C(\C#N)C(=O)NCCc2c[nH]c3ccccc23)[C@@H]1C
REMARK SMILES IDX 4 1 5 2 6 3 3 5 1 6 2 7 70 8 67 9 69 10 68 11 71 12 72 13
REMARK SMILES IDX 94 14 74 15 73 16 75 17 95 18 76 19 77 20 78 21 79 22 80 23
REMARK SMILES IDX 81 24 82 25 83 27 84 28 85 29 86 30 93 31 87 32 88 33 92 34
REMARK SMILES IDX 89 36 91 37 90 38 7 39 8 40 9 41 10 42 11 43 12 45 13 46
REMARK SMILES IDX 14 47 66 48 15 49 65 50 16 51 17 52 18 53 59 54 19 55 64 56
REMARK SMILES IDX 58 57 60 58 20 59 63 60 57 61 56 62 21 64 47 65 30 66 46 67
REMARK SMILES IDX 31 68 34 69 45 70 61 71 32 72 33 73 44 75 62 76 35 77 22 78
REMARK SMILES IDX 23 79 28 80 24 81 25 82 27 83 29 84 26 85 48 86 49 87 54 88
REMARK SMILES IDX 50 89 51 90 53 91 55 92 52 93 36 94 37 95 42 96 38 97 39 98
REMARK SMILES IDX 41 99 43 100 40 101
REMARK H PARENT 6 4 82 26 87 35 10 44 60 63 34 74
REMARK Flexibility Score: inf
ROOT
ATOM      1  C   UNL A   1      38.389  28.603  32.701  1.00  0.00     0.251 C 
ATOM      2  O   UNL A   1      38.077  27.417  32.876  1.00  0.00    -0.269 OA
ATOM      3  N   UNL A   1      38.767  29.241  33.851  1.00  0.00    -0.352 N 
ATOM      4  H   UNL A   1      38.767  28.640  34.630  1.00  0.00     0.163 HD
ENDROOT
BRANCH   1   5
ATOM      5  C   UNL A   1      38.375  29.145  31.289  1.00  0.00     0.044 A 
ATOM      6  C   UNL A   1      36.590  30.967  31.438  1.00  0.00     0.047 C 
ATOM      7  C   UNL A   1      37.673  30.240  30.720  1.00  0.00    -0.015 A 
ATOM      8  C   UNL A   1      37.825  30.583  29.349  1.00  0.00     0.041 A 
ATOM      9  C   UNL A   1      39.089  28.318  30.396  1.00  0.00     0.014 A 
ATOM     10  C   UNL A   1      38.542  29.715  28.520  1.00  0.00     0.026 A 
ATOM     11  C   UNL A   1      39.146  28.575  29.029  1.00  0.00     0.003 A 
BRANCH   8  12
ATOM     12  N   UNL A   1      37.134  31.632  28.771  1.00  0.00    -0.358 N 
ATOM     13  C   UNL A   1      36.136  31.356  27.731  1.00  0.00     0.103 C 
ATOM     14  C   UNL A   1      37.000  32.983  29.354  1.00  0.00     0.110 C 
ATOM     15  C   UNL A   1      35.279  32.578  27.816  1.00  0.00     0.003 C 
ATOM     16  C   UNL A   1      35.239  30.144  28.008  1.00  0.00     0.035 C 
ATOM     17  C   UNL A   1      35.653  33.416  28.792  1.00  0.00    -0.026 C 
ATOM     18  C   UNL A   1      38.147  33.870  28.870  1.00  0.00     0.036 C 
BRANCH  17  19
ATOM     19  C   UNL A   1      34.930  34.577  29.280  1.00  0.00     0.031 C 
ATOM     20  C   UNL A   1      33.666  34.968  28.991  1.00  0.00     0.117 C 
BRANCH  20  21
ATOM     21  C   UNL A   1      32.803  34.255  28.112  1.00  0.00     0.105 C 
ATOM     22  N   UNL A   1      32.092  33.667  27.420  1.00  0.00    -0.192 NA
ENDBRANCH  20  21
BRANCH  20  23
ATOM     23  C   UNL A   1      33.278  36.340  29.433  1.00  0.00     0.261 C 
ATOM     24  O   UNL A   1      33.463  37.317  28.705  1.00  0.00    -0.268 OA
ATOM     25  N   UNL A   1      32.491  36.506  30.530  1.00  0.00    -0.351 N 
ATOM     26  H   UNL A   1      31.698  37.062  30.360  1.00  0.00     0.163 HD
BRANCH  25  27
ATOM     27  C   UNL A   1      32.580  36.025  31.920  1.00  0.00     0.121 C 
BRANCH  27  28
ATOM     28  C   UNL A   1      34.013  36.026  32.543  1.00  0.00     0.059 C 
BRANCH  28  29
ATOM     29  C   UNL A   1      34.733  34.673  32.511  1.00  0.00    -0.021 A 
ATOM     30  C   UNL A   1      34.104  33.479  32.864  1.00  0.00     0.087 A 
ATOM     31  C   UNL A   1      36.036  34.418  33.047  1.00  0.00     0.003 A 
ATOM     32  N   UNL A   1      34.442  33.454  34.224  1.00  0.00    -0.361 N 
ATOM     33  C   UNL A   1      35.746  33.903  34.313  1.00  0.00     0.046 A 
ATOM     34  C   UNL A   1      37.386  34.577  32.689  1.00  0.00     0.010 A 
ATOM     35  H   UNL A   1      33.864  33.172  34.969  1.00  0.00     0.166 HD
ATOM     36  C   UNL A   1      36.675  33.827  35.344  1.00  0.00     0.026 A 
ATOM     37  C   UNL A   1      38.364  34.286  33.655  1.00  0.00     0.001 A 
ATOM     38  C   UNL A   1      38.009  33.999  34.977  1.00  0.00     0.002 A 
ENDBRANCH  28  29
ENDBRANCH  27  28
ENDBRANCH  25  27
ENDBRANCH  20  23
ENDBRANCH  17  19
ENDBRANCH   8  12
ENDBRANCH   1   5
BRANCH   3  39
ATOM     39  C   UNL A   1      39.169  30.587  34.194  1.00  0.00     0.118 C 
BRANCH  39  40
ATOM     40  C   UNL A   1      40.244  31.061  33.224  1.00  0.00     0.042 C 
BRANCH  40  41
ATOM     41  C   UNL A   1      41.619  30.566  33.521  1.00  0.00     0.118 C 
BRANCH  41  42
ATOM     42  N   UNL A   1      41.799  30.193  34.913  1.00  0.00    -0.352 N 
ATOM     43  C   UNL A   1      42.086  28.960  35.466  1.00  0.00     0.251 C 
ATOM     44  H   UNL A   1      41.703  30.929  35.559  1.00  0.00     0.163 HD
ATOM     45  O   UNL A   1      42.109  28.844  36.687  1.00  0.00    -0.269 OA
BRANCH  43  46
ATOM     46  C   UNL A   1      42.565  27.842  34.603  1.00  0.00     0.039 A 
ATOM     47  C   UNL A   1      43.937  27.886  34.325  1.00  0.00     0.014 A 
ATOM     48  C   UNL A   1      41.704  27.327  33.655  1.00  0.00     0.014 A 
ATOM     49  C   UNL A   1      44.348  27.821  33.006  1.00  0.00     0.010 A 
ATOM     50  C   UNL A   1      42.025  27.597  32.357  1.00  0.00     0.010 A 
ATOM     51  C   UNL A   1      43.360  27.858  32.038  1.00  0.00    -0.014 A 
BRANCH  51  52
ATOM     52  C   UNL A   1      43.578  27.804  30.616  1.00  0.00     0.031 A 
ATOM     53  C   UNL A   1      43.922  26.450  30.136  1.00  0.00     0.074 A 
ATOM     54  C   UNL A   1      43.115  28.831  29.869  1.00  0.00     0.049 A 
ATOM     55  N   UNL A   1      44.257  26.179  28.936  1.00  0.00    -0.248 NA
ATOM     56  C   UNL A   1      43.944  25.260  31.002  1.00  0.00     0.031 C 
ATOM     57  C   UNL A   1      42.691  28.831  28.474  1.00  0.00     0.029 A 
ATOM     58  N   UNL A   1      43.118  30.191  30.213  1.00  0.00    -0.354 N 
ATOM     59  C   UNL A   1      44.182  24.810  28.787  1.00  0.00     0.074 A 
ATOM     60  C   UNL A   1      44.124  24.278  30.118  1.00  0.00     0.031 C 
ATOM     61  C   UNL A   1      42.775  30.086  27.991  1.00  0.00     0.029 A 
ATOM     62  C   UNL A   1      43.424  30.887  29.013  1.00  0.00     0.049 A 
ATOM     63  H   UNL A   1      42.946  30.581  31.101  1.00  0.00     0.167 HD
ATOM     64  C   UNL A   1      44.026  24.337  27.521  1.00  0.00     0.037 A 
ATOM     65  C   UNL A   1      44.642  31.501  28.870  1.00  0.00     0.037 A 
ATOM     66  C   UNL A   1      44.071  25.461  26.592  1.00  0.00     0.049 A 
ATOM     67  C   UNL A   1      45.518  30.864  27.806  1.00  0.00     0.074 A 
ATOM     68  C   UNL A   1      43.118  26.255  25.983  1.00  0.00     0.029 A 
ATOM     69  N   UNL A   1      45.256  26.150  26.505  1.00  0.00    -0.354 N 
ATOM     70  N   UNL A   1      45.276  29.704  27.259  1.00  0.00    -0.248 NA
ATOM     71  C   UNL A   1      46.765  31.450  27.318  1.00  0.00     0.031 C 
ATOM     72  C   UNL A   1      43.774  27.441  25.528  1.00  0.00     0.029 A 
ATOM     73  C   UNL A   1      45.119  27.346  25.848  1.00  0.00     0.049 A 
ATOM     74  H   UNL A   1      46.109  25.822  26.872  1.00  0.00     0.167 HD
ATOM     75  C   UNL A   1      46.293  29.363  26.409  1.00  0.00     0.074 A 
ATOM     76  C   UNL A   1      47.220  30.478  26.506  1.00  0.00     0.031 C 
ATOM     77  C   UNL A   1      46.302  28.180  25.721  1.00  0.00     0.037 A 
BRANCH  64  78
ATOM     78  C   UNL A   1      43.668  22.947  27.072  1.00  0.00     0.057 A 
ATOM     79  C   UNL A   1      44.477  22.323  26.098  1.00  0.00     0.134 A 
ATOM     80  C   UNL A   1      42.569  22.176  27.487  1.00  0.00     0.134 A 
ATOM     81  F   UNL A   1      45.603  22.894  25.644  1.00  0.00    -0.206 F 
ATOM     82  C   UNL A   1      44.184  21.079  25.536  1.00  0.00     0.040 A 
ATOM     83  C   UNL A   1      42.266  20.922  26.934  1.00  0.00     0.040 A 
ATOM     84  F   UNL A   1      41.737  22.568  28.455  1.00  0.00    -0.206 F 
ATOM     85  C   UNL A   1      43.066  20.375  25.945  1.00  0.00     0.006 A 
ENDBRANCH  64  78
BRANCH  65  86
ATOM     86  C   UNL A   1      45.130  32.030  30.184  1.00  0.00     0.057 A 
ATOM     87  C   UNL A   1      44.446  33.139  30.722  1.00  0.00     0.134 A 
ATOM     88  C   UNL A   1      45.747  31.162  31.090  1.00  0.00     0.134 A 
ATOM     89  F   UNL A   1      43.882  34.043  29.907  1.00  0.00    -0.206 F 
ATOM     90  C   UNL A   1      44.164  33.227  32.088  1.00  0.00     0.040 A 
ATOM     91  C   UNL A   1      45.502  31.268  32.463  1.00  0.00     0.040 A 
ATOM     92  F   UNL A   1      46.442  30.100  30.655  1.00  0.00    -0.206 F 
ATOM     93  C   UNL A   1      44.640  32.249  32.954  1.00  0.00     0.006 A 
ENDBRANCH  65  86
BRANCH  77  94
ATOM     94  C   UNL A   1      47.457  27.675  24.887  1.00  0.00     0.057 A 
ATOM     95  C   UNL A   1      47.529  27.866  23.507  1.00  0.00     0.134 A 
ATOM     96  C   UNL A   1      48.504  26.891  25.436  1.00  0.00     0.134 A 
ATOM     97  F   UNL A   1      46.543  28.483  22.841  1.00  0.00    -0.206 F 
ATOM     98  C   UNL A   1      48.609  27.399  22.745  1.00  0.00     0.040 A 
ATOM     99  C   UNL A   1      49.543  26.357  24.676  1.00  0.00     0.040 A 
ATOM    100  F   UNL A   1      48.606  26.626  26.744  1.00  0.00    -0.206 F 
ATOM    101  C   UNL A   1      49.617  26.638  23.326  1.00  0.00     0.006 A 
ENDBRANCH  77  94
ENDBRANCH  51  52
ENDBRANCH  43  46
ENDBRANCH  41  42
ENDBRANCH  40  41
ENDBRANCH  39  40
ENDBRANCH   3  39
TORSDOF 17
ENDMDL
