MODEL 1
REMARK VINA RESULT:     -12.1      0.000      0.000
REMARK SMILES CC1=C(C)C[C@@H](C(=O)NCCCNC(=O)c2ccc(-c3c4nc(c(-c5c(F)cccc5F)c5ccc([nH]5)c(-c5c(F)cccc5F)c5nc(c(-c6c(F)cccc6F)c6ccc3[nH]6)C=C5)C=C4)cc2)[C@@H](C(=O)NCC[NH+]2CCOCC2)C1
REMARK SMILES IDX 10 1 9 2 7 3 8 4 6 6 1 7 2 8 3 9 82 10 4 11 5 12 70 13 71 14
REMARK SMILES IDX 72 15 73 16 74 18 75 19 76 20 77 21 81 22 78 24 80 25 79 26
REMARK SMILES IDX 11 27 12 28 13 29 14 30 15 32 16 33 17 34 69 35 18 36 68 37
REMARK SMILES IDX 19 38 20 39 21 40 62 41 22 42 67 43 61 44 63 45 23 46 66 47
REMARK SMILES IDX 60 48 59 49 24 51 50 52 33 53 49 54 34 55 37 56 48 57 64 58
REMARK SMILES IDX 35 59 36 60 47 62 65 63 38 64 25 65 26 66 31 67 27 68 28 69
REMARK SMILES IDX 30 70 32 71 29 72 51 73 52 74 57 75 53 76 54 77 56 78 58 79
REMARK SMILES IDX 55 80 39 81 40 82 45 83 41 84 42 85 44 86 46 87 43 88
REMARK H PARENT 9 5 73 17 76 23 13 31 63 50 37 61
REMARK Flexibility Score: inf
ROOT
ATOM      1  C   UNL A   1      36.239  20.546  24.920  1.00  0.00     0.117 C 
ENDROOT
BRANCH   1   2
ATOM      2  N   UNL A   1      36.537  21.870  25.416  1.00  0.00    -0.356 N 
ATOM      3  C   UNL A   1      35.770  22.979  25.560  1.00  0.00     0.224 C 
ATOM      4  O   UNL A   1      36.235  23.861  26.290  1.00  0.00    -0.275 OA
ATOM      5  H   UNL A   1      37.470  21.988  25.704  1.00  0.00     0.163 HD
BRANCH   3   6
ATOM      6  C   UNL A   1      34.379  23.155  24.934  1.00  0.00     0.095 C 
ATOM      7  C   UNL A   1      31.743  26.444  26.337  1.00  0.00     0.039 C 
ATOM      8  C   UNL A   1      32.576  25.348  25.723  1.00  0.00    -0.074 C 
ATOM      9  C   UNL A   1      33.452  25.563  24.722  1.00  0.00    -0.074 C 
ATOM     10  C   UNL A   1      32.405  24.003  26.378  1.00  0.00     0.045 C 
ATOM     11  C   UNL A   1      33.736  26.921  24.130  1.00  0.00     0.039 C 
ATOM     12  C   UNL A   1      34.295  24.460  24.136  1.00  0.00     0.045 C 
ATOM     13  C   UNL A   1      33.135  22.799  25.786  1.00  0.00     0.095 C 
BRANCH  13  14
ATOM     14  C   UNL A   1      33.484  21.665  26.755  1.00  0.00     0.224 C 
ATOM     15  O   UNL A   1      34.120  21.898  27.790  1.00  0.00    -0.275 OA
ATOM     16  N   UNL A   1      33.216  20.358  26.579  1.00  0.00    -0.350 N 
ATOM     17  H   UNL A   1      33.370  19.842  27.404  1.00  0.00     0.163 HD
BRANCH  16  18
ATOM     18  C   UNL A   1      32.759  19.507  25.491  1.00  0.00     0.177 C 
BRANCH  18  19
ATOM     19  C   UNL A   1      32.573  18.040  25.938  1.00  0.00     0.283 C 
BRANCH  19  20
ATOM     20  N   UNL A   1      32.241  17.035  24.905  1.00  0.00    -0.330 N 
ATOM     21  C   UNL A   1      32.624  15.640  25.205  1.00  0.00     0.291 C 
ATOM     22  C   UNL A   1      32.914  17.388  23.624  1.00  0.00     0.291 C 
ATOM     23  H   UNL A   1      31.222  17.067  24.860  1.00  0.00     0.348 HD
ATOM     24  C   UNL A   1      34.145  15.420  25.245  1.00  0.00     0.221 C 
ATOM     25  C   UNL A   1      34.434  17.118  23.625  1.00  0.00     0.221 C 
ATOM     26  O   UNL A   1      34.736  15.763  23.986  1.00  0.00    -0.370 OA
ENDBRANCH  19  20
ENDBRANCH  18  19
ENDBRANCH  16  18
ENDBRANCH  13  14
ENDBRANCH   3   6
ENDBRANCH   1   2
BRANCH   1  27
ATOM     27  C   UNL A   1      37.442  19.617  24.946  1.00  0.00     0.042 C 
BRANCH  27  28
ATOM     28  C   UNL A   1      38.741  20.307  25.336  1.00  0.00     0.118 C 
BRANCH  28  29
ATOM     29  N   UNL A   1      39.805  19.354  25.612  1.00  0.00    -0.352 N 
ATOM     30  C   UNL A   1      41.084  19.559  26.063  1.00  0.00     0.251 C 
ATOM     31  H   UNL A   1      39.569  18.412  25.450  1.00  0.00     0.163 HD
ATOM     32  O   UNL A   1      41.901  18.645  26.002  1.00  0.00    -0.269 OA
BRANCH  30  33
ATOM     33  C   UNL A   1      41.491  20.870  26.615  1.00  0.00     0.039 A 
ATOM     34  C   UNL A   1      41.991  21.843  25.743  1.00  0.00     0.014 A 
ATOM     35  C   UNL A   1      41.442  21.128  27.988  1.00  0.00     0.014 A 
ATOM     36  C   UNL A   1      42.396  23.084  26.240  1.00  0.00     0.010 A 
ATOM     37  C   UNL A   1      41.765  22.392  28.472  1.00  0.00     0.010 A 
ATOM     38  C   UNL A   1      42.265  23.376  27.606  1.00  0.00    -0.014 A 
BRANCH  38  39
ATOM     39  C   UNL A   1      42.677  24.691  28.158  1.00  0.00     0.031 A 
ATOM     40  C   UNL A   1      41.648  25.762  28.399  1.00  0.00     0.074 A 
ATOM     41  C   UNL A   1      43.979  24.944  28.384  1.00  0.00     0.049 A 
ATOM     42  N   UNL A   1      41.815  26.992  28.813  1.00  0.00    -0.248 NA
ATOM     43  C   UNL A   1      40.249  25.411  28.107  1.00  0.00     0.031 C 
ATOM     44  C   UNL A   1      45.078  24.005  28.152  1.00  0.00     0.029 A 
ATOM     45  N   UNL A   1      44.599  26.072  28.857  1.00  0.00    -0.354 N 
ATOM     46  C   UNL A   1      40.551  27.567  28.803  1.00  0.00     0.074 A 
ATOM     47  C   UNL A   1      39.635  26.568  28.298  1.00  0.00     0.031 C 
ATOM     48  C   UNL A   1      46.233  24.585  28.514  1.00  0.00     0.029 A 
ATOM     49  C   UNL A   1      45.962  25.946  28.968  1.00  0.00     0.049 A 
ATOM     50  H   UNL A   1      44.113  26.896  29.093  1.00  0.00     0.167 HD
ATOM     51  C   UNL A   1      40.181  28.809  29.200  1.00  0.00     0.037 A 
ATOM     52  C   UNL A   1      46.886  26.826  29.390  1.00  0.00     0.037 A 
ATOM     53  C   UNL A   1      41.086  29.787  29.740  1.00  0.00     0.049 A 
ATOM     54  C   UNL A   1      46.454  28.197  29.830  1.00  0.00     0.074 A 
ATOM     55  C   UNL A   1      40.799  31.042  30.247  1.00  0.00     0.029 A 
ATOM     56  N   UNL A   1      42.459  29.619  29.841  1.00  0.00    -0.354 N 
ATOM     57  N   UNL A   1      45.247  28.705  29.880  1.00  0.00    -0.248 NA
ATOM     58  C   UNL A   1      47.513  29.113  30.274  1.00  0.00     0.031 C 
ATOM     59  C   UNL A   1      42.005  31.649  30.619  1.00  0.00     0.029 A 
ATOM     60  C   UNL A   1      43.036  30.756  30.380  1.00  0.00     0.049 A 
ATOM     61  H   UNL A   1      42.951  28.811  29.569  1.00  0.00     0.167 HD
ATOM     62  C   UNL A   1      45.397  29.991  30.383  1.00  0.00     0.074 A 
ATOM     63  C   UNL A   1      46.812  30.180  30.631  1.00  0.00     0.031 C 
ATOM     64  C   UNL A   1      44.447  30.928  30.622  1.00  0.00     0.037 A 
BRANCH  51  65
ATOM     65  C   UNL A   1      38.731  29.171  29.056  1.00  0.00     0.057 A 
ATOM     66  C   UNL A   1      38.191  29.596  27.835  1.00  0.00     0.134 A 
ATOM     67  C   UNL A   1      37.865  29.091  30.154  1.00  0.00     0.134 A 
ATOM     68  F   UNL A   1      38.970  29.707  26.749  1.00  0.00    -0.206 F 
ATOM     69  C   UNL A   1      36.849  29.965  27.719  1.00  0.00     0.040 A 
ATOM     70  C   UNL A   1      36.515  29.431  30.043  1.00  0.00     0.040 A 
ATOM     71  F   UNL A   1      38.315  28.686  31.350  1.00  0.00    -0.206 F 
ATOM     72  C   UNL A   1      36.006  29.879  28.826  1.00  0.00     0.006 A 
ENDBRANCH  51  65
BRANCH  52  73
ATOM     73  C   UNL A   1      48.310  26.420  29.462  1.00  0.00     0.057 A 
ATOM     74  C   UNL A   1      49.182  26.682  28.399  1.00  0.00     0.134 A 
ATOM     75  C   UNL A   1      48.839  25.783  30.591  1.00  0.00     0.134 A 
ATOM     76  F   UNL A   1      48.727  27.274  27.285  1.00  0.00    -0.206 F 
ATOM     77  C   UNL A   1      50.528  26.319  28.451  1.00  0.00     0.040 A 
ATOM     78  C   UNL A   1      50.188  25.434  30.665  1.00  0.00     0.040 A 
ATOM     79  F   UNL A   1      48.056  25.512  31.645  1.00  0.00    -0.206 F 
ATOM     80  C   UNL A   1      51.036  25.699  29.590  1.00  0.00     0.006 A 
ENDBRANCH  52  73
BRANCH  64  81
ATOM     81  C   UNL A   1      44.905  32.232  31.204  1.00  0.00     0.057 A 
ATOM     82  C   UNL A   1      45.012  32.426  32.587  1.00  0.00     0.134 A 
ATOM     83  C   UNL A   1      45.277  33.293  30.369  1.00  0.00     0.134 A 
ATOM     84  F   UNL A   1      44.656  31.452  33.439  1.00  0.00    -0.206 F 
ATOM     85  C   UNL A   1      45.456  33.636  33.119  1.00  0.00     0.040 A 
ATOM     86  C   UNL A   1      45.744  34.500  30.889  1.00  0.00     0.040 A 
ATOM     87  F   UNL A   1      45.202  33.169  29.036  1.00  0.00    -0.206 F 
ATOM     88  C   UNL A   1      45.830  34.676  32.269  1.00  0.00     0.006 A 
ENDBRANCH  64  81
ENDBRANCH  38  39
ENDBRANCH  30  33
ENDBRANCH  28  29
ENDBRANCH  27  28
ENDBRANCH   1  27
TORSDOF 14
ENDMDL
MODEL 2
REMARK VINA RESULT:     -11.9      5.226     10.232
REMARK SMILES CC1=C(C)C[C@@H](C(=O)NCCCNC(=O)c2ccc(-c3c4nc(c(-c5c(F)cccc5F)c5ccc([nH]5)c(-c5c(F)cccc5F)c5nc(c(-c6c(F)cccc6F)c6ccc3[nH]6)C=C5)C=C4)cc2)[C@@H](C(=O)NCC[NH+]2CCOCC2)C1
REMARK SMILES IDX 10 1 9 2 7 3 8 4 6 6 1 7 2 8 3 9 82 10 4 11 5 12 70 13 71 14
REMARK SMILES IDX 72 15 73 16 74 18 75 19 76 20 77 21 81 22 78 24 80 25 79 26
REMARK SMILES IDX 11 27 12 28 13 29 14 30 15 32 16 33 17 34 69 35 18 36 68 37
REMARK SMILES IDX 19 38 20 39 21 40 62 41 22 42 67 43 61 44 63 45 23 46 66 47
REMARK SMILES IDX 60 48 59 49 24 51 50 52 33 53 49 54 34 55 37 56 48 57 64 58
REMARK SMILES IDX 35 59 36 60 47 62 65 63 38 64 25 65 26 66 31 67 27 68 28 69
REMARK SMILES IDX 30 70 32 71 29 72 51 73 52 74 57 75 53 76 54 77 56 78 58 79
REMARK SMILES IDX 55 80 39 81 40 82 45 83 41 84 42 85 44 86 46 87 43 88
REMARK H PARENT 9 5 73 17 76 23 13 31 63 50 37 61
REMARK Flexibility Score: inf
ROOT
ATOM      1  C   UNL A   1      31.379  30.492  25.766  1.00  0.00     0.117 C 
ENDROOT
BRANCH   1   2
ATOM      2  N   UNL A   1      32.637  29.869  26.106  1.00  0.00    -0.356 N 
ATOM      3  C   UNL A   1      33.170  28.665  25.784  1.00  0.00     0.224 C 
ATOM      4  O   UNL A   1      34.385  28.547  25.979  1.00  0.00    -0.275 OA
ATOM      5  H   UNL A   1      33.215  30.423  26.678  1.00  0.00     0.163 HD
BRANCH   3   6
ATOM      6  C   UNL A   1      32.379  27.510  25.154  1.00  0.00     0.095 C 
ATOM      7  C   UNL A   1      34.550  23.982  23.550  1.00  0.00     0.039 C 
ATOM      8  C   UNL A   1      33.701  25.083  24.133  1.00  0.00    -0.074 C 
ATOM      9  C   UNL A   1      33.325  25.115  25.426  1.00  0.00    -0.074 C 
ATOM     10  C   UNL A   1      33.376  26.189  23.164  1.00  0.00     0.045 C 
ATOM     11  C   UNL A   1      33.739  24.087  26.449  1.00  0.00     0.039 C 
ATOM     12  C   UNL A   1      32.497  26.237  25.998  1.00  0.00     0.045 C 
ATOM     13  C   UNL A   1      32.451  27.317  23.618  1.00  0.00     0.095 C 
BRANCH  13  14
ATOM     14  C   UNL A   1      32.641  28.675  22.938  1.00  0.00     0.224 C 
ATOM     15  O   UNL A   1      33.708  29.290  23.053  1.00  0.00    -0.275 OA
ATOM     16  N   UNL A   1      31.713  29.349  22.234  1.00  0.00    -0.350 N 
ATOM     17  H   UNL A   1      32.108  30.106  21.743  1.00  0.00     0.163 HD
BRANCH  16  18
ATOM     18  C   UNL A   1      30.279  29.253  22.007  1.00  0.00     0.177 C 
BRANCH  18  19
ATOM     19  C   UNL A   1      29.468  30.000  23.090  1.00  0.00     0.283 C 
BRANCH  19  20
ATOM     20  N   UNL A   1      28.068  30.364  22.781  1.00  0.00    -0.330 N 
ATOM     21  C   UNL A   1      27.768  30.660  21.365  1.00  0.00     0.291 C 
ATOM     22  C   UNL A   1      27.681  31.577  23.553  1.00  0.00     0.291 C 
ATOM     23  H   UNL A   1      27.543  29.528  23.034  1.00  0.00     0.348 HD
ATOM     24  C   UNL A   1      28.446  31.941  20.851  1.00  0.00     0.221 C 
ATOM     25  C   UNL A   1      28.305  32.883  23.015  1.00  0.00     0.221 C 
ATOM     26  O   UNL A   1      28.028  33.074  21.621  1.00  0.00    -0.370 OA
ENDBRANCH  19  20
ENDBRANCH  18  19
ENDBRANCH  16  18
ENDBRANCH  13  14
ENDBRANCH   3   6
ENDBRANCH   1   2
BRANCH   1  27
ATOM     27  C   UNL A   1      31.233  31.892  26.340  1.00  0.00     0.042 C 
BRANCH  27  28
ATOM     28  C   UNL A   1      32.535  32.473  26.873  1.00  0.00     0.118 C 
BRANCH  28  29
ATOM     29  N   UNL A   1      32.369  33.840  27.346  1.00  0.00    -0.352 N 
ATOM     30  C   UNL A   1      32.982  34.500  28.380  1.00  0.00     0.251 C 
ATOM     31  H   UNL A   1      31.713  34.375  26.843  1.00  0.00     0.163 HD
ATOM     32  O   UNL A   1      32.529  35.574  28.766  1.00  0.00    -0.269 OA
BRANCH  30  33
ATOM     33  C   UNL A   1      34.178  33.930  29.040  1.00  0.00     0.039 A 
ATOM     34  C   UNL A   1      35.444  34.349  28.616  1.00  0.00     0.014 A 
ATOM     35  C   UNL A   1      34.066  32.948  30.027  1.00  0.00     0.014 A 
ATOM     36  C   UNL A   1      36.590  33.816  29.212  1.00  0.00     0.010 A 
ATOM     37  C   UNL A   1      35.203  32.480  30.678  1.00  0.00     0.010 A 
ATOM     38  C   UNL A   1      36.477  32.894  30.264  1.00  0.00    -0.014 A 
BRANCH  38  39
ATOM     39  C   UNL A   1      37.679  32.323  30.921  1.00  0.00     0.031 A 
ATOM     40  C   UNL A   1      38.373  31.133  30.317  1.00  0.00     0.074 A 
ATOM     41  C   UNL A   1      38.110  32.834  32.089  1.00  0.00     0.049 A 
ATOM     42  N   UNL A   1      39.395  30.452  30.771  1.00  0.00    -0.248 NA
ATOM     43  C   UNL A   1      37.828  30.623  29.050  1.00  0.00     0.031 C 
ATOM     44  C   UNL A   1      37.500  33.960  32.799  1.00  0.00     0.029 A 
ATOM     45  N   UNL A   1      39.163  32.467  32.888  1.00  0.00    -0.354 N 
ATOM     46  C   UNL A   1      39.594  29.421  29.862  1.00  0.00     0.074 A 
ATOM     47  C   UNL A   1      38.559  29.537  28.857  1.00  0.00     0.031 C 
ATOM     48  C   UNL A   1      38.208  34.212  33.910  1.00  0.00     0.029 A 
ATOM     49  C   UNL A   1      39.298  33.246  34.012  1.00  0.00     0.049 A 
ATOM     50  H   UNL A   1      39.764  31.716  32.678  1.00  0.00     0.167 HD
ATOM     51  C   UNL A   1      40.564  28.474  29.852  1.00  0.00     0.037 A 
ATOM     52  C   UNL A   1      40.200  33.188  35.008  1.00  0.00     0.037 A 
ATOM     53  C   UNL A   1      41.615  28.385  30.829  1.00  0.00     0.049 A 
ATOM     54  C   UNL A   1      41.270  32.133  34.974  1.00  0.00     0.074 A 
ATOM     55  C   UNL A   1      42.692  27.516  30.862  1.00  0.00     0.029 A 
ATOM     56  N   UNL A   1      41.720  29.196  31.949  1.00  0.00    -0.354 N 
ATOM     57  N   UNL A   1      41.487  31.206  34.074  1.00  0.00    -0.248 NA
ATOM     58  C   UNL A   1      42.220  32.120  36.095  1.00  0.00     0.031 C 
ATOM     59  C   UNL A   1      43.427  27.776  32.025  1.00  0.00     0.029 A 
ATOM     60  C   UNL A   1      42.830  28.832  32.693  1.00  0.00     0.049 A 
ATOM     61  H   UNL A   1      41.097  29.922  32.182  1.00  0.00     0.167 HD
ATOM     62  C   UNL A   1      42.611  30.514  34.504  1.00  0.00     0.074 A 
ATOM     63  C   UNL A   1      43.036  31.136  35.743  1.00  0.00     0.031 C 
ATOM     64  C   UNL A   1      43.239  29.462  33.923  1.00  0.00     0.037 A 
BRANCH  51  65
ATOM     65  C   UNL A   1      40.520  27.461  28.745  1.00  0.00     0.057 A 
ATOM     66  C   UNL A   1      39.689  26.334  28.804  1.00  0.00     0.134 A 
ATOM     67  C   UNL A   1      41.319  27.616  27.605  1.00  0.00     0.134 A 
ATOM     68  F   UNL A   1      38.910  26.120  29.875  1.00  0.00    -0.206 F 
ATOM     69  C   UNL A   1      39.682  25.378  27.787  1.00  0.00     0.040 A 
ATOM     70  C   UNL A   1      41.300  26.680  26.569  1.00  0.00     0.040 A 
ATOM     71  F   UNL A   1      42.133  28.675  27.481  1.00  0.00    -0.206 F 
ATOM     72  C   UNL A   1      40.487  25.553  26.663  1.00  0.00     0.006 A 
ENDBRANCH  51  65
BRANCH  52  73
ATOM     73  C   UNL A   1      40.157  34.191  36.098  1.00  0.00     0.057 A 
ATOM     74  C   UNL A   1      39.453  33.932  37.280  1.00  0.00     0.134 A 
ATOM     75  C   UNL A   1      40.826  35.416  35.999  1.00  0.00     0.134 A 
ATOM     76  F   UNL A   1      38.780  32.781  37.424  1.00  0.00    -0.206 F 
ATOM     77  C   UNL A   1      39.411  34.857  38.323  1.00  0.00     0.040 A 
ATOM     78  C   UNL A   1      40.808  36.343  37.043  1.00  0.00     0.040 A 
ATOM     79  F   UNL A   1      41.522  35.721  34.894  1.00  0.00    -0.206 F 
ATOM     80  C   UNL A   1      40.096  36.064  38.208  1.00  0.00     0.006 A 
ENDBRANCH  52  73
BRANCH  64  81
ATOM     81  C   UNL A   1      44.465  28.935  34.608  1.00  0.00     0.057 A 
ATOM     82  C   UNL A   1      44.398  27.893  35.541  1.00  0.00     0.134 A 
ATOM     83  C   UNL A   1      45.730  29.452  34.301  1.00  0.00     0.134 A 
ATOM     84  F   UNL A   1      43.214  27.365  35.887  1.00  0.00    -0.206 F 
ATOM     85  C   UNL A   1      45.545  27.395  36.159  1.00  0.00     0.040 A 
ATOM     86  C   UNL A   1      46.886  28.948  34.896  1.00  0.00     0.040 A 
ATOM     87  F   UNL A   1      45.861  30.447  33.412  1.00  0.00    -0.206 F 
ATOM     88  C   UNL A   1      46.795  27.920  35.832  1.00  0.00     0.006 A 
ENDBRANCH  64  81
ENDBRANCH  38  39
ENDBRANCH  30  33
ENDBRANCH  28  29
ENDBRANCH  27  28
ENDBRANCH   1  27
TORSDOF 14
ENDMDL
MODEL 3
REMARK VINA RESULT:     -11.6      0.519      6.081
REMARK SMILES CC1=C(C)C[C@@H](C(=O)NCCCNC(=O)c2ccc(-c3c4nc(c(-c5c(F)cccc5F)c5ccc([nH]5)c(-c5c(F)cccc5F)c5nc(c(-c6c(F)cccc6F)c6ccc3[nH]6)C=C5)C=C4)cc2)[C@@H](C(=O)NCC[NH+]2CCOCC2)C1
REMARK SMILES IDX 10 1 9 2 7 3 8 4 6 6 1 7 2 8 3 9 82 10 4 11 5 12 70 13 71 14
REMARK SMILES IDX 72 15 73 16 74 18 75 19 76 20 77 21 81 22 78 24 80 25 79 26
REMARK SMILES IDX 11 27 12 28 13 29 14 30 15 32 16 33 17 34 69 35 18 36 68 37
REMARK SMILES IDX 19 38 20 39 21 40 62 41 22 42 67 43 61 44 63 45 23 46 66 47
REMARK SMILES IDX 60 48 59 49 24 51 50 52 33 53 49 54 34 55 37 56 48 57 64 58
REMARK SMILES IDX 35 59 36 60 47 62 65 63 38 64 25 65 26 66 31 67 27 68 28 69
REMARK SMILES IDX 30 70 32 71 29 72 51 73 52 74 57 75 53 76 54 77 56 78 58 79
REMARK SMILES IDX 55 80 39 81 40 82 45 83 41 84 42 85 44 86 46 87 43 88
REMARK H PARENT 9 5 73 17 76 23 13 31 63 50 37 61
REMARK Flexibility Score: inf
ROOT
ATOM      1  C   UNL A   1      36.619  20.643  24.627  1.00  0.00     0.117 C 
ENDROOT
BRANCH   1   2
ATOM      2  N   UNL A   1      36.824  21.887  25.333  1.00  0.00    -0.356 N 
ATOM      3  C   UNL A   1      35.989  22.917  25.616  1.00  0.00     0.224 C 
ATOM      4  O   UNL A   1      36.378  23.698  26.492  1.00  0.00    -0.275 OA
ATOM      5  H   UNL A   1      37.739  22.008  25.673  1.00  0.00     0.163 HD
BRANCH   3   6
ATOM      6  C   UNL A   1      34.611  23.116  24.969  1.00  0.00     0.095 C 
ATOM      7  C   UNL A   1      31.904  26.286  26.506  1.00  0.00     0.039 C 
ATOM      8  C   UNL A   1      32.764  25.237  25.846  1.00  0.00    -0.074 C 
ATOM      9  C   UNL A   1      33.659  25.522  24.881  1.00  0.00    -0.074 C 
ATOM     10  C   UNL A   1      32.595  23.854  26.416  1.00  0.00     0.045 C 
ATOM     11  C   UNL A   1      33.940  26.916  24.378  1.00  0.00     0.039 C 
ATOM     12  C   UNL A   1      34.529  24.465  24.250  1.00  0.00     0.045 C 
ATOM     13  C   UNL A   1      33.352  22.695  25.770  1.00  0.00     0.095 C 
BRANCH  13  14
ATOM     14  C   UNL A   1      33.693  21.509  26.677  1.00  0.00     0.224 C 
ATOM     15  O   UNL A   1      34.433  21.661  27.656  1.00  0.00    -0.275 OA
ATOM     16  N   UNL A   1      33.308  20.232  26.495  1.00  0.00    -0.350 N 
ATOM     17  H   UNL A   1      33.491  19.681  27.290  1.00  0.00     0.163 HD
BRANCH  16  18
ATOM     18  C   UNL A   1      32.692  19.453  25.432  1.00  0.00     0.177 C 
BRANCH  18  19
ATOM     19  C   UNL A   1      33.731  18.627  24.639  1.00  0.00     0.283 C 
BRANCH  19  20
ATOM     20  N   UNL A   1      33.260  17.423  23.922  1.00  0.00    -0.330 N 
ATOM     21  C   UNL A   1      32.321  16.551  24.658  1.00  0.00     0.291 C 
ATOM     22  C   UNL A   1      34.423  16.569  23.553  1.00  0.00     0.291 C 
ATOM     23  H   UNL A   1      32.756  17.804  23.122  1.00  0.00     0.348 HD
ATOM     24  C   UNL A   1      32.960  15.850  25.868  1.00  0.00     0.221 C 
ATOM     25  C   UNL A   1      35.041  15.810  24.747  1.00  0.00     0.221 C 
ATOM     26  O   UNL A   1      34.062  15.035  25.453  1.00  0.00    -0.370 OA
ENDBRANCH  19  20
ENDBRANCH  18  19
ENDBRANCH  16  18
ENDBRANCH  13  14
ENDBRANCH   3   6
ENDBRANCH   1   2
BRANCH   1  27
ATOM     27  C   UNL A   1      37.793  19.685  24.758  1.00  0.00     0.042 C 
BRANCH  27  28
ATOM     28  C   UNL A   1      38.710  19.997  25.931  1.00  0.00     0.118 C 
BRANCH  28  29
ATOM     29  N   UNL A   1      39.943  19.226  25.881  1.00  0.00    -0.352 N 
ATOM     30  C   UNL A   1      41.246  19.627  26.035  1.00  0.00     0.251 C 
ATOM     31  H   UNL A   1      39.823  18.264  25.708  1.00  0.00     0.163 HD
ATOM     32  O   UNL A   1      42.155  18.866  25.718  1.00  0.00    -0.269 OA
BRANCH  30  33
ATOM     33  C   UNL A   1      41.567  20.968  26.573  1.00  0.00     0.039 A 
ATOM     34  C   UNL A   1      41.959  21.974  25.683  1.00  0.00     0.014 A 
ATOM     35  C   UNL A   1      41.544  21.225  27.946  1.00  0.00     0.014 A 
ATOM     36  C   UNL A   1      42.282  23.244  26.166  1.00  0.00     0.010 A 
ATOM     37  C   UNL A   1      41.783  22.512  28.419  1.00  0.00     0.010 A 
ATOM     38  C   UNL A   1      42.174  23.529  27.536  1.00  0.00    -0.014 A 
BRANCH  38  39
ATOM     39  C   UNL A   1      42.500  24.874  28.072  1.00  0.00     0.031 A 
ATOM     40  C   UNL A   1      43.917  25.211  28.450  1.00  0.00     0.074 A 
ATOM     41  C   UNL A   1      41.517  25.770  28.277  1.00  0.00     0.049 A 
ATOM     42  N   UNL A   1      44.392  26.304  28.992  1.00  0.00    -0.248 NA
ATOM     43  C   UNL A   1      44.929  24.170  28.213  1.00  0.00     0.031 C 
ATOM     44  C   UNL A   1      40.098  25.551  27.991  1.00  0.00     0.029 A 
ATOM     45  N   UNL A   1      41.563  27.045  28.778  1.00  0.00    -0.354 N 
ATOM     46  C   UNL A   1      45.747  26.070  29.186  1.00  0.00     0.074 A 
ATOM     47  C   UNL A   1      46.009  24.716  28.748  1.00  0.00     0.031 C 
ATOM     48  C   UNL A   1      39.414  26.665  28.291  1.00  0.00     0.029 A 
ATOM     49  C   UNL A   1      40.337  27.663  28.824  1.00  0.00     0.049 A 
ATOM     50  H   UNL A   1      42.396  27.477  29.079  1.00  0.00     0.167 HD
ATOM     51  C   UNL A   1      46.693  26.913  29.666  1.00  0.00     0.037 A 
ATOM     52  C   UNL A   1      39.998  28.895  29.244  1.00  0.00     0.037 A 
ATOM     53  C   UNL A   1      46.438  28.271  30.063  1.00  0.00     0.049 A 
ATOM     54  C   UNL A   1      41.065  29.815  29.768  1.00  0.00     0.074 A 
ATOM     55  C   UNL A   1      47.341  29.232  30.483  1.00  0.00     0.029 A 
ATOM     56  N   UNL A   1      45.183  28.861  30.089  1.00  0.00    -0.354 N 
ATOM     57  N   UNL A   1      42.352  29.605  29.884  1.00  0.00    -0.248 NA
ATOM     58  C   UNL A   1      40.627  31.145  30.218  1.00  0.00     0.031 C 
ATOM     59  C   UNL A   1      46.627  30.393  30.802  1.00  0.00     0.029 A 
ATOM     60  C   UNL A   1      45.285  30.166  30.541  1.00  0.00     0.049 A 
ATOM     61  H   UNL A   1      44.345  28.419  29.826  1.00  0.00     0.167 HD
ATOM     62  C   UNL A   1      42.885  30.781  30.395  1.00  0.00     0.074 A 
ATOM     63  C   UNL A   1      41.780  31.704  30.559  1.00  0.00     0.031 C 
ATOM     64  C   UNL A   1      44.174  31.072  30.697  1.00  0.00     0.037 A 
BRANCH  51  65
ATOM     65  C   UNL A   1      48.090  26.377  29.787  1.00  0.00     0.057 A 
ATOM     66  C   UNL A   1      49.005  26.448  28.728  1.00  0.00     0.134 A 
ATOM     67  C   UNL A   1      48.526  25.784  30.979  1.00  0.00     0.134 A 
ATOM     68  F   UNL A   1      48.647  26.991  27.556  1.00  0.00    -0.206 F 
ATOM     69  C   UNL A   1      50.291  25.915  28.837  1.00  0.00     0.040 A 
ATOM     70  C   UNL A   1      49.818  25.272  31.109  1.00  0.00     0.040 A 
ATOM     71  F   UNL A   1      47.703  25.690  32.034  1.00  0.00    -0.206 F 
ATOM     72  C   UNL A   1      50.702  25.328  30.033  1.00  0.00     0.006 A 
ENDBRANCH  51  65
BRANCH  52  73
ATOM     73  C   UNL A   1      38.589  29.345  29.142  1.00  0.00     0.057 A 
ATOM     74  C   UNL A   1      38.053  29.738  27.910  1.00  0.00     0.134 A 
ATOM     75  C   UNL A   1      37.743  29.377  30.256  1.00  0.00     0.134 A 
ATOM     76  F   UNL A   1      38.823  29.744  26.812  1.00  0.00    -0.206 F 
ATOM     77  C   UNL A   1      36.727  30.153  27.789  1.00  0.00     0.040 A 
ATOM     78  C   UNL A   1      36.409  29.771  30.146  1.00  0.00     0.040 A 
ATOM     79  F   UNL A   1      38.196  29.007  31.462  1.00  0.00    -0.206 F 
ATOM     80  C   UNL A   1      35.898  30.163  28.909  1.00  0.00     0.006 A 
ENDBRANCH  52  73
BRANCH  64  81
ATOM     81  C   UNL A   1      44.462  32.452  31.211  1.00  0.00     0.057 A 
ATOM     82  C   UNL A   1      44.482  32.739  32.581  1.00  0.00     0.134 A 
ATOM     83  C   UNL A   1      44.757  33.494  30.324  1.00  0.00     0.134 A 
ATOM     84  F   UNL A   1      44.193  31.787  33.480  1.00  0.00    -0.206 F 
ATOM     85  C   UNL A   1      44.768  34.021  33.050  1.00  0.00     0.040 A 
ATOM     86  C   UNL A   1      45.067  34.775  30.782  1.00  0.00     0.040 A 
ATOM     87  F   UNL A   1      44.760  33.282  28.999  1.00  0.00    -0.206 F 
ATOM     88  C   UNL A   1      45.068  35.043  32.150  1.00  0.00     0.006 A 
ENDBRANCH  64  81
ENDBRANCH  38  39
ENDBRANCH  30  33
ENDBRANCH  28  29
ENDBRANCH  27  28
ENDBRANCH   1  27
TORSDOF 14
ENDMDL
