MODEL 1
REMARK VINA RESULT:     -11.6      0.000      0.000
REMARK SMILES O=C(NCCCNC(=O)c1ccc(S(=O)(=O)Cc2cccs2)c(F)c1)c1ccc(-c2c3nc(c(-c4c(F)cccc4F)c4ccc([nH]4)c(-c4c(F)cccc4F)c4nc(c(-c5c(F)cccc5F)c5ccc2[nH]5)C=C4)C=C3)cc1
REMARK SMILES IDX 5 1 4 2 3 3 1 4 2 5 26 7 27 8 79 9 28 10 78 11 29 12 30 13
REMARK SMILES IDX 31 14 72 15 32 16 77 17 71 18 73 19 33 20 76 21 70 22 69 23
REMARK SMILES IDX 34 25 60 26 43 27 59 28 44 29 47 30 58 31 74 32 45 33 46 34
REMARK SMILES IDX 57 36 75 37 48 38 35 39 36 40 41 41 37 42 38 43 40 44 42 45
REMARK SMILES IDX 39 46 61 47 62 48 67 49 63 50 64 51 66 52 68 53 65 54 49 55
REMARK SMILES IDX 50 56 55 57 51 58 52 59 54 60 56 61 53 62 6 63 7 64 8 65
REMARK SMILES IDX 9 67 10 68 11 69 25 70 12 71 23 72 13 73 24 74 14 75 15 76
REMARK SMILES IDX 16 77 17 78 18 79 19 80 22 81 20 82 21 83
REMARK H PARENT 3 6 73 24 47 35 7 66
REMARK Flexibility Score: inf
ROOT
ATOM      1  C   UNL A   1      37.914  19.717  24.785  1.00  0.00     0.042 C 
ENDROOT
BRANCH   1   2
ATOM      2  C   UNL A   1      38.894  20.044  25.904  1.00  0.00     0.118 C 
BRANCH   2   3
ATOM      3  N   UNL A   1      40.099  19.223  25.848  1.00  0.00    -0.352 N 
ATOM      4  O   UNL A   1      42.294  18.749  25.734  1.00  0.00    -0.269 OA
ATOM      5  C   UNL A   1      41.419  19.555  26.034  1.00  0.00     0.251 C 
ATOM      6  H   UNL A   1      39.939  18.273  25.643  1.00  0.00     0.163 HD
BRANCH   5   7
ATOM      7  C   UNL A   1      41.790  20.878  26.580  1.00  0.00     0.039 A 
ATOM      8  C   UNL A   1      41.844  21.088  27.956  1.00  0.00     0.014 A 
ATOM      9  C   UNL A   1      42.128  21.916  25.704  1.00  0.00     0.014 A 
ATOM     10  C   UNL A   1      42.059  22.365  28.452  1.00  0.00     0.010 A 
ATOM     11  C   UNL A   1      42.461  23.178  26.211  1.00  0.00     0.010 A 
ATOM     12  C   UNL A   1      42.399  23.422  27.589  1.00  0.00    -0.014 A 
BRANCH  12  13
ATOM     13  C   UNL A   1      42.754  24.734  28.189  1.00  0.00     0.031 A 
ATOM     14  C   UNL A   1      44.185  25.141  28.401  1.00  0.00     0.074 A 
ATOM     15  C   UNL A   1      41.755  25.599  28.458  1.00  0.00     0.049 A 
ATOM     16  N   UNL A   1      44.654  26.292  28.813  1.00  0.00    -0.248 NA
ATOM     17  C   UNL A   1      45.224  24.138  28.122  1.00  0.00     0.031 C 
ATOM     18  C   UNL A   1      40.326  25.304  28.304  1.00  0.00     0.029 A 
ATOM     19  N   UNL A   1      41.780  26.907  28.864  1.00  0.00    -0.354 N 
ATOM     20  C   UNL A   1      46.035  26.149  28.858  1.00  0.00     0.074 A 
ATOM     21  C   UNL A   1      46.331  24.792  28.452  1.00  0.00     0.031 C 
ATOM     22  C   UNL A   1      39.621  26.423  28.519  1.00  0.00     0.029 A 
ATOM     23  C   UNL A   1      40.536  27.492  28.898  1.00  0.00     0.049 A 
ATOM     24  H   UNL A   1      42.607  27.383  29.107  1.00  0.00     0.167 HD
ATOM     25  C   UNL A   1      46.966  27.071  29.195  1.00  0.00     0.037 A 
ATOM     26  C   UNL A   1      40.167  28.751  29.200  1.00  0.00     0.037 A 
ATOM     27  C   UNL A   1      46.666  28.428  29.575  1.00  0.00     0.049 A 
ATOM     28  C   UNL A   1      41.223  29.744  29.578  1.00  0.00     0.074 A 
ATOM     29  C   UNL A   1      47.548  29.440  29.916  1.00  0.00     0.029 A 
ATOM     30  N   UNL A   1      45.391  28.965  29.659  1.00  0.00    -0.354 N 
ATOM     31  N   UNL A   1      42.525  29.594  29.604  1.00  0.00    -0.248 NA
ATOM     32  C   UNL A   1      40.762  31.079  29.982  1.00  0.00     0.031 C 
ATOM     33  C   UNL A   1      46.805  30.578  30.242  1.00  0.00     0.029 A 
ATOM     34  C   UNL A   1      45.462  30.288  30.062  1.00  0.00     0.049 A 
ATOM     35  H   UNL A   1      44.559  28.478  29.460  1.00  0.00     0.167 HD
ATOM     36  C   UNL A   1      43.039  30.811  30.025  1.00  0.00     0.074 A 
ATOM     37  C   UNL A   1      41.910  31.700  30.212  1.00  0.00     0.031 C 
ATOM     38  C   UNL A   1      44.329  31.158  30.247  1.00  0.00     0.037 A 
BRANCH  25  39
ATOM     39  C   UNL A   1      48.410  26.662  29.173  1.00  0.00     0.057 A 
ATOM     40  C   UNL A   1      49.182  26.836  28.017  1.00  0.00     0.134 A 
ATOM     41  C   UNL A   1      49.003  26.000  30.254  1.00  0.00     0.134 A 
ATOM     42  F   UNL A   1      48.670  27.457  26.943  1.00  0.00    -0.206 F 
ATOM     43  C   UNL A   1      50.487  26.346  27.930  1.00  0.00     0.040 A 
ATOM     44  C   UNL A   1      50.313  25.522  30.186  1.00  0.00     0.040 A 
ATOM     45  F   UNL A   1      48.320  25.808  31.393  1.00  0.00    -0.206 F 
ATOM     46  C   UNL A   1      51.055  25.683  29.016  1.00  0.00     0.006 A 
ENDBRANCH  25  39
BRANCH  26  47
ATOM     47  C   UNL A   1      38.734  29.133  29.151  1.00  0.00     0.057 A 
ATOM     48  C   UNL A   1      38.145  29.605  27.972  1.00  0.00     0.134 A 
ATOM     49  C   UNL A   1      37.925  29.052  30.290  1.00  0.00     0.134 A 
ATOM     50  F   UNL A   1      38.869  29.714  26.848  1.00  0.00    -0.206 F 
ATOM     51  C   UNL A   1      36.808  30.005  27.932  1.00  0.00     0.040 A 
ATOM     52  C   UNL A   1      36.580  29.421  30.257  1.00  0.00     0.040 A 
ATOM     53  F   UNL A   1      38.428  28.591  31.444  1.00  0.00    -0.206 F 
ATOM     54  C   UNL A   1      36.021  29.908  29.076  1.00  0.00     0.006 A 
ENDBRANCH  26  47
BRANCH  38  55
ATOM     55  C   UNL A   1      44.589  32.558  30.713  1.00  0.00     0.057 A 
ATOM     56  C   UNL A   1      44.631  32.862  32.079  1.00  0.00     0.134 A 
ATOM     57  C   UNL A   1      44.755  33.612  29.806  1.00  0.00     0.134 A 
ATOM     58  F   UNL A   1      44.470  31.897  32.998  1.00  0.00    -0.206 F 
ATOM     59  C   UNL A   1      44.825  34.168  32.527  1.00  0.00     0.040 A 
ATOM     60  C   UNL A   1      44.972  34.919  30.243  1.00  0.00     0.040 A 
ATOM     61  F   UNL A   1      44.736  33.381  28.485  1.00  0.00    -0.206 F 
ATOM     62  C   UNL A   1      45.001  35.200  31.608  1.00  0.00     0.006 A 
ENDBRANCH  38  55
ENDBRANCH  12  13
ENDBRANCH   5   7
ENDBRANCH   2   3
ENDBRANCH   1   2
BRANCH   1  63
ATOM     63  C   UNL A   1      36.825  20.768  24.620  1.00  0.00     0.118 C 
BRANCH  63  64
ATOM     64  N   UNL A   1      35.907  20.771  25.749  1.00  0.00    -0.352 N 
ATOM     65  C   UNL A   1      34.899  21.657  26.021  1.00  0.00     0.251 C 
ATOM     66  H   UNL A   1      36.027  20.043  26.402  1.00  0.00     0.163 HD
ATOM     67  O   UNL A   1      34.351  21.689  27.117  1.00  0.00    -0.269 OA
BRANCH  65  68
ATOM     68  C   UNL A   1      34.479  22.595  24.970  1.00  0.00     0.042 A 
ATOM     69  C   UNL A   1      34.908  23.926  25.017  1.00  0.00     0.015 A 
ATOM     70  C   UNL A   1      33.666  22.138  23.932  1.00  0.00     0.054 A 
ATOM     71  C   UNL A   1      34.484  24.820  24.038  1.00  0.00     0.024 A 
ATOM     72  C   UNL A   1      33.241  23.039  22.962  1.00  0.00     0.142 A 
ATOM     73  C   UNL A   1      33.650  24.367  23.007  1.00  0.00     0.103 A 
ATOM     74  F   UNL A   1      32.444  22.589  21.987  1.00  0.00    -0.206 F 
BRANCH  73  75
ATOM     75  S   UNL A   1      33.172  25.507  21.747  1.00  0.00     0.186 S 
ATOM     76  O   UNL A   1      34.068  26.639  21.909  1.00  0.00    -0.223 OA
ATOM     77  O   UNL A   1      33.177  24.764  20.498  1.00  0.00    -0.223 OA
BRANCH  75  78
ATOM     78  C   UNL A   1      31.515  26.068  22.046  1.00  0.00     0.188 C 
BRANCH  78  79
ATOM     79  C   UNL A   1      31.100  26.124  23.491  1.00  0.00     0.020 A 
ATOM     80  C   UNL A   1      30.383  25.257  24.297  1.00  0.00     0.016 A 
ATOM     81  S   UNL A   1      31.659  27.473  24.412  1.00  0.00    -0.148 S 
ATOM     82  C   UNL A   1      30.317  25.685  25.656  1.00  0.00     0.012 A 
ATOM     83  C   UNL A   1      30.969  26.878  25.853  1.00  0.00     0.065 A 
ENDBRANCH  78  79
ENDBRANCH  75  78
ENDBRANCH  73  75
ENDBRANCH  65  68
ENDBRANCH  63  64
ENDBRANCH   1  63
TORSDOF 13
ENDMDL
MODEL 2
REMARK VINA RESULT:     -11.6      4.686      9.422
REMARK SMILES O=C(NCCCNC(=O)c1ccc(S(=O)(=O)Cc2cccs2)c(F)c1)c1ccc(-c2c3nc(c(-c4c(F)cccc4F)c4ccc([nH]4)c(-c4c(F)cccc4F)c4nc(c(-c5c(F)cccc5F)c5ccc2[nH]5)C=C4)C=C3)cc1
REMARK SMILES IDX 5 1 4 2 3 3 1 4 2 5 26 7 27 8 79 9 28 10 78 11 29 12 30 13
REMARK SMILES IDX 31 14 72 15 32 16 77 17 71 18 73 19 33 20 76 21 70 22 69 23
REMARK SMILES IDX 34 25 60 26 43 27 59 28 44 29 47 30 58 31 74 32 45 33 46 34
REMARK SMILES IDX 57 36 75 37 48 38 35 39 36 40 41 41 37 42 38 43 40 44 42 45
REMARK SMILES IDX 39 46 61 47 62 48 67 49 63 50 64 51 66 52 68 53 65 54 49 55
REMARK SMILES IDX 50 56 55 57 51 58 52 59 54 60 56 61 53 62 6 63 7 64 8 65
REMARK SMILES IDX 9 67 10 68 11 69 25 70 12 71 23 72 13 73 24 74 14 75 15 76
REMARK SMILES IDX 16 77 17 78 18 79 19 80 22 81 20 82 21 83
REMARK H PARENT 3 6 73 24 47 35 7 66
REMARK Flexibility Score: inf
ROOT
ATOM      1  C   UNL A   1      31.428  31.685  26.780  1.00  0.00     0.042 C 
ENDROOT
BRANCH   1   2
ATOM      2  C   UNL A   1      32.688  32.538  26.849  1.00  0.00     0.118 C 
BRANCH   2   3
ATOM      3  N   UNL A   1      32.463  33.813  27.521  1.00  0.00    -0.352 N 
ATOM      4  O   UNL A   1      32.589  35.364  29.146  1.00  0.00    -0.269 OA
ATOM      5  C   UNL A   1      33.076  34.368  28.618  1.00  0.00     0.251 C 
ATOM      6  H   UNL A   1      31.753  34.368  27.123  1.00  0.00     0.163 HD
BRANCH   5   7
ATOM      7  C   UNL A   1      34.309  33.770  29.172  1.00  0.00     0.039 A 
ATOM      8  C   UNL A   1      34.245  32.657  30.008  1.00  0.00     0.014 A 
ATOM      9  C   UNL A   1      35.554  34.304  28.819  1.00  0.00     0.014 A 
ATOM     10  C   UNL A   1      35.395  32.192  30.628  1.00  0.00     0.010 A 
ATOM     11  C   UNL A   1      36.727  33.757  29.354  1.00  0.00     0.010 A 
ATOM     12  C   UNL A   1      36.655  32.716  30.289  1.00  0.00    -0.014 A 
BRANCH  12  13
ATOM     13  C   UNL A   1      37.862  32.084  30.880  1.00  0.00     0.031 A 
ATOM     14  C   UNL A   1      38.294  32.376  32.289  1.00  0.00     0.074 A 
ATOM     15  C   UNL A   1      38.519  31.162  30.146  1.00  0.00     0.049 A 
ATOM     16  N   UNL A   1      39.261  31.825  32.979  1.00  0.00    -0.248 NA
ATOM     17  C   UNL A   1      37.558  33.419  33.022  1.00  0.00     0.031 C 
ATOM     18  C   UNL A   1      38.196  30.808  28.760  1.00  0.00     0.029 A 
ATOM     19  N   UNL A   1      39.551  30.321  30.469  1.00  0.00    -0.354 N 
ATOM     20  C   UNL A   1      39.260  32.458  34.215  1.00  0.00     0.074 A 
ATOM     21  C   UNL A   1      38.211  33.454  34.177  1.00  0.00     0.031 C 
ATOM     22  C   UNL A   1      38.947  29.764  28.386  1.00  0.00     0.029 A 
ATOM     23  C   UNL A   1      39.855  29.422  29.474  1.00  0.00     0.049 A 
ATOM     24  H   UNL A   1      40.030  30.356  31.329  1.00  0.00     0.167 HD
ATOM     25  C   UNL A   1      40.056  32.220  35.283  1.00  0.00     0.037 A 
ATOM     26  C   UNL A   1      40.762  28.429  29.437  1.00  0.00     0.037 A 
ATOM     27  C   UNL A   1      41.083  31.210  35.323  1.00  0.00     0.049 A 
ATOM     28  C   UNL A   1      41.633  28.197  30.635  1.00  0.00     0.074 A 
ATOM     29  C   UNL A   1      41.927  30.884  36.371  1.00  0.00     0.029 A 
ATOM     30  N   UNL A   1      41.402  30.362  34.274  1.00  0.00    -0.354 N 
ATOM     31  N   UNL A   1      41.610  28.800  31.798  1.00  0.00    -0.248 NA
ATOM     32  C   UNL A   1      42.665  27.159  30.512  1.00  0.00     0.031 C 
ATOM     33  C   UNL A   1      42.782  29.863  35.944  1.00  0.00     0.029 A 
ATOM     34  C   UNL A   1      42.441  29.524  34.644  1.00  0.00     0.049 A 
ATOM     35  H   UNL A   1      40.956  30.355  33.397  1.00  0.00     0.167 HD
ATOM     36  C   UNL A   1      42.621  28.215  32.547  1.00  0.00     0.074 A 
ATOM     37  C   UNL A   1      43.216  27.187  31.716  1.00  0.00     0.031 C 
ATOM     38  C   UNL A   1      43.025  28.510  33.805  1.00  0.00     0.037 A 
BRANCH  25  39
ATOM     39  C   UNL A   1      39.861  33.056  36.513  1.00  0.00     0.057 A 
ATOM     40  C   UNL A   1      38.893  32.709  37.466  1.00  0.00     0.134 A 
ATOM     41  C   UNL A   1      40.551  34.259  36.702  1.00  0.00     0.134 A 
ATOM     42  F   UNL A   1      38.192  31.572  37.339  1.00  0.00    -0.206 F 
ATOM     43  C   UNL A   1      38.605  33.539  38.550  1.00  0.00     0.040 A 
ATOM     44  C   UNL A   1      40.284  35.089  37.792  1.00  0.00     0.040 A 
ATOM     45  F   UNL A   1      41.495  34.646  35.831  1.00  0.00    -0.206 F 
ATOM     46  C   UNL A   1      39.299  34.736  38.714  1.00  0.00     0.006 A 
ENDBRANCH  25  39
BRANCH  26  47
ATOM     47  C   UNL A   1      40.882  27.583  28.223  1.00  0.00     0.057 A 
ATOM     48  C   UNL A   1      40.157  26.393  28.088  1.00  0.00     0.134 A 
ATOM     49  C   UNL A   1      41.743  27.938  27.179  1.00  0.00     0.134 A 
ATOM     50  F   UNL A   1      39.322  25.994  29.058  1.00  0.00    -0.206 F 
ATOM     51  C   UNL A   1      40.300  25.574  26.967  1.00  0.00     0.040 A 
ATOM     52  C   UNL A   1      41.874  27.143  26.039  1.00  0.00     0.040 A 
ATOM     53  F   UNL A   1      42.451  29.074  27.243  1.00  0.00    -0.206 F 
ATOM     54  C   UNL A   1      41.156  25.952  25.936  1.00  0.00     0.006 A 
ENDBRANCH  26  47
BRANCH  38  55
ATOM     55  C   UNL A   1      44.163  27.710  34.361  1.00  0.00     0.057 A 
ATOM     56  C   UNL A   1      43.931  26.498  35.023  1.00  0.00     0.134 A 
ATOM     57  C   UNL A   1      45.486  28.162  34.276  1.00  0.00     0.134 A 
ATOM     58  F   UNL A   1      42.685  26.016  35.143  1.00  0.00    -0.206 F 
ATOM     59  C   UNL A   1      44.975  25.765  35.586  1.00  0.00     0.040 A 
ATOM     60  C   UNL A   1      46.542  27.426  34.816  1.00  0.00     0.040 A 
ATOM     61  F   UNL A   1      45.773  29.309  33.644  1.00  0.00    -0.206 F 
ATOM     62  C   UNL A   1      46.286  26.227  35.479  1.00  0.00     0.006 A 
ENDBRANCH  38  55
ENDBRANCH  12  13
ENDBRANCH   5   7
ENDBRANCH   2   3
ENDBRANCH   1   2
BRANCH   1  63
ATOM     63  C   UNL A   1      31.710  30.234  26.418  1.00  0.00     0.118 C 
BRANCH  63  64
ATOM     64  N   UNL A   1      32.236  30.111  25.066  1.00  0.00    -0.352 N 
ATOM     65  C   UNL A   1      32.638  28.976  24.413  1.00  0.00     0.251 C 
ATOM     66  H   UNL A   1      32.313  30.951  24.557  1.00  0.00     0.163 HD
ATOM     67  O   UNL A   1      33.279  29.031  23.368  1.00  0.00    -0.269 OA
BRANCH  65  68
ATOM     68  C   UNL A   1      32.299  27.668  24.991  1.00  0.00     0.042 A 
ATOM     69  C   UNL A   1      33.261  26.962  25.721  1.00  0.00     0.015 A 
ATOM     70  C   UNL A   1      31.014  27.156  24.811  1.00  0.00     0.054 A 
ATOM     71  C   UNL A   1      32.947  25.710  26.241  1.00  0.00     0.024 A 
ATOM     72  C   UNL A   1      30.710  25.901  25.327  1.00  0.00     0.142 A 
ATOM     73  C   UNL A   1      31.664  25.185  26.043  1.00  0.00     0.103 A 
ATOM     74  F   UNL A   1      29.480  25.415  25.127  1.00  0.00    -0.206 F 
BRANCH  73  75
ATOM     75  S   UNL A   1      31.274  23.620  26.760  1.00  0.00     0.186 S 
ATOM     76  O   UNL A   1      32.341  23.370  27.714  1.00  0.00    -0.223 OA
ATOM     77  O   UNL A   1      29.902  23.715  27.231  1.00  0.00    -0.223 OA
BRANCH  75  78
ATOM     78  C   UNL A   1      31.341  22.358  25.515  1.00  0.00     0.188 C 
BRANCH  78  79
ATOM     79  C   UNL A   1      32.271  22.631  24.364  1.00  0.00     0.020 A 
ATOM     80  C   UNL A   1      32.069  23.127  23.089  1.00  0.00     0.016 A 
ATOM     81  S   UNL A   1      33.956  22.370  24.644  1.00  0.00    -0.148 S 
ATOM     82  C   UNL A   1      33.282  23.313  22.363  1.00  0.00     0.012 A 
ATOM     83  C   UNL A   1      34.382  22.936  23.094  1.00  0.00     0.065 A 
ENDBRANCH  78  79
ENDBRANCH  75  78
ENDBRANCH  73  75
ENDBRANCH  65  68
ENDBRANCH  63  64
ENDBRANCH   1  63
TORSDOF 13
ENDMDL
MODEL 3
REMARK VINA RESULT:     -11.6      1.095      2.118
REMARK SMILES O=C(NCCCNC(=O)c1ccc(S(=O)(=O)Cc2cccs2)c(F)c1)c1ccc(-c2c3nc(c(-c4c(F)cccc4F)c4ccc([nH]4)c(-c4c(F)cccc4F)c4nc(c(-c5c(F)cccc5F)c5ccc2[nH]5)C=C4)C=C3)cc1
REMARK SMILES IDX 5 1 4 2 3 3 1 4 2 5 26 7 27 8 79 9 28 10 78 11 29 12 30 13
REMARK SMILES IDX 31 14 72 15 32 16 77 17 71 18 73 19 33 20 76 21 70 22 69 23
REMARK SMILES IDX 34 25 60 26 43 27 59 28 44 29 47 30 58 31 74 32 45 33 46 34
REMARK SMILES IDX 57 36 75 37 48 38 35 39 36 40 41 41 37 42 38 43 40 44 42 45
REMARK SMILES IDX 39 46 61 47 62 48 67 49 63 50 64 51 66 52 68 53 65 54 49 55
REMARK SMILES IDX 50 56 55 57 51 58 52 59 54 60 56 61 53 62 6 63 7 64 8 65
REMARK SMILES IDX 9 67 10 68 11 69 25 70 12 71 23 72 13 73 24 74 14 75 15 76
REMARK SMILES IDX 16 77 17 78 18 79 19 80 22 81 20 82 21 83
REMARK H PARENT 3 6 73 24 47 35 7 66
REMARK Flexibility Score: inf
ROOT
ATOM      1  C   UNL A   1      37.431  19.516  24.963  1.00  0.00     0.042 C 
ENDROOT
BRANCH   1   2
ATOM      2  C   UNL A   1      38.689  20.206  25.471  1.00  0.00     0.118 C 
BRANCH   2   3
ATOM      3  N   UNL A   1      39.806  19.282  25.635  1.00  0.00    -0.352 N 
ATOM      4  O   UNL A   1      41.938  18.613  25.888  1.00  0.00    -0.269 OA
ATOM      5  C   UNL A   1      41.106  19.507  26.017  1.00  0.00     0.251 C 
ATOM      6  H   UNL A   1      39.591  18.340  25.440  1.00  0.00     0.163 HD
BRANCH   5   7
ATOM      7  C   UNL A   1      41.511  20.817  26.570  1.00  0.00     0.039 A 
ATOM      8  C   UNL A   1      41.580  21.015  27.947  1.00  0.00     0.014 A 
ATOM      9  C   UNL A   1      41.865  21.854  25.699  1.00  0.00     0.014 A 
ATOM     10  C   UNL A   1      41.827  22.283  28.451  1.00  0.00     0.010 A 
ATOM     11  C   UNL A   1      42.230  23.104  26.213  1.00  0.00     0.010 A 
ATOM     12  C   UNL A   1      42.183  23.338  27.593  1.00  0.00    -0.014 A 
BRANCH  12  13
ATOM     13  C   UNL A   1      42.572  24.638  28.200  1.00  0.00     0.031 A 
ATOM     14  C   UNL A   1      44.011  24.995  28.442  1.00  0.00     0.074 A 
ATOM     15  C   UNL A   1      41.598  25.538  28.448  1.00  0.00     0.049 A 
ATOM     16  N   UNL A   1      44.512  26.129  28.864  1.00  0.00    -0.248 NA
ATOM     17  C   UNL A   1      45.020  23.955  28.185  1.00  0.00     0.031 C 
ATOM     18  C   UNL A   1      40.164  25.294  28.265  1.00  0.00     0.029 A 
ATOM     19  N   UNL A   1      41.660  26.845  28.854  1.00  0.00    -0.354 N 
ATOM     20  C   UNL A   1      45.886  25.937  28.937  1.00  0.00     0.074 A 
ATOM     21  C   UNL A   1      46.142  24.570  28.538  1.00  0.00     0.031 C 
ATOM     22  C   UNL A   1      39.494  26.436  28.464  1.00  0.00     0.029 A 
ATOM     23  C   UNL A   1      40.438  27.474  28.862  1.00  0.00     0.049 A 
ATOM     24  H   UNL A   1      42.498  27.291  29.114  1.00  0.00     0.167 HD
ATOM     25  C   UNL A   1      46.841  26.827  29.294  1.00  0.00     0.037 A 
ATOM     26  C   UNL A   1      40.107  28.744  29.156  1.00  0.00     0.037 A 
ATOM     27  C   UNL A   1      46.582  28.194  29.666  1.00  0.00     0.049 A 
ATOM     28  C   UNL A   1      41.190  29.701  29.555  1.00  0.00     0.074 A 
ATOM     29  C   UNL A   1      47.491  29.174  30.026  1.00  0.00     0.029 A 
ATOM     30  N   UNL A   1      45.325  28.775  29.724  1.00  0.00    -0.354 N 
ATOM     31  N   UNL A   1      42.484  29.504  29.609  1.00  0.00    -0.248 NA
ATOM     32  C   UNL A   1      40.767  31.051  29.950  1.00  0.00     0.031 C 
ATOM     33  C   UNL A   1      46.782  30.338  30.336  1.00  0.00     0.029 A 
ATOM     34  C   UNL A   1      45.433  30.095  30.128  1.00  0.00     0.049 A 
ATOM     35  H   UNL A   1      44.480  28.318  29.508  1.00  0.00     0.167 HD
ATOM     36  C   UNL A   1      43.031  30.704  30.040  1.00  0.00     0.074 A 
ATOM     37  C   UNL A   1      41.931  31.632  30.203  1.00  0.00     0.031 C 
ATOM     38  C   UNL A   1      44.328  31.004  30.289  1.00  0.00     0.037 A 
BRANCH  25  39
ATOM     39  C   UNL A   1      48.270  26.367  29.302  1.00  0.00     0.057 A 
ATOM     40  C   UNL A   1      48.835  25.818  30.461  1.00  0.00     0.134 A 
ATOM     41  C   UNL A   1      49.112  26.564  28.202  1.00  0.00     0.134 A 
ATOM     42  F   UNL A   1      48.084  25.610  31.553  1.00  0.00    -0.206 F 
ATOM     43  C   UNL A   1      50.194  25.504  30.531  1.00  0.00     0.040 A 
ATOM     44  C   UNL A   1      50.468  26.235  28.254  1.00  0.00     0.040 A 
ATOM     45  F   UNL A   1      48.630  27.077  27.060  1.00  0.00    -0.206 F 
ATOM     46  C   UNL A   1      51.015  25.715  29.427  1.00  0.00     0.006 A 
ENDBRANCH  25  39
BRANCH  26  47
ATOM     47  C   UNL A   1      38.690  29.176  29.076  1.00  0.00     0.057 A 
ATOM     48  C   UNL A   1      37.845  29.116  30.191  1.00  0.00     0.134 A 
ATOM     49  C   UNL A   1      38.142  29.642  27.876  1.00  0.00     0.134 A 
ATOM     50  F   UNL A   1      38.307  28.671  31.368  1.00  0.00    -0.206 F 
ATOM     51  C   UNL A   1      36.500  29.481  30.110  1.00  0.00     0.040 A 
ATOM     52  C   UNL A   1      36.807  30.038  27.787  1.00  0.00     0.040 A 
ATOM     53  F   UNL A   1      38.906  29.738  26.778  1.00  0.00    -0.206 F 
ATOM     54  C   UNL A   1      35.980  29.950  28.906  1.00  0.00     0.006 A 
ENDBRANCH  26  47
BRANCH  38  55
ATOM     55  C   UNL A   1      44.627  32.395  30.760  1.00  0.00     0.057 A 
ATOM     56  C   UNL A   1      44.884  33.422  29.845  1.00  0.00     0.134 A 
ATOM     57  C   UNL A   1      44.701  32.705  32.124  1.00  0.00     0.134 A 
ATOM     58  F   UNL A   1      44.837  33.186  28.525  1.00  0.00    -0.206 F 
ATOM     59  C   UNL A   1      45.210  34.710  30.269  1.00  0.00     0.040 A 
ATOM     60  C   UNL A   1      45.003  33.996  32.560  1.00  0.00     0.040 A 
ATOM     61  F   UNL A   1      44.453  31.767  33.049  1.00  0.00    -0.206 F 
ATOM     62  C   UNL A   1      45.265  35.000  31.630  1.00  0.00     0.006 A 
ENDBRANCH  38  55
ENDBRANCH  12  13
ENDBRANCH   5   7
ENDBRANCH   2   3
ENDBRANCH   1   2
BRANCH   1  63
ATOM     63  C   UNL A   1      36.205  20.418  24.984  1.00  0.00     0.118 C 
BRANCH  63  64
ATOM     64  N   UNL A   1      34.974  19.649  25.084  1.00  0.00    -0.352 N 
ATOM     65  C   UNL A   1      33.685  20.111  25.120  1.00  0.00     0.251 C 
ATOM     66  H   UNL A   1      35.081  18.670  25.132  1.00  0.00     0.163 HD
ATOM     67  O   UNL A   1      32.752  19.382  25.440  1.00  0.00    -0.269 OA
BRANCH  65  68
ATOM     68  C   UNL A   1      33.427  21.516  24.777  1.00  0.00     0.042 A 
ATOM     69  C   UNL A   1      33.150  21.866  23.450  1.00  0.00     0.015 A 
ATOM     70  C   UNL A   1      33.451  22.480  25.785  1.00  0.00     0.054 A 
ATOM     71  C   UNL A   1      32.937  23.202  23.123  1.00  0.00     0.024 A 
ATOM     72  C   UNL A   1      33.245  23.813  25.448  1.00  0.00     0.142 A 
ATOM     73  C   UNL A   1      32.983  24.174  24.130  1.00  0.00     0.103 A 
ATOM     74  F   UNL A   1      33.293  24.727  26.423  1.00  0.00    -0.206 F 
BRANCH  73  75
ATOM     75  S   UNL A   1      32.654  25.853  23.697  1.00  0.00     0.186 S 
ATOM     76  O   UNL A   1      33.813  26.593  24.166  1.00  0.00    -0.223 OA
ATOM     77  O   UNL A   1      32.329  25.855  22.281  1.00  0.00    -0.223 OA
BRANCH  75  78
ATOM     78  C   UNL A   1      31.233  26.433  24.588  1.00  0.00     0.188 C 
BRANCH  78  79
ATOM     79  C   UNL A   1      31.472  27.605  25.500  1.00  0.00     0.020 A 
ATOM     80  C   UNL A   1      31.792  27.702  26.842  1.00  0.00     0.016 A 
ATOM     81  S   UNL A   1      31.432  29.175  24.779  1.00  0.00    -0.148 S 
ATOM     82  C   UNL A   1      32.026  29.045  27.265  1.00  0.00     0.012 A 
ATOM     83  C   UNL A   1      31.859  29.943  26.239  1.00  0.00     0.065 A 
ENDBRANCH  78  79
ENDBRANCH  75  78
ENDBRANCH  73  75
ENDBRANCH  65  68
ENDBRANCH  63  64
ENDBRANCH   1  63
TORSDOF 13
ENDMDL
