MODEL 1
REMARK VINA RESULT:     -11.3      0.000      0.000
REMARK SMILES [NH3+]CCOCC(=O)Nc1ccc(C(=O)NCCCNC(=O)c2ccc(-c3c4nc(c(-c5c(F)cccc5F)c5ccc([nH]5)c(-c5c(F)cccc5F)c5nc(c(-c6c(F)cccc6F)c6ccc3[nH]6)C=C5)C=C4)cc2)c(Cl)c1
REMARK SMILES IDX 13 1 14 2 15 3 12 5 9 6 10 7 78 8 11 9 76 10 77 11 8 12 6 13
REMARK SMILES IDX 7 14 5 16 4 17 3 18 2 19 1 20 16 24 17 25 18 26 19 27 20 28
REMARK SMILES IDX 21 30 22 31 23 32 75 33 24 34 74 35 25 36 26 37 27 38 68 39
REMARK SMILES IDX 28 40 73 41 67 42 69 43 29 44 72 45 66 46 65 47 30 49 56 50
REMARK SMILES IDX 39 51 55 52 40 53 43 54 54 55 70 56 41 57 42 58 53 60 71 61
REMARK SMILES IDX 44 62 31 63 32 64 37 65 33 66 34 67 36 68 38 69 35 70 57 71
REMARK SMILES IDX 58 72 63 73 59 74 60 75 62 76 64 77 61 78 45 79 46 80 51 81
REMARK SMILES IDX 47 82 48 83 50 84 52 85 49 86
REMARK H PARENT 15 4 8 15 1 21 1 22 1 23 19 29 69 48 43 59
REMARK Flexibility Score: inf
ROOT
ATOM      1  C   UNL A   1      32.299  29.061  24.618  1.00  0.00     0.252 C 
ATOM      2  O   UNL A   1      33.080  29.050  23.662  1.00  0.00    -0.269 OA
ATOM      3  N   UNL A   1      32.066  30.279  25.188  1.00  0.00    -0.352 N 
ATOM      4  H   UNL A   1      32.417  31.036  24.667  1.00  0.00     0.163 HD
ENDROOT
BRANCH   1   5
ATOM      5  C   UNL A   1      31.589  27.799  24.963  1.00  0.00     0.058 A 
ATOM      6  C   UNL A   1      30.373  25.519  26.103  1.00  0.00     0.042 A 
ATOM      7  C   UNL A   1      31.471  26.099  26.720  1.00  0.00     0.027 A 
ATOM      8  C   UNL A   1      29.936  26.009  24.883  1.00  0.00     0.047 A 
ATOM      9  C   UNL A   1      32.086  27.209  26.143  1.00  0.00     0.017 A 
ATOM     10  C   UNL A   1      30.475  27.195  24.362  1.00  0.00     0.055 A 
ATOM     11  Cl  UNL A   1      29.486  27.875  23.130  1.00  0.00    -0.083 Cl
BRANCH   6  12
ATOM     12  N   UNL A   1      29.624  24.500  26.694  1.00  0.00    -0.324 N 
ATOM     13  C   UNL A   1      29.956  23.172  26.766  1.00  0.00     0.250 C 
ATOM     14  O   UNL A   1      29.175  22.388  27.311  1.00  0.00    -0.272 OA
ATOM     15  H   UNL A   1      28.766  24.763  27.100  1.00  0.00     0.170 HD
BRANCH  13  16
ATOM     16  C   UNL A   1      31.325  22.691  26.241  1.00  0.00     0.260 C 
BRANCH  16  17
ATOM     17  O   UNL A   1      31.402  21.576  25.375  1.00  0.00    -0.366 OA
BRANCH  17  18
ATOM     18  C   UNL A   1      32.688  20.970  25.258  1.00  0.00     0.222 C 
BRANCH  18  19
ATOM     19  C   UNL A   1      32.659  19.438  25.219  1.00  0.00     0.287 C 
BRANCH  19  20
ATOM     20  N   UNL A   1      32.903  18.776  26.499  1.00  0.00    -0.356 N 
ATOM     21  H   UNL A   1      33.861  18.960  26.800  1.00  0.00     0.344 HD
ATOM     22  H   UNL A   1      32.767  17.771  26.394  1.00  0.00     0.344 HD
ATOM     23  H   UNL A   1      32.254  19.136  27.198  1.00  0.00     0.344 HD
ENDBRANCH  19  20
ENDBRANCH  18  19
ENDBRANCH  17  18
ENDBRANCH  16  17
ENDBRANCH  13  16
ENDBRANCH   6  12
ENDBRANCH   1   5
BRANCH   3  24
ATOM     24  C   UNL A   1      31.404  30.669  26.411  1.00  0.00     0.118 C 
BRANCH  24  25
ATOM     25  C   UNL A   1      31.403  32.193  26.509  1.00  0.00     0.042 C 
BRANCH  25  26
ATOM     26  C   UNL A   1      32.608  32.745  27.243  1.00  0.00     0.118 C 
BRANCH  26  27
ATOM     27  N   UNL A   1      32.437  34.158  27.544  1.00  0.00    -0.352 N 
ATOM     28  C   UNL A   1      33.002  34.891  28.555  1.00  0.00     0.251 C 
ATOM     29  H   UNL A   1      31.835  34.653  26.942  1.00  0.00     0.163 HD
ATOM     30  O   UNL A   1      32.532  35.986  28.862  1.00  0.00    -0.269 OA
BRANCH  28  31
ATOM     31  C   UNL A   1      34.176  34.357  29.275  1.00  0.00     0.039 A 
ATOM     32  C   UNL A   1      33.994  33.648  30.464  1.00  0.00     0.014 A 
ATOM     33  C   UNL A   1      35.462  34.567  28.771  1.00  0.00     0.014 A 
ATOM     34  C   UNL A   1      35.101  33.106  31.121  1.00  0.00     0.010 A 
ATOM     35  C   UNL A   1      36.548  33.943  29.367  1.00  0.00     0.010 A 
ATOM     36  C   UNL A   1      36.383  33.226  30.561  1.00  0.00    -0.014 A 
BRANCH  36  37
ATOM     37  C   UNL A   1      37.590  32.674  31.221  1.00  0.00     0.031 A 
ATOM     38  C   UNL A   1      38.277  31.483  30.607  1.00  0.00     0.074 A 
ATOM     39  C   UNL A   1      38.013  33.179  32.396  1.00  0.00     0.049 A 
ATOM     40  N   UNL A   1      39.230  30.733  31.096  1.00  0.00    -0.248 NA
ATOM     41  C   UNL A   1      37.799  31.058  29.279  1.00  0.00     0.031 C 
ATOM     42  C   UNL A   1      37.416  34.316  33.099  1.00  0.00     0.029 A 
ATOM     43  N   UNL A   1      39.038  32.782  33.217  1.00  0.00    -0.354 N 
ATOM     44  C   UNL A   1      39.451  29.743  30.145  1.00  0.00     0.074 A 
ATOM     45  C   UNL A   1      38.488  29.945  29.086  1.00  0.00     0.031 C 
ATOM     46  C   UNL A   1      38.095  34.536  34.236  1.00  0.00     0.029 A 
ATOM     47  C   UNL A   1      39.140  33.526  34.369  1.00  0.00     0.049 A 
ATOM     48  H   UNL A   1      39.643  32.036  33.002  1.00  0.00     0.167 HD
ATOM     49  C   UNL A   1      40.393  28.772  30.141  1.00  0.00     0.037 A 
ATOM     50  C   UNL A   1      39.972  33.389  35.420  1.00  0.00     0.037 A 
ATOM     51  C   UNL A   1      41.364  28.594  31.185  1.00  0.00     0.049 A 
ATOM     52  C   UNL A   1      40.982  32.271  35.407  1.00  0.00     0.074 A 
ATOM     53  C   UNL A   1      42.374  27.653  31.273  1.00  0.00     0.029 A 
ATOM     54  N   UNL A   1      41.448  29.383  32.321  1.00  0.00    -0.354 N 
ATOM     55  N   UNL A   1      41.202  31.363  34.489  1.00  0.00    -0.248 NA
ATOM     56  C   UNL A   1      41.862  32.162  36.580  1.00  0.00     0.031 C 
ATOM     57  C   UNL A   1      43.049  27.851  32.479  1.00  0.00     0.029 A 
ATOM     58  C   UNL A   1      42.494  28.949  33.117  1.00  0.00     0.049 A 
ATOM     59  H   UNL A   1      40.855  30.141  32.531  1.00  0.00     0.167 HD
ATOM     60  C   UNL A   1      42.277  30.610  34.947  1.00  0.00     0.074 A 
ATOM     61  C   UNL A   1      42.664  31.170  36.225  1.00  0.00     0.031 C 
ATOM     62  C   UNL A   1      42.890  29.553  34.363  1.00  0.00     0.037 A 
BRANCH  49  63
ATOM     63  C   UNL A   1      40.432  27.847  28.959  1.00  0.00     0.057 A 
ATOM     64  C   UNL A   1      39.662  26.676  28.918  1.00  0.00     0.134 A 
ATOM     65  C   UNL A   1      41.211  28.146  27.835  1.00  0.00     0.134 A 
ATOM     66  F   UNL A   1      38.904  26.324  29.968  1.00  0.00    -0.206 F 
ATOM     67  C   UNL A   1      39.682  25.826  27.812  1.00  0.00     0.040 A 
ATOM     68  C   UNL A   1      41.216  27.319  26.710  1.00  0.00     0.040 A 
ATOM     69  F   UNL A   1      41.969  29.252  27.805  1.00  0.00    -0.206 F 
ATOM     70  C   UNL A   1      40.454  26.153  26.700  1.00  0.00     0.006 A 
ENDBRANCH  49  63
BRANCH  50  71
ATOM     71  C   UNL A   1      39.905  34.330  36.568  1.00  0.00     0.057 A 
ATOM     72  C   UNL A   1      39.094  34.055  37.677  1.00  0.00     0.134 A 
ATOM     73  C   UNL A   1      40.601  35.545  36.568  1.00  0.00     0.134 A 
ATOM     74  F   UNL A   1      38.389  32.915  37.730  1.00  0.00    -0.206 F 
ATOM     75  C   UNL A   1      38.944  34.969  38.721  1.00  0.00     0.040 A 
ATOM     76  C   UNL A   1      40.485  36.455  37.622  1.00  0.00     0.040 A 
ATOM     77  F   UNL A   1      41.404  35.867  35.544  1.00  0.00    -0.206 F 
ATOM     78  C   UNL A   1      39.642  36.174  38.695  1.00  0.00     0.006 A 
ENDBRANCH  50  71
BRANCH  62  79
ATOM     79  C   UNL A   1      44.096  28.984  35.050  1.00  0.00     0.057 A 
ATOM     80  C   UNL A   1      44.002  27.946  35.985  1.00  0.00     0.134 A 
ATOM     81  C   UNL A   1      45.377  29.443  34.716  1.00  0.00     0.134 A 
ATOM     82  F   UNL A   1      42.804  27.470  36.356  1.00  0.00    -0.206 F 
ATOM     83  C   UNL A   1      45.141  27.397  36.576  1.00  0.00     0.040 A 
ATOM     84  C   UNL A   1      46.523  28.881  35.278  1.00  0.00     0.040 A 
ATOM     85  F   UNL A   1      45.535  30.428  33.819  1.00  0.00    -0.206 F 
ATOM     86  C   UNL A   1      46.405  27.857  36.215  1.00  0.00     0.006 A 
ENDBRANCH  62  79
ENDBRANCH  36  37
ENDBRANCH  28  31
ENDBRANCH  26  27
ENDBRANCH  25  26
ENDBRANCH  24  25
ENDBRANCH   3  24
TORSDOF 16
ENDMDL
MODEL 2
REMARK VINA RESULT:     -11.1      5.385     10.675
REMARK SMILES [NH3+]CCOCC(=O)Nc1ccc(C(=O)NCCCNC(=O)c2ccc(-c3c4nc(c(-c5c(F)cccc5F)c5ccc([nH]5)c(-c5c(F)cccc5F)c5nc(c(-c6c(F)cccc6F)c6ccc3[nH]6)C=C5)C=C4)cc2)c(Cl)c1
REMARK SMILES IDX 13 1 14 2 15 3 12 5 9 6 10 7 78 8 11 9 76 10 77 11 8 12 6 13
REMARK SMILES IDX 7 14 5 16 4 17 3 18 2 19 1 20 16 24 17 25 18 26 19 27 20 28
REMARK SMILES IDX 21 30 22 31 23 32 75 33 24 34 74 35 25 36 26 37 27 38 68 39
REMARK SMILES IDX 28 40 73 41 67 42 69 43 29 44 72 45 66 46 65 47 30 49 56 50
REMARK SMILES IDX 39 51 55 52 40 53 43 54 54 55 70 56 41 57 42 58 53 60 71 61
REMARK SMILES IDX 44 62 31 63 32 64 37 65 33 66 34 67 36 68 38 69 35 70 57 71
REMARK SMILES IDX 58 72 63 73 59 74 60 75 62 76 64 77 61 78 45 79 46 80 51 81
REMARK SMILES IDX 47 82 48 83 50 84 52 85 49 86
REMARK H PARENT 15 4 8 15 1 21 1 22 1 23 19 29 69 48 43 59
REMARK Flexibility Score: inf
ROOT
ATOM      1  C   UNL A   1      34.481  20.904  25.215  1.00  0.00     0.252 C 
ATOM      2  O   UNL A   1      33.627  20.492  26.005  1.00  0.00    -0.269 OA
ATOM      3  N   UNL A   1      35.666  20.227  25.202  1.00  0.00    -0.352 N 
ATOM      4  H   UNL A   1      35.645  19.382  25.705  1.00  0.00     0.163 HD
ENDROOT
BRANCH   1   5
ATOM      5  C   UNL A   1      34.099  21.988  24.269  1.00  0.00     0.058 A 
ATOM      6  C   UNL A   1      32.892  23.875  22.547  1.00  0.00     0.042 A 
ATOM      7  C   UNL A   1      32.301  22.635  22.739  1.00  0.00     0.027 A 
ATOM      8  C   UNL A   1      34.119  24.145  23.131  1.00  0.00     0.047 A 
ATOM      9  C   UNL A   1      32.910  21.696  23.569  1.00  0.00     0.017 A 
ATOM     10  C   UNL A   1      34.674  23.250  24.059  1.00  0.00     0.055 A 
ATOM     11  Cl  UNL A   1      35.911  23.978  25.007  1.00  0.00    -0.083 Cl
BRANCH   6  12
ATOM     12  N   UNL A   1      32.270  24.911  21.848  1.00  0.00    -0.324 N 
ATOM     13  C   UNL A   1      31.495  25.910  22.378  1.00  0.00     0.250 C 
ATOM     14  O   UNL A   1      31.000  26.749  21.621  1.00  0.00    -0.272 OA
ATOM     15  H   UNL A   1      32.402  24.925  20.872  1.00  0.00     0.170 HD
BRANCH  13  16
ATOM     16  C   UNL A   1      31.318  26.019  23.907  1.00  0.00     0.260 C 
BRANCH  16  17
ATOM     17  O   UNL A   1      31.736  27.184  24.589  1.00  0.00    -0.366 OA
BRANCH  17  18
ATOM     18  C   UNL A   1      33.108  27.539  24.424  1.00  0.00     0.222 C 
BRANCH  18  19
ATOM     19  C   UNL A   1      33.331  28.825  23.619  1.00  0.00     0.287 C 
BRANCH  19  20
ATOM     20  N   UNL A   1      32.157  29.328  22.907  1.00  0.00    -0.356 N 
ATOM     21  H   UNL A   1      31.939  30.269  23.235  1.00  0.00     0.344 HD
ATOM     22  H   UNL A   1      31.363  28.714  23.084  1.00  0.00     0.344 HD
ATOM     23  H   UNL A   1      32.352  29.353  21.907  1.00  0.00     0.344 HD
ENDBRANCH  19  20
ENDBRANCH  18  19
ENDBRANCH  17  18
ENDBRANCH  16  17
ENDBRANCH  13  16
ENDBRANCH   6  12
ENDBRANCH   1   5
BRANCH   3  24
ATOM     24  C   UNL A   1      36.943  20.514  24.593  1.00  0.00     0.118 C 
BRANCH  24  25
ATOM     25  C   UNL A   1      37.949  19.452  25.030  1.00  0.00     0.042 C 
BRANCH  25  26
ATOM     26  C   UNL A   1      39.114  20.018  25.816  1.00  0.00     0.118 C 
BRANCH  26  27
ATOM     27  N   UNL A   1      40.206  19.061  25.898  1.00  0.00    -0.352 N 
ATOM     28  C   UNL A   1      41.551  19.307  26.003  1.00  0.00     0.251 C 
ATOM     29  H   UNL A   1      39.946  18.112  25.874  1.00  0.00     0.163 HD
ATOM     30  O   UNL A   1      42.363  18.416  25.757  1.00  0.00    -0.269 OA
BRANCH  28  31
ATOM     31  C   UNL A   1      42.019  20.648  26.410  1.00  0.00     0.039 A 
ATOM     32  C   UNL A   1      42.174  20.943  27.766  1.00  0.00     0.014 A 
ATOM     33  C   UNL A   1      42.298  21.616  25.442  1.00  0.00     0.014 A 
ATOM     34  C   UNL A   1      42.658  22.196  28.148  1.00  0.00     0.010 A 
ATOM     35  C   UNL A   1      42.874  22.821  25.817  1.00  0.00     0.010 A 
ATOM     36  C   UNL A   1      43.038  23.133  27.174  1.00  0.00    -0.014 A 
BRANCH  36  37
ATOM     37  C   UNL A   1      43.551  24.479  27.527  1.00  0.00     0.031 A 
ATOM     38  C   UNL A   1      42.573  25.546  27.943  1.00  0.00     0.074 A 
ATOM     39  C   UNL A   1      44.861  24.763  27.395  1.00  0.00     0.049 A 
ATOM     40  N   UNL A   1      42.770  26.827  28.124  1.00  0.00    -0.248 NA
ATOM     41  C   UNL A   1      41.177  25.120  28.146  1.00  0.00     0.031 C 
ATOM     42  C   UNL A   1      45.899  23.819  26.979  1.00  0.00     0.029 A 
ATOM     43  N   UNL A   1      45.538  25.942  27.579  1.00  0.00    -0.354 N 
ATOM     44  C   UNL A   1      41.525  27.355  28.444  1.00  0.00     0.074 A 
ATOM     45  C   UNL A   1      40.569  26.275  28.364  1.00  0.00     0.031 C 
ATOM     46  C   UNL A   1      47.084  24.451  26.957  1.00  0.00     0.029 A 
ATOM     47  C   UNL A   1      46.883  25.853  27.305  1.00  0.00     0.049 A 
ATOM     48  H   UNL A   1      45.104  26.772  27.880  1.00  0.00     0.167 HD
ATOM     49  C   UNL A   1      41.213  28.622  28.803  1.00  0.00     0.037 A 
ATOM     50  C   UNL A   1      47.835  26.805  27.314  1.00  0.00     0.037 A 
ATOM     51  C   UNL A   1      42.175  29.685  28.905  1.00  0.00     0.049 A 
ATOM     52  C   UNL A   1      47.450  28.216  27.674  1.00  0.00     0.074 A 
ATOM     53  C   UNL A   1      41.969  31.002  29.277  1.00  0.00     0.029 A 
ATOM     54  N   UNL A   1      43.528  29.547  28.642  1.00  0.00    -0.354 N 
ATOM     55  N   UNL A   1      46.276  28.697  28.006  1.00  0.00    -0.248 NA
ATOM     56  C   UNL A   1      48.525  29.219  27.664  1.00  0.00     0.031 C 
ATOM     57  C   UNL A   1      43.193  31.669  29.206  1.00  0.00     0.029 A 
ATOM     58  C   UNL A   1      44.171  30.757  28.843  1.00  0.00     0.049 A 
ATOM     59  H   UNL A   1      43.968  28.713  28.357  1.00  0.00     0.167 HD
ATOM     60  C   UNL A   1      46.482  30.040  28.295  1.00  0.00     0.074 A 
ATOM     61  C   UNL A   1      47.893  30.298  28.100  1.00  0.00     0.031 C 
ATOM     62  C   UNL A   1      45.585  30.977  28.687  1.00  0.00     0.037 A 
BRANCH  49  63
ATOM     63  C   UNL A   1      39.779  28.917  29.134  1.00  0.00     0.057 A 
ATOM     64  C   UNL A   1      38.862  29.302  28.146  1.00  0.00     0.134 A 
ATOM     65  C   UNL A   1      39.297  28.775  30.440  1.00  0.00     0.134 A 
ATOM     66  F   UNL A   1      39.261  29.471  26.876  1.00  0.00    -0.206 F 
ATOM     67  C   UNL A   1      37.524  29.557  28.449  1.00  0.00     0.040 A 
ATOM     68  C   UNL A   1      37.954  28.997  30.751  1.00  0.00     0.040 A 
ATOM     69  F   UNL A   1      40.118  28.404  31.434  1.00  0.00    -0.206 F 
ATOM     70  C   UNL A   1      37.065  29.394  29.754  1.00  0.00     0.006 A 
ENDBRANCH  49  63
BRANCH  50  71
ATOM     71  C   UNL A   1      49.245  26.472  26.985  1.00  0.00     0.057 A 
ATOM     72  C   UNL A   1      49.708  26.526  25.664  1.00  0.00     0.134 A 
ATOM     73  C   UNL A   1      50.149  26.041  27.965  1.00  0.00     0.134 A 
ATOM     74  F   UNL A   1      48.887  26.915  24.677  1.00  0.00    -0.206 F 
ATOM     75  C   UNL A   1      51.000  26.124  25.322  1.00  0.00     0.040 A 
ATOM     76  C   UNL A   1      51.455  25.667  27.641  1.00  0.00     0.040 A 
ATOM     77  F   UNL A   1      49.775  25.975  29.250  1.00  0.00    -0.206 F 
ATOM     78  C   UNL A   1      51.879  25.694  26.314  1.00  0.00     0.006 A 
ENDBRANCH  50  71
BRANCH  62  79
ATOM     79  C   UNL A   1      46.109  32.343  29.018  1.00  0.00     0.057 A 
ATOM     80  C   UNL A   1      46.560  32.678  30.300  1.00  0.00     0.134 A 
ATOM     81  C   UNL A   1      46.222  33.315  28.015  1.00  0.00     0.134 A 
ATOM     82  F   UNL A   1      46.468  31.797  31.307  1.00  0.00    -0.206 F 
ATOM     83  C   UNL A   1      47.089  33.940  30.576  1.00  0.00     0.040 A 
ATOM     84  C   UNL A   1      46.777  34.568  28.272  1.00  0.00     0.040 A 
ATOM     85  F   UNL A   1      45.817  33.052  26.763  1.00  0.00    -0.206 F 
ATOM     86  C   UNL A   1      47.208  34.885  29.558  1.00  0.00     0.006 A 
ENDBRANCH  62  79
ENDBRANCH  36  37
ENDBRANCH  28  31
ENDBRANCH  26  27
ENDBRANCH  25  26
ENDBRANCH  24  25
ENDBRANCH   3  24
TORSDOF 16
ENDMDL
MODEL 3
REMARK VINA RESULT:     -11.0      5.549     10.854
REMARK SMILES [NH3+]CCOCC(=O)Nc1ccc(C(=O)NCCCNC(=O)c2ccc(-c3c4nc(c(-c5c(F)cccc5F)c5ccc([nH]5)c(-c5c(F)cccc5F)c5nc(c(-c6c(F)cccc6F)c6ccc3[nH]6)C=C5)C=C4)cc2)c(Cl)c1
REMARK SMILES IDX 13 1 14 2 15 3 12 5 9 6 10 7 78 8 11 9 76 10 77 11 8 12 6 13
REMARK SMILES IDX 7 14 5 16 4 17 3 18 2 19 1 20 16 24 17 25 18 26 19 27 20 28
REMARK SMILES IDX 21 30 22 31 23 32 75 33 24 34 74 35 25 36 26 37 27 38 68 39
REMARK SMILES IDX 28 40 73 41 67 42 69 43 29 44 72 45 66 46 65 47 30 49 56 50
REMARK SMILES IDX 39 51 55 52 40 53 43 54 54 55 70 56 41 57 42 58 53 60 71 61
REMARK SMILES IDX 44 62 31 63 32 64 37 65 33 66 34 67 36 68 38 69 35 70 57 71
REMARK SMILES IDX 58 72 63 73 59 74 60 75 62 76 64 77 61 78 45 79 46 80 51 81
REMARK SMILES IDX 47 82 48 83 50 84 52 85 49 86
REMARK H PARENT 15 4 8 15 1 21 1 22 1 23 19 29 69 48 43 59
REMARK Flexibility Score: inf
ROOT
ATOM      1  C   UNL A   1      35.079  21.565  25.953  1.00  0.00     0.252 C 
ATOM      2  O   UNL A   1      34.621  21.566  27.099  1.00  0.00    -0.269 OA
ATOM      3  N   UNL A   1      36.194  20.803  25.753  1.00  0.00    -0.352 N 
ATOM      4  H   UNL A   1      36.409  20.208  26.507  1.00  0.00     0.163 HD
ENDROOT
BRANCH   1   5
ATOM      5  C   UNL A   1      34.310  22.262  24.886  1.00  0.00     0.058 A 
ATOM      6  C   UNL A   1      33.299  23.823  22.760  1.00  0.00     0.042 A 
ATOM      7  C   UNL A   1      34.363  24.290  23.516  1.00  0.00     0.027 A 
ATOM      8  C   UNL A   1      32.681  22.633  23.110  1.00  0.00     0.047 A 
ATOM      9  C   UNL A   1      34.845  23.531  24.581  1.00  0.00     0.017 A 
ATOM     10  C   UNL A   1      33.238  21.811  24.103  1.00  0.00     0.055 A 
ATOM     11  Cl  UNL A   1      32.623  20.206  24.042  1.00  0.00    -0.083 Cl
BRANCH   6  12
ATOM     12  N   UNL A   1      32.859  24.458  21.597  1.00  0.00    -0.324 N 
ATOM     13  C   UNL A   1      31.993  25.518  21.518  1.00  0.00     0.250 C 
ATOM     14  O   UNL A   1      31.688  25.960  20.407  1.00  0.00    -0.272 OA
ATOM     15  H   UNL A   1      33.207  24.107  20.745  1.00  0.00     0.170 HD
BRANCH  13  16
ATOM     16  C   UNL A   1      31.479  26.191  22.808  1.00  0.00     0.260 C 
BRANCH  16  17
ATOM     17  O   UNL A   1      31.874  27.510  23.127  1.00  0.00    -0.366 OA
BRANCH  17  18
ATOM     18  C   UNL A   1      30.825  28.390  23.527  1.00  0.00     0.222 C 
BRANCH  18  19
ATOM     19  C   UNL A   1      30.019  28.975  22.362  1.00  0.00     0.287 C 
BRANCH  19  20
ATOM     20  N   UNL A   1      30.680  30.050  21.622  1.00  0.00    -0.356 N 
ATOM     21  H   UNL A   1      31.680  29.860  21.569  1.00  0.00     0.344 HD
ATOM     22  H   UNL A   1      30.526  30.936  22.102  1.00  0.00     0.344 HD
ATOM     23  H   UNL A   1      30.293  30.102  20.680  1.00  0.00     0.344 HD
ENDBRANCH  19  20
ENDBRANCH  18  19
ENDBRANCH  17  18
ENDBRANCH  16  17
ENDBRANCH  13  16
ENDBRANCH   6  12
ENDBRANCH   1   5
BRANCH   3  24
ATOM     24  C   UNL A   1      37.119  20.705  24.648  1.00  0.00     0.118 C 
BRANCH  24  25
ATOM     25  C   UNL A   1      38.126  19.596  24.943  1.00  0.00     0.042 C 
BRANCH  25  26
ATOM     26  C   UNL A   1      39.230  20.025  25.888  1.00  0.00     0.118 C 
BRANCH  26  27
ATOM     27  N   UNL A   1      40.254  18.998  25.999  1.00  0.00    -0.352 N 
ATOM     28  C   UNL A   1      41.615  19.151  26.052  1.00  0.00     0.251 C 
ATOM     29  H   UNL A   1      39.926  18.070  26.041  1.00  0.00     0.163 HD
ATOM     30  O   UNL A   1      42.354  18.190  25.839  1.00  0.00    -0.269 OA
BRANCH  28  31
ATOM     31  C   UNL A   1      42.189  20.477  26.362  1.00  0.00     0.039 A 
ATOM     32  C   UNL A   1      42.646  21.292  25.325  1.00  0.00     0.014 A 
ATOM     33  C   UNL A   1      42.278  20.908  27.688  1.00  0.00     0.014 A 
ATOM     34  C   UNL A   1      43.148  22.562  25.616  1.00  0.00     0.010 A 
ATOM     35  C   UNL A   1      42.679  22.207  27.967  1.00  0.00     0.010 A 
ATOM     36  C   UNL A   1      43.141  23.039  26.936  1.00  0.00    -0.014 A 
BRANCH  36  37
ATOM     37  C   UNL A   1      43.668  24.377  27.298  1.00  0.00     0.031 A 
ATOM     38  C   UNL A   1      42.705  25.438  27.761  1.00  0.00     0.074 A 
ATOM     39  C   UNL A   1      44.974  24.661  27.133  1.00  0.00     0.049 A 
ATOM     40  N   UNL A   1      42.910  26.715  27.958  1.00  0.00    -0.248 NA
ATOM     41  C   UNL A   1      41.315  25.011  27.996  1.00  0.00     0.031 C 
ATOM     42  C   UNL A   1      45.997  23.722  26.671  1.00  0.00     0.029 A 
ATOM     43  N   UNL A   1      45.659  25.834  27.319  1.00  0.00    -0.354 N 
ATOM     44  C   UNL A   1      41.677  27.240  28.323  1.00  0.00     0.074 A 
ATOM     45  C   UNL A   1      40.716  26.163  28.252  1.00  0.00     0.031 C 
ATOM     46  C   UNL A   1      47.183  24.352  26.626  1.00  0.00     0.029 A 
ATOM     47  C   UNL A   1      46.995  25.748  27.004  1.00  0.00     0.049 A 
ATOM     48  H   UNL A   1      45.236  26.660  27.647  1.00  0.00     0.167 HD
ATOM     49  C   UNL A   1      41.378  28.501  28.714  1.00  0.00     0.037 A 
ATOM     50  C   UNL A   1      47.949  26.698  27.003  1.00  0.00     0.037 A 
ATOM     51  C   UNL A   1      42.344  29.560  28.807  1.00  0.00     0.049 A 
ATOM     52  C   UNL A   1      47.578  28.103  27.399  1.00  0.00     0.074 A 
ATOM     53  C   UNL A   1      42.152  30.870  29.208  1.00  0.00     0.029 A 
ATOM     54  N   UNL A   1      43.690  29.424  28.503  1.00  0.00    -0.354 N 
ATOM     55  N   UNL A   1      46.416  28.580  27.773  1.00  0.00    -0.248 NA
ATOM     56  C   UNL A   1      48.655  29.104  27.376  1.00  0.00     0.031 C 
ATOM     57  C   UNL A   1      43.376  31.537  29.114  1.00  0.00     0.029 A 
ATOM     58  C   UNL A   1      44.340  30.629  28.706  1.00  0.00     0.049 A 
ATOM     59  H   UNL A   1      44.119  28.595  28.191  1.00  0.00     0.167 HD
ATOM     60  C   UNL A   1      46.633  29.918  28.079  1.00  0.00     0.074 A 
ATOM     61  C   UNL A   1      48.039  30.176  27.848  1.00  0.00     0.031 C 
ATOM     62  C   UNL A   1      45.750  30.849  28.514  1.00  0.00     0.037 A 
BRANCH  49  63
ATOM     63  C   UNL A   1      39.955  28.792  29.091  1.00  0.00     0.057 A 
ATOM     64  C   UNL A   1      39.512  28.695  30.417  1.00  0.00     0.134 A 
ATOM     65  C   UNL A   1      39.027  29.215  28.132  1.00  0.00     0.134 A 
ATOM     66  F   UNL A   1      40.346  28.282  31.384  1.00  0.00    -0.206 F 
ATOM     67  C   UNL A   1      38.194  28.985  30.773  1.00  0.00     0.040 A 
ATOM     68  C   UNL A   1      37.714  29.538  28.479  1.00  0.00     0.040 A 
ATOM     69  F   UNL A   1      39.383  29.335  26.844  1.00  0.00    -0.206 F 
ATOM     70  C   UNL A   1      37.294  29.418  29.802  1.00  0.00     0.006 A 
ENDBRANCH  49  63
BRANCH  50  71
ATOM     71  C   UNL A   1      49.349  26.368  26.628  1.00  0.00     0.057 A 
ATOM     72  C   UNL A   1      50.242  25.844  27.572  1.00  0.00     0.134 A 
ATOM     73  C   UNL A   1      49.846  26.615  25.342  1.00  0.00     0.134 A 
ATOM     74  F   UNL A   1      49.832  25.601  28.825  1.00  0.00    -0.206 F 
ATOM     75  C   UNL A   1      51.585  25.618  27.265  1.00  0.00     0.040 A 
ATOM     76  C   UNL A   1      51.180  26.362  25.013  1.00  0.00     0.040 A 
ATOM     77  F   UNL A   1      49.044  27.105  24.387  1.00  0.00    -0.206 F 
ATOM     78  C   UNL A   1      52.057  25.876  25.980  1.00  0.00     0.006 A 
ENDBRANCH  50  71
BRANCH  62  79
ATOM     79  C   UNL A   1      46.287  32.208  28.854  1.00  0.00     0.057 A 
ATOM     80  C   UNL A   1      46.319  33.252  27.922  1.00  0.00     0.134 A 
ATOM     81  C   UNL A   1      46.715  32.488  30.159  1.00  0.00     0.134 A 
ATOM     82  F   UNL A   1      45.934  33.045  26.654  1.00  0.00    -0.206 F 
ATOM     83  C   UNL A   1      46.776  34.524  28.272  1.00  0.00     0.040 A 
ATOM     84  C   UNL A   1      47.144  33.763  30.528  1.00  0.00     0.040 A 
ATOM     85  F   UNL A   1      46.698  31.534  31.101  1.00  0.00    -0.206 F 
ATOM     86  C   UNL A   1      47.180  34.784  29.580  1.00  0.00     0.006 A 
ENDBRANCH  62  79
ENDBRANCH  36  37
ENDBRANCH  28  31
ENDBRANCH  26  27
ENDBRANCH  25  26
ENDBRANCH  24  25
ENDBRANCH   3  24
TORSDOF 16
ENDMDL
