MODEL 1
REMARK VINA RESULT:     -13.4      0.000      0.000
REMARK SMILES O=C(Nc1cccc(C(=O)NCCCNC(=O)c2ccc(-c3c4nc(c(-c5c(F)cccc5F)c5ccc([nH]5)c(-c5c(F)cccc5F)c5nc(c(-c6c(F)cccc6F)c6ccc3[nH]6)C=C5)C=C4)cc2)c1)Nc1cc(Cl)c(Cl)cc1Cl
REMARK SMILES IDX 13 1 12 2 11 3 9 4 10 5 8 7 4 8 5 9 72 10 6 11 7 12 3 13
REMARK SMILES IDX 1 14 2 15 73 16 74 19 75 20 81 21 76 22 80 23 82 24 77 25
REMARK SMILES IDX 78 26 79 27 14 28 15 29 16 30 17 32 18 33 19 34 71 35 20 36
REMARK SMILES IDX 70 37 21 38 22 39 23 40 64 41 24 42 69 43 63 44 65 45 25 46
REMARK SMILES IDX 68 47 62 48 61 49 26 51 52 52 35 53 51 54 36 55 39 56 50 57
REMARK SMILES IDX 66 58 37 59 38 60 49 62 67 63 40 64 27 65 28 66 33 67 29 68
REMARK SMILES IDX 30 69 32 70 34 71 31 72 53 73 54 74 59 75 55 76 56 77 58 78
REMARK SMILES IDX 60 79 57 80 41 81 42 82 47 83 43 84 44 85 46 86 48 87 45 88
REMARK H PARENT 11 6 3 17 73 18 15 31 65 50 39 61
REMARK Flexibility Score: inf
ROOT
ATOM      1  C   UNL A   1      31.403  32.262  26.522  1.00  0.00     0.042 C 
ENDROOT
BRANCH   1   2
ATOM      2  C   UNL A   1      31.410  30.736  26.418  1.00  0.00     0.118 C 
BRANCH   2   3
ATOM      3  N   UNL A   1      32.314  30.286  25.379  1.00  0.00    -0.352 N 
ATOM      4  C   UNL A   1      32.349  29.178  24.574  1.00  0.00     0.251 C 
ATOM      5  O   UNL A   1      33.277  29.115  23.764  1.00  0.00    -0.269 OA
ATOM      6  H   UNL A   1      33.059  30.909  25.216  1.00  0.00     0.163 HD
BRANCH   4   7
ATOM      7  C   UNL A   1      31.329  28.086  24.586  1.00  0.00     0.041 A 
ATOM      8  C   UNL A   1      30.240  26.102  25.494  1.00  0.00     0.043 A 
ATOM      9  C   UNL A   1      29.309  26.124  24.458  1.00  0.00     0.026 A 
ATOM     10  C   UNL A   1      31.284  27.036  25.504  1.00  0.00     0.040 A 
ATOM     11  C   UNL A   1      29.363  27.136  23.501  1.00  0.00     0.003 A 
ATOM     12  C   UNL A   1      30.351  28.119  23.579  1.00  0.00     0.014 A 
BRANCH   8  13
ATOM     13  N   UNL A   1      30.105  25.123  26.495  1.00  0.00    -0.308 N 
ATOM     14  O   UNL A   1      30.234  23.074  27.413  1.00  0.00    -0.248 OA
ATOM     15  C   UNL A   1      30.640  23.856  26.559  1.00  0.00     0.323 C 
ATOM     16  N   UNL A   1      31.734  23.643  25.755  1.00  0.00    -0.306 N 
ATOM     17  H   UNL A   1      29.544  25.381  27.261  1.00  0.00     0.171 HD
ATOM     18  H   UNL A   1      32.091  24.427  25.279  1.00  0.00     0.171 HD
BRANCH  16  19
ATOM     19  C   UNL A   1      32.403  22.417  25.539  1.00  0.00     0.063 A 
ATOM     20  C   UNL A   1      32.035  21.723  24.375  1.00  0.00     0.049 A 
ATOM     21  C   UNL A   1      33.348  21.833  26.402  1.00  0.00     0.066 A 
ATOM     22  C   UNL A   1      32.651  20.513  24.032  1.00  0.00     0.061 A 
ATOM     23  C   UNL A   1      33.965  20.624  26.054  1.00  0.00     0.044 A 
ATOM     24  Cl  UNL A   1      33.668  22.419  27.997  1.00  0.00    -0.082 Cl
ATOM     25  Cl  UNL A   1      32.152  19.750  22.564  1.00  0.00    -0.083 Cl
ATOM     26  C   UNL A   1      33.630  19.971  24.865  1.00  0.00     0.061 A 
ATOM     27  Cl  UNL A   1      34.438  18.490  24.501  1.00  0.00    -0.083 Cl
ENDBRANCH  16  19
ENDBRANCH   8  13
ENDBRANCH   4   7
ENDBRANCH   2   3
ENDBRANCH   1   2
BRANCH   1  28
ATOM     28  C   UNL A   1      32.628  32.805  27.251  1.00  0.00     0.118 C 
BRANCH  28  29
ATOM     29  N   UNL A   1      32.449  34.202  27.626  1.00  0.00    -0.352 N 
ATOM     30  C   UNL A   1      33.019  34.922  28.647  1.00  0.00     0.251 C 
ATOM     31  H   UNL A   1      31.823  34.709  27.060  1.00  0.00     0.163 HD
ATOM     32  O   UNL A   1      32.539  36.005  28.964  1.00  0.00    -0.269 OA
BRANCH  30  33
ATOM     33  C   UNL A   1      34.201  34.399  29.362  1.00  0.00     0.039 A 
ATOM     34  C   UNL A   1      34.021  33.750  30.586  1.00  0.00     0.014 A 
ATOM     35  C   UNL A   1      35.488  34.585  28.850  1.00  0.00     0.014 A 
ATOM     36  C   UNL A   1      35.125  33.237  31.269  1.00  0.00     0.010 A 
ATOM     37  C   UNL A   1      36.579  34.011  29.492  1.00  0.00     0.010 A 
ATOM     38  C   UNL A   1      36.409  33.335  30.711  1.00  0.00    -0.014 A 
BRANCH  38  39
ATOM     39  C   UNL A   1      37.593  32.737  31.376  1.00  0.00     0.031 A 
ATOM     40  C   UNL A   1      38.278  31.545  30.769  1.00  0.00     0.074 A 
ATOM     41  C   UNL A   1      37.996  33.217  32.568  1.00  0.00     0.049 A 
ATOM     42  N   UNL A   1      39.249  30.813  31.252  1.00  0.00    -0.248 NA
ATOM     43  C   UNL A   1      37.784  31.096  29.457  1.00  0.00     0.031 C 
ATOM     44  C   UNL A   1      37.384  34.341  33.279  1.00  0.00     0.029 A 
ATOM     45  N   UNL A   1      39.005  32.806  33.403  1.00  0.00    -0.354 N 
ATOM     46  C   UNL A   1      39.467  29.809  30.317  1.00  0.00     0.074 A 
ATOM     47  C   UNL A   1      38.495  29.996  29.261  1.00  0.00     0.031 C 
ATOM     48  C   UNL A   1      38.040  34.541  34.434  1.00  0.00     0.029 A 
ATOM     49  C   UNL A   1      39.088  33.535  34.565  1.00  0.00     0.049 A 
ATOM     50  H   UNL A   1      39.612  32.061  33.189  1.00  0.00     0.167 HD
ATOM     51  C   UNL A   1      40.406  28.833  30.327  1.00  0.00     0.037 A 
ATOM     52  C   UNL A   1      39.908  33.395  35.623  1.00  0.00     0.037 A 
ATOM     53  C   UNL A   1      41.388  28.669  31.367  1.00  0.00     0.049 A 
ATOM     54  C   UNL A   1      40.938  32.300  35.615  1.00  0.00     0.074 A 
ATOM     55  C   UNL A   1      42.421  27.753  31.442  1.00  0.00     0.029 A 
ATOM     56  N   UNL A   1      41.455  29.444  32.516  1.00  0.00    -0.354 N 
ATOM     57  N   UNL A   1      41.174  31.397  34.695  1.00  0.00    -0.248 NA
ATOM     58  C   UNL A   1      41.816  32.206  36.789  1.00  0.00     0.031 C 
ATOM     59  C   UNL A   1      43.087  27.943  32.657  1.00  0.00     0.029 A 
ATOM     60  C   UNL A   1      42.499  29.011  33.317  1.00  0.00     0.049 A 
ATOM     61  H   UNL A   1      40.850  30.190  32.732  1.00  0.00     0.167 HD
ATOM     62  C   UNL A   1      42.245  30.647  35.163  1.00  0.00     0.074 A 
ATOM     63  C   UNL A   1      42.619  31.210  36.445  1.00  0.00     0.031 C 
ATOM     64  C   UNL A   1      42.864  29.589  34.585  1.00  0.00     0.037 A 
BRANCH  51  65
ATOM     65  C   UNL A   1      40.416  27.867  29.178  1.00  0.00     0.057 A 
ATOM     66  C   UNL A   1      39.638  26.702  29.183  1.00  0.00     0.134 A 
ATOM     67  C   UNL A   1      41.190  28.120  28.037  1.00  0.00     0.134 A 
ATOM     68  F   UNL A   1      38.883  26.394  30.249  1.00  0.00    -0.206 F 
ATOM     69  C   UNL A   1      39.650  25.810  28.110  1.00  0.00     0.040 A 
ATOM     70  C   UNL A   1      41.188  27.250  26.945  1.00  0.00     0.040 A 
ATOM     71  F   UNL A   1      41.954  29.221  27.962  1.00  0.00    -0.206 F 
ATOM     72  C   UNL A   1      40.421  26.087  26.983  1.00  0.00     0.006 A 
ENDBRANCH  51  65
BRANCH  52  73
ATOM     73  C   UNL A   1      39.801  34.329  36.773  1.00  0.00     0.057 A 
ATOM     74  C   UNL A   1      39.027  34.006  37.894  1.00  0.00     0.134 A 
ATOM     75  C   UNL A   1      40.465  35.562  36.782  1.00  0.00     0.134 A 
ATOM     76  F   UNL A   1      38.354  32.847  37.936  1.00  0.00    -0.206 F 
ATOM     77  C   UNL A   1      38.901  34.881  38.973  1.00  0.00     0.040 A 
ATOM     78  C   UNL A   1      40.368  36.436  37.865  1.00  0.00     0.040 A 
ATOM     79  F   UNL A   1      41.230  35.926  35.742  1.00  0.00    -0.206 F 
ATOM     80  C   UNL A   1      39.577  36.100  38.963  1.00  0.00     0.006 A 
ENDBRANCH  52  73
BRANCH  64  81
ATOM     81  C   UNL A   1      44.033  28.995  35.312  1.00  0.00     0.057 A 
ATOM     82  C   UNL A   1      45.339  29.460  35.117  1.00  0.00     0.134 A 
ATOM     83  C   UNL A   1      43.841  27.978  36.257  1.00  0.00     0.134 A 
ATOM     84  F   UNL A   1      45.592  30.423  34.217  1.00  0.00    -0.206 F 
ATOM     85  C   UNL A   1      46.416  28.922  35.823  1.00  0.00     0.040 A 
ATOM     86  C   UNL A   1      44.906  27.451  36.988  1.00  0.00     0.040 A 
ATOM     87  F   UNL A   1      42.613  27.494  36.497  1.00  0.00    -0.206 F 
ATOM     88  C   UNL A   1      46.199  27.920  36.768  1.00  0.00     0.006 A 
ENDBRANCH  64  81
ENDBRANCH  38  39
ENDBRANCH  30  33
ENDBRANCH  28  29
ENDBRANCH   1  28
TORSDOF 12
ENDMDL
MODEL 2
REMARK VINA RESULT:     -13.2      1.291      2.134
REMARK SMILES O=C(Nc1cccc(C(=O)NCCCNC(=O)c2ccc(-c3c4nc(c(-c5c(F)cccc5F)c5ccc([nH]5)c(-c5c(F)cccc5F)c5nc(c(-c6c(F)cccc6F)c6ccc3[nH]6)C=C5)C=C4)cc2)c1)Nc1cc(Cl)c(Cl)cc1Cl
REMARK SMILES IDX 13 1 12 2 11 3 9 4 10 5 8 7 4 8 5 9 72 10 6 11 7 12 3 13
REMARK SMILES IDX 1 14 2 15 73 16 74 19 75 20 81 21 76 22 80 23 82 24 77 25
REMARK SMILES IDX 78 26 79 27 14 28 15 29 16 30 17 32 18 33 19 34 71 35 20 36
REMARK SMILES IDX 70 37 21 38 22 39 23 40 64 41 24 42 69 43 63 44 65 45 25 46
REMARK SMILES IDX 68 47 62 48 61 49 26 51 52 52 35 53 51 54 36 55 39 56 50 57
REMARK SMILES IDX 66 58 37 59 38 60 49 62 67 63 40 64 27 65 28 66 33 67 29 68
REMARK SMILES IDX 30 69 32 70 34 71 31 72 53 73 54 74 59 75 55 76 56 77 58 78
REMARK SMILES IDX 60 79 57 80 41 81 42 82 47 83 43 84 44 85 46 86 48 87 45 88
REMARK H PARENT 11 6 3 17 73 18 15 31 65 50 39 61
REMARK Flexibility Score: inf
ROOT
ATOM      1  C   UNL A   1      31.337  32.180  26.598  1.00  0.00     0.042 C 
ENDROOT
BRANCH   1   2
ATOM      2  C   UNL A   1      31.422  30.661  26.454  1.00  0.00     0.118 C 
BRANCH   2   3
ATOM      3  N   UNL A   1      32.220  30.287  25.303  1.00  0.00    -0.352 N 
ATOM      4  C   UNL A   1      32.321  29.142  24.557  1.00  0.00     0.251 C 
ATOM      5  O   UNL A   1      33.110  29.171  23.610  1.00  0.00    -0.269 OA
ATOM      6  H   UNL A   1      32.814  31.008  24.992  1.00  0.00     0.163 HD
BRANCH   4   7
ATOM      7  C   UNL A   1      31.517  27.904  24.787  1.00  0.00     0.041 A 
ATOM      8  C   UNL A   1      30.984  25.803  25.903  1.00  0.00     0.043 A 
ATOM      9  C   UNL A   1      29.860  25.645  25.095  1.00  0.00     0.026 A 
ATOM     10  C   UNL A   1      31.841  26.889  25.688  1.00  0.00     0.040 A 
ATOM     11  C   UNL A   1      29.542  26.622  24.154  1.00  0.00     0.003 A 
ATOM     12  C   UNL A   1      30.352  27.751  24.018  1.00  0.00     0.014 A 
BRANCH   8  13
ATOM     13  N   UNL A   1      31.228  24.846  26.905  1.00  0.00    -0.308 N 
ATOM     14  O   UNL A   1      32.004  22.929  27.788  1.00  0.00    -0.248 OA
ATOM     15  C   UNL A   1      32.089  23.771  26.901  1.00  0.00     0.323 C 
ATOM     16  N   UNL A   1      33.105  23.842  25.978  1.00  0.00    -0.306 N 
ATOM     17  H   UNL A   1      30.705  24.962  27.731  1.00  0.00     0.171 HD
ATOM     18  H   UNL A   1      33.182  24.682  25.471  1.00  0.00     0.171 HD
BRANCH  16  19
ATOM     19  C   UNL A   1      34.052  22.837  25.680  1.00  0.00     0.063 A 
ATOM     20  C   UNL A   1      35.398  23.203  25.843  1.00  0.00     0.049 A 
ATOM     21  C   UNL A   1      33.758  21.547  25.200  1.00  0.00     0.066 A 
ATOM     22  C   UNL A   1      36.428  22.284  25.613  1.00  0.00     0.061 A 
ATOM     23  C   UNL A   1      34.792  20.629  24.974  1.00  0.00     0.044 A 
ATOM     24  Cl  UNL A   1      32.184  21.067  24.669  1.00  0.00    -0.082 Cl
ATOM     25  Cl  UNL A   1      38.050  22.819  25.872  1.00  0.00    -0.083 Cl
ATOM     26  C   UNL A   1      36.124  20.988  25.193  1.00  0.00     0.061 A 
ATOM     27  Cl  UNL A   1      37.341  19.800  24.900  1.00  0.00    -0.083 Cl
ENDBRANCH  16  19
ENDBRANCH   8  13
ENDBRANCH   4   7
ENDBRANCH   2   3
ENDBRANCH   1   2
BRANCH   1  28
ATOM     28  C   UNL A   1      32.689  32.817  26.908  1.00  0.00     0.118 C 
BRANCH  28  29
ATOM     29  N   UNL A   1      32.533  34.090  27.601  1.00  0.00    -0.352 N 
ATOM     30  C   UNL A   1      33.145  34.556  28.737  1.00  0.00     0.251 C 
ATOM     31  H   UNL A   1      31.888  34.711  27.191  1.00  0.00     0.163 HD
ATOM     32  O   UNL A   1      32.684  35.536  29.314  1.00  0.00    -0.269 OA
BRANCH  30  33
ATOM     33  C   UNL A   1      34.351  33.886  29.267  1.00  0.00     0.039 A 
ATOM     34  C   UNL A   1      35.610  34.360  28.889  1.00  0.00     0.014 A 
ATOM     35  C   UNL A   1      34.242  32.767  30.097  1.00  0.00     0.014 A 
ATOM     36  C   UNL A   1      36.760  33.747  29.389  1.00  0.00     0.010 A 
ATOM     37  C   UNL A   1      35.385  32.205  30.654  1.00  0.00     0.010 A 
ATOM     38  C   UNL A   1      36.656  32.686  30.302  1.00  0.00    -0.014 A 
BRANCH  38  39
ATOM     39  C   UNL A   1      37.858  32.062  30.908  1.00  0.00     0.031 A 
ATOM     40  C   UNL A   1      38.589  30.970  30.179  1.00  0.00     0.074 A 
ATOM     41  C   UNL A   1      38.238  32.422  32.150  1.00  0.00     0.049 A 
ATOM     42  N   UNL A   1      39.585  30.225  30.587  1.00  0.00    -0.248 NA
ATOM     43  C   UNL A   1      38.119  30.652  28.821  1.00  0.00     0.031 C 
ATOM     44  C   UNL A   1      37.581  33.437  32.975  1.00  0.00     0.029 A 
ATOM     45  N   UNL A   1      39.257  31.958  32.942  1.00  0.00    -0.354 N 
ATOM     46  C   UNL A   1      39.844  29.340  29.549  1.00  0.00     0.074 A 
ATOM     47  C   UNL A   1      38.870  29.606  28.512  1.00  0.00     0.031 C 
ATOM     48  C   UNL A   1      38.224  33.532  34.150  1.00  0.00     0.029 A 
ATOM     49  C   UNL A   1      39.308  32.557  34.178  1.00  0.00     0.049 A 
ATOM     50  H   UNL A   1      39.892  31.264  32.653  1.00  0.00     0.167 HD
ATOM     51  C   UNL A   1      40.818  28.403  29.460  1.00  0.00     0.037 A 
ATOM     52  C   UNL A   1      40.127  32.331  35.222  1.00  0.00     0.037 A 
ATOM     53  C   UNL A   1      41.801  28.161  30.484  1.00  0.00     0.049 A 
ATOM     54  C   UNL A   1      41.197  31.282  35.102  1.00  0.00     0.074 A 
ATOM     55  C   UNL A   1      42.867  27.280  30.466  1.00  0.00     0.029 A 
ATOM     56  N   UNL A   1      41.834  28.806  31.712  1.00  0.00    -0.354 N 
ATOM     57  N   UNL A   1      41.471  30.495  34.090  1.00  0.00    -0.248 NA
ATOM     58  C   UNL A   1      42.073  31.091  36.266  1.00  0.00     0.031 C 
ATOM     59  C   UNL A   1      43.519  27.359  31.700  1.00  0.00     0.029 A 
ATOM     60  C   UNL A   1      42.890  28.325  32.469  1.00  0.00     0.049 A 
ATOM     61  H   UNL A   1      41.200  29.501  32.003  1.00  0.00     0.167 HD
ATOM     62  C   UNL A   1      42.567  29.737  34.482  1.00  0.00     0.074 A 
ATOM     63  C   UNL A   1      42.914  30.168  35.822  1.00  0.00     0.031 C 
ATOM     64  C   UNL A   1      43.227  28.773  33.796  1.00  0.00     0.037 A 
BRANCH  51  65
ATOM     65  C   UNL A   1      40.870  27.571  28.211  1.00  0.00     0.057 A 
ATOM     66  C   UNL A   1      41.642  27.946  27.103  1.00  0.00     0.134 A 
ATOM     67  C   UNL A   1      40.166  26.363  28.126  1.00  0.00     0.134 A 
ATOM     68  F   UNL A   1      42.331  29.097  27.115  1.00  0.00    -0.206 F 
ATOM     69  C   UNL A   1      41.688  27.166  25.947  1.00  0.00     0.040 A 
ATOM     70  C   UNL A   1      40.228  25.560  26.986  1.00  0.00     0.040 A 
ATOM     71  F   UNL A   1      39.412  25.939  29.152  1.00  0.00    -0.206 F 
ATOM     72  C   UNL A   1      40.985  25.965  25.889  1.00  0.00     0.006 A 
ENDBRANCH  51  65
BRANCH  52  73
ATOM     73  C   UNL A   1      39.981  33.128  36.467  1.00  0.00     0.057 A 
ATOM     74  C   UNL A   1      39.087  32.736  37.471  1.00  0.00     0.134 A 
ATOM     75  C   UNL A   1      40.725  34.294  36.684  1.00  0.00     0.134 A 
ATOM     76  F   UNL A   1      38.334  31.638  37.313  1.00  0.00    -0.206 F 
ATOM     77  C   UNL A   1      38.924  33.485  38.637  1.00  0.00     0.040 A 
ATOM     78  C   UNL A   1      40.589  35.038  37.856  1.00  0.00     0.040 A 
ATOM     79  F   UNL A   1      41.604  34.717  35.764  1.00  0.00    -0.206 F 
ATOM     80  C   UNL A   1      39.680  34.638  38.834  1.00  0.00     0.006 A 
ENDBRANCH  52  73
BRANCH  64  81
ATOM     81  C   UNL A   1      44.414  28.145  34.463  1.00  0.00     0.057 A 
ATOM     82  C   UNL A   1      44.305  26.970  35.216  1.00  0.00     0.134 A 
ATOM     83  C   UNL A   1      45.692  28.698  34.307  1.00  0.00     0.134 A 
ATOM     84  F   UNL A   1      43.107  26.398  35.415  1.00  0.00    -0.206 F 
ATOM     85  C   UNL A   1      45.422  26.376  35.806  1.00  0.00     0.040 A 
ATOM     86  C   UNL A   1      46.820  28.099  34.870  1.00  0.00     0.040 A 
ATOM     87  F   UNL A   1      45.867  29.819  33.590  1.00  0.00    -0.206 F 
ATOM     88  C   UNL A   1      46.685  26.937  35.626  1.00  0.00     0.006 A 
ENDBRANCH  64  81
ENDBRANCH  38  39
ENDBRANCH  30  33
ENDBRANCH  28  29
ENDBRANCH   1  28
TORSDOF 12
ENDMDL
MODEL 3
REMARK VINA RESULT:     -13.0      5.601     10.841
REMARK SMILES O=C(Nc1cccc(C(=O)NCCCNC(=O)c2ccc(-c3c4nc(c(-c5c(F)cccc5F)c5ccc([nH]5)c(-c5c(F)cccc5F)c5nc(c(-c6c(F)cccc6F)c6ccc3[nH]6)C=C5)C=C4)cc2)c1)Nc1cc(Cl)c(Cl)cc1Cl
REMARK SMILES IDX 13 1 12 2 11 3 9 4 10 5 8 7 4 8 5 9 72 10 6 11 7 12 3 13
REMARK SMILES IDX 1 14 2 15 73 16 74 19 75 20 81 21 76 22 80 23 82 24 77 25
REMARK SMILES IDX 78 26 79 27 14 28 15 29 16 30 17 32 18 33 19 34 71 35 20 36
REMARK SMILES IDX 70 37 21 38 22 39 23 40 64 41 24 42 69 43 63 44 65 45 25 46
REMARK SMILES IDX 68 47 62 48 61 49 26 51 52 52 35 53 51 54 36 55 39 56 50 57
REMARK SMILES IDX 66 58 37 59 38 60 49 62 67 63 40 64 27 65 28 66 33 67 29 68
REMARK SMILES IDX 30 69 32 70 34 71 31 72 53 73 54 74 59 75 55 76 56 77 58 78
REMARK SMILES IDX 60 79 57 80 41 81 42 82 47 83 43 84 44 85 46 86 48 87 45 88
REMARK H PARENT 11 6 3 17 73 18 15 31 65 50 39 61
REMARK Flexibility Score: inf
ROOT
ATOM      1  C   UNL A   1      37.959  19.564  25.001  1.00  0.00     0.042 C 
ENDROOT
BRANCH   1   2
ATOM      2  C   UNL A   1      36.923  20.634  24.657  1.00  0.00     0.118 C 
BRANCH   2   3
ATOM      3  N   UNL A   1      35.950  20.782  25.721  1.00  0.00    -0.352 N 
ATOM      4  C   UNL A   1      34.678  21.289  25.772  1.00  0.00     0.251 C 
ATOM      5  O   UNL A   1      34.112  21.246  26.867  1.00  0.00    -0.269 OA
ATOM      6  H   UNL A   1      36.271  20.448  26.590  1.00  0.00     0.163 HD
BRANCH   4   7
ATOM      7  C   UNL A   1      33.932  21.834  24.598  1.00  0.00     0.041 A 
ATOM      8  C   UNL A   1      33.473  23.472  22.852  1.00  0.00     0.043 A 
ATOM      9  C   UNL A   1      32.430  22.685  22.370  1.00  0.00     0.026 A 
ATOM     10  C   UNL A   1      34.161  23.077  24.005  1.00  0.00     0.040 A 
ATOM     11  C   UNL A   1      32.150  21.461  22.976  1.00  0.00     0.003 A 
ATOM     12  C   UNL A   1      32.910  21.032  24.066  1.00  0.00     0.014 A 
BRANCH   8  13
ATOM     13  N   UNL A   1      33.790  24.657  22.163  1.00  0.00    -0.308 N 
ATOM     14  O   UNL A   1      33.652  26.838  21.628  1.00  0.00    -0.248 OA
ATOM     15  C   UNL A   1      33.464  25.961  22.465  1.00  0.00     0.323 C 
ATOM     16  N   UNL A   1      33.117  26.187  23.776  1.00  0.00    -0.306 N 
ATOM     17  H   UNL A   1      34.323  24.537  21.344  1.00  0.00     0.171 HD
ATOM     18  H   UNL A   1      33.218  25.429  24.396  1.00  0.00     0.171 HD
BRANCH  16  19
ATOM     19  C   UNL A   1      32.631  27.393  24.329  1.00  0.00     0.063 A 
ATOM     20  C   UNL A   1      33.455  27.993  25.295  1.00  0.00     0.049 A 
ATOM     21  C   UNL A   1      31.396  27.996  24.028  1.00  0.00     0.066 A 
ATOM     22  C   UNL A   1      33.100  29.208  25.891  1.00  0.00     0.061 A 
ATOM     23  C   UNL A   1      31.045  29.214  24.625  1.00  0.00     0.044 A 
ATOM     24  Cl  UNL A   1      30.162  27.221  23.097  1.00  0.00    -0.082 Cl
ATOM     25  Cl  UNL A   1      34.194  29.883  27.045  1.00  0.00    -0.083 Cl
ATOM     26  C   UNL A   1      31.900  29.829  25.543  1.00  0.00     0.061 A 
ATOM     27  Cl  UNL A   1      31.402  31.333  26.229  1.00  0.00    -0.083 Cl
ENDBRANCH  16  19
ENDBRANCH   8  13
ENDBRANCH   4   7
ENDBRANCH   2   3
ENDBRANCH   1   2
BRANCH   1  28
ATOM     28  C   UNL A   1      39.160  20.130  25.752  1.00  0.00     0.118 C 
BRANCH  28  29
ATOM     29  N   UNL A   1      40.195  19.122  25.942  1.00  0.00    -0.352 N 
ATOM     30  C   UNL A   1      41.550  19.267  26.099  1.00  0.00     0.251 C 
ATOM     31  H   UNL A   1      39.872  18.192  25.960  1.00  0.00     0.163 HD
ATOM     32  O   UNL A   1      42.282  18.291  25.974  1.00  0.00    -0.269 OA
BRANCH  30  33
ATOM     33  C   UNL A   1      42.129  20.589  26.418  1.00  0.00     0.039 A 
ATOM     34  C   UNL A   1      42.576  21.402  25.373  1.00  0.00     0.014 A 
ATOM     35  C   UNL A   1      42.272  21.008  27.743  1.00  0.00     0.014 A 
ATOM     36  C   UNL A   1      43.113  22.660  25.654  1.00  0.00     0.010 A 
ATOM     37  C   UNL A   1      42.737  22.289  28.018  1.00  0.00     0.010 A 
ATOM     38  C   UNL A   1      43.167  23.127  26.977  1.00  0.00    -0.014 A 
BRANCH  38  39
ATOM     39  C   UNL A   1      43.665  24.486  27.301  1.00  0.00     0.031 A 
ATOM     40  C   UNL A   1      42.701  25.562  27.718  1.00  0.00     0.074 A 
ATOM     41  C   UNL A   1      44.971  24.771  27.138  1.00  0.00     0.049 A 
ATOM     42  N   UNL A   1      42.923  26.834  27.932  1.00  0.00    -0.248 NA
ATOM     43  C   UNL A   1      41.296  25.161  27.889  1.00  0.00     0.031 C 
ATOM     44  C   UNL A   1      45.995  23.822  26.696  1.00  0.00     0.029 A 
ATOM     45  N   UNL A   1      45.658  25.947  27.306  1.00  0.00    -0.354 N 
ATOM     46  C   UNL A   1      41.687  27.387  28.239  1.00  0.00     0.074 A 
ATOM     47  C   UNL A   1      40.710  26.323  28.136  1.00  0.00     0.031 C 
ATOM     48  C   UNL A   1      47.182  24.449  26.644  1.00  0.00     0.029 A 
ATOM     49  C   UNL A   1      46.995  25.849  27.006  1.00  0.00     0.049 A 
ATOM     50  H   UNL A   1      45.233  26.780  27.614  1.00  0.00     0.167 HD
ATOM     51  C   UNL A   1      41.394  28.660  28.593  1.00  0.00     0.037 A 
ATOM     52  C   UNL A   1      47.959  26.790  27.008  1.00  0.00     0.037 A 
ATOM     53  C   UNL A   1      42.374  29.708  28.720  1.00  0.00     0.049 A 
ATOM     54  C   UNL A   1      47.609  28.198  27.399  1.00  0.00     0.074 A 
ATOM     55  C   UNL A   1      42.191  31.015  29.133  1.00  0.00     0.029 A 
ATOM     56  N   UNL A   1      43.723  29.563  28.431  1.00  0.00    -0.354 N 
ATOM     57  N   UNL A   1      46.446  28.693  27.749  1.00  0.00    -0.248 NA
ATOM     58  C   UNL A   1      48.703  29.178  27.399  1.00  0.00     0.031 C 
ATOM     59  C   UNL A   1      43.421  31.675  29.053  1.00  0.00     0.029 A 
ATOM     60  C   UNL A   1      44.380  30.765  28.636  1.00  0.00     0.049 A 
ATOM     61  H   UNL A   1      44.150  28.731  28.124  1.00  0.00     0.167 HD
ATOM     62  C   UNL A   1      46.673  30.032  28.038  1.00  0.00     0.074 A 
ATOM     63  C   UNL A   1      48.088  30.268  27.835  1.00  0.00     0.031 C 
ATOM     64  C   UNL A   1      45.791  30.980  28.438  1.00  0.00     0.037 A 
BRANCH  51  65
ATOM     65  C   UNL A   1      39.956  28.992  28.872  1.00  0.00     0.057 A 
ATOM     66  C   UNL A   1      39.440  29.009  30.175  1.00  0.00     0.134 A 
ATOM     67  C   UNL A   1      39.083  29.328  27.829  1.00  0.00     0.134 A 
ATOM     68  F   UNL A   1      40.219  28.685  31.219  1.00  0.00    -0.206 F 
ATOM     69  C   UNL A   1      38.104  29.321  30.428  1.00  0.00     0.040 A 
ATOM     70  C   UNL A   1      37.752  29.671  28.072  1.00  0.00     0.040 A 
ATOM     71  F   UNL A   1      39.513  29.339  26.558  1.00  0.00    -0.206 F 
ATOM     72  C   UNL A   1      37.257  29.661  29.375  1.00  0.00     0.006 A 
ENDBRANCH  51  65
BRANCH  52  73
ATOM     73  C   UNL A   1      49.352  26.426  26.644  1.00  0.00     0.057 A 
ATOM     74  C   UNL A   1      50.233  25.907  27.600  1.00  0.00     0.134 A 
ATOM     75  C   UNL A   1      49.836  26.586  25.340  1.00  0.00     0.134 A 
ATOM     76  F   UNL A   1      49.833  25.745  28.869  1.00  0.00    -0.206 F 
ATOM     77  C   UNL A   1      51.551  25.578  27.277  1.00  0.00     0.040 A 
ATOM     78  C   UNL A   1      51.143  26.239  24.998  1.00  0.00     0.040 A 
ATOM     79  F   UNL A   1      49.038  27.071  24.376  1.00  0.00    -0.206 F 
ATOM     80  C   UNL A   1      52.008  25.740  25.971  1.00  0.00     0.006 A 
ENDBRANCH  52  73
BRANCH  64  81
ATOM     81  C   UNL A   1      46.335  32.349  28.720  1.00  0.00     0.057 A 
ATOM     82  C   UNL A   1      46.375  33.346  27.739  1.00  0.00     0.134 A 
ATOM     83  C   UNL A   1      46.777  32.687  30.006  1.00  0.00     0.134 A 
ATOM     84  F   UNL A   1      45.978  33.082  26.484  1.00  0.00    -0.206 F 
ATOM     85  C   UNL A   1      46.852  34.627  28.021  1.00  0.00     0.040 A 
ATOM     86  C   UNL A   1      47.232  33.971  30.307  1.00  0.00     0.040 A 
ATOM     87  F   UNL A   1      46.757  31.780  30.995  1.00  0.00    -0.206 F 
ATOM     88  C   UNL A   1      47.274  34.944  29.310  1.00  0.00     0.006 A 
ENDBRANCH  64  81
ENDBRANCH  38  39
ENDBRANCH  30  33
ENDBRANCH  28  29
ENDBRANCH   1  28
TORSDOF 12
ENDMDL
