MODEL 1
REMARK VINA RESULT:     -12.7      0.000      0.000
REMARK SMILES CC(C)Cc1ccc(-c2cc(Cl)cc3c2O[C@H](C(F)(F)F)C(C(=O)NCCCNC(=O)c2ccc(-c4c5nc(c(-c6c(F)cccc6F)c6ccc([nH]6)c(-c6c(F)cccc6F)c6nc(c(-c7c(F)cccc7F)c7ccc4[nH]7)C=C6)C=C5)cc2)=C3)cc1
REMARK SMILES IDX 26 1 25 2 23 3 24 4 22 6 9 7 10 8 15 9 11 10 14 11 16 12
REMARK SMILES IDX 12 13 13 14 86 15 17 16 8 17 5 18 6 19 88 20 7 21 87 22 4 23
REMARK SMILES IDX 2 24 1 25 3 26 18 27 19 28 20 29 21 30 27 31 28 32 29 33
REMARK SMILES IDX 30 34 31 36 32 37 33 38 85 39 34 40 84 41 35 42 36 43 37 44
REMARK SMILES IDX 78 45 38 46 83 47 77 48 79 49 39 50 82 51 76 52 75 53 40 55
REMARK SMILES IDX 66 56 49 57 65 58 50 59 53 60 64 61 80 62 51 63 52 64 63 66
REMARK SMILES IDX 81 67 54 68 41 69 42 70 47 71 43 72 44 73 46 74 48 75 45 76
REMARK SMILES IDX 67 77 68 78 73 79 69 80 70 81 72 82 74 83 71 84 55 85 56 86
REMARK SMILES IDX 61 87 57 88 58 89 60 90 62 91 59 92
REMARK H PARENT 25 5 29 35 79 54 53 65
REMARK Flexibility Score: inf
ROOT
ATOM      1  C   UNL A   1      31.441  29.052  25.515  1.00  0.00     0.118 C 
ENDROOT
BRANCH   1   2
ATOM      2  N   UNL A   1      32.607  28.228  25.759  1.00  0.00    -0.352 N 
ATOM      3  C   UNL A   1      32.677  26.881  25.625  1.00  0.00     0.251 C 
ATOM      4  O   UNL A   1      33.279  26.216  26.459  1.00  0.00    -0.270 OA
ATOM      5  H   UNL A   1      33.425  28.690  26.050  1.00  0.00     0.163 HD
BRANCH   3   6
ATOM      6  C   UNL A   1      32.131  26.310  24.361  1.00  0.00     0.067 C 
ATOM      7  C   UNL A   1      33.406  22.491  24.815  1.00  0.00     0.026 A 
ATOM      8  C   UNL A   1      34.765  22.549  25.220  1.00  0.00     0.033 A 
ATOM      9  C   UNL A   1      32.849  23.680  24.315  1.00  0.00     0.135 A 
ATOM     10  C   UNL A   1      35.569  23.662  24.991  1.00  0.00     0.042 A 
ATOM     11  C   UNL A   1      33.710  24.757  23.985  1.00  0.00     0.019 A 
ATOM     12  O   UNL A   1      31.481  23.883  24.172  1.00  0.00    -0.475 OA
ATOM     13  Cl  UNL A   1      37.197  23.669  25.539  1.00  0.00    -0.084 Cl
ATOM     14  C   UNL A   1      35.064  24.748  24.305  1.00  0.00     0.032 A 
ATOM     15  C   UNL A   1      33.095  26.000  23.472  1.00  0.00     0.025 C 
ATOM     16  C   UNL A   1      31.042  25.264  24.534  1.00  0.00     0.314 C 
BRANCH   7  17
ATOM     17  C   UNL A   1      32.834  21.123  24.775  1.00  0.00    -0.015 A 
ATOM     18  C   UNL A   1      32.749  18.297  24.414  1.00  0.00    -0.048 A 
ATOM     19  C   UNL A   1      32.970  18.845  25.680  1.00  0.00     0.004 A 
ATOM     20  C   UNL A   1      32.487  19.167  23.348  1.00  0.00     0.004 A 
ATOM     21  C   UNL A   1      32.998  20.237  25.860  1.00  0.00     0.009 A 
ATOM     22  C   UNL A   1      32.511  20.559  23.529  1.00  0.00     0.009 A 
BRANCH  18  23
ATOM     23  C   UNL A   1      32.771  16.798  24.207  1.00  0.00     0.038 C 
BRANCH  23  24
ATOM     24  C   UNL A   1      33.436  16.052  25.378  1.00  0.00    -0.013 C 
ATOM     25  C   UNL A   1      32.760  14.705  25.644  1.00  0.00     0.008 C 
ATOM     26  C   UNL A   1      34.927  15.830  25.112  1.00  0.00     0.008 C 
ENDBRANCH  23  24
ENDBRANCH  18  23
ENDBRANCH   7  17
BRANCH  16  27
ATOM     27  C   UNL A   1      29.810  25.728  23.721  1.00  0.00     0.429 C 
ATOM     28  F   UNL A   1      28.744  26.020  24.497  1.00  0.00    -0.167 F 
ATOM     29  F   UNL A   1      30.097  26.828  22.983  1.00  0.00    -0.167 F 
ATOM     30  F   UNL A   1      29.389  24.785  22.833  1.00  0.00    -0.167 F 
ENDBRANCH  16  27
ENDBRANCH   3   6
ENDBRANCH   1   2
BRANCH   1  31
ATOM     31  C   UNL A   1      31.826  30.531  25.569  1.00  0.00     0.042 C 
BRANCH  31  32
ATOM     32  C   UNL A   1      31.956  31.099  26.979  1.00  0.00     0.118 C 
BRANCH  32  33
ATOM     33  N   UNL A   1      32.034  32.551  27.004  1.00  0.00    -0.352 N 
ATOM     34  C   UNL A   1      32.965  33.356  27.608  1.00  0.00     0.251 C 
ATOM     35  H   UNL A   1      31.318  33.022  26.520  1.00  0.00     0.163 HD
ATOM     36  O   UNL A   1      32.783  34.572  27.661  1.00  0.00    -0.269 OA
BRANCH  34  37
ATOM     37  C   UNL A   1      34.173  32.763  28.216  1.00  0.00     0.039 A 
ATOM     38  C   UNL A   1      35.325  33.544  28.331  1.00  0.00     0.014 A 
ATOM     39  C   UNL A   1      34.178  31.438  28.662  1.00  0.00     0.014 A 
ATOM     40  C   UNL A   1      36.466  33.008  28.927  1.00  0.00     0.010 A 
ATOM     41  C   UNL A   1      35.280  30.941  29.348  1.00  0.00     0.010 A 
ATOM     42  C   UNL A   1      36.447  31.709  29.463  1.00  0.00    -0.014 A 
BRANCH  42  43
ATOM     43  C   UNL A   1      37.659  31.126  30.094  1.00  0.00     0.031 A 
ATOM     44  C   UNL A   1      37.985  31.442  31.530  1.00  0.00     0.074 A 
ATOM     45  C   UNL A   1      38.478  30.336  29.372  1.00  0.00     0.049 A 
ATOM     46  N   UNL A   1      38.994  31.033  32.259  1.00  0.00    -0.248 NA
ATOM     47  C   UNL A   1      37.079  32.366  32.232  1.00  0.00     0.031 C 
ATOM     48  C   UNL A   1      38.305  30.002  27.957  1.00  0.00     0.029 A 
ATOM     49  N   UNL A   1      39.619  29.666  29.733  1.00  0.00    -0.354 N 
ATOM     50  C   UNL A   1      38.846  31.657  33.493  1.00  0.00     0.074 A 
ATOM     51  C   UNL A   1      37.699  32.530  33.390  1.00  0.00     0.031 C 
ATOM     52  C   UNL A   1      39.278  29.159  27.582  1.00  0.00     0.029 A 
ATOM     53  C   UNL A   1      40.163  28.918  28.717  1.00  0.00     0.049 A 
ATOM     54  H   UNL A   1      40.010  29.716  30.636  1.00  0.00     0.167 HD
ATOM     55  C   UNL A   1      39.576  31.493  34.621  1.00  0.00     0.037 A 
ATOM     56  C   UNL A   1      41.249  28.122  28.708  1.00  0.00     0.037 A 
ATOM     57  C   UNL A   1      40.703  30.604  34.727  1.00  0.00     0.049 A 
ATOM     58  C   UNL A   1      42.039  27.949  29.977  1.00  0.00     0.074 A 
ATOM     59  C   UNL A   1      41.481  30.324  35.838  1.00  0.00     0.029 A 
ATOM     60  N   UNL A   1      41.213  29.850  33.681  1.00  0.00    -0.354 N 
ATOM     61  N   UNL A   1      41.843  28.487  31.156  1.00  0.00    -0.248 NA
ATOM     62  C   UNL A   1      43.193  27.041  29.914  1.00  0.00     0.031 C 
ATOM     63  C   UNL A   1      42.491  29.438  35.450  1.00  0.00     0.029 A 
ATOM     64  C   UNL A   1      42.306  29.118  34.114  1.00  0.00     0.049 A 
ATOM     65  H   UNL A   1      40.852  29.837  32.765  1.00  0.00     0.167 HD
ATOM     66  C   UNL A   1      42.825  27.958  31.984  1.00  0.00     0.074 A 
ATOM     67  C   UNL A   1      43.602  27.041  31.174  1.00  0.00     0.031 C 
ATOM     68  C   UNL A   1      43.064  28.205  33.296  1.00  0.00     0.037 A 
BRANCH  55  69
ATOM     69  C   UNL A   1      39.170  32.289  35.829  1.00  0.00     0.057 A 
ATOM     70  C   UNL A   1      38.309  31.768  36.806  1.00  0.00     0.134 A 
ATOM     71  C   UNL A   1      39.657  33.587  36.030  1.00  0.00     0.134 A 
ATOM     72  F   UNL A   1      37.792  30.536  36.670  1.00  0.00    -0.206 F 
ATOM     73  C   UNL A   1      37.920  32.519  37.917  1.00  0.00     0.040 A 
ATOM     74  C   UNL A   1      39.302  34.336  37.154  1.00  0.00     0.040 A 
ATOM     75  F   UNL A   1      40.489  34.148  35.140  1.00  0.00    -0.206 F 
ATOM     76  C   UNL A   1      38.424  33.805  38.097  1.00  0.00     0.006 A 
ENDBRANCH  55  69
BRANCH  56  77
ATOM     77  C   UNL A   1      41.632  27.396  27.469  1.00  0.00     0.057 A 
ATOM     78  C   UNL A   1      41.215  26.077  27.246  1.00  0.00     0.134 A 
ATOM     79  C   UNL A   1      42.438  27.990  26.492  1.00  0.00     0.134 A 
ATOM     80  F   UNL A   1      40.456  25.447  28.152  1.00  0.00    -0.206 F 
ATOM     81  C   UNL A   1      41.609  25.368  26.109  1.00  0.00     0.040 A 
ATOM     82  C   UNL A   1      42.815  27.303  25.336  1.00  0.00     0.040 A 
ATOM     83  F   UNL A   1      42.862  29.254  26.640  1.00  0.00    -0.206 F 
ATOM     84  C   UNL A   1      42.408  25.983  25.148  1.00  0.00     0.006 A 
ENDBRANCH  56  77
BRANCH  68  85
ATOM     85  C   UNL A   1      44.181  27.437  33.944  1.00  0.00     0.057 A 
ATOM     86  C   UNL A   1      43.976  26.192  34.554  1.00  0.00     0.134 A 
ATOM     87  C   UNL A   1      45.485  27.950  33.947  1.00  0.00     0.134 A 
ATOM     88  F   UNL A   1      42.750  25.648  34.594  1.00  0.00    -0.206 F 
ATOM     89  C   UNL A   1      45.017  25.507  35.181  1.00  0.00     0.040 A 
ATOM     90  C   UNL A   1      46.541  27.258  34.540  1.00  0.00     0.040 A 
ATOM     91  F   UNL A   1      45.756  29.129  33.368  1.00  0.00    -0.206 F 
ATOM     92  C   UNL A   1      46.306  26.038  35.171  1.00  0.00     0.006 A 
ENDBRANCH  68  85
ENDBRANCH  42  43
ENDBRANCH  34  37
ENDBRANCH  32  33
ENDBRANCH  31  32
ENDBRANCH   1  31
TORSDOF 14
ENDMDL
MODEL 2
REMARK VINA RESULT:     -12.6      1.158      2.062
REMARK SMILES CC(C)Cc1ccc(-c2cc(Cl)cc3c2O[C@H](C(F)(F)F)C(C(=O)NCCCNC(=O)c2ccc(-c4c5nc(c(-c6c(F)cccc6F)c6ccc([nH]6)c(-c6c(F)cccc6F)c6nc(c(-c7c(F)cccc7F)c7ccc4[nH]7)C=C6)C=C5)cc2)=C3)cc1
REMARK SMILES IDX 26 1 25 2 23 3 24 4 22 6 9 7 10 8 15 9 11 10 14 11 16 12
REMARK SMILES IDX 12 13 13 14 86 15 17 16 8 17 5 18 6 19 88 20 7 21 87 22 4 23
REMARK SMILES IDX 2 24 1 25 3 26 18 27 19 28 20 29 21 30 27 31 28 32 29 33
REMARK SMILES IDX 30 34 31 36 32 37 33 38 85 39 34 40 84 41 35 42 36 43 37 44
REMARK SMILES IDX 78 45 38 46 83 47 77 48 79 49 39 50 82 51 76 52 75 53 40 55
REMARK SMILES IDX 66 56 49 57 65 58 50 59 53 60 64 61 80 62 51 63 52 64 63 66
REMARK SMILES IDX 81 67 54 68 41 69 42 70 47 71 43 72 44 73 46 74 48 75 45 76
REMARK SMILES IDX 67 77 68 78 73 79 69 80 70 81 72 82 74 83 71 84 55 85 56 86
REMARK SMILES IDX 61 87 57 88 58 89 60 90 62 91 59 92
REMARK H PARENT 25 5 29 35 79 54 53 65
REMARK Flexibility Score: inf
ROOT
ATOM      1  C   UNL A   1      31.535  29.158  25.569  1.00  0.00     0.118 C 
ENDROOT
BRANCH   1   2
ATOM      2  N   UNL A   1      32.701  28.316  25.740  1.00  0.00    -0.352 N 
ATOM      3  C   UNL A   1      32.745  26.969  25.595  1.00  0.00     0.251 C 
ATOM      4  O   UNL A   1      33.385  26.291  26.388  1.00  0.00    -0.270 OA
ATOM      5  H   UNL A   1      33.542  28.765  25.984  1.00  0.00     0.163 HD
BRANCH   3   6
ATOM      6  C   UNL A   1      32.116  26.413  24.362  1.00  0.00     0.067 C 
ATOM      7  C   UNL A   1      33.410  22.587  24.691  1.00  0.00     0.026 A 
ATOM      8  C   UNL A   1      34.792  22.639  25.007  1.00  0.00     0.033 A 
ATOM      9  C   UNL A   1      32.824  23.783  24.241  1.00  0.00     0.135 A 
ATOM     10  C   UNL A   1      35.582  23.753  24.738  1.00  0.00     0.042 A 
ATOM     11  C   UNL A   1      33.664  24.862  23.867  1.00  0.00     0.019 A 
ATOM     12  O   UNL A   1      31.450  23.989  24.189  1.00  0.00    -0.475 OA
ATOM     13  Cl  UNL A   1      37.242  23.752  25.179  1.00  0.00    -0.084 Cl
ATOM     14  C   UNL A   1      35.036  24.848  24.099  1.00  0.00     0.032 A 
ATOM     15  C   UNL A   1      33.020  26.111  23.410  1.00  0.00     0.025 C 
ATOM     16  C   UNL A   1      31.038  25.366  24.595  1.00  0.00     0.314 C 
BRANCH   7  17
ATOM     17  C   UNL A   1      32.833  21.221  24.672  1.00  0.00    -0.015 A 
ATOM     18  C   UNL A   1      32.731  18.394  24.326  1.00  0.00    -0.048 A 
ATOM     19  C   UNL A   1      32.989  18.947  25.583  1.00  0.00     0.004 A 
ATOM     20  C   UNL A   1      32.441  19.260  23.264  1.00  0.00     0.004 A 
ATOM     21  C   UNL A   1      33.026  20.338  25.756  1.00  0.00     0.009 A 
ATOM     22  C   UNL A   1      32.474  20.652  23.439  1.00  0.00     0.009 A 
BRANCH  18  23
ATOM     23  C   UNL A   1      32.744  16.894  24.124  1.00  0.00     0.038 C 
BRANCH  23  24
ATOM     24  C   UNL A   1      33.326  16.143  25.335  1.00  0.00    -0.013 C 
ATOM     25  C   UNL A   1      32.618  14.804  25.561  1.00  0.00     0.008 C 
ATOM     26  C   UNL A   1      34.827  15.901  25.162  1.00  0.00     0.008 C 
ENDBRANCH  23  24
ENDBRANCH  18  23
ENDBRANCH   7  17
BRANCH  16  27
ATOM     27  C   UNL A   1      29.758  25.842  23.868  1.00  0.00     0.429 C 
ATOM     28  F   UNL A   1      29.950  26.960  23.136  1.00  0.00    -0.167 F 
ATOM     29  F   UNL A   1      29.280  24.881  23.039  1.00  0.00    -0.167 F 
ATOM     30  F   UNL A   1      28.744  26.122  24.734  1.00  0.00    -0.167 F 
ENDBRANCH  16  27
ENDBRANCH   3   6
ENDBRANCH   1   2
BRANCH   1  31
ATOM     31  C   UNL A   1      31.933  30.630  25.669  1.00  0.00     0.042 C 
BRANCH  31  32
ATOM     32  C   UNL A   1      32.301  31.092  27.076  1.00  0.00     0.118 C 
BRANCH  32  33
ATOM     33  N   UNL A   1      32.164  32.527  27.260  1.00  0.00    -0.352 N 
ATOM     34  C   UNL A   1      32.991  33.396  27.925  1.00  0.00     0.251 C 
ATOM     35  H   UNL A   1      31.367  32.932  26.850  1.00  0.00     0.163 HD
ATOM     36  O   UNL A   1      32.633  34.558  28.117  1.00  0.00    -0.269 OA
BRANCH  34  37
ATOM     37  C   UNL A   1      34.298  32.933  28.431  1.00  0.00     0.039 A 
ATOM     38  C   UNL A   1      35.464  33.482  27.893  1.00  0.00     0.014 A 
ATOM     39  C   UNL A   1      34.379  31.953  29.426  1.00  0.00     0.014 A 
ATOM     40  C   UNL A   1      36.707  33.075  28.380  1.00  0.00     0.010 A 
ATOM     41  C   UNL A   1      35.611  31.627  29.979  1.00  0.00     0.010 A 
ATOM     42  C   UNL A   1      36.791  32.161  29.443  1.00  0.00    -0.014 A 
BRANCH  42  43
ATOM     43  C   UNL A   1      38.110  31.717  29.965  1.00  0.00     0.031 A 
ATOM     44  C   UNL A   1      38.692  32.366  31.193  1.00  0.00     0.074 A 
ATOM     45  C   UNL A   1      38.794  30.751  29.321  1.00  0.00     0.049 A 
ATOM     46  N   UNL A   1      39.825  32.119  31.801  1.00  0.00    -0.248 NA
ATOM     47  C   UNL A   1      37.915  33.459  31.800  1.00  0.00     0.031 C 
ATOM     48  C   UNL A   1      38.367  30.084  28.089  1.00  0.00     0.029 A 
ATOM     49  N   UNL A   1      39.995  30.157  29.619  1.00  0.00    -0.354 N 
ATOM     50  C   UNL A   1      39.898  33.031  32.848  1.00  0.00     0.074 A 
ATOM     51  C   UNL A   1      38.737  33.884  32.747  1.00  0.00     0.031 C 
ATOM     52  C   UNL A   1      39.270  29.147  27.760  1.00  0.00     0.029 A 
ATOM     53  C   UNL A   1      40.354  29.167  28.736  1.00  0.00     0.049 A 
ATOM     54  H   UNL A   1      40.546  30.416  30.393  1.00  0.00     0.167 HD
ATOM     55  C   UNL A   1      40.828  33.128  33.828  1.00  0.00     0.037 A 
ATOM     56  C   UNL A   1      41.434  28.363  28.724  1.00  0.00     0.037 A 
ATOM     57  C   UNL A   1      41.971  32.260  33.940  1.00  0.00     0.049 A 
ATOM     58  C   UNL A   1      42.449  28.483  29.827  1.00  0.00     0.074 A 
ATOM     59  C   UNL A   1      42.946  32.240  34.921  1.00  0.00     0.029 A 
ATOM     60  N   UNL A   1      42.291  31.259  33.036  1.00  0.00    -0.354 N 
ATOM     61  N   UNL A   1      42.466  29.300  30.853  1.00  0.00    -0.248 NA
ATOM     62  C   UNL A   1      43.587  27.556  29.779  1.00  0.00     0.031 C 
ATOM     63  C   UNL A   1      43.883  31.257  34.584  1.00  0.00     0.029 A 
ATOM     64  C   UNL A   1      43.458  30.624  33.426  1.00  0.00     0.049 A 
ATOM     65  H   UNL A   1      41.766  31.031  32.235  1.00  0.00     0.167 HD
ATOM     66  C   UNL A   1      43.593  28.963  31.590  1.00  0.00     0.074 A 
ATOM     67  C   UNL A   1      44.223  27.853  30.902  1.00  0.00     0.031 C 
ATOM     68  C   UNL A   1      44.068  29.517  32.733  1.00  0.00     0.037 A 
BRANCH  55  69
ATOM     69  C   UNL A   1      40.639  34.208  34.855  1.00  0.00     0.057 A 
ATOM     70  C   UNL A   1      41.184  35.491  34.691  1.00  0.00     0.134 A 
ATOM     71  C   UNL A   1      39.891  33.972  36.015  1.00  0.00     0.134 A 
ATOM     72  F   UNL A   1      41.924  35.782  33.610  1.00  0.00    -0.206 F 
ATOM     73  C   UNL A   1      41.021  36.485  35.658  1.00  0.00     0.040 A 
ATOM     74  C   UNL A   1      39.694  34.968  36.973  1.00  0.00     0.040 A 
ATOM     75  F   UNL A   1      39.337  32.771  36.236  1.00  0.00    -0.206 F 
ATOM     76  C   UNL A   1      40.267  36.227  36.800  1.00  0.00     0.006 A 
ENDBRANCH  55  69
BRANCH  56  77
ATOM     77  C   UNL A   1      41.593  27.344  27.653  1.00  0.00     0.057 A 
ATOM     78  C   UNL A   1      42.278  27.642  26.468  1.00  0.00     0.134 A 
ATOM     79  C   UNL A   1      41.050  26.060  27.777  1.00  0.00     0.134 A 
ATOM     80  F   UNL A   1      42.807  28.859  26.281  1.00  0.00    -0.206 F 
ATOM     81  C   UNL A   1      42.393  26.709  25.435  1.00  0.00     0.040 A 
ATOM     82  C   UNL A   1      41.182  25.109  26.764  1.00  0.00     0.040 A 
ATOM     83  F   UNL A   1      40.392  25.708  28.891  1.00  0.00    -0.206 F 
ATOM     84  C   UNL A   1      41.847  25.436  25.584  1.00  0.00     0.006 A 
ENDBRANCH  56  77
BRANCH  68  85
ATOM     85  C   UNL A   1      45.299  28.900  33.333  1.00  0.00     0.057 A 
ATOM     86  C   UNL A   1      46.589  29.346  33.017  1.00  0.00     0.134 A 
ATOM     87  C   UNL A   1      45.188  27.845  34.249  1.00  0.00     0.134 A 
ATOM     88  F   UNL A   1      46.767  30.346  32.140  1.00  0.00    -0.206 F 
ATOM     89  C   UNL A   1      47.724  28.739  33.557  1.00  0.00     0.040 A 
ATOM     90  C   UNL A   1      46.314  27.252  34.821  1.00  0.00     0.040 A 
ATOM     91  F   UNL A   1      43.983  27.376  34.608  1.00  0.00    -0.206 F 
ATOM     92  C   UNL A   1      47.587  27.692  34.465  1.00  0.00     0.006 A 
ENDBRANCH  68  85
ENDBRANCH  42  43
ENDBRANCH  34  37
ENDBRANCH  32  33
ENDBRANCH  31  32
ENDBRANCH   1  31
TORSDOF 14
ENDMDL
MODEL 3
REMARK VINA RESULT:     -12.6      4.066      7.558
REMARK SMILES CC(C)Cc1ccc(-c2cc(Cl)cc3c2O[C@H](C(F)(F)F)C(C(=O)NCCCNC(=O)c2ccc(-c4c5nc(c(-c6c(F)cccc6F)c6ccc([nH]6)c(-c6c(F)cccc6F)c6nc(c(-c7c(F)cccc7F)c7ccc4[nH]7)C=C6)C=C5)cc2)=C3)cc1
REMARK SMILES IDX 26 1 25 2 23 3 24 4 22 6 9 7 10 8 15 9 11 10 14 11 16 12
REMARK SMILES IDX 12 13 13 14 86 15 17 16 8 17 5 18 6 19 88 20 7 21 87 22 4 23
REMARK SMILES IDX 2 24 1 25 3 26 18 27 19 28 20 29 21 30 27 31 28 32 29 33
REMARK SMILES IDX 30 34 31 36 32 37 33 38 85 39 34 40 84 41 35 42 36 43 37 44
REMARK SMILES IDX 78 45 38 46 83 47 77 48 79 49 39 50 82 51 76 52 75 53 40 55
REMARK SMILES IDX 66 56 49 57 65 58 50 59 53 60 64 61 80 62 51 63 52 64 63 66
REMARK SMILES IDX 81 67 54 68 41 69 42 70 47 71 43 72 44 73 46 74 48 75 45 76
REMARK SMILES IDX 67 77 68 78 73 79 69 80 70 81 72 82 74 83 71 84 55 85 56 86
REMARK SMILES IDX 61 87 57 88 58 89 60 90 62 91 59 92
REMARK H PARENT 25 5 29 35 79 54 53 65
REMARK Flexibility Score: inf
ROOT
ATOM      1  C   UNL A   1      33.539  29.323  25.898  1.00  0.00     0.118 C 
ENDROOT
BRANCH   1   2
ATOM      2  N   UNL A   1      33.407  28.030  26.536  1.00  0.00    -0.352 N 
ATOM      3  C   UNL A   1      32.415  27.130  26.325  1.00  0.00     0.251 C 
ATOM      4  O   UNL A   1      31.931  26.524  27.272  1.00  0.00    -0.270 OA
ATOM      5  H   UNL A   1      34.104  27.780  27.184  1.00  0.00     0.163 HD
BRANCH   3   6
ATOM      6  C   UNL A   1      32.082  26.831  24.902  1.00  0.00     0.067 C 
ATOM      7  C   UNL A   1      33.141  22.920  24.841  1.00  0.00     0.026 A 
ATOM      8  C   UNL A   1      34.409  22.820  25.471  1.00  0.00     0.033 A 
ATOM      9  C   UNL A   1      32.717  24.212  24.486  1.00  0.00     0.135 A 
ATOM     10  C   UNL A   1      35.274  23.904  25.591  1.00  0.00     0.042 A 
ATOM     11  C   UNL A   1      33.655  25.275  24.512  1.00  0.00     0.019 A 
ATOM     12  O   UNL A   1      31.402  24.522  24.157  1.00  0.00    -0.475 OA
ATOM     13  Cl  UNL A   1      36.780  23.711  26.395  1.00  0.00    -0.084 Cl
ATOM     14  C   UNL A   1      34.931  25.125  25.047  1.00  0.00     0.032 A 
ATOM     15  C   UNL A   1      33.177  26.625  24.146  1.00  0.00     0.025 C 
ATOM     16  C   UNL A   1      30.948  25.840  24.693  1.00  0.00     0.314 C 
BRANCH   7  17
ATOM     17  C   UNL A   1      32.544  21.620  24.450  1.00  0.00    -0.015 A 
ATOM     18  C   UNL A   1      32.434  18.929  23.517  1.00  0.00    -0.048 A 
ATOM     19  C   UNL A   1      32.491  19.205  24.886  1.00  0.00     0.004 A 
ATOM     20  C   UNL A   1      32.347  20.005  22.624  1.00  0.00     0.004 A 
ATOM     21  C   UNL A   1      32.531  20.530  25.345  1.00  0.00     0.009 A 
ATOM     22  C   UNL A   1      32.383  21.330  23.084  1.00  0.00     0.009 A 
BRANCH  18  23
ATOM     23  C   UNL A   1      32.445  17.501  23.016  1.00  0.00     0.038 C 
BRANCH  23  24
ATOM     24  C   UNL A   1      33.586  16.670  23.632  1.00  0.00    -0.013 C 
ATOM     25  C   UNL A   1      34.773  17.551  24.029  1.00  0.00     0.008 C 
ATOM     26  C   UNL A   1      33.098  15.891  24.856  1.00  0.00     0.008 C 
ENDBRANCH  23  24
ENDBRANCH  18  23
ENDBRANCH   7  17
BRANCH  16  27
ATOM     27  C   UNL A   1      29.894  26.518  23.787  1.00  0.00     0.429 C 
ATOM     28  F   UNL A   1      29.600  27.779  24.170  1.00  0.00    -0.167 F 
ATOM     29  F   UNL A   1      30.312  26.565  22.498  1.00  0.00    -0.167 F 
ATOM     30  F   UNL A   1      28.712  25.841  23.768  1.00  0.00    -0.167 F 
ENDBRANCH  16  27
ENDBRANCH   3   6
ENDBRANCH   1   2
BRANCH   1  31
ATOM     31  C   UNL A   1      34.129  30.334  26.882  1.00  0.00     0.042 C 
BRANCH  31  32
ATOM     32  C   UNL A   1      35.208  29.766  27.800  1.00  0.00     0.118 C 
BRANCH  32  33
ATOM     33  N   UNL A   1      35.137  30.290  29.154  1.00  0.00    -0.352 N 
ATOM     34  C   UNL A   1      36.111  30.324  30.120  1.00  0.00     0.251 C 
ATOM     35  H   UNL A   1      34.270  30.675  29.415  1.00  0.00     0.163 HD
ATOM     36  O   UNL A   1      35.825  30.662  31.268  1.00  0.00    -0.269 OA
BRANCH  34  37
ATOM     37  C   UNL A   1      37.496  29.933  29.788  1.00  0.00     0.039 A 
ATOM     38  C   UNL A   1      38.293  29.362  30.782  1.00  0.00     0.014 A 
ATOM     39  C   UNL A   1      38.013  30.135  28.504  1.00  0.00     0.014 A 
ATOM     40  C   UNL A   1      39.594  28.961  30.477  1.00  0.00     0.010 A 
ATOM     41  C   UNL A   1      39.270  29.641  28.177  1.00  0.00     0.010 A 
ATOM     42  C   UNL A   1      40.087  29.076  29.166  1.00  0.00    -0.014 A 
BRANCH  42  43
ATOM     43  C   UNL A   1      41.473  28.657  28.833  1.00  0.00     0.031 A 
ATOM     44  C   UNL A   1      41.749  27.240  28.403  1.00  0.00     0.074 A 
ATOM     45  C   UNL A   1      42.484  29.541  28.941  1.00  0.00     0.049 A 
ATOM     46  N   UNL A   1      42.887  26.683  28.071  1.00  0.00    -0.248 NA
ATOM     47  C   UNL A   1      40.603  26.317  28.374  1.00  0.00     0.031 C 
ATOM     48  C   UNL A   1      42.357  30.925  29.402  1.00  0.00     0.029 A 
ATOM     49  N   UNL A   1      43.822  29.406  28.664  1.00  0.00    -0.354 N 
ATOM     50  C   UNL A   1      42.592  25.351  27.807  1.00  0.00     0.074 A 
ATOM     51  C   UNL A   1      41.189  25.164  28.092  1.00  0.00     0.031 C 
ATOM     52  C   UNL A   1      43.557  31.523  29.337  1.00  0.00     0.029 A 
ATOM     53  C   UNL A   1      44.544  30.558  28.863  1.00  0.00     0.049 A 
ATOM     54  H   UNL A   1      44.224  28.564  28.352  1.00  0.00     0.167 HD
ATOM     55  C   UNL A   1      43.407  24.377  27.336  1.00  0.00     0.037 A 
ATOM     56  C   UNL A   1      45.854  30.807  28.674  1.00  0.00     0.037 A 
ATOM     57  C   UNL A   1      44.800  24.572  27.030  1.00  0.00     0.049 A 
ATOM     58  C   UNL A   1      46.737  29.712  28.142  1.00  0.00     0.074 A 
ATOM     59  C   UNL A   1      45.703  23.667  26.500  1.00  0.00     0.029 A 
ATOM     60  N   UNL A   1      45.491  25.758  27.229  1.00  0.00    -0.354 N 
ATOM     61  N   UNL A   1      46.428  28.478  27.825  1.00  0.00    -0.248 NA
ATOM     62  C   UNL A   1      48.149  30.054  27.924  1.00  0.00     0.031 C 
ATOM     63  C   UNL A   1      46.952  24.292  26.424  1.00  0.00     0.029 A 
ATOM     64  C   UNL A   1      46.814  25.604  26.848  1.00  0.00     0.049 A 
ATOM     65  H   UNL A   1      45.100  26.587  27.586  1.00  0.00     0.167 HD
ATOM     66  C   UNL A   1      47.597  27.905  27.339  1.00  0.00     0.074 A 
ATOM     67  C   UNL A   1      48.614  28.936  27.384  1.00  0.00     0.031 C 
ATOM     68  C   UNL A   1      47.812  26.642  26.894  1.00  0.00     0.037 A 
BRANCH  55  69
ATOM     69  C   UNL A   1      42.806  23.017  27.120  1.00  0.00     0.057 A 
ATOM     70  C   UNL A   1      42.488  22.542  25.839  1.00  0.00     0.134 A 
ATOM     71  C   UNL A   1      42.556  22.163  28.202  1.00  0.00     0.134 A 
ATOM     72  F   UNL A   1      42.687  23.313  24.759  1.00  0.00    -0.206 F 
ATOM     73  C   UNL A   1      41.912  21.285  25.645  1.00  0.00     0.040 A 
ATOM     74  C   UNL A   1      42.011  20.890  28.018  1.00  0.00     0.040 A 
ATOM     75  F   UNL A   1      42.839  22.548  29.454  1.00  0.00    -0.206 F 
ATOM     76  C   UNL A   1      41.679  20.452  26.737  1.00  0.00     0.006 A 
ENDBRANCH  55  69
BRANCH  56  77
ATOM     77  C   UNL A   1      46.404  32.160  28.951  1.00  0.00     0.057 A 
ATOM     78  C   UNL A   1      46.456  33.139  27.950  1.00  0.00     0.134 A 
ATOM     79  C   UNL A   1      46.908  32.501  30.211  1.00  0.00     0.134 A 
ATOM     80  F   UNL A   1      46.004  32.869  26.718  1.00  0.00    -0.206 F 
ATOM     81  C   UNL A   1      47.015  34.397  28.185  1.00  0.00     0.040 A 
ATOM     82  C   UNL A   1      47.444  33.764  30.468  1.00  0.00     0.040 A 
ATOM     83  F   UNL A   1      46.878  31.613  31.216  1.00  0.00    -0.206 F 
ATOM     84  C   UNL A   1      47.507  34.713  29.449  1.00  0.00     0.006 A 
ENDBRANCH  56  77
BRANCH  68  85
ATOM     85  C   UNL A   1      49.186  26.325  26.377  1.00  0.00     0.057 A 
ATOM     86  C   UNL A   1      50.133  25.636  27.146  1.00  0.00     0.134 A 
ATOM     87  C   UNL A   1      49.563  26.710  25.083  1.00  0.00     0.134 A 
ATOM     88  F   UNL A   1      49.841  25.247  28.397  1.00  0.00    -0.206 F 
ATOM     89  C   UNL A   1      51.417  25.379  26.663  1.00  0.00     0.040 A 
ATOM     90  C   UNL A   1      50.832  26.428  24.577  1.00  0.00     0.040 A 
ATOM     91  F   UNL A   1      48.702  27.361  24.286  1.00  0.00    -0.206 F 
ATOM     92  C   UNL A   1      51.768  25.771  25.374  1.00  0.00     0.006 A 
ENDBRANCH  68  85
ENDBRANCH  42  43
ENDBRANCH  34  37
ENDBRANCH  32  33
ENDBRANCH  31  32
ENDBRANCH   1  31
TORSDOF 14
ENDMDL
