MODEL 1
REMARK VINA RESULT:     -12.0      0.000      0.000
REMARK SMILES CCCc1c(C(=O)NCCCNC(=O)c2ccc(-c3c4nc(c(-c5c(F)cccc5F)c5ccc([nH]5)c(-c5c(F)cccc5F)c5nc(c(-c6c(F)cccc6F)c6ccc3[nH]6)C=C5)C=C4)cc2)nnn1-c1cccc(C(F)(F)F)c1
REMARK SMILES IDX 10 1 9 2 8 3 6 4 7 5 5 7 4 8 71 9 69 10 70 11 3 12 2 13 1 14
REMARK SMILES IDX 72 15 73 16 81 17 74 18 76 19 75 20 77 21 78 22 79 23 80 24
REMARK SMILES IDX 11 25 12 26 13 27 14 29 15 30 16 31 68 32 17 33 67 34 18 35
REMARK SMILES IDX 19 36 20 37 61 38 21 39 66 40 60 41 62 42 22 43 65 44 59 45
REMARK SMILES IDX 58 46 23 48 49 49 32 50 48 51 33 52 36 53 47 54 63 55 34 56
REMARK SMILES IDX 35 57 46 59 64 60 37 61 24 62 25 63 30 64 26 65 27 66 29 67
REMARK SMILES IDX 31 68 28 69 50 70 51 71 56 72 52 73 53 74 55 75 57 76 54 77
REMARK SMILES IDX 38 78 39 79 44 80 40 81 41 82 43 83 45 84 42 85
REMARK H PARENT 8 6 12 28 62 47 36 58
REMARK Flexibility Score: inf
ROOT
ATOM      1  C   UNL A   1      33.730  29.976  26.607  1.00  0.00     0.042 C 
ENDROOT
BRANCH   1   2
ATOM      2  C   UNL A   1      33.788  29.036  25.418  1.00  0.00     0.118 C 
BRANCH   2   3
ATOM      3  N   UNL A   1      33.120  29.415  24.208  1.00  0.00    -0.351 N 
ATOM      4  C   UNL A   1      32.517  28.523  23.341  1.00  0.00     0.273 C 
ATOM      5  O   UNL A   1      31.671  28.960  22.562  1.00  0.00    -0.267 OA
ATOM      6  H   UNL A   1      33.089  30.372  23.979  1.00  0.00     0.163 HD
BRANCH   4   7
ATOM      7  C   UNL A   1      33.015  27.149  23.254  1.00  0.00     0.174 A 
ATOM      8  C   UNL A   1      33.178  26.076  24.146  1.00  0.00     0.078 A 
ATOM      9  N   UNL A   1      33.804  25.102  23.331  1.00  0.00    -0.217 N 
ATOM     10  N   UNL A   1      33.488  26.781  22.014  1.00  0.00    -0.124 NA
ATOM     11  N   UNL A   1      34.028  25.588  22.097  1.00  0.00    -0.061 NA
BRANCH   8  12
ATOM     12  C   UNL A   1      32.935  25.745  25.600  1.00  0.00     0.059 C 
BRANCH  12  13
ATOM     13  C   UNL A   1      31.797  24.922  26.167  1.00  0.00     0.003 C 
ATOM     14  C   UNL A   1      32.221  23.648  26.869  1.00  0.00     0.004 C 
ENDBRANCH  12  13
ENDBRANCH   8  12
BRANCH   9  15
ATOM     15  C   UNL A   1      34.315  23.813  23.666  1.00  0.00     0.067 A 
ATOM     16  C   UNL A   1      35.686  23.674  23.926  1.00  0.00     0.028 A 
ATOM     17  C   UNL A   1      33.485  22.695  23.793  1.00  0.00     0.041 A 
ATOM     18  C   UNL A   1      36.186  22.463  24.409  1.00  0.00     0.003 A 
ATOM     19  C   UNL A   1      33.968  21.486  24.315  1.00  0.00     0.058 A 
ATOM     20  C   UNL A   1      35.329  21.382  24.625  1.00  0.00     0.013 A 
BRANCH  19  21
ATOM     21  C   UNL A   1      33.029  20.325  24.543  1.00  0.00     0.416 C 
ATOM     22  F   UNL A   1      32.897  19.531  23.448  1.00  0.00    -0.166 F 
ATOM     23  F   UNL A   1      33.439  19.514  25.557  1.00  0.00    -0.166 F 
ATOM     24  F   UNL A   1      31.766  20.719  24.876  1.00  0.00    -0.166 F 
ENDBRANCH  19  21
ENDBRANCH   9  15
ENDBRANCH   4   7
ENDBRANCH   2   3
ENDBRANCH   1   2
BRANCH   1  25
ATOM     25  C   UNL A   1      34.571  29.454  27.767  1.00  0.00     0.118 C 
BRANCH  25  26
ATOM     26  N   UNL A   1      35.180  30.490  28.618  1.00  0.00    -0.352 N 
ATOM     27  C   UNL A   1      36.488  30.516  29.095  1.00  0.00     0.251 C 
ATOM     28  H   UNL A   1      34.602  31.244  28.876  1.00  0.00     0.163 HD
ATOM     29  O   UNL A   1      36.877  31.343  29.897  1.00  0.00    -0.269 OA
BRANCH  27  30
ATOM     30  C   UNL A   1      37.381  29.456  28.587  1.00  0.00     0.039 A 
ATOM     31  C   UNL A   1      38.082  29.655  27.397  1.00  0.00     0.014 A 
ATOM     32  C   UNL A   1      37.785  28.514  29.518  1.00  0.00     0.014 A 
ATOM     33  C   UNL A   1      39.318  29.026  27.237  1.00  0.00     0.010 A 
ATOM     34  C   UNL A   1      39.079  28.048  29.428  1.00  0.00     0.010 A 
ATOM     35  C   UNL A   1      39.870  28.290  28.297  1.00  0.00    -0.014 A 
BRANCH  35  36
ATOM     36  C   UNL A   1      41.300  27.923  28.289  1.00  0.00     0.031 A 
ATOM     37  C   UNL A   1      41.714  26.686  27.534  1.00  0.00     0.074 A 
ATOM     38  C   UNL A   1      42.302  28.733  28.704  1.00  0.00     0.049 A 
ATOM     39  N   UNL A   1      42.296  25.627  28.003  1.00  0.00    -0.248 NA
ATOM     40  C   UNL A   1      41.443  26.612  26.089  1.00  0.00     0.031 C 
ATOM     41  C   UNL A   1      42.248  30.108  29.213  1.00  0.00     0.029 A 
ATOM     42  N   UNL A   1      43.644  28.499  28.638  1.00  0.00    -0.354 N 
ATOM     43  C   UNL A   1      42.609  24.813  26.910  1.00  0.00     0.074 A 
ATOM     44  C   UNL A   1      41.977  25.429  25.768  1.00  0.00     0.031 C 
ATOM     45  C   UNL A   1      43.474  30.667  29.147  1.00  0.00     0.029 A 
ATOM     46  C   UNL A   1      44.425  29.627  28.816  1.00  0.00     0.049 A 
ATOM     47  H   UNL A   1      44.023  27.605  28.476  1.00  0.00     0.167 HD
ATOM     48  C   UNL A   1      43.494  23.776  26.996  1.00  0.00     0.037 A 
ATOM     49  C   UNL A   1      45.769  29.718  28.726  1.00  0.00     0.037 A 
ATOM     50  C   UNL A   1      43.761  23.412  28.363  1.00  0.00     0.049 A 
ATOM     51  C   UNL A   1      46.319  28.363  28.949  1.00  0.00     0.074 A 
ATOM     52  C   UNL A   1      42.993  23.012  29.439  1.00  0.00     0.029 A 
ATOM     53  N   UNL A   1      44.979  23.744  28.906  1.00  0.00    -0.354 N 
ATOM     54  N   UNL A   1      46.255  27.729  30.087  1.00  0.00    -0.248 NA
ATOM     55  C   UNL A   1      46.582  27.533  27.785  1.00  0.00     0.031 C 
ATOM     56  C   UNL A   1      43.585  23.658  30.566  1.00  0.00     0.029 A 
ATOM     57  C   UNL A   1      44.696  24.361  30.096  1.00  0.00     0.049 A 
ATOM     58  H   UNL A   1      45.869  23.574  28.521  1.00  0.00     0.167 HD
ATOM     59  C   UNL A   1      46.047  26.404  29.742  1.00  0.00     0.074 A 
ATOM     60  C   UNL A   1      46.370  26.328  28.319  1.00  0.00     0.031 C 
ATOM     61  C   UNL A   1      45.373  25.546  30.565  1.00  0.00     0.037 A 
BRANCH  48  62
ATOM     62  C   UNL A   1      44.360  23.257  25.870  1.00  0.00     0.057 A 
ATOM     63  C   UNL A   1      44.403  21.873  25.600  1.00  0.00     0.134 A 
ATOM     64  C   UNL A   1      45.367  24.016  25.246  1.00  0.00     0.134 A 
ATOM     65  F   UNL A   1      43.510  21.035  26.149  1.00  0.00    -0.206 F 
ATOM     66  C   UNL A   1      45.412  21.284  24.826  1.00  0.00     0.040 A 
ATOM     67  C   UNL A   1      46.351  23.446  24.431  1.00  0.00     0.040 A 
ATOM     68  F   UNL A   1      45.507  25.328  25.475  1.00  0.00    -0.206 F 
ATOM     69  C   UNL A   1      46.396  22.072  24.242  1.00  0.00     0.006 A 
ENDBRANCH  48  62
BRANCH  49  70
ATOM     70  C   UNL A   1      46.570  30.867  28.265  1.00  0.00     0.057 A 
ATOM     71  C   UNL A   1      46.600  31.239  26.918  1.00  0.00     0.134 A 
ATOM     72  C   UNL A   1      47.130  31.781  29.177  1.00  0.00     0.134 A 
ATOM     73  F   UNL A   1      46.057  30.448  25.980  1.00  0.00    -0.206 F 
ATOM     74  C   UNL A   1      47.137  32.463  26.499  1.00  0.00     0.040 A 
ATOM     75  C   UNL A   1      47.676  33.001  28.773  1.00  0.00     0.040 A 
ATOM     76  F   UNL A   1      47.088  31.554  30.499  1.00  0.00    -0.206 F 
ATOM     77  C   UNL A   1      47.668  33.352  27.429  1.00  0.00     0.006 A 
ENDBRANCH  49  70
BRANCH  61  78
ATOM     78  C   UNL A   1      45.050  25.992  31.964  1.00  0.00     0.057 A 
ATOM     79  C   UNL A   1      43.886  26.694  32.309  1.00  0.00     0.134 A 
ATOM     80  C   UNL A   1      45.848  25.542  33.022  1.00  0.00     0.134 A 
ATOM     81  F   UNL A   1      43.002  27.071  31.380  1.00  0.00    -0.206 F 
ATOM     82  C   UNL A   1      43.554  26.973  33.638  1.00  0.00     0.040 A 
ATOM     83  C   UNL A   1      45.513  25.788  34.357  1.00  0.00     0.040 A 
ATOM     84  F   UNL A   1      46.944  24.808  32.777  1.00  0.00    -0.206 F 
ATOM     85  C   UNL A   1      44.366  26.513  34.669  1.00  0.00     0.006 A 
ENDBRANCH  61  78
ENDBRANCH  35  36
ENDBRANCH  27  30
ENDBRANCH  25  26
ENDBRANCH   1  25
TORSDOF 14
ENDMDL
MODEL 2
REMARK VINA RESULT:     -11.8      0.319      1.393
REMARK SMILES CCCc1c(C(=O)NCCCNC(=O)c2ccc(-c3c4nc(c(-c5c(F)cccc5F)c5ccc([nH]5)c(-c5c(F)cccc5F)c5nc(c(-c6c(F)cccc6F)c6ccc3[nH]6)C=C5)C=C4)cc2)nnn1-c1cccc(C(F)(F)F)c1
REMARK SMILES IDX 10 1 9 2 8 3 6 4 7 5 5 7 4 8 71 9 69 10 70 11 3 12 2 13 1 14
REMARK SMILES IDX 72 15 73 16 81 17 74 18 76 19 75 20 77 21 78 22 79 23 80 24
REMARK SMILES IDX 11 25 12 26 13 27 14 29 15 30 16 31 68 32 17 33 67 34 18 35
REMARK SMILES IDX 19 36 20 37 61 38 21 39 66 40 60 41 62 42 22 43 65 44 59 45
REMARK SMILES IDX 58 46 23 48 49 49 32 50 48 51 33 52 36 53 47 54 63 55 34 56
REMARK SMILES IDX 35 57 46 59 64 60 37 61 24 62 25 63 30 64 26 65 27 66 29 67
REMARK SMILES IDX 31 68 28 69 50 70 51 71 56 72 52 73 53 74 55 75 57 76 54 77
REMARK SMILES IDX 38 78 39 79 44 80 40 81 41 82 43 83 45 84 42 85
REMARK H PARENT 8 6 12 28 62 47 36 58
REMARK Flexibility Score: inf
ROOT
ATOM      1  C   UNL A   1      33.738  30.039  26.600  1.00  0.00     0.042 C 
ENDROOT
BRANCH   1   2
ATOM      2  C   UNL A   1      33.591  29.019  25.487  1.00  0.00     0.118 C 
BRANCH   2   3
ATOM      3  N   UNL A   1      33.008  29.434  24.245  1.00  0.00    -0.351 N 
ATOM      4  C   UNL A   1      32.459  28.570  23.317  1.00  0.00     0.273 C 
ATOM      5  O   UNL A   1      31.669  29.035  22.495  1.00  0.00    -0.267 OA
ATOM      6  H   UNL A   1      33.000  30.397  24.039  1.00  0.00     0.163 HD
BRANCH   4   7
ATOM      7  C   UNL A   1      32.951  27.194  23.228  1.00  0.00     0.174 A 
ATOM      8  C   UNL A   1      33.053  26.101  24.104  1.00  0.00     0.078 A 
ATOM      9  N   UNL A   1      33.720  25.140  23.304  1.00  0.00    -0.217 N 
ATOM     10  N   UNL A   1      33.492  26.850  22.010  1.00  0.00    -0.124 NA
ATOM     11  N   UNL A   1      34.019  25.651  22.097  1.00  0.00    -0.061 NA
BRANCH   8  12
ATOM     12  C   UNL A   1      32.723  25.740  25.533  1.00  0.00     0.059 C 
BRANCH  12  13
ATOM     13  C   UNL A   1      31.361  25.381  26.088  1.00  0.00     0.003 C 
ATOM     14  C   UNL A   1      31.204  23.933  26.504  1.00  0.00     0.004 C 
ENDBRANCH  12  13
ENDBRANCH   8  12
BRANCH   9  15
ATOM     15  C   UNL A   1      34.201  23.840  23.639  1.00  0.00     0.067 A 
ATOM     16  C   UNL A   1      35.560  23.676  23.939  1.00  0.00     0.028 A 
ATOM     17  C   UNL A   1      33.350  22.733  23.729  1.00  0.00     0.041 A 
ATOM     18  C   UNL A   1      36.028  22.452  24.422  1.00  0.00     0.003 A 
ATOM     19  C   UNL A   1      33.799  21.510  24.251  1.00  0.00     0.058 A 
ATOM     20  C   UNL A   1      35.149  21.382  24.600  1.00  0.00     0.013 A 
BRANCH  19  21
ATOM     21  C   UNL A   1      32.837  20.361  24.437  1.00  0.00     0.416 C 
ATOM     22  F   UNL A   1      31.674  20.738  25.031  1.00  0.00    -0.166 F 
ATOM     23  F   UNL A   1      32.492  19.773  23.258  1.00  0.00    -0.166 F 
ATOM     24  F   UNL A   1      33.348  19.360  25.210  1.00  0.00    -0.166 F 
ENDBRANCH  19  21
ENDBRANCH   9  15
ENDBRANCH   4   7
ENDBRANCH   2   3
ENDBRANCH   1   2
BRANCH   1  25
ATOM     25  C   UNL A   1      34.620  29.509  27.724  1.00  0.00     0.118 C 
BRANCH  25  26
ATOM     26  N   UNL A   1      35.228  30.538  28.584  1.00  0.00    -0.352 N 
ATOM     27  C   UNL A   1      36.535  30.558  29.065  1.00  0.00     0.251 C 
ATOM     28  H   UNL A   1      34.650  31.290  28.847  1.00  0.00     0.163 HD
ATOM     29  O   UNL A   1      36.922  31.380  29.875  1.00  0.00    -0.269 OA
BRANCH  27  30
ATOM     30  C   UNL A   1      37.428  29.502  28.552  1.00  0.00     0.039 A 
ATOM     31  C   UNL A   1      38.154  29.720  27.380  1.00  0.00     0.014 A 
ATOM     32  C   UNL A   1      37.805  28.536  29.470  1.00  0.00     0.014 A 
ATOM     33  C   UNL A   1      39.387  29.083  27.231  1.00  0.00     0.010 A 
ATOM     34  C   UNL A   1      39.097  28.061  29.396  1.00  0.00     0.010 A 
ATOM     35  C   UNL A   1      39.912  28.319  28.286  1.00  0.00    -0.014 A 
BRANCH  35  36
ATOM     36  C   UNL A   1      41.338  27.939  28.298  1.00  0.00     0.031 A 
ATOM     37  C   UNL A   1      41.760  26.727  27.507  1.00  0.00     0.074 A 
ATOM     38  C   UNL A   1      42.337  28.724  28.766  1.00  0.00     0.049 A 
ATOM     39  N   UNL A   1      42.321  25.646  27.950  1.00  0.00    -0.248 NA
ATOM     40  C   UNL A   1      41.523  26.709  26.055  1.00  0.00     0.031 C 
ATOM     41  C   UNL A   1      42.283  30.079  29.325  1.00  0.00     0.029 A 
ATOM     42  N   UNL A   1      43.678  28.479  28.723  1.00  0.00    -0.354 N 
ATOM     43  C   UNL A   1      42.653  24.870  26.836  1.00  0.00     0.074 A 
ATOM     44  C   UNL A   1      42.054  25.534  25.703  1.00  0.00     0.031 C 
ATOM     45  C   UNL A   1      43.515  30.629  29.308  1.00  0.00     0.029 A 
ATOM     46  C   UNL A   1      44.465  29.593  28.962  1.00  0.00     0.049 A 
ATOM     47  H   UNL A   1      44.054  27.588  28.538  1.00  0.00     0.167 HD
ATOM     48  C   UNL A   1      43.527  23.822  26.904  1.00  0.00     0.037 A 
ATOM     49  C   UNL A   1      45.812  29.674  28.907  1.00  0.00     0.037 A 
ATOM     50  C   UNL A   1      43.759  23.406  28.262  1.00  0.00     0.049 A 
ATOM     51  C   UNL A   1      46.344  28.306  29.092  1.00  0.00     0.074 A 
ATOM     52  C   UNL A   1      42.961  22.973  29.304  1.00  0.00     0.029 A 
ATOM     53  N   UNL A   1      44.965  23.705  28.845  1.00  0.00    -0.354 N 
ATOM     54  N   UNL A   1      46.247  27.632  30.204  1.00  0.00    -0.248 NA
ATOM     55  C   UNL A   1      46.628  27.517  27.904  1.00  0.00     0.031 C 
ATOM     56  C   UNL A   1      43.532  23.572  30.468  1.00  0.00     0.029 A 
ATOM     57  C   UNL A   1      44.659  24.281  30.051  1.00  0.00     0.049 A 
ATOM     58  H   UNL A   1      45.863  23.541  28.476  1.00  0.00     0.167 HD
ATOM     59  C   UNL A   1      46.036  26.322  29.805  1.00  0.00     0.074 A 
ATOM     60  C   UNL A   1      46.393  26.296  28.388  1.00  0.00     0.031 C 
ATOM     61  C   UNL A   1      45.335  25.441  30.580  1.00  0.00     0.037 A 
BRANCH  48  62
ATOM     62  C   UNL A   1      44.415  23.336  25.780  1.00  0.00     0.057 A 
ATOM     63  C   UNL A   1      44.484  21.958  25.486  1.00  0.00     0.134 A 
ATOM     64  C   UNL A   1      45.418  24.123  25.183  1.00  0.00     0.134 A 
ATOM     65  F   UNL A   1      43.597  21.097  26.009  1.00  0.00    -0.206 F 
ATOM     66  C   UNL A   1      45.512  21.400  24.715  1.00  0.00     0.040 A 
ATOM     67  C   UNL A   1      46.421  23.582  24.370  1.00  0.00     0.040 A 
ATOM     68  F   UNL A   1      45.534  25.432  25.436  1.00  0.00    -0.206 F 
ATOM     69  C   UNL A   1      46.490  22.213  24.158  1.00  0.00     0.006 A 
ENDBRANCH  48  62
BRANCH  49  70
ATOM     70  C   UNL A   1      46.633  30.832  28.508  1.00  0.00     0.057 A 
ATOM     71  C   UNL A   1      47.628  31.342  29.347  1.00  0.00     0.134 A 
ATOM     72  C   UNL A   1      46.628  31.310  27.184  1.00  0.00     0.134 A 
ATOM     73  F   UNL A   1      47.734  30.917  30.615  1.00  0.00    -0.206 F 
ATOM     74  C   UNL A   1      48.581  32.262  28.892  1.00  0.00     0.040 A 
ATOM     75  C   UNL A   1      47.567  32.233  26.719  1.00  0.00     0.040 A 
ATOM     76  F   UNL A   1      45.761  30.832  26.278  1.00  0.00    -0.206 F 
ATOM     77  C   UNL A   1      48.558  32.702  27.572  1.00  0.00     0.006 A 
ENDBRANCH  49  70
BRANCH  61  78
ATOM     78  C   UNL A   1      44.983  25.838  31.986  1.00  0.00     0.057 A 
ATOM     79  C   UNL A   1      45.819  25.617  33.091  1.00  0.00     0.134 A 
ATOM     80  C   UNL A   1      43.851  26.630  32.206  1.00  0.00     0.134 A 
ATOM     81  F   UNL A   1      46.980  24.966  32.963  1.00  0.00    -0.206 F 
ATOM     82  C   UNL A   1      45.521  26.121  34.360  1.00  0.00     0.040 A 
ATOM     83  C   UNL A   1      43.556  27.166  33.463  1.00  0.00     0.040 A 
ATOM     84  F   UNL A   1      43.036  26.942  31.186  1.00  0.00    -0.206 F 
ATOM     85  C   UNL A   1      44.389  26.905  34.549  1.00  0.00     0.006 A 
ENDBRANCH  61  78
ENDBRANCH  35  36
ENDBRANCH  27  30
ENDBRANCH  25  26
ENDBRANCH   1  25
TORSDOF 14
ENDMDL
MODEL 3
REMARK VINA RESULT:     -11.4      5.047      9.119
REMARK SMILES CCCc1c(C(=O)NCCCNC(=O)c2ccc(-c3c4nc(c(-c5c(F)cccc5F)c5ccc([nH]5)c(-c5c(F)cccc5F)c5nc(c(-c6c(F)cccc6F)c6ccc3[nH]6)C=C5)C=C4)cc2)nnn1-c1cccc(C(F)(F)F)c1
REMARK SMILES IDX 10 1 9 2 8 3 6 4 7 5 5 7 4 8 71 9 69 10 70 11 3 12 2 13 1 14
REMARK SMILES IDX 72 15 73 16 81 17 74 18 76 19 75 20 77 21 78 22 79 23 80 24
REMARK SMILES IDX 11 25 12 26 13 27 14 29 15 30 16 31 68 32 17 33 67 34 18 35
REMARK SMILES IDX 19 36 20 37 61 38 21 39 66 40 60 41 62 42 22 43 65 44 59 45
REMARK SMILES IDX 58 46 23 48 49 49 32 50 48 51 33 52 36 53 47 54 63 55 34 56
REMARK SMILES IDX 35 57 46 59 64 60 37 61 24 62 25 63 30 64 26 65 27 66 29 67
REMARK SMILES IDX 31 68 28 69 50 70 51 71 56 72 52 73 53 74 55 75 57 76 54 77
REMARK SMILES IDX 38 78 39 79 44 80 40 81 41 82 43 83 45 84 42 85
REMARK H PARENT 8 6 12 28 62 47 36 58
REMARK Flexibility Score: inf
ROOT
ATOM      1  C   UNL A   1      34.290  34.252  28.342  1.00  0.00     0.042 C 
ENDROOT
BRANCH   1   2
ATOM      2  C   UNL A   1      34.190  32.952  27.566  1.00  0.00     0.118 C 
BRANCH   2   3
ATOM      3  N   UNL A   1      34.935  31.817  28.026  1.00  0.00    -0.351 N 
ATOM      4  C   UNL A   1      34.857  30.557  27.463  1.00  0.00     0.273 C 
ATOM      5  O   UNL A   1      35.785  29.775  27.672  1.00  0.00    -0.267 OA
ATOM      6  H   UNL A   1      35.541  31.943  28.792  1.00  0.00     0.163 HD
BRANCH   4   7
ATOM      7  C   UNL A   1      33.623  30.136  26.797  1.00  0.00     0.174 A 
ATOM      8  C   UNL A   1      33.297  29.331  25.693  1.00  0.00     0.078 A 
ATOM      9  N   UNL A   1      31.890  29.477  25.623  1.00  0.00    -0.217 N 
ATOM     10  N   UNL A   1      32.469  30.666  27.328  1.00  0.00    -0.124 NA
ATOM     11  N   UNL A   1      31.453  30.329  26.568  1.00  0.00    -0.061 NA
BRANCH   8  12
ATOM     12  C   UNL A   1      33.983  28.487  24.645  1.00  0.00     0.059 C 
BRANCH  12  13
ATOM     13  C   UNL A   1      34.162  28.824  23.180  1.00  0.00     0.003 C 
ATOM     14  C   UNL A   1      33.564  27.819  22.217  1.00  0.00     0.004 C 
ENDBRANCH  12  13
ENDBRANCH   8  12
BRANCH   9  15
ATOM     15  C   UNL A   1      30.961  28.980  24.662  1.00  0.00     0.067 A 
ATOM     16  C   UNL A   1      30.714  27.601  24.608  1.00  0.00     0.028 A 
ATOM     17  C   UNL A   1      30.250  29.829  23.807  1.00  0.00     0.041 A 
ATOM     18  C   UNL A   1      29.697  27.104  23.790  1.00  0.00     0.003 A 
ATOM     19  C   UNL A   1      29.200  29.347  23.011  1.00  0.00     0.058 A 
ATOM     20  C   UNL A   1      28.929  27.973  23.014  1.00  0.00     0.013 A 
BRANCH  19  21
ATOM     21  C   UNL A   1      28.377  30.299  22.176  1.00  0.00     0.416 C 
ATOM     22  F   UNL A   1      27.919  29.732  21.029  1.00  0.00    -0.166 F 
ATOM     23  F   UNL A   1      27.282  30.761  22.839  1.00  0.00    -0.166 F 
ATOM     24  F   UNL A   1      29.072  31.410  21.796  1.00  0.00    -0.166 F 
ENDBRANCH  19  21
ENDBRANCH   9  15
ENDBRANCH   4   7
ENDBRANCH   2   3
ENDBRANCH   1   2
BRANCH   1  25
ATOM     25  C   UNL A   1      34.261  34.003  29.845  1.00  0.00     0.118 C 
BRANCH  25  26
ATOM     26  N   UNL A   1      33.238  34.758  30.588  1.00  0.00    -0.352 N 
ATOM     27  C   UNL A   1      33.171  34.937  31.967  1.00  0.00     0.251 C 
ATOM     28  H   UNL A   1      32.528  35.180  30.054  1.00  0.00     0.163 HD
ATOM     29  O   UNL A   1      32.224  35.469  32.514  1.00  0.00    -0.269 OA
BRANCH  27  30
ATOM     30  C   UNL A   1      34.316  34.419  32.742  1.00  0.00     0.039 A 
ATOM     31  C   UNL A   1      34.431  33.048  32.971  1.00  0.00     0.014 A 
ATOM     32  C   UNL A   1      35.408  35.266  32.838  1.00  0.00     0.014 A 
ATOM     33  C   UNL A   1      35.708  32.499  33.109  1.00  0.00     0.010 A 
ATOM     34  C   UNL A   1      36.660  34.692  32.792  1.00  0.00     0.010 A 
ATOM     35  C   UNL A   1      36.840  33.309  32.925  1.00  0.00    -0.014 A 
BRANCH  35  36
ATOM     36  C   UNL A   1      38.168  32.701  32.712  1.00  0.00     0.031 A 
ATOM     37  C   UNL A   1      39.066  32.512  33.908  1.00  0.00     0.074 A 
ATOM     38  C   UNL A   1      38.554  32.082  31.571  1.00  0.00     0.049 A 
ATOM     39  N   UNL A   1      40.244  33.015  34.104  1.00  0.00    -0.248 NA
ATOM     40  C   UNL A   1      38.598  31.671  35.022  1.00  0.00     0.031 C 
ATOM     41  C   UNL A   1      37.805  31.840  30.334  1.00  0.00     0.029 A 
ATOM     42  N   UNL A   1      39.724  31.420  31.338  1.00  0.00    -0.354 N 
ATOM     43  C   UNL A   1      40.741  32.448  35.281  1.00  0.00     0.074 A 
ATOM     44  C   UNL A   1      39.647  31.699  35.849  1.00  0.00     0.031 C 
ATOM     45  C   UNL A   1      38.413  30.876  29.613  1.00  0.00     0.029 A 
ATOM     46  C   UNL A   1      39.701  30.607  30.218  1.00  0.00     0.049 A 
ATOM     47  H   UNL A   1      40.515  31.511  31.917  1.00  0.00     0.167 HD
ATOM     48  C   UNL A   1      42.063  32.508  35.624  1.00  0.00     0.037 A 
ATOM     49  C   UNL A   1      40.673  29.777  29.785  1.00  0.00     0.037 A 
ATOM     50  C   UNL A   1      42.772  33.496  34.854  1.00  0.00     0.049 A 
ATOM     51  C   UNL A   1      41.951  30.260  30.354  1.00  0.00     0.074 A 
ATOM     52  C   UNL A   1      42.636  34.854  34.639  1.00  0.00     0.029 A 
ATOM     53  N   UNL A   1      43.636  33.071  33.874  1.00  0.00    -0.354 N 
ATOM     54  N   UNL A   1      42.514  31.389  30.025  1.00  0.00    -0.248 NA
ATOM     55  C   UNL A   1      42.404  29.677  31.606  1.00  0.00     0.031 C 
ATOM     56  C   UNL A   1      42.949  35.034  33.258  1.00  0.00     0.029 A 
ATOM     57  C   UNL A   1      43.298  33.781  32.752  1.00  0.00     0.049 A 
ATOM     58  H   UNL A   1      44.349  32.398  33.960  1.00  0.00     0.167 HD
ATOM     59  C   UNL A   1      43.066  31.866  31.202  1.00  0.00     0.074 A 
ATOM     60  C   UNL A   1      43.065  30.721  32.111  1.00  0.00     0.031 C 
ATOM     61  C   UNL A   1      43.221  33.205  31.432  1.00  0.00     0.037 A 
BRANCH  48  62
ATOM     62  C   UNL A   1      42.809  31.484  36.450  1.00  0.00     0.057 A 
ATOM     63  C   UNL A   1      43.653  31.909  37.497  1.00  0.00     0.134 A 
ATOM     64  C   UNL A   1      42.964  30.138  36.070  1.00  0.00     0.134 A 
ATOM     65  F   UNL A   1      43.618  33.175  37.940  1.00  0.00    -0.206 F 
ATOM     66  C   UNL A   1      44.623  31.076  38.073  1.00  0.00     0.040 A 
ATOM     67  C   UNL A   1      43.894  29.283  36.671  1.00  0.00     0.040 A 
ATOM     68  F   UNL A   1      42.294  29.614  35.036  1.00  0.00    -0.206 F 
ATOM     69  C   UNL A   1      44.750  29.758  37.655  1.00  0.00     0.006 A 
ENDBRANCH  48  62
BRANCH  49  70
ATOM     70  C   UNL A   1      40.519  28.493  29.078  1.00  0.00     0.057 A 
ATOM     71  C   UNL A   1      39.789  27.438  29.635  1.00  0.00     0.134 A 
ATOM     72  C   UNL A   1      40.878  28.356  27.724  1.00  0.00     0.134 A 
ATOM     73  F   UNL A   1      39.371  27.497  30.908  1.00  0.00    -0.206 F 
ATOM     74  C   UNL A   1      39.416  26.317  28.883  1.00  0.00     0.040 A 
ATOM     75  C   UNL A   1      40.520  27.240  26.964  1.00  0.00     0.040 A 
ATOM     76  F   UNL A   1      41.517  29.341  27.074  1.00  0.00    -0.206 F 
ATOM     77  C   UNL A   1      39.773  26.221  27.541  1.00  0.00     0.006 A 
ENDBRANCH  49  70
BRANCH  61  78
ATOM     78  C   UNL A   1      42.998  34.162  30.294  1.00  0.00     0.057 A 
ATOM     79  C   UNL A   1      43.979  34.487  29.346  1.00  0.00     0.134 A 
ATOM     80  C   UNL A   1      41.703  34.626  30.041  1.00  0.00     0.134 A 
ATOM     81  F   UNL A   1      45.221  34.001  29.438  1.00  0.00    -0.206 F 
ATOM     82  C   UNL A   1      43.696  35.274  28.225  1.00  0.00     0.040 A 
ATOM     83  C   UNL A   1      41.399  35.388  28.908  1.00  0.00     0.040 A 
ATOM     84  F   UNL A   1      40.695  34.302  30.866  1.00  0.00    -0.206 F 
ATOM     85  C   UNL A   1      42.400  35.722  27.999  1.00  0.00     0.006 A 
ENDBRANCH  61  78
ENDBRANCH  35  36
ENDBRANCH  27  30
ENDBRANCH  25  26
ENDBRANCH   1  25
TORSDOF 14
ENDMDL
