MODEL 1
REMARK VINA RESULT:     -12.2      0.000      0.000
REMARK SMILES O=C(NCCCNC(=O)c1ccccc1C[N@H+]1CCCC[C@@H]1CCn1cccn1)c1ccc(-c2c3nc(c(-c4c(F)cccc4F)c4ccc([nH]4)c(-c4c(F)cccc4F)c4nc(c(-c5c(F)cccc5F)c5ccc2[nH]5)C=C4)C=C3)cc1
REMARK SMILES IDX 7 1 8 2 9 3 6 5 5 6 4 7 3 8 1 9 2 10 30 12 31 13 83 14 32 15
REMARK SMILES IDX 82 16 33 17 34 18 35 19 76 20 36 21 81 22 75 23 77 24 37 25
REMARK SMILES IDX 80 26 74 27 73 28 38 30 64 31 47 32 63 33 48 34 51 35 62 36
REMARK SMILES IDX 78 37 49 38 50 39 61 41 79 42 52 43 39 44 40 45 45 46 41 47
REMARK SMILES IDX 42 48 44 49 46 50 43 51 65 52 66 53 71 54 67 55 68 56 70 57
REMARK SMILES IDX 72 58 69 59 53 60 54 61 59 62 55 63 56 64 58 65 60 66 57 67
REMARK SMILES IDX 10 68 11 69 15 70 12 71 14 72 13 73 16 74 17 75 18 76 22 77
REMARK SMILES IDX 19 79 21 80 20 81 23 82 24 83 25 84 26 85 29 86 27 87 28 88
REMARK H PARENT 7 4 3 11 77 29 51 40 17 78
REMARK Flexibility Score: inf
ROOT
ATOM      1  N   UNL A   1      31.612  27.234  27.210  1.00  0.00    -0.352 N 
ATOM      2  C   UNL A   1      31.171  26.426  26.185  1.00  0.00     0.251 C 
ATOM      3  O   UNL A   1      30.150  25.772  26.325  1.00  0.00    -0.269 OA
ATOM      4  H   UNL A   1      31.043  27.234  28.013  1.00  0.00     0.163 HD
ENDROOT
BRANCH   1   5
ATOM      5  C   UNL A   1      32.786  28.088  27.288  1.00  0.00     0.118 C 
BRANCH   5   6
ATOM      6  C   UNL A   1      32.534  29.537  26.896  1.00  0.00     0.042 C 
BRANCH   6   7
ATOM      7  C   UNL A   1      33.762  30.441  26.967  1.00  0.00     0.118 C 
BRANCH   7   8
ATOM      8  N   UNL A   1      33.789  31.348  28.097  1.00  0.00    -0.352 N 
ATOM      9  O   UNL A   1      34.445  32.764  29.657  1.00  0.00    -0.269 OA
ATOM     10  C   UNL A   1      34.761  31.812  28.939  1.00  0.00     0.251 C 
ATOM     11  H   UNL A   1      32.901  31.716  28.308  1.00  0.00     0.163 HD
BRANCH  10  12
ATOM     12  C   UNL A   1      36.116  31.217  29.105  1.00  0.00     0.039 A 
ATOM     13  C   UNL A   1      37.314  31.922  29.229  1.00  0.00     0.014 A 
ATOM     14  C   UNL A   1      36.164  29.809  29.088  1.00  0.00     0.014 A 
ATOM     15  C   UNL A   1      38.531  31.242  29.244  1.00  0.00     0.010 A 
ATOM     16  C   UNL A   1      37.373  29.125  29.115  1.00  0.00     0.010 A 
ATOM     17  C   UNL A   1      38.561  29.846  29.159  1.00  0.00    -0.014 A 
BRANCH  17  18
ATOM     18  C   UNL A   1      39.841  29.162  29.333  1.00  0.00     0.031 A 
ATOM     19  C   UNL A   1      40.180  28.876  30.760  1.00  0.00     0.074 A 
ATOM     20  C   UNL A   1      40.573  28.662  28.314  1.00  0.00     0.049 A 
ATOM     21  N   UNL A   1      41.219  29.254  31.431  1.00  0.00    -0.248 NA
ATOM     22  C   UNL A   1      39.171  28.173  31.575  1.00  0.00     0.031 C 
ATOM     23  C   UNL A   1      40.221  28.606  26.893  1.00  0.00     0.029 A 
ATOM     24  N   UNL A   1      41.768  28.003  28.351  1.00  0.00    -0.354 N 
ATOM     25  C   UNL A   1      41.088  28.684  32.697  1.00  0.00     0.074 A 
ATOM     26  C   UNL A   1      39.752  28.156  32.774  1.00  0.00     0.031 C 
ATOM     27  C   UNL A   1      41.064  27.762  26.253  1.00  0.00     0.029 A 
ATOM     28  C   UNL A   1      42.090  27.321  27.182  1.00  0.00     0.049 A 
ATOM     29  H   UNL A   1      42.355  28.011  29.142  1.00  0.00     0.167 HD
ATOM     30  C   UNL A   1      42.161  28.494  33.513  1.00  0.00     0.037 A 
ATOM     31  C   UNL A   1      43.094  26.421  27.011  1.00  0.00     0.037 A 
ATOM     32  C   UNL A   1      43.263  29.341  33.142  1.00  0.00     0.049 A 
ATOM     33  C   UNL A   1      44.063  26.611  28.117  1.00  0.00     0.074 A 
ATOM     34  C   UNL A   1      43.453  30.705  33.062  1.00  0.00     0.029 A 
ATOM     35  N   UNL A   1      44.292  28.781  32.427  1.00  0.00    -0.354 N 
ATOM     36  N   UNL A   1      44.820  27.661  28.249  1.00  0.00    -0.248 NA
ATOM     37  C   UNL A   1      43.857  25.828  29.326  1.00  0.00     0.031 C 
ATOM     38  C   UNL A   1      44.261  30.894  31.902  1.00  0.00     0.029 A 
ATOM     39  C   UNL A   1      44.570  29.634  31.392  1.00  0.00     0.049 A 
ATOM     40  H   UNL A   1      44.744  27.929  32.622  1.00  0.00     0.167 HD
ATOM     41  C   UNL A   1      44.817  27.924  29.610  1.00  0.00     0.074 A 
ATOM     42  C   UNL A   1      44.271  26.718  30.231  1.00  0.00     0.031 C 
ATOM     43  C   UNL A   1      44.988  29.192  30.083  1.00  0.00     0.037 A 
BRANCH  30  44
ATOM     44  C   UNL A   1      42.328  27.290  34.406  1.00  0.00     0.057 A 
ATOM     45  C   UNL A   1      41.985  27.379  35.766  1.00  0.00     0.134 A 
ATOM     46  C   UNL A   1      43.084  26.154  34.052  1.00  0.00     0.134 A 
ATOM     47  F   UNL A   1      41.290  28.427  36.235  1.00  0.00    -0.206 F 
ATOM     48  C   UNL A   1      42.415  26.438  36.712  1.00  0.00     0.040 A 
ATOM     49  C   UNL A   1      43.475  25.184  34.978  1.00  0.00     0.040 A 
ATOM     50  F   UNL A   1      43.572  25.973  32.819  1.00  0.00    -0.206 F 
ATOM     51  C   UNL A   1      43.168  25.338  36.320  1.00  0.00     0.006 A 
ENDBRANCH  30  44
BRANCH  31  52
ATOM     52  C   UNL A   1      43.127  25.204  26.162  1.00  0.00     0.057 A 
ATOM     53  C   UNL A   1      44.125  25.015  25.192  1.00  0.00     0.134 A 
ATOM     54  C   UNL A   1      42.362  24.071  26.483  1.00  0.00     0.134 A 
ATOM     55  F   UNL A   1      44.942  26.022  24.848  1.00  0.00    -0.206 F 
ATOM     56  C   UNL A   1      44.364  23.767  24.597  1.00  0.00     0.040 A 
ATOM     57  C   UNL A   1      42.587  22.821  25.894  1.00  0.00     0.040 A 
ATOM     58  F   UNL A   1      41.434  24.115  27.450  1.00  0.00    -0.206 F 
ATOM     59  C   UNL A   1      43.600  22.661  24.957  1.00  0.00     0.006 A 
ENDBRANCH  31  52
BRANCH  43  60
ATOM     60  C   UNL A   1      45.415  30.255  29.108  1.00  0.00     0.057 A 
ATOM     61  C   UNL A   1      44.527  31.038  28.351  1.00  0.00     0.134 A 
ATOM     62  C   UNL A   1      46.769  30.598  29.042  1.00  0.00     0.134 A 
ATOM     63  F   UNL A   1      43.204  30.854  28.422  1.00  0.00    -0.206 F 
ATOM     64  C   UNL A   1      44.975  32.081  27.534  1.00  0.00     0.040 A 
ATOM     65  C   UNL A   1      47.226  31.660  28.258  1.00  0.00     0.040 A 
ATOM     66  F   UNL A   1      47.671  29.931  29.780  1.00  0.00    -0.206 F 
ATOM     67  C   UNL A   1      46.329  32.399  27.492  1.00  0.00     0.006 A 
ENDBRANCH  43  60
ENDBRANCH  17  18
ENDBRANCH  10  12
ENDBRANCH   7   8
ENDBRANCH   6   7
ENDBRANCH   5   6
ENDBRANCH   1   5
BRANCH   2  68
ATOM     68  C   UNL A   1      31.889  26.394  24.888  1.00  0.00     0.048 A 
ATOM     69  C   UNL A   1      31.433  27.315  23.925  1.00  0.00     0.014 A 
ATOM     70  C   UNL A   1      32.955  25.522  24.600  1.00  0.00     0.019 A 
ATOM     71  C   UNL A   1      32.083  27.443  22.700  1.00  0.00     0.001 A 
ATOM     72  C   UNL A   1      33.633  25.735  23.391  1.00  0.00     0.010 A 
ATOM     73  C   UNL A   1      33.205  26.669  22.446  1.00  0.00     0.001 A 
BRANCH  70  74
ATOM     74  C   UNL A   1      33.409  24.429  25.555  1.00  0.00     0.300 C 
BRANCH  74  75
ATOM     75  N   UNL A   1      34.547  23.575  25.170  1.00  0.00    -0.329 N 
ATOM     76  C   UNL A   1      35.755  23.969  25.913  1.00  0.00     0.262 C 
ATOM     77  C   UNL A   1      34.330  22.112  25.116  1.00  0.00     0.186 C 
ATOM     78  H   UNL A   1      34.681  23.768  24.178  1.00  0.00     0.348 HD
ATOM     79  C   UNL A   1      37.006  23.327  25.327  1.00  0.00     0.062 C 
ATOM     80  C   UNL A   1      35.587  21.438  24.519  1.00  0.00     0.065 C 
ATOM     81  C   UNL A   1      36.857  21.818  25.275  1.00  0.00     0.012 C 
BRANCH  77  82
ATOM     82  C   UNL A   1      33.081  21.729  24.273  1.00  0.00     0.088 C 
BRANCH  82  83
ATOM     83  C   UNL A   1      32.105  20.736  24.923  1.00  0.00     0.150 C 
BRANCH  83  84
ATOM     84  N   UNL A   1      32.394  19.339  24.654  1.00  0.00    -0.273 N 
ATOM     85  C   UNL A   1      32.604  18.765  23.434  1.00  0.00     0.108 A 
ATOM     86  N   UNL A   1      32.435  18.450  25.666  1.00  0.00    -0.182 NA
ATOM     87  C   UNL A   1      32.890  17.441  23.678  1.00  0.00     0.042 A 
ATOM     88  C   UNL A   1      32.780  17.306  25.072  1.00  0.00     0.135 A 
ENDBRANCH  83  84
ENDBRANCH  82  83
ENDBRANCH  77  82
ENDBRANCH  74  75
ENDBRANCH  70  74
ENDBRANCH   2  68
TORSDOF 15
ENDMDL
MODEL 2
REMARK VINA RESULT:     -12.2      0.716      1.563
REMARK SMILES O=C(NCCCNC(=O)c1ccccc1C[N@H+]1CCCC[C@@H]1CCn1cccn1)c1ccc(-c2c3nc(c(-c4c(F)cccc4F)c4ccc([nH]4)c(-c4c(F)cccc4F)c4nc(c(-c5c(F)cccc5F)c5ccc2[nH]5)C=C4)C=C3)cc1
REMARK SMILES IDX 7 1 8 2 9 3 6 5 5 6 4 7 3 8 1 9 2 10 30 12 31 13 83 14 32 15
REMARK SMILES IDX 82 16 33 17 34 18 35 19 76 20 36 21 81 22 75 23 77 24 37 25
REMARK SMILES IDX 80 26 74 27 73 28 38 30 64 31 47 32 63 33 48 34 51 35 62 36
REMARK SMILES IDX 78 37 49 38 50 39 61 41 79 42 52 43 39 44 40 45 45 46 41 47
REMARK SMILES IDX 42 48 44 49 46 50 43 51 65 52 66 53 71 54 67 55 68 56 70 57
REMARK SMILES IDX 72 58 69 59 53 60 54 61 59 62 55 63 56 64 58 65 60 66 57 67
REMARK SMILES IDX 10 68 11 69 15 70 12 71 14 72 13 73 16 74 17 75 18 76 22 77
REMARK SMILES IDX 19 79 21 80 20 81 23 82 24 83 25 84 26 85 29 86 27 87 28 88
REMARK H PARENT 7 4 3 11 77 29 51 40 17 78
REMARK Flexibility Score: inf
ROOT
ATOM      1  N   UNL A   1      31.377  26.820  27.041  1.00  0.00    -0.352 N 
ATOM      2  C   UNL A   1      30.855  25.933  26.125  1.00  0.00     0.251 C 
ATOM      3  O   UNL A   1      29.892  25.247  26.427  1.00  0.00    -0.269 OA
ATOM      4  H   UNL A   1      30.910  26.844  27.908  1.00  0.00     0.163 HD
ENDROOT
BRANCH   1   5
ATOM      5  C   UNL A   1      32.509  27.726  26.927  1.00  0.00     0.118 C 
BRANCH   5   6
ATOM      6  C   UNL A   1      32.125  29.190  26.763  1.00  0.00     0.042 C 
BRANCH   6   7
ATOM      7  C   UNL A   1      33.297  30.131  26.500  1.00  0.00     0.118 C 
BRANCH   7   8
ATOM      8  N   UNL A   1      33.462  31.189  27.477  1.00  0.00    -0.352 N 
ATOM      9  O   UNL A   1      34.318  32.756  28.773  1.00  0.00    -0.269 OA
ATOM     10  C   UNL A   1      34.514  31.683  28.196  1.00  0.00     0.251 C 
ATOM     11  H   UNL A   1      32.620  31.663  27.666  1.00  0.00     0.163 HD
BRANCH  10  12
ATOM     12  C   UNL A   1      35.822  31.000  28.393  1.00  0.00     0.039 A 
ATOM     13  C   UNL A   1      36.056  29.627  28.300  1.00  0.00     0.014 A 
ATOM     14  C   UNL A   1      36.896  31.841  28.748  1.00  0.00     0.014 A 
ATOM     15  C   UNL A   1      37.302  29.102  28.640  1.00  0.00     0.010 A 
ATOM     16  C   UNL A   1      38.143  31.325  29.075  1.00  0.00     0.010 A 
ATOM     17  C   UNL A   1      38.336  29.949  29.054  1.00  0.00    -0.014 A 
BRANCH  17  18
ATOM     18  C   UNL A   1      39.668  29.381  29.253  1.00  0.00     0.031 A 
ATOM     19  C   UNL A   1      40.054  29.244  30.691  1.00  0.00     0.074 A 
ATOM     20  C   UNL A   1      40.419  28.854  28.262  1.00  0.00     0.049 A 
ATOM     21  N   UNL A   1      41.071  29.756  31.303  1.00  0.00    -0.248 NA
ATOM     22  C   UNL A   1      39.116  28.538  31.585  1.00  0.00     0.031 C 
ATOM     23  C   UNL A   1      40.047  28.651  26.859  1.00  0.00     0.029 A 
ATOM     24  N   UNL A   1      41.662  28.294  28.325  1.00  0.00    -0.354 N 
ATOM     25  C   UNL A   1      41.007  29.286  32.615  1.00  0.00     0.074 A 
ATOM     26  C   UNL A   1      39.718  28.666  32.767  1.00  0.00     0.031 C 
ATOM     27  C   UNL A   1      40.942  27.822  26.272  1.00  0.00     0.029 A 
ATOM     28  C   UNL A   1      42.016  27.541  27.209  1.00  0.00     0.049 A 
ATOM     29  H   UNL A   1      42.260  28.413  29.099  1.00  0.00     0.167 HD
ATOM     30  C   UNL A   1      42.105  29.248  33.417  1.00  0.00     0.037 A 
ATOM     31  C   UNL A   1      43.084  26.709  27.089  1.00  0.00     0.037 A 
ATOM     32  C   UNL A   1      43.131  30.141  32.952  1.00  0.00     0.049 A 
ATOM     33  C   UNL A   1      44.054  27.065  28.153  1.00  0.00     0.074 A 
ATOM     34  C   UNL A   1      43.214  31.505  32.754  1.00  0.00     0.029 A 
ATOM     35  N   UNL A   1      44.188  29.603  32.261  1.00  0.00    -0.354 N 
ATOM     36  N   UNL A   1      44.729  28.177  28.179  1.00  0.00    -0.248 NA
ATOM     37  C   UNL A   1      43.931  26.374  29.427  1.00  0.00     0.031 C 
ATOM     38  C   UNL A   1      43.984  31.656  31.564  1.00  0.00     0.029 A 
ATOM     39  C   UNL A   1      44.382  30.384  31.152  1.00  0.00     0.049 A 
ATOM     40  H   UNL A   1      44.709  28.808  32.515  1.00  0.00     0.167 HD
ATOM     41  C   UNL A   1      44.729  28.553  29.513  1.00  0.00     0.074 A 
ATOM     42  C   UNL A   1      44.290  27.366  30.245  1.00  0.00     0.031 C 
ATOM     43  C   UNL A   1      44.810  29.866  29.875  1.00  0.00     0.037 A 
BRANCH  30  44
ATOM     44  C   UNL A   1      42.381  28.140  34.404  1.00  0.00     0.057 A 
ATOM     45  C   UNL A   1      42.824  26.890  33.941  1.00  0.00     0.134 A 
ATOM     46  C   UNL A   1      41.948  28.163  35.745  1.00  0.00     0.134 A 
ATOM     47  F   UNL A   1      43.237  26.731  32.673  1.00  0.00    -0.206 F 
ATOM     48  C   UNL A   1      42.781  25.736  34.735  1.00  0.00     0.040 A 
ATOM     49  C   UNL A   1      41.947  27.030  36.562  1.00  0.00     0.040 A 
ATOM     50  F   UNL A   1      41.406  29.251  36.305  1.00  0.00    -0.206 F 
ATOM     51  C   UNL A   1      42.336  25.803  36.050  1.00  0.00     0.006 A 
ENDBRANCH  30  44
BRANCH  31  52
ATOM     52  C   UNL A   1      43.197  25.431  26.344  1.00  0.00     0.057 A 
ATOM     53  C   UNL A   1      44.196  25.233  25.378  1.00  0.00     0.134 A 
ATOM     54  C   UNL A   1      42.519  24.277  26.771  1.00  0.00     0.134 A 
ATOM     55  F   UNL A   1      44.934  26.263  24.938  1.00  0.00    -0.206 F 
ATOM     56  C   UNL A   1      44.519  23.959  24.885  1.00  0.00     0.040 A 
ATOM     57  C   UNL A   1      42.828  23.001  26.284  1.00  0.00     0.040 A 
ATOM     58  F   UNL A   1      41.600  24.335  27.745  1.00  0.00    -0.206 F 
ATOM     59  C   UNL A   1      43.841  22.836  25.348  1.00  0.00     0.006 A 
ENDBRANCH  31  52
BRANCH  43  60
ATOM     60  C   UNL A   1      45.135  30.872  28.805  1.00  0.00     0.057 A 
ATOM     61  C   UNL A   1      46.438  31.194  28.391  1.00  0.00     0.134 A 
ATOM     62  C   UNL A   1      44.086  31.426  28.064  1.00  0.00     0.134 A 
ATOM     63  F   UNL A   1      47.509  30.638  28.970  1.00  0.00    -0.206 F 
ATOM     64  C   UNL A   1      46.680  32.061  27.321  1.00  0.00     0.040 A 
ATOM     65  C   UNL A   1      44.313  32.264  26.971  1.00  0.00     0.040 A 
ATOM     66  F   UNL A   1      42.813  31.120  28.365  1.00  0.00    -0.206 F 
ATOM     67  C   UNL A   1      45.614  32.594  26.603  1.00  0.00     0.006 A 
ENDBRANCH  43  60
ENDBRANCH  17  18
ENDBRANCH  10  12
ENDBRANCH   7   8
ENDBRANCH   6   7
ENDBRANCH   5   6
ENDBRANCH   1   5
BRANCH   2  68
ATOM     68  C   UNL A   1      31.411  25.854  24.753  1.00  0.00     0.048 A 
ATOM     69  C   UNL A   1      30.863  26.763  23.828  1.00  0.00     0.014 A 
ATOM     70  C   UNL A   1      32.414  24.948  24.362  1.00  0.00     0.019 A 
ATOM     71  C   UNL A   1      31.363  26.846  22.531  1.00  0.00     0.001 A 
ATOM     72  C   UNL A   1      32.947  25.116  23.075  1.00  0.00     0.010 A 
ATOM     73  C   UNL A   1      32.428  26.039  22.165  1.00  0.00     0.001 A 
BRANCH  70  74
ATOM     74  C   UNL A   1      32.956  23.867  25.283  1.00  0.00     0.300 C 
BRANCH  74  75
ATOM     75  N   UNL A   1      34.291  23.304  25.013  1.00  0.00    -0.329 N 
ATOM     76  C   UNL A   1      35.325  24.086  25.709  1.00  0.00     0.262 C 
ATOM     77  C   UNL A   1      34.465  21.839  25.137  1.00  0.00     0.186 C 
ATOM     78  H   UNL A   1      34.407  23.408  24.005  1.00  0.00     0.348 HD
ATOM     79  C   UNL A   1      36.722  23.732  25.214  1.00  0.00     0.062 C 
ATOM     80  C   UNL A   1      35.876  21.455  24.634  1.00  0.00     0.065 C 
ATOM     81  C   UNL A   1      36.973  22.241  25.346  1.00  0.00     0.012 C 
BRANCH  77  82
ATOM     82  C   UNL A   1      33.392  21.045  24.340  1.00  0.00     0.088 C 
BRANCH  82  83
ATOM     83  C   UNL A   1      32.602  19.993  25.133  1.00  0.00     0.150 C 
BRANCH  83  84
ATOM     84  N   UNL A   1      33.013  18.621  24.897  1.00  0.00    -0.273 N 
ATOM     85  C   UNL A   1      34.192  18.200  24.351  1.00  0.00     0.108 A 
ATOM     86  N   UNL A   1      32.178  17.604  25.188  1.00  0.00    -0.182 NA
ATOM     87  C   UNL A   1      34.156  16.825  24.375  1.00  0.00     0.042 A 
ATOM     88  C   UNL A   1      32.894  16.513  24.910  1.00  0.00     0.135 A 
ENDBRANCH  83  84
ENDBRANCH  82  83
ENDBRANCH  77  82
ENDBRANCH  74  75
ENDBRANCH  70  74
ENDBRANCH   2  68
TORSDOF 15
ENDMDL
MODEL 3
REMARK VINA RESULT:     -12.2      2.976      7.918
REMARK SMILES O=C(NCCCNC(=O)c1ccccc1C[N@H+]1CCCC[C@@H]1CCn1cccn1)c1ccc(-c2c3nc(c(-c4c(F)cccc4F)c4ccc([nH]4)c(-c4c(F)cccc4F)c4nc(c(-c5c(F)cccc5F)c5ccc2[nH]5)C=C4)C=C3)cc1
REMARK SMILES IDX 7 1 8 2 9 3 6 5 5 6 4 7 3 8 1 9 2 10 30 12 31 13 83 14 32 15
REMARK SMILES IDX 82 16 33 17 34 18 35 19 76 20 36 21 81 22 75 23 77 24 37 25
REMARK SMILES IDX 80 26 74 27 73 28 38 30 64 31 47 32 63 33 48 34 51 35 62 36
REMARK SMILES IDX 78 37 49 38 50 39 61 41 79 42 52 43 39 44 40 45 45 46 41 47
REMARK SMILES IDX 42 48 44 49 46 50 43 51 65 52 66 53 71 54 67 55 68 56 70 57
REMARK SMILES IDX 72 58 69 59 53 60 54 61 59 62 55 63 56 64 58 65 60 66 57 67
REMARK SMILES IDX 10 68 11 69 15 70 12 71 14 72 13 73 16 74 17 75 18 76 22 77
REMARK SMILES IDX 19 79 21 80 20 81 23 82 24 83 25 84 26 85 29 86 27 87 28 88
REMARK H PARENT 7 4 3 11 77 29 51 40 17 78
REMARK Flexibility Score: inf
ROOT
ATOM      1  N   UNL A   1      37.402  23.255  24.333  1.00  0.00    -0.352 N 
ATOM      2  C   UNL A   1      36.079  23.181  23.954  1.00  0.00     0.251 C 
ATOM      3  O   UNL A   1      35.777  23.318  22.780  1.00  0.00    -0.269 OA
ATOM      4  H   UNL A   1      38.036  23.410  23.597  1.00  0.00     0.163 HD
ENDROOT
BRANCH   1   5
ATOM      5  C   UNL A   1      38.005  23.138  25.651  1.00  0.00     0.118 C 
BRANCH   5   6
ATOM      6  C   UNL A   1      38.811  21.863  25.859  1.00  0.00     0.042 C 
BRANCH   6   7
ATOM      7  C   UNL A   1      40.135  22.057  26.594  1.00  0.00     0.118 C 
BRANCH   7   8
ATOM      8  N   UNL A   1      41.254  22.424  25.749  1.00  0.00    -0.352 N 
ATOM      9  O   UNL A   1      43.139  23.286  24.992  1.00  0.00    -0.269 OA
ATOM     10  C   UNL A   1      42.184  23.426  25.760  1.00  0.00     0.251 C 
ATOM     11  H   UNL A   1      41.373  21.808  24.990  1.00  0.00     0.163 HD
BRANCH  10  12
ATOM     12  C   UNL A   1      42.091  24.681  26.555  1.00  0.00     0.039 A 
ATOM     13  C   UNL A   1      42.804  24.973  27.720  1.00  0.00     0.014 A 
ATOM     14  C   UNL A   1      41.156  25.626  26.087  1.00  0.00     0.014 A 
ATOM     15  C   UNL A   1      42.525  26.131  28.443  1.00  0.00     0.010 A 
ATOM     16  C   UNL A   1      40.883  26.788  26.797  1.00  0.00     0.010 A 
ATOM     17  C   UNL A   1      41.546  27.024  27.996  1.00  0.00    -0.014 A 
BRANCH  17  18
ATOM     18  C   UNL A   1      41.390  28.299  28.694  1.00  0.00     0.031 A 
ATOM     19  C   UNL A   1      42.456  29.296  28.370  1.00  0.00     0.074 A 
ATOM     20  C   UNL A   1      40.301  28.633  29.420  1.00  0.00     0.049 A 
ATOM     21  N   UNL A   1      43.278  29.885  29.177  1.00  0.00    -0.248 NA
ATOM     22  C   UNL A   1      42.714  29.582  26.946  1.00  0.00     0.031 C 
ATOM     23  C   UNL A   1      39.056  27.876  29.578  1.00  0.00     0.029 A 
ATOM     24  N   UNL A   1      40.040  29.784  30.105  1.00  0.00    -0.354 N 
ATOM     25  C   UNL A   1      44.031  30.755  28.390  1.00  0.00     0.074 A 
ATOM     26  C   UNL A   1      43.744  30.424  27.020  1.00  0.00     0.031 C 
ATOM     27  C   UNL A   1      38.107  28.679  30.114  1.00  0.00     0.029 A 
ATOM     28  C   UNL A   1      38.705  29.958  30.458  1.00  0.00     0.049 A 
ATOM     29  H   UNL A   1      40.740  30.440  30.330  1.00  0.00     0.167 HD
ATOM     30  C   UNL A   1      44.671  31.833  28.922  1.00  0.00     0.037 A 
ATOM     31  C   UNL A   1      38.129  31.087  30.947  1.00  0.00     0.037 A 
ATOM     32  C   UNL A   1      44.869  31.682  30.338  1.00  0.00     0.049 A 
ATOM     33  C   UNL A   1      39.212  31.958  31.465  1.00  0.00     0.074 A 
ATOM     34  C   UNL A   1      45.544  30.777  31.133  1.00  0.00     0.029 A 
ATOM     35  N   UNL A   1      44.019  32.353  31.182  1.00  0.00    -0.354 N 
ATOM     36  N   UNL A   1      39.926  31.682  32.518  1.00  0.00    -0.248 NA
ATOM     37  C   UNL A   1      39.800  32.915  30.540  1.00  0.00     0.031 C 
ATOM     38  C   UNL A   1      44.709  30.601  32.276  1.00  0.00     0.029 A 
ATOM     39  C   UNL A   1      43.618  31.459  32.140  1.00  0.00     0.049 A 
ATOM     40  H   UNL A   1      43.748  33.297  31.112  1.00  0.00     0.167 HD
ATOM     41  C   UNL A   1      41.213  32.067  32.178  1.00  0.00     0.074 A 
ATOM     42  C   UNL A   1      41.061  32.890  30.979  1.00  0.00     0.031 C 
ATOM     43  C   UNL A   1      42.300  31.454  32.728  1.00  0.00     0.037 A 
BRANCH  30  44
ATOM     44  C   UNL A   1      44.786  33.165  28.224  1.00  0.00     0.057 A 
ATOM     45  C   UNL A   1      46.056  33.685  27.921  1.00  0.00     0.134 A 
ATOM     46  C   UNL A   1      43.720  34.081  28.110  1.00  0.00     0.134 A 
ATOM     47  F   UNL A   1      47.155  32.921  28.018  1.00  0.00    -0.206 F 
ATOM     48  C   UNL A   1      46.256  35.032  27.588  1.00  0.00     0.040 A 
ATOM     49  C   UNL A   1      43.902  35.414  27.731  1.00  0.00     0.040 A 
ATOM     50  F   UNL A   1      42.466  33.769  28.458  1.00  0.00    -0.206 F 
ATOM     51  C   UNL A   1      45.177  35.903  27.498  1.00  0.00     0.006 A 
ENDBRANCH  30  44
BRANCH  31  52
ATOM     52  C   UNL A   1      36.763  31.618  30.715  1.00  0.00     0.057 A 
ATOM     53  C   UNL A   1      35.906  31.927  31.784  1.00  0.00     0.134 A 
ATOM     54  C   UNL A   1      36.377  32.113  29.458  1.00  0.00     0.134 A 
ATOM     55  F   UNL A   1      36.208  31.543  33.033  1.00  0.00    -0.206 F 
ATOM     56  C   UNL A   1      34.749  32.703  31.616  1.00  0.00     0.040 A 
ATOM     57  C   UNL A   1      35.223  32.884  29.276  1.00  0.00     0.040 A 
ATOM     58  F   UNL A   1      37.157  31.945  28.381  1.00  0.00    -0.206 F 
ATOM     59  C   UNL A   1      34.411  33.194  30.360  1.00  0.00     0.006 A 
ENDBRANCH  31  52
BRANCH  43  60
ATOM     60  C   UNL A   1      42.071  30.519  33.883  1.00  0.00     0.057 A 
ATOM     61  C   UNL A   1      41.812  29.145  33.749  1.00  0.00     0.134 A 
ATOM     62  C   UNL A   1      42.265  30.999  35.182  1.00  0.00     0.134 A 
ATOM     63  F   UNL A   1      41.709  28.570  32.546  1.00  0.00    -0.206 F 
ATOM     64  C   UNL A   1      41.706  28.302  34.861  1.00  0.00     0.040 A 
ATOM     65  C   UNL A   1      42.198  30.161  36.298  1.00  0.00     0.040 A 
ATOM     66  F   UNL A   1      42.571  32.290  35.386  1.00  0.00    -0.206 F 
ATOM     67  C   UNL A   1      41.907  28.810  36.140  1.00  0.00     0.006 A 
ENDBRANCH  43  60
ENDBRANCH  17  18
ENDBRANCH  10  12
ENDBRANCH   7   8
ENDBRANCH   6   7
ENDBRANCH   5   6
ENDBRANCH   1   5
BRANCH   2  68
ATOM     68  C   UNL A   1      35.026  22.869  24.950  1.00  0.00     0.048 A 
ATOM     69  C   UNL A   1      34.791  21.498  25.168  1.00  0.00     0.014 A 
ATOM     70  C   UNL A   1      34.291  23.844  25.649  1.00  0.00     0.019 A 
ATOM     71  C   UNL A   1      33.889  21.077  26.143  1.00  0.00     0.001 A 
ATOM     72  C   UNL A   1      33.453  23.385  26.676  1.00  0.00     0.010 A 
ATOM     73  C   UNL A   1      33.242  22.026  26.918  1.00  0.00     0.001 A 
BRANCH  70  74
ATOM     74  C   UNL A   1      34.418  25.333  25.368  1.00  0.00     0.300 C 
BRANCH  74  75
ATOM     75  N   UNL A   1      33.200  26.106  25.064  1.00  0.00    -0.329 N 
ATOM     76  C   UNL A   1      32.710  26.783  26.275  1.00  0.00     0.262 C 
ATOM     77  C   UNL A   1      33.208  26.968  23.860  1.00  0.00     0.186 C 
ATOM     78  H   UNL A   1      32.523  25.403  24.771  1.00  0.00     0.348 HD
ATOM     79  C   UNL A   1      31.303  27.332  26.078  1.00  0.00     0.062 C 
ATOM     80  C   UNL A   1      31.786  27.533  23.636  1.00  0.00     0.065 C 
ATOM     81  C   UNL A   1      31.253  28.252  24.872  1.00  0.00     0.012 C 
BRANCH  77  82
ATOM     82  C   UNL A   1      33.673  26.204  22.588  1.00  0.00     0.088 C 
BRANCH  82  83
ATOM     83  C   UNL A   1      32.585  25.428  21.830  1.00  0.00     0.150 C 
BRANCH  83  84
ATOM     84  N   UNL A   1      32.253  24.136  22.402  1.00  0.00    -0.273 N 
ATOM     85  C   UNL A   1      32.682  22.914  21.971  1.00  0.00     0.108 A 
ATOM     86  N   UNL A   1      31.406  24.055  23.446  1.00  0.00    -0.182 NA
ATOM     87  C   UNL A   1      32.155  21.992  22.846  1.00  0.00     0.042 A 
ATOM     88  C   UNL A   1      31.384  22.754  23.741  1.00  0.00     0.135 A 
ENDBRANCH  83  84
ENDBRANCH  82  83
ENDBRANCH  77  82
ENDBRANCH  74  75
ENDBRANCH  70  74
ENDBRANCH   2  68
TORSDOF 15
ENDMDL
