MODEL 1
REMARK VINA RESULT:     -10.8      0.000      0.000
REMARK SMILES Nc1c(CC(=O)NCCCNC(=O)c2ccc(-c3c4nc(c(-c5c(F)cccc5F)c5ccc([nH]5)c(-c5c(F)cccc5F)c5nc(c(-c6c(F)cccc6F)c6ccc3[nH]6)C=C5)C=C4)cc2)cccc1C(=O)c1ccc(Br)cc1
REMARK SMILES IDX 8 1 7 2 5 3 6 4 4 6 3 7 2 8 71 9 68 10 70 11 69 12 1 13
REMARK SMILES IDX 72 16 73 17 74 18 75 19 80 20 76 21 79 22 77 23 78 24 9 25
REMARK SMILES IDX 10 26 11 27 12 28 13 30 14 31 15 32 67 33 16 34 66 35 17 36
REMARK SMILES IDX 18 37 19 38 60 39 20 40 65 41 59 42 61 43 21 44 64 45 58 46
REMARK SMILES IDX 57 47 22 49 48 50 31 51 47 52 32 53 35 54 46 55 62 56 33 57
REMARK SMILES IDX 34 58 45 60 63 61 36 62 23 63 24 64 29 65 25 66 26 67 28 68
REMARK SMILES IDX 30 69 27 70 49 71 50 72 55 73 51 74 52 75 54 76 56 77 53 78
REMARK SMILES IDX 37 79 38 80 43 81 39 82 40 83 42 84 44 85 41 86
REMARK H PARENT 7 5 1 14 1 15 11 29 61 48 35 59
REMARK Flexibility Score: inf
ROOT
ATOM      1  C   UNL A   1      33.338  35.268  29.805  1.00  0.00     0.117 C 
ENDROOT
BRANCH   1   2
ATOM      2  N   UNL A   1      33.868  36.135  30.840  1.00  0.00    -0.356 N 
ATOM      3  C   UNL A   1      33.902  35.939  32.191  1.00  0.00     0.224 C 
ATOM      4  O   UNL A   1      34.345  36.846  32.899  1.00  0.00    -0.275 OA
ATOM      5  H   UNL A   1      34.259  36.981  30.525  1.00  0.00     0.163 HD
BRANCH   3   6
ATOM      6  C   UNL A   1      33.448  34.619  32.791  1.00  0.00     0.137 C 
BRANCH   6   7
ATOM      7  C   UNL A   1      34.557  33.595  32.958  1.00  0.00    -0.015 A 
ATOM      8  C   UNL A   1      35.381  33.528  34.116  1.00  0.00     0.046 A 
ATOM      9  C   UNL A   1      36.442  32.585  34.143  1.00  0.00     0.046 A 
ATOM     10  C   UNL A   1      34.784  32.717  31.879  1.00  0.00     0.006 A 
ATOM     11  C   UNL A   1      36.645  31.737  33.036  1.00  0.00     0.014 A 
ATOM     12  C   UNL A   1      35.823  31.799  31.916  1.00  0.00     0.001 A 
BRANCH   8  13
ATOM     13  N   UNL A   1      35.134  34.424  35.149  1.00  0.00    -0.398 N 
ATOM     14  H   UNL A   1      34.793  35.325  34.948  1.00  0.00     0.156 HD
ATOM     15  H   UNL A   1      35.299  34.157  36.082  1.00  0.00     0.156 HD
ENDBRANCH   8  13
BRANCH   9  16
ATOM     16  C   UNL A   1      37.443  32.408  35.250  1.00  0.00     0.195 C 
ATOM     17  O   UNL A   1      37.756  31.280  35.632  1.00  0.00    -0.289 OA
BRANCH  16  18
ATOM     18  C   UNL A   1      38.149  33.528  35.894  1.00  0.00     0.023 A 
ATOM     19  C   UNL A   1      38.107  33.611  37.292  1.00  0.00     0.013 A 
ATOM     20  C   UNL A   1      38.875  34.464  35.150  1.00  0.00     0.013 A 
ATOM     21  C   UNL A   1      38.847  34.591  37.953  1.00  0.00     0.016 A 
ATOM     22  C   UNL A   1      39.622  35.440  35.815  1.00  0.00     0.016 A 
ATOM     23  C   UNL A   1      39.613  35.491  37.212  1.00  0.00     0.018 A 
ATOM     24  Br  UNL A   1      40.664  36.780  38.109  1.00  0.00    -0.051 Br
ENDBRANCH  16  18
ENDBRANCH   9  16
ENDBRANCH   6   7
ENDBRANCH   3   6
ENDBRANCH   1   2
BRANCH   1  25
ATOM     25  C   UNL A   1      34.261  35.185  28.592  1.00  0.00     0.042 C 
BRANCH  25  26
ATOM     26  C   UNL A   1      35.088  33.902  28.536  1.00  0.00     0.118 C 
BRANCH  26  27
ATOM     27  N   UNL A   1      34.343  32.785  27.972  1.00  0.00    -0.352 N 
ATOM     28  C   UNL A   1      34.701  31.475  27.791  1.00  0.00     0.251 C 
ATOM     29  H   UNL A   1      33.432  33.008  27.671  1.00  0.00     0.163 HD
ATOM     30  O   UNL A   1      33.970  30.743  27.123  1.00  0.00    -0.269 OA
BRANCH  28  31
ATOM     31  C   UNL A   1      35.948  30.930  28.369  1.00  0.00     0.039 A 
ATOM     32  C   UNL A   1      35.879  29.734  29.091  1.00  0.00     0.014 A 
ATOM     33  C   UNL A   1      37.168  31.605  28.258  1.00  0.00     0.014 A 
ATOM     34  C   UNL A   1      37.034  29.189  29.654  1.00  0.00     0.010 A 
ATOM     35  C   UNL A   1      38.332  31.028  28.763  1.00  0.00     0.010 A 
ATOM     36  C   UNL A   1      38.276  29.817  29.469  1.00  0.00    -0.014 A 
BRANCH  36  37
ATOM     37  C   UNL A   1      39.522  29.202  29.989  1.00  0.00     0.031 A 
ATOM     38  C   UNL A   1      40.172  29.721  31.240  1.00  0.00     0.074 A 
ATOM     39  C   UNL A   1      40.107  28.211  29.290  1.00  0.00     0.049 A 
ATOM     40  N   UNL A   1      41.278  29.327  31.820  1.00  0.00    -0.248 NA
ATOM     41  C   UNL A   1      39.510  30.849  31.910  1.00  0.00     0.031 C 
ATOM     42  C   UNL A   1      39.614  27.669  28.024  1.00  0.00     0.029 A 
ATOM     43  N   UNL A   1      41.251  27.497  29.537  1.00  0.00    -0.354 N 
ATOM     44  C   UNL A   1      41.452  30.166  32.912  1.00  0.00     0.074 A 
ATOM     45  C   UNL A   1      40.364  31.121  32.886  1.00  0.00     0.031 C 
ATOM     46  C   UNL A   1      40.443  26.698  27.610  1.00  0.00     0.029 A 
ATOM     47  C   UNL A   1      41.537  26.568  28.568  1.00  0.00     0.049 A 
ATOM     48  H   UNL A   1      41.813  27.636  30.333  1.00  0.00     0.167 HD
ATOM     49  C   UNL A   1      42.418  30.133  33.861  1.00  0.00     0.037 A 
ATOM     50  C   UNL A   1      42.568  25.710  28.457  1.00  0.00     0.037 A 
ATOM     51  C   UNL A   1      43.489  29.169  33.897  1.00  0.00     0.049 A 
ATOM     52  C   UNL A   1      43.612  25.668  29.534  1.00  0.00     0.074 A 
ATOM     53  C   UNL A   1      44.464  28.997  34.863  1.00  0.00     0.029 A 
ATOM     54  N   UNL A   1      43.728  28.219  32.915  1.00  0.00    -0.354 N 
ATOM     55  N   UNL A   1      43.713  26.406  30.613  1.00  0.00    -0.248 NA
ATOM     56  C   UNL A   1      44.676  24.667  29.386  1.00  0.00     0.031 C 
ATOM     57  C   UNL A   1      45.319  27.972  34.443  1.00  0.00     0.029 A 
ATOM     58  C   UNL A   1      44.852  27.476  33.237  1.00  0.00     0.049 A 
ATOM     59  H   UNL A   1      43.180  28.093  32.107  1.00  0.00     0.167 HD
ATOM     60  C   UNL A   1      44.845  25.954  31.278  1.00  0.00     0.074 A 
ATOM     61  C   UNL A   1      45.383  24.863  30.490  1.00  0.00     0.031 C 
ATOM     62  C   UNL A   1      45.389  26.405  32.435  1.00  0.00     0.037 A 
BRANCH  49  63
ATOM     63  C   UNL A   1      42.360  31.181  34.936  1.00  0.00     0.057 A 
ATOM     64  C   UNL A   1      41.563  31.025  36.079  1.00  0.00     0.134 A 
ATOM     65  C   UNL A   1      43.111  32.358  34.829  1.00  0.00     0.134 A 
ATOM     66  F   UNL A   1      40.810  29.926  36.238  1.00  0.00    -0.206 F 
ATOM     67  C   UNL A   1      41.487  32.019  37.057  1.00  0.00     0.040 A 
ATOM     68  C   UNL A   1      43.064  33.346  35.814  1.00  0.00     0.040 A 
ATOM     69  F   UNL A   1      43.901  32.568  33.766  1.00  0.00    -0.206 F 
ATOM     70  C   UNL A   1      42.242  33.182  36.928  1.00  0.00     0.006 A 
ENDBRANCH  49  63
BRANCH  50  71
ATOM     71  C   UNL A   1      42.637  24.806  27.283  1.00  0.00     0.057 A 
ATOM     72  C   UNL A   1      43.362  25.161  26.141  1.00  0.00     0.134 A 
ATOM     73  C   UNL A   1      42.018  23.550  27.296  1.00  0.00     0.134 A 
ATOM     74  F   UNL A   1      43.963  26.358  26.067  1.00  0.00    -0.206 F 
ATOM     75  C   UNL A   1      43.467  24.299  25.048  1.00  0.00     0.040 A 
ATOM     76  C   UNL A   1      42.133  22.670  26.220  1.00  0.00     0.040 A 
ATOM     77  F   UNL A   1      41.318  23.152  28.368  1.00  0.00    -0.206 F 
ATOM     78  C   UNL A   1      42.858  23.046  25.090  1.00  0.00     0.006 A 
ENDBRANCH  50  71
BRANCH  62  79
ATOM     79  C   UNL A   1      46.631  25.716  32.915  1.00  0.00     0.057 A 
ATOM     80  C   UNL A   1      47.901  26.080  32.449  1.00  0.00     0.134 A 
ATOM     81  C   UNL A   1      46.560  24.693  33.870  1.00  0.00     0.134 A 
ATOM     82  F   UNL A   1      48.036  27.042  31.525  1.00  0.00    -0.206 F 
ATOM     83  C   UNL A   1      49.056  25.436  32.899  1.00  0.00     0.040 A 
ATOM     84  C   UNL A   1      47.709  24.058  34.344  1.00  0.00     0.040 A 
ATOM     85  F   UNL A   1      45.376  24.302  34.361  1.00  0.00    -0.206 F 
ATOM     86  C   UNL A   1      48.961  24.425  33.854  1.00  0.00     0.006 A 
ENDBRANCH  62  79
ENDBRANCH  36  37
ENDBRANCH  28  31
ENDBRANCH  26  27
ENDBRANCH  25  26
ENDBRANCH   1  25
TORSDOF 14
ENDMDL
MODEL 2
REMARK VINA RESULT:     -10.7      5.238     10.537
REMARK SMILES Nc1c(CC(=O)NCCCNC(=O)c2ccc(-c3c4nc(c(-c5c(F)cccc5F)c5ccc([nH]5)c(-c5c(F)cccc5F)c5nc(c(-c6c(F)cccc6F)c6ccc3[nH]6)C=C5)C=C4)cc2)cccc1C(=O)c1ccc(Br)cc1
REMARK SMILES IDX 8 1 7 2 5 3 6 4 4 6 3 7 2 8 71 9 68 10 70 11 69 12 1 13
REMARK SMILES IDX 72 16 73 17 74 18 75 19 80 20 76 21 79 22 77 23 78 24 9 25
REMARK SMILES IDX 10 26 11 27 12 28 13 30 14 31 15 32 67 33 16 34 66 35 17 36
REMARK SMILES IDX 18 37 19 38 60 39 20 40 65 41 59 42 61 43 21 44 64 45 58 46
REMARK SMILES IDX 57 47 22 49 48 50 31 51 47 52 32 53 35 54 46 55 62 56 33 57
REMARK SMILES IDX 34 58 45 60 63 61 36 62 23 63 24 64 29 65 25 66 26 67 28 68
REMARK SMILES IDX 30 69 27 70 49 71 50 72 55 73 51 74 52 75 54 76 56 77 53 78
REMARK SMILES IDX 37 79 38 80 43 81 39 82 40 83 42 84 44 85 41 86
REMARK H PARENT 7 5 1 14 1 15 11 29 61 48 35 59
REMARK Flexibility Score: inf
ROOT
ATOM      1  C   UNL A   1      35.649  21.630  25.938  1.00  0.00     0.117 C 
ENDROOT
BRANCH   1   2
ATOM      2  N   UNL A   1      35.351  20.472  25.117  1.00  0.00    -0.356 N 
ATOM      3  C   UNL A   1      34.176  19.790  24.986  1.00  0.00     0.224 C 
ATOM      4  O   UNL A   1      34.163  18.783  24.275  1.00  0.00    -0.275 OA
ATOM      5  H   UNL A   1      36.101  20.130  24.578  1.00  0.00     0.163 HD
BRANCH   3   6
ATOM      6  C   UNL A   1      32.912  20.293  25.665  1.00  0.00     0.137 C 
BRANCH   6   7
ATOM      7  C   UNL A   1      32.386  21.606  25.111  1.00  0.00    -0.015 A 
ATOM      8  C   UNL A   1      32.010  22.700  25.940  1.00  0.00     0.046 A 
ATOM      9  C   UNL A   1      31.457  23.856  25.330  1.00  0.00     0.046 A 
ATOM     10  C   UNL A   1      32.232  21.694  23.714  1.00  0.00     0.006 A 
ATOM     11  C   UNL A   1      31.304  23.897  23.930  1.00  0.00     0.014 A 
ATOM     12  C   UNL A   1      31.691  22.829  23.128  1.00  0.00     0.001 A 
BRANCH   8  13
ATOM     13  N   UNL A   1      32.163  22.564  27.315  1.00  0.00    -0.398 N 
ATOM     14  H   UNL A   1      32.813  21.920  27.677  1.00  0.00     0.156 HD
ATOM     15  H   UNL A   1      31.620  23.112  27.927  1.00  0.00     0.156 HD
ENDBRANCH   8  13
BRANCH   9  16
ATOM     16  C   UNL A   1      30.955  25.080  26.044  1.00  0.00     0.195 C 
ATOM     17  O   UNL A   1      29.824  25.097  26.531  1.00  0.00    -0.289 OA
BRANCH  16  18
ATOM     18  C   UNL A   1      31.772  26.286  26.263  1.00  0.00     0.023 A 
ATOM     19  C   UNL A   1      31.165  27.380  26.895  1.00  0.00     0.013 A 
ATOM     20  C   UNL A   1      33.120  26.337  25.894  1.00  0.00     0.013 A 
ATOM     21  C   UNL A   1      31.926  28.503  27.220  1.00  0.00     0.016 A 
ATOM     22  C   UNL A   1      33.880  27.460  26.227  1.00  0.00     0.016 A 
ATOM     23  C   UNL A   1      33.283  28.531  26.898  1.00  0.00     0.018 A 
ATOM     24  Br  UNL A   1      34.327  30.027  27.393  1.00  0.00    -0.051 Br
ENDBRANCH  16  18
ENDBRANCH   9  16
ENDBRANCH   6   7
ENDBRANCH   3   6
ENDBRANCH   1   2
BRANCH   1  25
ATOM     25  C   UNL A   1      35.746  22.912  25.114  1.00  0.00     0.042 C 
BRANCH  25  26
ATOM     26  C   UNL A   1      37.061  23.665  25.303  1.00  0.00     0.118 C 
BRANCH  26  27
ATOM     27  N   UNL A   1      38.185  22.769  25.538  1.00  0.00    -0.352 N 
ATOM     28  C   UNL A   1      39.401  23.000  26.125  1.00  0.00     0.251 C 
ATOM     29  H   UNL A   1      38.049  21.847  25.221  1.00  0.00     0.163 HD
ATOM     30  O   UNL A   1      40.274  22.135  26.051  1.00  0.00    -0.269 OA
BRANCH  28  31
ATOM     31  C   UNL A   1      39.688  24.267  26.830  1.00  0.00     0.039 A 
ATOM     32  C   UNL A   1      39.173  24.441  28.119  1.00  0.00     0.014 A 
ATOM     33  C   UNL A   1      40.407  25.303  26.224  1.00  0.00     0.014 A 
ATOM     34  C   UNL A   1      39.420  25.625  28.817  1.00  0.00     0.010 A 
ATOM     35  C   UNL A   1      40.709  26.457  26.945  1.00  0.00     0.010 A 
ATOM     36  C   UNL A   1      40.216  26.631  28.246  1.00  0.00    -0.014 A 
BRANCH  36  37
ATOM     37  C   UNL A   1      40.555  27.855  29.012  1.00  0.00     0.031 A 
ATOM     38  C   UNL A   1      41.878  27.984  29.712  1.00  0.00     0.074 A 
ATOM     39  C   UNL A   1      39.635  28.831  29.132  1.00  0.00     0.049 A 
ATOM     40  N   UNL A   1      42.330  28.966  30.450  1.00  0.00    -0.248 NA
ATOM     41  C   UNL A   1      42.804  26.849  29.589  1.00  0.00     0.031 C 
ATOM     42  C   UNL A   1      38.288  28.793  28.561  1.00  0.00     0.029 A 
ATOM     43  N   UNL A   1      39.688  30.034  29.787  1.00  0.00    -0.354 N 
ATOM     44  C   UNL A   1      43.582  28.562  30.893  1.00  0.00     0.074 A 
ATOM     45  C   UNL A   1      43.798  27.226  30.379  1.00  0.00     0.031 C 
ATOM     46  C   UNL A   1      37.645  29.928  28.880  1.00  0.00     0.029 A 
ATOM     47  C   UNL A   1      38.525  30.758  29.698  1.00  0.00     0.049 A 
ATOM     48  H   UNL A   1      40.483  30.349  30.274  1.00  0.00     0.167 HD
ATOM     49  C   UNL A   1      44.477  29.247  31.644  1.00  0.00     0.037 A 
ATOM     50  C   UNL A   1      38.199  31.955  30.219  1.00  0.00     0.037 A 
ATOM     51  C   UNL A   1      44.269  30.585  32.137  1.00  0.00     0.049 A 
ATOM     52  C   UNL A   1      39.216  32.713  31.021  1.00  0.00     0.074 A 
ATOM     53  C   UNL A   1      45.150  31.398  32.828  1.00  0.00     0.029 A 
ATOM     54  N   UNL A   1      43.090  31.302  31.997  1.00  0.00    -0.354 N 
ATOM     55  N   UNL A   1      40.433  32.358  31.354  1.00  0.00    -0.248 NA
ATOM     56  C   UNL A   1      38.819  34.039  31.509  1.00  0.00     0.031 C 
ATOM     57  C   UNL A   1      44.487  32.589  33.146  1.00  0.00     0.029 A 
ATOM     58  C   UNL A   1      43.209  32.537  32.615  1.00  0.00     0.049 A 
ATOM     59  H   UNL A   1      42.285  30.980  31.529  1.00  0.00     0.167 HD
ATOM     60  C   UNL A   1      40.953  33.419  32.082  1.00  0.00     0.074 A 
ATOM     61  C   UNL A   1      39.924  34.440  32.122  1.00  0.00     0.031 C 
ATOM     62  C   UNL A   1      42.171  33.536  32.665  1.00  0.00     0.037 A 
BRANCH  49  63
ATOM     63  C   UNL A   1      45.766  28.551  31.979  1.00  0.00     0.057 A 
ATOM     64  C   UNL A   1      46.889  28.628  31.143  1.00  0.00     0.134 A 
ATOM     65  C   UNL A   1      45.887  27.798  33.154  1.00  0.00     0.134 A 
ATOM     66  F   UNL A   1      46.836  29.323  29.997  1.00  0.00    -0.206 F 
ATOM     67  C   UNL A   1      48.072  27.950  31.445  1.00  0.00     0.040 A 
ATOM     68  C   UNL A   1      47.074  27.139  33.480  1.00  0.00     0.040 A 
ATOM     69  F   UNL A   1      44.855  27.690  34.003  1.00  0.00    -0.206 F 
ATOM     70  C   UNL A   1      48.168  27.206  32.618  1.00  0.00     0.006 A 
ENDBRANCH  49  63
BRANCH  50  71
ATOM     71  C   UNL A   1      36.847  32.512  29.968  1.00  0.00     0.057 A 
ATOM     72  C   UNL A   1      35.770  32.196  30.803  1.00  0.00     0.134 A 
ATOM     73  C   UNL A   1      36.614  33.407  28.916  1.00  0.00     0.134 A 
ATOM     74  F   UNL A   1      35.932  31.334  31.816  1.00  0.00    -0.206 F 
ATOM     75  C   UNL A   1      34.504  32.748  30.599  1.00  0.00     0.040 A 
ATOM     76  C   UNL A   1      35.359  33.982  28.714  1.00  0.00     0.040 A 
ATOM     77  F   UNL A   1      37.611  33.754  28.090  1.00  0.00    -0.206 F 
ATOM     78  C   UNL A   1      34.299  33.651  29.557  1.00  0.00     0.006 A 
ENDBRANCH  50  71
BRANCH  62  79
ATOM     79  C   UNL A   1      42.455  34.814  33.397  1.00  0.00     0.057 A 
ATOM     80  C   UNL A   1      43.088  35.895  32.771  1.00  0.00     0.134 A 
ATOM     81  C   UNL A   1      42.071  34.974  34.735  1.00  0.00     0.134 A 
ATOM     82  F   UNL A   1      43.492  35.800  31.496  1.00  0.00    -0.206 F 
ATOM     83  C   UNL A   1      43.350  37.083  33.456  1.00  0.00     0.040 A 
ATOM     84  C   UNL A   1      42.306  36.165  35.423  1.00  0.00     0.040 A 
ATOM     85  F   UNL A   1      41.455  33.980  35.390  1.00  0.00    -0.206 F 
ATOM     86  C   UNL A   1      42.953  37.222  34.785  1.00  0.00     0.006 A 
ENDBRANCH  62  79
ENDBRANCH  36  37
ENDBRANCH  28  31
ENDBRANCH  26  27
ENDBRANCH  25  26
ENDBRANCH   1  25
TORSDOF 14
ENDMDL
MODEL 3
REMARK VINA RESULT:     -10.6      5.295     12.064
REMARK SMILES Nc1c(CC(=O)NCCCNC(=O)c2ccc(-c3c4nc(c(-c5c(F)cccc5F)c5ccc([nH]5)c(-c5c(F)cccc5F)c5nc(c(-c6c(F)cccc6F)c6ccc3[nH]6)C=C5)C=C4)cc2)cccc1C(=O)c1ccc(Br)cc1
REMARK SMILES IDX 8 1 7 2 5 3 6 4 4 6 3 7 2 8 71 9 68 10 70 11 69 12 1 13
REMARK SMILES IDX 72 16 73 17 74 18 75 19 80 20 76 21 79 22 77 23 78 24 9 25
REMARK SMILES IDX 10 26 11 27 12 28 13 30 14 31 15 32 67 33 16 34 66 35 17 36
REMARK SMILES IDX 18 37 19 38 60 39 20 40 65 41 59 42 61 43 21 44 64 45 58 46
REMARK SMILES IDX 57 47 22 49 48 50 31 51 47 52 32 53 35 54 46 55 62 56 33 57
REMARK SMILES IDX 34 58 45 60 63 61 36 62 23 63 24 64 29 65 25 66 26 67 28 68
REMARK SMILES IDX 30 69 27 70 49 71 50 72 55 73 51 74 52 75 54 76 56 77 53 78
REMARK SMILES IDX 37 79 38 80 43 81 39 82 40 83 42 84 44 85 41 86
REMARK H PARENT 7 5 1 14 1 15 11 29 61 48 35 59
REMARK Flexibility Score: inf
ROOT
ATOM      1  C   UNL A   1      42.999  19.375  25.687  1.00  0.00     0.117 C 
ENDROOT
BRANCH   1   2
ATOM      2  N   UNL A   1      44.436  19.478  25.851  1.00  0.00    -0.356 N 
ATOM      3  C   UNL A   1      45.340  20.162  25.091  1.00  0.00     0.224 C 
ATOM      4  O   UNL A   1      46.536  20.058  25.375  1.00  0.00    -0.275 OA
ATOM      5  H   UNL A   1      44.811  18.988  26.618  1.00  0.00     0.163 HD
BRANCH   3   6
ATOM      6  C   UNL A   1      44.874  21.059  23.956  1.00  0.00     0.137 C 
BRANCH   6   7
ATOM      7  C   UNL A   1      44.696  22.516  24.347  1.00  0.00    -0.015 A 
ATOM      8  C   UNL A   1      45.755  23.465  24.301  1.00  0.00     0.046 A 
ATOM      9  C   UNL A   1      45.507  24.785  24.761  1.00  0.00     0.046 A 
ATOM     10  C   UNL A   1      43.424  22.902  24.817  1.00  0.00     0.006 A 
ATOM     11  C   UNL A   1      44.226  25.125  25.238  1.00  0.00     0.014 A 
ATOM     12  C   UNL A   1      43.192  24.194  25.263  1.00  0.00     0.001 A 
BRANCH   8  13
ATOM     13  N   UNL A   1      46.998  23.038  23.848  1.00  0.00    -0.398 N 
ATOM     14  H   UNL A   1      47.112  22.119  23.518  1.00  0.00     0.156 HD
ATOM     15  H   UNL A   1      47.764  23.657  23.857  1.00  0.00     0.156 HD
ENDBRANCH   8  13
BRANCH   9  16
ATOM     16  C   UNL A   1      46.512  25.900  24.839  1.00  0.00     0.195 C 
ATOM     17  O   UNL A   1      46.204  27.041  24.491  1.00  0.00    -0.289 OA
BRANCH  16  18
ATOM     18  C   UNL A   1      47.872  25.733  25.378  1.00  0.00     0.023 A 
ATOM     19  C   UNL A   1      48.946  26.172  24.592  1.00  0.00     0.013 A 
ATOM     20  C   UNL A   1      48.097  25.192  26.648  1.00  0.00     0.013 A 
ATOM     21  C   UNL A   1      50.242  26.133  25.104  1.00  0.00     0.016 A 
ATOM     22  C   UNL A   1      49.396  25.161  27.161  1.00  0.00     0.016 A 
ATOM     23  C   UNL A   1      50.459  25.641  26.391  1.00  0.00     0.018 A 
ATOM     24  Br  UNL A   1      52.208  25.645  27.108  1.00  0.00    -0.051 Br
ENDBRANCH  16  18
ENDBRANCH   9  16
ENDBRANCH   6   7
ENDBRANCH   3   6
ENDBRANCH   1   2
BRANCH   1  25
ATOM     25  C   UNL A   1      42.250  19.606  26.998  1.00  0.00     0.042 C 
BRANCH  25  26
ATOM     26  C   UNL A   1      41.730  21.032  27.166  1.00  0.00     0.118 C 
BRANCH  26  27
ATOM     27  N   UNL A   1      40.407  21.214  26.586  1.00  0.00    -0.352 N 
ATOM     28  C   UNL A   1      39.589  22.312  26.559  1.00  0.00     0.251 C 
ATOM     29  H   UNL A   1      40.040  20.416  26.142  1.00  0.00     0.163 HD
ATOM     30  O   UNL A   1      38.428  22.183  26.169  1.00  0.00    -0.269 OA
BRANCH  28  31
ATOM     31  C   UNL A   1      40.067  23.640  26.998  1.00  0.00     0.039 A 
ATOM     32  C   UNL A   1      39.806  24.745  26.180  1.00  0.00     0.014 A 
ATOM     33  C   UNL A   1      40.813  23.805  28.170  1.00  0.00     0.014 A 
ATOM     34  C   UNL A   1      40.243  26.015  26.560  1.00  0.00     0.010 A 
ATOM     35  C   UNL A   1      41.192  25.081  28.582  1.00  0.00     0.010 A 
ATOM     36  C   UNL A   1      40.914  26.198  27.780  1.00  0.00    -0.014 A 
BRANCH  36  37
ATOM     37  C   UNL A   1      41.308  27.555  28.233  1.00  0.00     0.031 A 
ATOM     38  C   UNL A   1      42.747  27.984  28.219  1.00  0.00     0.074 A 
ATOM     39  C   UNL A   1      40.365  28.382  28.724  1.00  0.00     0.049 A 
ATOM     40  N   UNL A   1      43.274  29.118  28.607  1.00  0.00    -0.248 NA
ATOM     41  C   UNL A   1      43.725  27.002  27.732  1.00  0.00     0.031 C 
ATOM     42  C   UNL A   1      38.945  28.055  28.858  1.00  0.00     0.029 A 
ATOM     43  N   UNL A   1      40.463  29.658  29.215  1.00  0.00    -0.354 N 
ATOM     44  C   UNL A   1      44.644  28.979  28.427  1.00  0.00     0.074 A 
ATOM     45  C   UNL A   1      44.870  27.635  27.939  1.00  0.00     0.031 C 
ATOM     46  C   UNL A   1      38.301  29.109  29.386  1.00  0.00     0.029 A 
ATOM     47  C   UNL A   1      39.266  30.172  29.649  1.00  0.00     0.049 A 
ATOM     48  H   UNL A   1      41.310  30.158  29.254  1.00  0.00     0.167 HD
ATOM     49  C   UNL A   1      45.622  29.894  28.632  1.00  0.00     0.037 A 
ATOM     50  C   UNL A   1      38.977  31.364  30.202  1.00  0.00     0.037 A 
ATOM     51  C   UNL A   1      45.393  31.238  29.098  1.00  0.00     0.049 A 
ATOM     52  C   UNL A   1      40.069  32.375  30.391  1.00  0.00     0.074 A 
ATOM     53  C   UNL A   1      46.306  32.266  29.251  1.00  0.00     0.029 A 
ATOM     54  N   UNL A   1      44.161  31.736  29.495  1.00  0.00    -0.354 N 
ATOM     55  N   UNL A   1      41.349  32.264  30.128  1.00  0.00    -0.248 NA
ATOM     56  C   UNL A   1      39.677  33.678  30.941  1.00  0.00     0.031 C 
ATOM     57  C   UNL A   1      45.633  33.372  29.783  1.00  0.00     0.029 A 
ATOM     58  C   UNL A   1      44.294  33.047  29.920  1.00  0.00     0.049 A 
ATOM     59  H   UNL A   1      43.316  31.230  29.478  1.00  0.00     0.167 HD
ATOM     60  C   UNL A   1      41.914  33.484  30.471  1.00  0.00     0.074 A 
ATOM     61  C   UNL A   1      40.833  34.327  30.941  1.00  0.00     0.031 C 
ATOM     62  C   UNL A   1      43.213  33.870  30.404  1.00  0.00     0.037 A 
BRANCH  49  63
ATOM     63  C   UNL A   1      47.034  29.461  28.354  1.00  0.00     0.057 A 
ATOM     64  C   UNL A   1      47.864  28.954  29.363  1.00  0.00     0.134 A 
ATOM     65  C   UNL A   1      47.568  29.549  27.062  1.00  0.00     0.134 A 
ATOM     66  F   UNL A   1      47.418  28.854  30.625  1.00  0.00    -0.206 F 
ATOM     67  C   UNL A   1      49.186  28.585  29.105  1.00  0.00     0.040 A 
ATOM     68  C   UNL A   1      48.879  29.158  26.787  1.00  0.00     0.040 A 
ATOM     69  F   UNL A   1      46.825  30.017  26.049  1.00  0.00    -0.206 F 
ATOM     70  C   UNL A   1      49.696  28.684  27.813  1.00  0.00     0.006 A 
ENDBRANCH  49  63
BRANCH  50  71
ATOM     71  C   UNL A   1      37.577  31.663  30.590  1.00  0.00     0.057 A 
ATOM     72  C   UNL A   1      37.128  31.445  31.898  1.00  0.00     0.134 A 
ATOM     73  C   UNL A   1      36.671  32.214  29.676  1.00  0.00     0.134 A 
ATOM     74  F   UNL A   1      37.949  30.906  32.811  1.00  0.00    -0.206 F 
ATOM     75  C   UNL A   1      35.825  31.763  32.283  1.00  0.00     0.040 A 
ATOM     76  C   UNL A   1      35.372  32.555  30.053  1.00  0.00     0.040 A 
ATOM     77  F   UNL A   1      37.047  32.453  28.412  1.00  0.00    -0.206 F 
ATOM     78  C   UNL A   1      34.945  32.327  31.360  1.00  0.00     0.006 A 
ENDBRANCH  50  71
BRANCH  62  79
ATOM     79  C   UNL A   1      43.531  35.265  30.851  1.00  0.00     0.057 A 
ATOM     80  C   UNL A   1      43.571  36.336  29.949  1.00  0.00     0.134 A 
ATOM     81  C   UNL A   1      43.778  35.547  32.201  1.00  0.00     0.134 A 
ATOM     82  F   UNL A   1      43.356  36.130  28.641  1.00  0.00    -0.206 F 
ATOM     83  C   UNL A   1      43.868  37.634  30.369  1.00  0.00     0.040 A 
ATOM     84  C   UNL A   1      44.053  36.844  32.637  1.00  0.00     0.040 A 
ATOM     85  F   UNL A   1      43.749  34.568  33.117  1.00  0.00    -0.206 F 
ATOM     86  C   UNL A   1      44.104  37.891  31.718  1.00  0.00     0.006 A 
ENDBRANCH  62  79
ENDBRANCH  36  37
ENDBRANCH  28  31
ENDBRANCH  26  27
ENDBRANCH  25  26
ENDBRANCH   1  25
TORSDOF 14
ENDMDL
