MODEL 1
REMARK VINA RESULT:     -11.9      0.000      0.000
REMARK SMILES C[C@H](NC(=O)N1CC[C@H](C(=O)NCCCNC(=O)c2ccc(-c3c4nc(c(-c5c(F)cccc5F)c5ccc([nH]5)c(-c5c(F)cccc5F)c5nc(c(-c6c(F)cccc6F)c6ccc3[nH]6)C=C5)C=C4)cc2)[C@H]1C)c1ccsc1
REMARK SMILES IDX 13 1 12 2 10 3 11 4 9 6 6 7 7 8 73 9 8 10 74 11 4 12 3 13
REMARK SMILES IDX 5 15 2 16 1 17 75 18 76 19 79 20 77 21 78 22 14 23 15 24
REMARK SMILES IDX 16 25 17 26 18 28 19 29 20 30 72 31 21 32 71 33 22 34 23 35
REMARK SMILES IDX 24 36 65 37 25 38 70 39 64 40 66 41 26 42 69 43 63 44 62 45
REMARK SMILES IDX 27 47 53 48 36 49 52 50 37 51 40 52 51 53 67 54 38 55 39 56
REMARK SMILES IDX 50 58 68 59 41 60 28 61 29 62 34 63 30 64 31 65 33 66 35 67
REMARK SMILES IDX 32 68 54 69 55 70 60 71 56 72 57 73 59 74 61 75 58 76 42 77
REMARK SMILES IDX 43 78 48 79 44 80 45 81 47 82 49 83 46 84
REMARK H PARENT 12 5 3 14 16 27 66 46 40 57
REMARK Flexibility Score: inf
ROOT
ATOM      1  C   UNL A   1      36.534  20.936  24.798  1.00  0.00     0.117 C 
ENDROOT
BRANCH   1   2
ATOM      2  N   UNL A   1      35.476  20.694  25.763  1.00  0.00    -0.356 N 
ATOM      3  C   UNL A   1      34.364  21.443  26.013  1.00  0.00     0.225 C 
ATOM      4  O   UNL A   1      33.657  21.141  26.969  1.00  0.00    -0.275 OA
ATOM      5  H   UNL A   1      35.572  19.880  26.308  1.00  0.00     0.163 HD
BRANCH   3   6
ATOM      6  C   UNL A   1      34.108  22.634  25.112  1.00  0.00     0.102 C 
ATOM      7  N   UNL A   1      32.109  23.869  25.558  1.00  0.00    -0.321 N 
ATOM      8  C   UNL A   1      31.764  22.685  24.801  1.00  0.00     0.122 C 
ATOM      9  C   UNL A   1      33.553  23.853  25.879  1.00  0.00     0.096 C 
ATOM     10  C   UNL A   1      33.031  22.348  24.061  1.00  0.00     0.037 C 
ATOM     11  C   UNL A   1      34.333  25.084  25.406  1.00  0.00     0.032 C 
BRANCH   7  12
ATOM     12  C   UNL A   1      31.145  24.304  26.434  1.00  0.00     0.318 C 
ATOM     13  N   UNL A   1      30.557  25.495  26.170  1.00  0.00    -0.331 N 
ATOM     14  H   UNL A   1      29.859  25.773  26.808  1.00  0.00     0.165 HD
ATOM     15  O   UNL A   1      30.684  23.597  27.328  1.00  0.00    -0.249 OA
BRANCH  13  16
ATOM     16  C   UNL A   1      30.807  26.418  25.085  1.00  0.00     0.112 C 
ATOM     17  C   UNL A   1      29.591  26.690  24.193  1.00  0.00     0.036 C 
BRANCH  16  18
ATOM     18  C   UNL A   1      31.350  27.705  25.655  1.00  0.00    -0.015 A 
ATOM     19  C   UNL A   1      31.888  27.860  26.978  1.00  0.00     0.017 A 
ATOM     20  C   UNL A   1      31.336  28.920  24.991  1.00  0.00     0.070 A 
ATOM     21  C   UNL A   1      32.142  29.175  27.295  1.00  0.00     0.065 A 
ATOM     22  S   UNL A   1      31.846  30.219  25.978  1.00  0.00    -0.152 S 
ENDBRANCH  16  18
ENDBRANCH  13  16
ENDBRANCH   7  12
ENDBRANCH   3   6
ENDBRANCH   1   2
BRANCH   1  23
ATOM     23  C   UNL A   1      37.640  19.906  24.904  1.00  0.00     0.042 C 
BRANCH  23  24
ATOM     24  C   UNL A   1      38.831  20.391  25.708  1.00  0.00     0.118 C 
BRANCH  24  25
ATOM     25  N   UNL A   1      39.892  19.396  25.794  1.00  0.00    -0.352 N 
ATOM     26  C   UNL A   1      41.218  19.559  26.100  1.00  0.00     0.251 C 
ATOM     27  H   UNL A   1      39.616  18.470  25.604  1.00  0.00     0.163 HD
ATOM     28  O   UNL A   1      42.008  18.632  25.932  1.00  0.00    -0.269 OA
BRANCH  26  29
ATOM     29  C   UNL A   1      41.695  20.858  26.611  1.00  0.00     0.039 A 
ATOM     30  C   UNL A   1      42.150  21.819  25.708  1.00  0.00     0.014 A 
ATOM     31  C   UNL A   1      41.682  21.127  27.982  1.00  0.00     0.014 A 
ATOM     32  C   UNL A   1      42.542  23.072  26.180  1.00  0.00     0.010 A 
ATOM     33  C   UNL A   1      41.957  22.408  28.435  1.00  0.00     0.010 A 
ATOM     34  C   UNL A   1      42.420  23.386  27.544  1.00  0.00    -0.014 A 
BRANCH  34  35
ATOM     35  C   UNL A   1      42.823  24.710  28.073  1.00  0.00     0.031 A 
ATOM     36  C   UNL A   1      41.776  25.767  28.305  1.00  0.00     0.074 A 
ATOM     37  C   UNL A   1      44.123  24.982  28.291  1.00  0.00     0.049 A 
ATOM     38  N   UNL A   1      41.924  27.007  28.697  1.00  0.00    -0.248 NA
ATOM     39  C   UNL A   1      40.379  25.392  28.024  1.00  0.00     0.031 C 
ATOM     40  C   UNL A   1      45.234  24.057  28.059  1.00  0.00     0.029 A 
ATOM     41  N   UNL A   1      44.730  26.121  28.755  1.00  0.00    -0.354 N 
ATOM     42  C   UNL A   1      40.648  27.557  28.692  1.00  0.00     0.074 A 
ATOM     43  C   UNL A   1      39.749  26.544  28.189  1.00  0.00     0.031 C 
ATOM     44  C   UNL A   1      46.384  24.654  28.412  1.00  0.00     0.029 A 
ATOM     45  C   UNL A   1      46.095  26.014  28.856  1.00  0.00     0.049 A 
ATOM     46  H   UNL A   1      44.234  26.936  28.992  1.00  0.00     0.167 HD
ATOM     47  C   UNL A   1      40.253  28.785  29.102  1.00  0.00     0.037 A 
ATOM     48  C   UNL A   1      47.010  26.915  29.261  1.00  0.00     0.037 A 
ATOM     49  C   UNL A   1      41.147  29.782  29.628  1.00  0.00     0.049 A 
ATOM     50  C   UNL A   1      46.547  28.275  29.706  1.00  0.00     0.074 A 
ATOM     51  C   UNL A   1      40.846  31.041  30.113  1.00  0.00     0.029 A 
ATOM     52  N   UNL A   1      42.522  29.627  29.736  1.00  0.00    -0.354 N 
ATOM     53  N   UNL A   1      45.331  28.762  29.755  1.00  0.00    -0.248 NA
ATOM     54  C   UNL A   1      47.586  29.206  30.168  1.00  0.00     0.031 C 
ATOM     55  C   UNL A   1      42.044  31.668  30.471  1.00  0.00     0.029 A 
ATOM     56  C   UNL A   1      43.085  30.775  30.268  1.00  0.00     0.049 A 
ATOM     57  H   UNL A   1      43.023  28.821  29.474  1.00  0.00     0.167 HD
ATOM     58  C   UNL A   1      45.453  30.038  30.291  1.00  0.00     0.074 A 
ATOM     59  C   UNL A   1      46.862  30.244  30.560  1.00  0.00     0.031 C 
ATOM     60  C   UNL A   1      44.487  30.956  30.545  1.00  0.00     0.037 A 
BRANCH  47  61
ATOM     61  C   UNL A   1      38.790  29.110  29.002  1.00  0.00     0.057 A 
ATOM     62  C   UNL A   1      37.927  28.997  30.101  1.00  0.00     0.134 A 
ATOM     63  C   UNL A   1      38.237  29.555  27.794  1.00  0.00     0.134 A 
ATOM     64  F   UNL A   1      38.386  28.560  31.283  1.00  0.00    -0.206 F 
ATOM     65  C   UNL A   1      36.564  29.282  29.995  1.00  0.00     0.040 A 
ATOM     66  C   UNL A   1      36.883  29.876  27.684  1.00  0.00     0.040 A 
ATOM     67  F   UNL A   1      39.004  29.691  26.702  1.00  0.00    -0.206 F 
ATOM     68  C   UNL A   1      36.041  29.731  28.785  1.00  0.00     0.006 A 
ENDBRANCH  47  61
BRANCH  48  69
ATOM     69  C   UNL A   1      48.450  26.552  29.299  1.00  0.00     0.057 A 
ATOM     70  C   UNL A   1      49.000  25.898  30.408  1.00  0.00     0.134 A 
ATOM     71  C   UNL A   1      49.313  26.864  28.242  1.00  0.00     0.134 A 
ATOM     72  F   UNL A   1      48.227  25.585  31.459  1.00  0.00    -0.206 F 
ATOM     73  C   UNL A   1      50.360  25.591  30.477  1.00  0.00     0.040 A 
ATOM     74  C   UNL A   1      50.670  26.538  28.286  1.00  0.00     0.040 A 
ATOM     75  F   UNL A   1      48.848  27.480  27.146  1.00  0.00    -0.206 F 
ATOM     76  C   UNL A   1      51.199  25.909  29.412  1.00  0.00     0.006 A 
ENDBRANCH  48  69
BRANCH  60  77
ATOM     77  C   UNL A   1      44.911  32.237  31.205  1.00  0.00     0.057 A 
ATOM     78  C   UNL A   1      44.950  32.386  32.596  1.00  0.00     0.134 A 
ATOM     79  C   UNL A   1      45.311  33.331  30.425  1.00  0.00     0.134 A 
ATOM     80  F   UNL A   1      44.569  31.382  33.400  1.00  0.00    -0.206 F 
ATOM     81  C   UNL A   1      45.341  33.589  33.189  1.00  0.00     0.040 A 
ATOM     82  C   UNL A   1      45.736  34.526  31.007  1.00  0.00     0.040 A 
ATOM     83  F   UNL A   1      45.309  33.252  29.086  1.00  0.00    -0.206 F 
ATOM     84  C   UNL A   1      45.741  34.660  32.393  1.00  0.00     0.006 A 
ENDBRANCH  60  77
ENDBRANCH  34  35
ENDBRANCH  26  29
ENDBRANCH  24  25
ENDBRANCH  23  24
ENDBRANCH   1  23
TORSDOF 13
ENDMDL
MODEL 2
REMARK VINA RESULT:     -11.9      1.248      1.916
REMARK SMILES C[C@H](NC(=O)N1CC[C@H](C(=O)NCCCNC(=O)c2ccc(-c3c4nc(c(-c5c(F)cccc5F)c5ccc([nH]5)c(-c5c(F)cccc5F)c5nc(c(-c6c(F)cccc6F)c6ccc3[nH]6)C=C5)C=C4)cc2)[C@H]1C)c1ccsc1
REMARK SMILES IDX 13 1 12 2 10 3 11 4 9 6 6 7 7 8 73 9 8 10 74 11 4 12 3 13
REMARK SMILES IDX 5 15 2 16 1 17 75 18 76 19 79 20 77 21 78 22 14 23 15 24
REMARK SMILES IDX 16 25 17 26 18 28 19 29 20 30 72 31 21 32 71 33 22 34 23 35
REMARK SMILES IDX 24 36 65 37 25 38 70 39 64 40 66 41 26 42 69 43 63 44 62 45
REMARK SMILES IDX 27 47 53 48 36 49 52 50 37 51 40 52 51 53 67 54 38 55 39 56
REMARK SMILES IDX 50 58 68 59 41 60 28 61 29 62 34 63 30 64 31 65 33 66 35 67
REMARK SMILES IDX 32 68 54 69 55 70 60 71 56 72 57 73 59 74 61 75 58 76 42 77
REMARK SMILES IDX 43 78 48 79 44 80 45 81 47 82 49 83 46 84
REMARK H PARENT 12 5 3 14 16 27 66 46 40 57
REMARK Flexibility Score: inf
ROOT
ATOM      1  C   UNL A   1      36.675  20.709  24.947  1.00  0.00     0.117 C 
ENDROOT
BRANCH   1   2
ATOM      2  N   UNL A   1      35.399  20.163  25.376  1.00  0.00    -0.356 N 
ATOM      3  C   UNL A   1      34.168  20.749  25.342  1.00  0.00     0.225 C 
ATOM      4  O   UNL A   1      33.230  20.172  25.882  1.00  0.00    -0.275 OA
ATOM      5  H   UNL A   1      35.426  19.249  25.738  1.00  0.00     0.163 HD
BRANCH   3   6
ATOM      6  C   UNL A   1      34.059  22.106  24.676  1.00  0.00     0.102 C 
ATOM      7  N   UNL A   1      32.402  23.578  25.574  1.00  0.00    -0.321 N 
ATOM      8  C   UNL A   1      31.752  22.625  24.701  1.00  0.00     0.122 C 
ATOM      9  C   UNL A   1      33.841  23.251  25.688  1.00  0.00     0.096 C 
ATOM     10  C   UNL A   1      32.841  22.203  23.751  1.00  0.00     0.037 C 
ATOM     11  C   UNL A   1      34.793  24.387  25.305  1.00  0.00     0.032 C 
BRANCH   7  12
ATOM     12  C   UNL A   1      31.642  24.017  26.630  1.00  0.00     0.318 C 
ATOM     13  N   UNL A   1      30.965  25.180  26.468  1.00  0.00    -0.331 N 
ATOM     14  H   UNL A   1      30.417  25.461  27.237  1.00  0.00     0.165 HD
ATOM     15  O   UNL A   1      31.419  23.332  27.626  1.00  0.00    -0.249 OA
BRANCH  13  16
ATOM     16  C   UNL A   1      30.932  26.067  25.327  1.00  0.00     0.112 C 
ATOM     17  C   UNL A   1      29.573  26.143  24.624  1.00  0.00     0.036 C 
BRANCH  16  18
ATOM     18  C   UNL A   1      31.386  27.439  25.763  1.00  0.00    -0.015 A 
ATOM     19  C   UNL A   1      31.777  27.794  27.098  1.00  0.00     0.017 A 
ATOM     20  C   UNL A   1      31.419  28.549  24.936  1.00  0.00     0.070 A 
ATOM     21  C   UNL A   1      31.969  29.147  27.251  1.00  0.00     0.065 A 
ATOM     22  S   UNL A   1      31.795  29.989  25.776  1.00  0.00    -0.152 S 
ENDBRANCH  16  18
ENDBRANCH  13  16
ENDBRANCH   7  12
ENDBRANCH   3   6
ENDBRANCH   1   2
BRANCH   1  23
ATOM     23  C   UNL A   1      37.779  19.672  25.001  1.00  0.00     0.042 C 
BRANCH  23  24
ATOM     24  C   UNL A   1      39.008  20.149  25.751  1.00  0.00     0.118 C 
BRANCH  24  25
ATOM     25  N   UNL A   1      40.027  19.115  25.874  1.00  0.00    -0.352 N 
ATOM     26  C   UNL A   1      41.377  19.240  26.072  1.00  0.00     0.251 C 
ATOM     27  H   UNL A   1      39.696  18.190  25.803  1.00  0.00     0.163 HD
ATOM     28  O   UNL A   1      42.110  18.260  25.952  1.00  0.00    -0.269 OA
BRANCH  26  29
ATOM     29  C   UNL A   1      41.947  20.558  26.407  1.00  0.00     0.039 A 
ATOM     30  C   UNL A   1      42.295  21.431  25.376  1.00  0.00     0.014 A 
ATOM     31  C   UNL A   1      42.126  20.933  27.741  1.00  0.00     0.014 A 
ATOM     32  C   UNL A   1      42.775  22.704  25.689  1.00  0.00     0.010 A 
ATOM     33  C   UNL A   1      42.487  22.236  28.048  1.00  0.00     0.010 A 
ATOM     34  C   UNL A   1      42.846  23.126  27.026  1.00  0.00    -0.014 A 
BRANCH  34  35
ATOM     35  C   UNL A   1      43.345  24.474  27.387  1.00  0.00     0.031 A 
ATOM     36  C   UNL A   1      42.372  25.532  27.835  1.00  0.00     0.074 A 
ATOM     37  C   UNL A   1      44.654  24.763  27.262  1.00  0.00     0.049 A 
ATOM     38  N   UNL A   1      42.592  26.787  28.130  1.00  0.00    -0.248 NA
ATOM     39  C   UNL A   1      40.956  25.136  27.926  1.00  0.00     0.031 C 
ATOM     40  C   UNL A   1      45.688  23.838  26.794  1.00  0.00     0.029 A 
ATOM     41  N   UNL A   1      45.338  25.925  27.516  1.00  0.00    -0.354 N 
ATOM     42  C   UNL A   1      41.346  27.328  28.424  1.00  0.00     0.074 A 
ATOM     43  C   UNL A   1      40.368  26.288  28.200  1.00  0.00     0.031 C 
ATOM     44  C   UNL A   1      46.878  24.457  26.826  1.00  0.00     0.029 A 
ATOM     45  C   UNL A   1      46.687  25.832  27.276  1.00  0.00     0.049 A 
ATOM     46  H   UNL A   1      44.903  26.746  27.839  1.00  0.00     0.167 HD
ATOM     47  C   UNL A   1      41.045  28.568  28.874  1.00  0.00     0.037 A 
ATOM     48  C   UNL A   1      47.658  26.756  27.405  1.00  0.00     0.037 A 
ATOM     49  C   UNL A   1      42.025  29.592  29.121  1.00  0.00     0.049 A 
ATOM     50  C   UNL A   1      47.298  28.129  27.901  1.00  0.00     0.074 A 
ATOM     51  C   UNL A   1      41.833  30.868  29.618  1.00  0.00     0.029 A 
ATOM     52  N   UNL A   1      43.386  29.452  28.887  1.00  0.00    -0.354 N 
ATOM     53  N   UNL A   1      46.124  28.609  28.234  1.00  0.00    -0.248 NA
ATOM     54  C   UNL A   1      48.403  29.086  28.052  1.00  0.00     0.031 C 
ATOM     55  C   UNL A   1      43.072  31.518  29.641  1.00  0.00     0.029 A 
ATOM     56  C   UNL A   1      44.044  30.625  29.217  1.00  0.00     0.049 A 
ATOM     57  H   UNL A   1      43.819  28.640  28.538  1.00  0.00     0.167 HD
ATOM     58  C   UNL A   1      46.355  29.906  28.675  1.00  0.00     0.074 A 
ATOM     59  C   UNL A   1      47.782  30.133  28.574  1.00  0.00     0.031 C 
ATOM     60  C   UNL A   1      45.467  30.827  29.128  1.00  0.00     0.037 A 
BRANCH  47  61
ATOM     61  C   UNL A   1      39.598  28.878  29.131  1.00  0.00     0.057 A 
ATOM     62  C   UNL A   1      39.014  28.703  30.394  1.00  0.00     0.134 A 
ATOM     63  C   UNL A   1      38.779  29.371  28.107  1.00  0.00     0.134 A 
ATOM     64  F   UNL A   1      39.736  28.218  31.415  1.00  0.00    -0.206 F 
ATOM     65  C   UNL A   1      37.663  28.975  30.620  1.00  0.00     0.040 A 
ATOM     66  C   UNL A   1      37.435  29.680  28.330  1.00  0.00     0.040 A 
ATOM     67  F   UNL A   1      39.271  29.568  26.875  1.00  0.00    -0.206 F 
ATOM     68  C   UNL A   1      36.872  29.473  29.587  1.00  0.00     0.006 A 
ENDBRANCH  47  61
BRANCH  48  69
ATOM     69  C   UNL A   1      49.068  26.405  27.095  1.00  0.00     0.057 A 
ATOM     70  C   UNL A   1      49.573  26.529  25.795  1.00  0.00     0.134 A 
ATOM     71  C   UNL A   1      49.938  25.924  28.080  1.00  0.00     0.134 A 
ATOM     72  F   UNL A   1      48.785  26.972  24.803  1.00  0.00    -0.206 F 
ATOM     73  C   UNL A   1      50.882  26.161  25.479  1.00  0.00     0.040 A 
ATOM     74  C   UNL A   1      51.258  25.578  27.784  1.00  0.00     0.040 A 
ATOM     75  F   UNL A   1      49.521  25.792  29.347  1.00  0.00    -0.206 F 
ATOM     76  C   UNL A   1      51.730  25.687  26.477  1.00  0.00     0.006 A 
ENDBRANCH  48  69
BRANCH  60  77
ATOM     77  C   UNL A   1      46.020  32.137  29.611  1.00  0.00     0.057 A 
ATOM     78  C   UNL A   1      46.167  33.245  28.769  1.00  0.00     0.134 A 
ATOM     79  C   UNL A   1      46.388  32.293  30.955  1.00  0.00     0.134 A 
ATOM     80  F   UNL A   1      45.844  33.160  27.469  1.00  0.00    -0.206 F 
ATOM     81  C   UNL A   1      46.689  34.452  29.237  1.00  0.00     0.040 A 
ATOM     82  C   UNL A   1      46.880  33.504  31.442  1.00  0.00     0.040 A 
ATOM     83  F   UNL A   1      46.263  31.275  31.819  1.00  0.00    -0.206 F 
ATOM     84  C   UNL A   1      47.041  34.586  30.578  1.00  0.00     0.006 A 
ENDBRANCH  60  77
ENDBRANCH  34  35
ENDBRANCH  26  29
ENDBRANCH  24  25
ENDBRANCH  23  24
ENDBRANCH   1  23
TORSDOF 13
ENDMDL
MODEL 3
REMARK VINA RESULT:     -11.8      0.821      6.342
REMARK SMILES C[C@H](NC(=O)N1CC[C@H](C(=O)NCCCNC(=O)c2ccc(-c3c4nc(c(-c5c(F)cccc5F)c5ccc([nH]5)c(-c5c(F)cccc5F)c5nc(c(-c6c(F)cccc6F)c6ccc3[nH]6)C=C5)C=C4)cc2)[C@H]1C)c1ccsc1
REMARK SMILES IDX 13 1 12 2 10 3 11 4 9 6 6 7 7 8 73 9 8 10 74 11 4 12 3 13
REMARK SMILES IDX 5 15 2 16 1 17 75 18 76 19 79 20 77 21 78 22 14 23 15 24
REMARK SMILES IDX 16 25 17 26 18 28 19 29 20 30 72 31 21 32 71 33 22 34 23 35
REMARK SMILES IDX 24 36 65 37 25 38 70 39 64 40 66 41 26 42 69 43 63 44 62 45
REMARK SMILES IDX 27 47 53 48 36 49 52 50 37 51 40 52 51 53 67 54 38 55 39 56
REMARK SMILES IDX 50 58 68 59 41 60 28 61 29 62 34 63 30 64 31 65 33 66 35 67
REMARK SMILES IDX 32 68 54 69 55 70 60 71 56 72 57 73 59 74 61 75 58 76 42 77
REMARK SMILES IDX 43 78 48 79 44 80 45 81 47 82 49 83 46 84
REMARK H PARENT 12 5 3 14 16 27 66 46 40 57
REMARK Flexibility Score: inf
ROOT
ATOM      1  C   UNL A   1      36.625  20.552  24.792  1.00  0.00     0.117 C 
ENDROOT
BRANCH   1   2
ATOM      2  N   UNL A   1      35.384  20.077  25.376  1.00  0.00    -0.356 N 
ATOM      3  C   UNL A   1      34.172  20.702  25.426  1.00  0.00     0.225 C 
ATOM      4  O   UNL A   1      33.277  20.190  26.090  1.00  0.00    -0.275 OA
ATOM      5  H   UNL A   1      35.420  19.184  25.790  1.00  0.00     0.163 HD
BRANCH   3   6
ATOM      6  C   UNL A   1      34.037  22.020  24.692  1.00  0.00     0.102 C 
ATOM      7  N   UNL A   1      32.407  23.537  25.565  1.00  0.00    -0.321 N 
ATOM      8  C   UNL A   1      31.730  22.538  24.767  1.00  0.00     0.122 C 
ATOM      9  C   UNL A   1      33.850  23.218  25.648  1.00  0.00     0.096 C 
ATOM     10  C   UNL A   1      32.788  22.067  23.805  1.00  0.00     0.037 C 
ATOM     11  C   UNL A   1      34.786  24.333  25.172  1.00  0.00     0.032 C 
BRANCH   7  12
ATOM     12  C   UNL A   1      31.682  24.032  26.620  1.00  0.00     0.318 C 
ATOM     13  N   UNL A   1      31.074  25.231  26.451  1.00  0.00    -0.331 N 
ATOM     14  H   UNL A   1      30.549  25.552  27.220  1.00  0.00     0.165 HD
ATOM     15  O   UNL A   1      31.425  23.372  27.626  1.00  0.00    -0.249 OA
BRANCH  13  16
ATOM     16  C   UNL A   1      31.086  26.107  25.300  1.00  0.00     0.112 C 
ATOM     17  C   UNL A   1      29.768  26.143  24.519  1.00  0.00     0.036 C 
BRANCH  16  18
ATOM     18  C   UNL A   1      31.481  27.493  25.747  1.00  0.00    -0.015 A 
ATOM     19  C   UNL A   1      31.860  27.853  27.084  1.00  0.00     0.017 A 
ATOM     20  C   UNL A   1      31.462  28.611  24.930  1.00  0.00     0.070 A 
ATOM     21  C   UNL A   1      31.994  29.212  27.249  1.00  0.00     0.065 A 
ATOM     22  S   UNL A   1      31.778  30.059  25.782  1.00  0.00    -0.152 S 
ENDBRANCH  16  18
ENDBRANCH  13  16
ENDBRANCH   7  12
ENDBRANCH   3   6
ENDBRANCH   1   2
BRANCH   1  23
ATOM     23  C   UNL A   1      37.751  19.553  24.970  1.00  0.00     0.042 C 
BRANCH  23  24
ATOM     24  C   UNL A   1      38.925  20.111  25.752  1.00  0.00     0.118 C 
BRANCH  24  25
ATOM     25  N   UNL A   1      40.046  19.183  25.821  1.00  0.00    -0.352 N 
ATOM     26  C   UNL A   1      41.376  19.436  26.028  1.00  0.00     0.251 C 
ATOM     27  H   UNL A   1      39.813  18.234  25.700  1.00  0.00     0.163 HD
ATOM     28  O   UNL A   1      42.207  18.545  25.857  1.00  0.00    -0.269 OA
BRANCH  26  29
ATOM     29  C   UNL A   1      41.808  20.786  26.435  1.00  0.00     0.039 A 
ATOM     30  C   UNL A   1      42.136  21.721  25.453  1.00  0.00     0.014 A 
ATOM     31  C   UNL A   1      41.878  21.129  27.788  1.00  0.00     0.014 A 
ATOM     32  C   UNL A   1      42.483  23.019  25.831  1.00  0.00     0.010 A 
ATOM     33  C   UNL A   1      42.104  22.447  28.154  1.00  0.00     0.010 A 
ATOM     34  C   UNL A   1      42.441  23.399  27.182  1.00  0.00    -0.014 A 
BRANCH  34  35
ATOM     35  C   UNL A   1      42.798  24.772  27.611  1.00  0.00     0.031 A 
ATOM     36  C   UNL A   1      44.247  25.174  27.683  1.00  0.00     0.074 A 
ATOM     37  C   UNL A   1      41.835  25.634  27.987  1.00  0.00     0.049 A 
ATOM     38  N   UNL A   1      44.776  26.298  28.095  1.00  0.00    -0.248 NA
ATOM     39  C   UNL A   1      45.238  24.164  27.272  1.00  0.00     0.031 C 
ATOM     40  C   UNL A   1      40.399  25.346  28.007  1.00  0.00     0.029 A 
ATOM     41  N   UNL A   1      41.920  26.929  28.429  1.00  0.00    -0.354 N 
ATOM     42  C   UNL A   1      46.151  26.121  28.007  1.00  0.00     0.074 A 
ATOM     43  C   UNL A   1      46.379  24.762  27.575  1.00  0.00     0.031 C 
ATOM     44  C   UNL A   1      39.737  26.443  28.407  1.00  0.00     0.029 A 
ATOM     45  C   UNL A   1      40.701  27.496  28.710  1.00  0.00     0.049 A 
ATOM     46  H   UNL A   1      42.773  27.406  28.535  1.00  0.00     0.167 HD
ATOM     47  C   UNL A   1      47.137  27.021  28.232  1.00  0.00     0.037 A 
ATOM     48  C   UNL A   1      40.399  28.727  29.163  1.00  0.00     0.037 A 
ATOM     49  C   UNL A   1      46.905  28.382  28.637  1.00  0.00     0.049 A 
ATOM     50  C   UNL A   1      41.512  29.707  29.412  1.00  0.00     0.074 A 
ATOM     51  C   UNL A   1      47.829  29.388  28.849  1.00  0.00     0.029 A 
ATOM     52  N   UNL A   1      45.653  28.925  28.889  1.00  0.00    -0.354 N 
ATOM     53  N   UNL A   1      42.806  29.547  29.266  1.00  0.00    -0.248 NA
ATOM     54  C   UNL A   1      41.121  31.045  29.875  1.00  0.00     0.031 C 
ATOM     55  C   UNL A   1      47.141  30.528  29.277  1.00  0.00     0.029 A 
ATOM     56  C   UNL A   1      45.783  30.250  29.270  1.00  0.00     0.049 A 
ATOM     57  H   UNL A   1      44.800  28.441  28.810  1.00  0.00     0.167 HD
ATOM     58  C   UNL A   1      43.378  30.774  29.577  1.00  0.00     0.074 A 
ATOM     59  C   UNL A   1      42.289  31.670  29.910  1.00  0.00     0.031 C 
ATOM     60  C   UNL A   1      44.687  31.132  29.580  1.00  0.00     0.037 A 
BRANCH  47  61
ATOM     61  C   UNL A   1      48.553  26.557  28.039  1.00  0.00     0.057 A 
ATOM     62  C   UNL A   1      49.211  26.674  26.806  1.00  0.00     0.134 A 
ATOM     63  C   UNL A   1      49.274  25.999  29.102  1.00  0.00     0.134 A 
ATOM     64  F   UNL A   1      48.573  27.184  25.741  1.00  0.00    -0.206 F 
ATOM     65  C   UNL A   1      50.520  26.224  26.629  1.00  0.00     0.040 A 
ATOM     66  C   UNL A   1      50.596  25.576  28.946  1.00  0.00     0.040 A 
ATOM     67  F   UNL A   1      48.710  25.860  30.310  1.00  0.00    -0.206 F 
ATOM     68  C   UNL A   1      51.219  25.680  27.704  1.00  0.00     0.006 A 
ENDBRANCH  47  61
BRANCH  48  69
ATOM     69  C   UNL A   1      38.981  29.117  29.378  1.00  0.00     0.057 A 
ATOM     70  C   UNL A   1      38.390  29.021  30.644  1.00  0.00     0.134 A 
ATOM     71  C   UNL A   1      38.181  29.576  28.326  1.00  0.00     0.134 A 
ATOM     72  F   UNL A   1      39.102  28.573  31.689  1.00  0.00    -0.206 F 
ATOM     73  C   UNL A   1      37.047  29.340  30.851  1.00  0.00     0.040 A 
ATOM     74  C   UNL A   1      36.843  29.926  28.525  1.00  0.00     0.040 A 
ATOM     75  F   UNL A   1      38.688  29.703  27.092  1.00  0.00    -0.206 F 
ATOM     76  C   UNL A   1      36.271  29.798  29.790  1.00  0.00     0.006 A 
ENDBRANCH  48  69
BRANCH  60  77
ATOM     77  C   UNL A   1      45.008  32.566  29.891  1.00  0.00     0.057 A 
ATOM     78  C   UNL A   1      45.047  33.556  28.901  1.00  0.00     0.134 A 
ATOM     79  C   UNL A   1      45.256  32.962  31.212  1.00  0.00     0.134 A 
ATOM     80  F   UNL A   1      44.830  33.242  27.615  1.00  0.00    -0.206 F 
ATOM     81  C   UNL A   1      45.354  34.882  29.210  1.00  0.00     0.040 A 
ATOM     82  C   UNL A   1      45.531  34.290  31.538  1.00  0.00     0.040 A 
ATOM     83  F   UNL A   1      45.222  32.067  32.210  1.00  0.00    -0.206 F 
ATOM     84  C   UNL A   1      45.590  35.253  30.532  1.00  0.00     0.006 A 
ENDBRANCH  60  77
ENDBRANCH  34  35
ENDBRANCH  26  29
ENDBRANCH  24  25
ENDBRANCH  23  24
ENDBRANCH   1  23
TORSDOF 13
ENDMDL
