MODEL 1
REMARK VINA RESULT:     -11.8      0.000      0.000
REMARK SMILES NC(=O)c1c(F)cccc1O[C@@H](F)C(=O)NCCCNC(=O)c1ccc(-c2c3nc(c(-c4c(F)cccc4F)c4ccc([nH]4)c(-c4c(F)cccc4F)c4nc(c(-c5c(F)cccc5F)c5ccc2[nH]5)C=C4)C=C3)cc1
REMARK SMILES IDX 17 1 16 2 14 3 15 4 12 6 13 7 11 8 10 9 4 10 5 11 6 12 7 13
REMARK SMILES IDX 9 14 8 15 2 16 1 17 3 20 18 21 19 22 20 23 21 24 22 26 23 27
REMARK SMILES IDX 24 28 76 29 25 30 75 31 26 32 27 33 28 34 69 35 29 36 74 37
REMARK SMILES IDX 68 38 70 39 30 40 73 41 67 42 66 43 31 45 57 46 40 47 56 48
REMARK SMILES IDX 41 49 44 50 55 51 71 52 42 53 43 54 54 56 72 57 45 58 32 59
REMARK SMILES IDX 33 60 38 61 34 62 35 63 37 64 39 65 36 66 58 67 59 68 64 69
REMARK SMILES IDX 60 70 61 71 63 72 65 73 62 74 46 75 47 76 52 77 48 78 49 79
REMARK SMILES IDX 51 80 53 81 50 82
REMARK H PARENT 16 5 1 18 1 19 20 25 70 44 44 55
REMARK Flexibility Score: inf
ROOT
ATOM      1  C   UNL A   1      31.236  26.435  25.917  1.00  0.00     0.118 C 
ENDROOT
BRANCH   1   2
ATOM      2  N   UNL A   1      30.339  25.531  26.586  1.00  0.00    -0.350 N 
ATOM      3  C   UNL A   1      30.299  24.167  26.530  1.00  0.00     0.294 C 
ATOM      4  O   UNL A   1      29.512  23.639  27.330  1.00  0.00    -0.267 OA
ATOM      5  H   UNL A   1      29.661  25.954  27.161  1.00  0.00     0.163 HD
BRANCH   3   6
ATOM      6  C   UNL A   1      31.135  23.273  25.530  1.00  0.00     0.440 C 
ATOM      7  F   UNL A   1      30.620  23.364  24.270  1.00  0.00    -0.191 F 
BRANCH   6   8
ATOM      8  O   UNL A   1      31.679  21.979  25.683  1.00  0.00    -0.451 OA
BRANCH   8   9
ATOM      9  C   UNL A   1      32.906  21.616  25.219  1.00  0.00     0.139 A 
ATOM     10  C   UNL A   1      33.494  20.351  25.124  1.00  0.00     0.117 A 
ATOM     11  C   UNL A   1      34.865  20.250  24.849  1.00  0.00     0.139 A 
ATOM     12  F   UNL A   1      35.475  19.055  24.842  1.00  0.00    -0.206 F 
ATOM     13  C   UNL A   1      35.648  21.382  24.633  1.00  0.00     0.040 A 
ATOM     14  C   UNL A   1      33.686  22.745  24.895  1.00  0.00     0.047 A 
ATOM     15  C   UNL A   1      35.051  22.636  24.627  1.00  0.00     0.007 A 
BRANCH  10  16
ATOM     16  C   UNL A   1      32.756  19.093  25.291  1.00  0.00     0.255 C 
ATOM     17  N   UNL A   1      32.820  18.517  26.531  1.00  0.00    -0.365 N 
ATOM     18  H   UNL A   1      32.346  17.672  26.707  1.00  0.00     0.159 HD
ATOM     19  H   UNL A   1      33.339  18.947  27.249  1.00  0.00     0.159 HD
ATOM     20  O   UNL A   1      32.147  18.593  24.364  1.00  0.00    -0.269 OA
ENDBRANCH  10  16
ENDBRANCH   8   9
ENDBRANCH   6   8
ENDBRANCH   3   6
ENDBRANCH   1   2
BRANCH   1  21
ATOM     21  C   UNL A   1      31.722  27.619  26.731  1.00  0.00     0.042 C 
BRANCH  21  22
ATOM     22  C   UNL A   1      32.351  28.725  25.895  1.00  0.00     0.118 C 
BRANCH  22  23
ATOM     23  N   UNL A   1      32.031  30.084  26.321  1.00  0.00    -0.352 N 
ATOM     24  C   UNL A   1      32.728  31.072  26.980  1.00  0.00     0.251 C 
ATOM     25  H   UNL A   1      31.114  30.354  26.085  1.00  0.00     0.163 HD
ATOM     26  O   UNL A   1      32.143  32.126  27.228  1.00  0.00    -0.269 OA
BRANCH  24  27
ATOM     27  C   UNL A   1      34.120  30.891  27.457  1.00  0.00     0.039 A 
ATOM     28  C   UNL A   1      34.921  32.019  27.679  1.00  0.00     0.014 A 
ATOM     29  C   UNL A   1      34.663  29.635  27.693  1.00  0.00     0.014 A 
ATOM     30  C   UNL A   1      36.193  31.882  28.249  1.00  0.00     0.010 A 
ATOM     31  C   UNL A   1      35.848  29.508  28.406  1.00  0.00     0.010 A 
ATOM     32  C   UNL A   1      36.634  30.627  28.698  1.00  0.00    -0.014 A 
BRANCH  32  33
ATOM     33  C   UNL A   1      37.892  30.439  29.473  1.00  0.00     0.031 A 
ATOM     34  C   UNL A   1      39.016  29.608  28.906  1.00  0.00     0.074 A 
ATOM     35  C   UNL A   1      37.972  30.891  30.742  1.00  0.00     0.049 A 
ATOM     36  N   UNL A   1      40.087  29.146  29.501  1.00  0.00    -0.248 NA
ATOM     37  C   UNL A   1      38.891  29.190  27.499  1.00  0.00     0.031 C 
ATOM     38  C   UNL A   1      36.931  31.645  31.446  1.00  0.00     0.029 A 
ATOM     39  N   UNL A   1      38.971  30.764  31.677  1.00  0.00    -0.354 N 
ATOM     40  C   UNL A   1      40.724  28.342  28.563  1.00  0.00     0.074 A 
ATOM     41  C   UNL A   1      39.893  28.331  27.380  1.00  0.00     0.031 C 
ATOM     42  C   UNL A   1      37.360  31.945  32.680  1.00  0.00     0.029 A 
ATOM     43  C   UNL A   1      38.681  31.359  32.881  1.00  0.00     0.049 A 
ATOM     44  H   UNL A   1      39.817  30.291  31.500  1.00  0.00     0.167 HD
ATOM     45  C   UNL A   1      41.910  27.698  28.664  1.00  0.00     0.037 A 
ATOM     46  C   UNL A   1      39.388  31.419  34.025  1.00  0.00     0.037 A 
ATOM     47  C   UNL A   1      42.777  27.786  29.808  1.00  0.00     0.049 A 
ATOM     48  C   UNL A   1      40.731  30.752  34.095  1.00  0.00     0.074 A 
ATOM     49  C   UNL A   1      44.050  27.266  29.963  1.00  0.00     0.029 A 
ATOM     50  N   UNL A   1      42.468  28.451  30.985  1.00  0.00    -0.354 N 
ATOM     51  N   UNL A   1      41.346  30.043  33.178  1.00  0.00    -0.248 NA
ATOM     52  C   UNL A   1      41.479  30.887  35.352  1.00  0.00     0.031 C 
ATOM     53  C   UNL A   1      44.495  27.582  31.248  1.00  0.00     0.029 A 
ATOM     54  C   UNL A   1      43.519  28.340  31.877  1.00  0.00     0.049 A 
ATOM     55  H   UNL A   1      41.626  28.930  31.158  1.00  0.00     0.167 HD
ATOM     56  C   UNL A   1      42.558  29.666  33.739  1.00  0.00     0.074 A 
ATOM     57  C   UNL A   1      42.599  30.234  35.071  1.00  0.00     0.031 C 
ATOM     58  C   UNL A   1      43.547  28.914  33.198  1.00  0.00     0.037 A 
BRANCH  45  59
ATOM     59  C   UNL A   1      42.360  26.863  27.498  1.00  0.00     0.057 A 
ATOM     60  C   UNL A   1      43.058  27.445  26.431  1.00  0.00     0.134 A 
ATOM     61  C   UNL A   1      42.058  25.498  27.403  1.00  0.00     0.134 A 
ATOM     62  F   UNL A   1      43.373  28.748  26.452  1.00  0.00    -0.206 F 
ATOM     63  C   UNL A   1      43.433  26.700  25.312  1.00  0.00     0.040 A 
ATOM     64  C   UNL A   1      42.456  24.736  26.303  1.00  0.00     0.040 A 
ATOM     65  F   UNL A   1      41.401  24.877  28.394  1.00  0.00    -0.206 F 
ATOM     66  C   UNL A   1      43.138  25.340  25.249  1.00  0.00     0.006 A 
ENDBRANCH  45  59
BRANCH  46  67
ATOM     67  C   UNL A   1      38.845  32.179  35.180  1.00  0.00     0.057 A 
ATOM     68  C   UNL A   1      38.972  33.570  35.273  1.00  0.00     0.134 A 
ATOM     69  C   UNL A   1      38.232  31.514  36.247  1.00  0.00     0.134 A 
ATOM     70  F   UNL A   1      39.564  34.264  34.289  1.00  0.00    -0.206 F 
ATOM     71  C   UNL A   1      38.526  34.271  36.395  1.00  0.00     0.040 A 
ATOM     72  C   UNL A   1      37.760  32.204  37.366  1.00  0.00     0.040 A 
ATOM     73  F   UNL A   1      38.069  30.183  36.209  1.00  0.00    -0.206 F 
ATOM     74  C   UNL A   1      37.916  33.587  37.445  1.00  0.00     0.006 A 
ENDBRANCH  46  67
BRANCH  58  75
ATOM     75  C   UNL A   1      44.771  28.669  34.028  1.00  0.00     0.057 A 
ATOM     76  C   UNL A   1      44.837  27.567  34.890  1.00  0.00     0.134 A 
ATOM     77  C   UNL A   1      45.840  29.573  34.044  1.00  0.00     0.134 A 
ATOM     78  F   UNL A   1      43.840  26.671  34.930  1.00  0.00    -0.206 F 
ATOM     79  C   UNL A   1      45.915  27.386  35.759  1.00  0.00     0.040 A 
ATOM     80  C   UNL A   1      46.934  29.389  34.891  1.00  0.00     0.040 A 
ATOM     81  F   UNL A   1      45.839  30.642  33.234  1.00  0.00    -0.206 F 
ATOM     82  C   UNL A   1      46.967  28.298  35.759  1.00  0.00     0.006 A 
ENDBRANCH  58  75
ENDBRANCH  32  33
ENDBRANCH  24  27
ENDBRANCH  22  23
ENDBRANCH  21  22
ENDBRANCH   1  21
TORSDOF 13
ENDMDL
MODEL 2
REMARK VINA RESULT:     -11.8      4.967      9.346
REMARK SMILES NC(=O)c1c(F)cccc1O[C@@H](F)C(=O)NCCCNC(=O)c1ccc(-c2c3nc(c(-c4c(F)cccc4F)c4ccc([nH]4)c(-c4c(F)cccc4F)c4nc(c(-c5c(F)cccc5F)c5ccc2[nH]5)C=C4)C=C3)cc1
REMARK SMILES IDX 17 1 16 2 14 3 15 4 12 6 13 7 11 8 10 9 4 10 5 11 6 12 7 13
REMARK SMILES IDX 9 14 8 15 2 16 1 17 3 20 18 21 19 22 20 23 21 24 22 26 23 27
REMARK SMILES IDX 24 28 76 29 25 30 75 31 26 32 27 33 28 34 69 35 29 36 74 37
REMARK SMILES IDX 68 38 70 39 30 40 73 41 67 42 66 43 31 45 57 46 40 47 56 48
REMARK SMILES IDX 41 49 44 50 55 51 71 52 42 53 43 54 54 56 72 57 45 58 32 59
REMARK SMILES IDX 33 60 38 61 34 62 35 63 37 64 39 65 36 66 58 67 59 68 64 69
REMARK SMILES IDX 60 70 61 71 63 72 65 73 62 74 46 75 47 76 52 77 48 78 49 79
REMARK SMILES IDX 51 80 53 81 50 82
REMARK H PARENT 16 5 1 18 1 19 20 25 70 44 44 55
REMARK Flexibility Score: inf
ROOT
ATOM      1  C   UNL A   1      41.324  20.971  27.298  1.00  0.00     0.118 C 
ENDROOT
BRANCH   1   2
ATOM      2  N   UNL A   1      42.180  20.384  26.301  1.00  0.00    -0.350 N 
ATOM      3  C   UNL A   1      43.193  20.963  25.593  1.00  0.00     0.294 C 
ATOM      4  O   UNL A   1      43.862  20.176  24.907  1.00  0.00    -0.267 OA
ATOM      5  H   UNL A   1      42.011  19.434  26.103  1.00  0.00     0.163 HD
BRANCH   3   6
ATOM      6  C   UNL A   1      43.522  22.509  25.577  1.00  0.00     0.440 C 
ATOM      7  F   UNL A   1      43.511  22.982  24.297  1.00  0.00    -0.191 F 
BRANCH   6   8
ATOM      8  O   UNL A   1      44.471  23.258  26.307  1.00  0.00    -0.451 OA
BRANCH   8   9
ATOM      9  C   UNL A   1      44.169  24.392  26.996  1.00  0.00     0.139 A 
ATOM     10  C   UNL A   1      44.440  25.730  26.690  1.00  0.00     0.117 A 
ATOM     11  C   UNL A   1      44.255  26.710  27.675  1.00  0.00     0.139 A 
ATOM     12  F   UNL A   1      44.593  27.987  27.441  1.00  0.00    -0.206 F 
ATOM     13  C   UNL A   1      43.774  26.385  28.942  1.00  0.00     0.040 A 
ATOM     14  C   UNL A   1      43.584  24.094  28.244  1.00  0.00     0.047 A 
ATOM     15  C   UNL A   1      43.407  25.074  29.219  1.00  0.00     0.007 A 
BRANCH  10  16
ATOM     16  C   UNL A   1      44.911  26.189  25.378  1.00  0.00     0.255 C 
ATOM     17  N   UNL A   1      44.228  27.238  24.824  1.00  0.00    -0.365 N 
ATOM     18  H   UNL A   1      44.496  27.591  23.945  1.00  0.00     0.159 HD
ATOM     19  H   UNL A   1      43.469  27.641  25.305  1.00  0.00     0.159 HD
ATOM     20  O   UNL A   1      45.842  25.641  24.818  1.00  0.00    -0.269 OA
ENDBRANCH  10  16
ENDBRANCH   8   9
ENDBRANCH   6   8
ENDBRANCH   3   6
ENDBRANCH   1   2
BRANCH   1  21
ATOM     21  C   UNL A   1      40.031  21.582  26.792  1.00  0.00     0.042 C 
BRANCH  21  22
ATOM     22  C   UNL A   1      39.915  23.078  27.051  1.00  0.00     0.118 C 
BRANCH  22  23
ATOM     23  N   UNL A   1      40.604  23.930  26.085  1.00  0.00    -0.352 N 
ATOM     24  C   UNL A   1      40.882  25.277  26.021  1.00  0.00     0.251 C 
ATOM     25  H   UNL A   1      40.946  23.431  25.308  1.00  0.00     0.163 HD
ATOM     26  O   UNL A   1      41.466  25.700  25.025  1.00  0.00    -0.269 OA
BRANCH  24  27
ATOM     27  C   UNL A   1      40.447  26.237  27.065  1.00  0.00     0.039 A 
ATOM     28  C   UNL A   1      39.650  25.782  28.124  1.00  0.00     0.014 A 
ATOM     29  C   UNL A   1      40.801  27.578  27.030  1.00  0.00     0.014 A 
ATOM     30  C   UNL A   1      39.333  26.637  29.188  1.00  0.00     0.010 A 
ATOM     31  C   UNL A   1      40.630  28.377  28.153  1.00  0.00     0.010 A 
ATOM     32  C   UNL A   1      39.894  27.922  29.252  1.00  0.00    -0.014 A 
BRANCH  32  33
ATOM     33  C   UNL A   1      39.748  28.814  30.436  1.00  0.00     0.031 A 
ATOM     34  C   UNL A   1      38.726  29.924  30.428  1.00  0.00     0.074 A 
ATOM     35  C   UNL A   1      40.623  28.720  31.459  1.00  0.00     0.049 A 
ATOM     36  N   UNL A   1      38.591  30.931  31.254  1.00  0.00    -0.248 NA
ATOM     37  C   UNL A   1      37.766  29.938  29.311  1.00  0.00     0.031 C 
ATOM     38  C   UNL A   1      41.709  27.743  31.564  1.00  0.00     0.029 A 
ATOM     39  N   UNL A   1      40.751  29.475  32.600  1.00  0.00    -0.354 N 
ATOM     40  C   UNL A   1      37.578  31.721  30.724  1.00  0.00     0.074 A 
ATOM     41  C   UNL A   1      37.173  31.111  29.478  1.00  0.00     0.031 C 
ATOM     42  C   UNL A   1      42.364  27.932  32.720  1.00  0.00     0.029 A 
ATOM     43  C   UNL A   1      41.785  29.077  33.413  1.00  0.00     0.049 A 
ATOM     44  H   UNL A   1      40.156  30.230  32.816  1.00  0.00     0.167 HD
ATOM     45  C   UNL A   1      37.013  32.836  31.242  1.00  0.00     0.037 A 
ATOM     46  C   UNL A   1      42.230  29.582  34.579  1.00  0.00     0.037 A 
ATOM     47  C   UNL A   1      37.355  33.388  32.525  1.00  0.00     0.049 A 
ATOM     48  C   UNL A   1      41.547  30.781  35.170  1.00  0.00     0.074 A 
ATOM     49  C   UNL A   1      36.761  34.446  33.192  1.00  0.00     0.029 A 
ATOM     50  N   UNL A   1      38.370  32.916  33.343  1.00  0.00    -0.354 N 
ATOM     51  N   UNL A   1      40.551  31.483  34.684  1.00  0.00    -0.248 NA
ATOM     52  C   UNL A   1      42.044  31.262  36.467  1.00  0.00     0.031 C 
ATOM     53  C   UNL A   1      37.443  34.638  34.395  1.00  0.00     0.029 A 
ATOM     54  C   UNL A   1      38.431  33.672  34.501  1.00  0.00     0.049 A 
ATOM     55  H   UNL A   1      38.959  32.156  33.132  1.00  0.00     0.167 HD
ATOM     56  C   UNL A   1      40.291  32.473  35.621  1.00  0.00     0.074 A 
ATOM     57  C   UNL A   1      41.224  32.275  36.711  1.00  0.00     0.031 C 
ATOM     58  C   UNL A   1      39.362  33.459  35.579  1.00  0.00     0.037 A 
BRANCH  45  59
ATOM     59  C   UNL A   1      35.942  33.522  30.441  1.00  0.00     0.057 A 
ATOM     60  C   UNL A   1      34.592  33.397  30.798  1.00  0.00     0.134 A 
ATOM     61  C   UNL A   1      36.237  34.260  29.287  1.00  0.00     0.134 A 
ATOM     62  F   UNL A   1      34.237  32.698  31.886  1.00  0.00    -0.206 F 
ATOM     63  C   UNL A   1      33.578  33.977  30.034  1.00  0.00     0.040 A 
ATOM     64  C   UNL A   1      35.234  34.870  28.533  1.00  0.00     0.040 A 
ATOM     65  F   UNL A   1      37.509  34.427  28.894  1.00  0.00    -0.206 F 
ATOM     66  C   UNL A   1      33.899  34.721  28.901  1.00  0.00     0.006 A 
ENDBRANCH  45  59
BRANCH  46  67
ATOM     67  C   UNL A   1      43.359  28.917  35.279  1.00  0.00     0.057 A 
ATOM     68  C   UNL A   1      43.148  27.937  36.255  1.00  0.00     0.134 A 
ATOM     69  C   UNL A   1      44.681  29.293  35.017  1.00  0.00     0.134 A 
ATOM     70  F   UNL A   1      41.903  27.544  36.563  1.00  0.00    -0.206 F 
ATOM     71  C   UNL A   1      44.209  27.369  36.962  1.00  0.00     0.040 A 
ATOM     72  C   UNL A   1      45.754  28.717  35.700  1.00  0.00     0.040 A 
ATOM     73  F   UNL A   1      44.948  30.217  34.082  1.00  0.00    -0.206 F 
ATOM     74  C   UNL A   1      45.517  27.758  36.683  1.00  0.00     0.006 A 
ENDBRANCH  46  67
BRANCH  58  75
ATOM     75  C   UNL A   1      39.286  34.397  36.746  1.00  0.00     0.057 A 
ATOM     76  C   UNL A   1      39.981  35.613  36.730  1.00  0.00     0.134 A 
ATOM     77  C   UNL A   1      38.606  34.052  37.920  1.00  0.00     0.134 A 
ATOM     78  F   UNL A   1      40.662  35.994  35.639  1.00  0.00    -0.206 F 
ATOM     79  C   UNL A   1      40.022  36.443  37.851  1.00  0.00     0.040 A 
ATOM     80  C   UNL A   1      38.619  34.887  39.039  1.00  0.00     0.040 A 
ATOM     81  F   UNL A   1      37.914  32.905  37.994  1.00  0.00    -0.206 F 
ATOM     82  C   UNL A   1      39.338  36.080  39.008  1.00  0.00     0.006 A 
ENDBRANCH  58  75
ENDBRANCH  32  33
ENDBRANCH  24  27
ENDBRANCH  22  23
ENDBRANCH  21  22
ENDBRANCH   1  21
TORSDOF 13
ENDMDL
MODEL 3
REMARK VINA RESULT:     -11.8      2.785      3.525
REMARK SMILES NC(=O)c1c(F)cccc1O[C@@H](F)C(=O)NCCCNC(=O)c1ccc(-c2c3nc(c(-c4c(F)cccc4F)c4ccc([nH]4)c(-c4c(F)cccc4F)c4nc(c(-c5c(F)cccc5F)c5ccc2[nH]5)C=C4)C=C3)cc1
REMARK SMILES IDX 17 1 16 2 14 3 15 4 12 6 13 7 11 8 10 9 4 10 5 11 6 12 7 13
REMARK SMILES IDX 9 14 8 15 2 16 1 17 3 20 18 21 19 22 20 23 21 24 22 26 23 27
REMARK SMILES IDX 24 28 76 29 25 30 75 31 26 32 27 33 28 34 69 35 29 36 74 37
REMARK SMILES IDX 68 38 70 39 30 40 73 41 67 42 66 43 31 45 57 46 40 47 56 48
REMARK SMILES IDX 41 49 44 50 55 51 71 52 42 53 43 54 54 56 72 57 45 58 32 59
REMARK SMILES IDX 33 60 38 61 34 62 35 63 37 64 39 65 36 66 58 67 59 68 64 69
REMARK SMILES IDX 60 70 61 71 63 72 65 73 62 74 46 75 47 76 52 77 48 78 49 79
REMARK SMILES IDX 51 80 53 81 50 82
REMARK H PARENT 16 5 1 18 1 19 20 25 70 44 44 55
REMARK Flexibility Score: inf
ROOT
ATOM      1  C   UNL A   1      31.027  29.822  24.655  1.00  0.00     0.118 C 
ENDROOT
BRANCH   1   2
ATOM      2  N   UNL A   1      30.708  29.994  23.263  1.00  0.00    -0.350 N 
ATOM      3  C   UNL A   1      29.981  29.179  22.444  1.00  0.00     0.294 C 
ATOM      4  O   UNL A   1      29.739  29.653  21.323  1.00  0.00    -0.267 OA
ATOM      5  H   UNL A   1      31.065  30.810  22.843  1.00  0.00     0.163 HD
BRANCH   3   6
ATOM      6  C   UNL A   1      29.482  27.726  22.818  1.00  0.00     0.440 C 
ATOM      7  F   UNL A   1      28.543  27.788  23.806  1.00  0.00    -0.191 F 
BRANCH   6   8
ATOM      8  O   UNL A   1      30.194  26.517  22.972  1.00  0.00    -0.451 OA
BRANCH   8   9
ATOM      9  C   UNL A   1      31.247  26.365  23.822  1.00  0.00     0.139 A 
ATOM     10  C   UNL A   1      32.618  26.303  23.553  1.00  0.00     0.117 A 
ATOM     11  C   UNL A   1      33.497  25.887  24.564  1.00  0.00     0.139 A 
ATOM     12  F   UNL A   1      34.804  25.729  24.311  1.00  0.00    -0.206 F 
ATOM     13  C   UNL A   1      33.037  25.569  25.840  1.00  0.00     0.040 A 
ATOM     14  C   UNL A   1      30.810  26.143  25.144  1.00  0.00     0.047 A 
ATOM     15  C   UNL A   1      31.691  25.726  26.142  1.00  0.00     0.007 A 
BRANCH  10  16
ATOM     16  C   UNL A   1      33.214  26.654  22.259  1.00  0.00     0.255 C 
ATOM     17  N   UNL A   1      33.605  27.957  22.107  1.00  0.00    -0.365 N 
ATOM     18  H   UNL A   1      34.011  28.254  21.261  1.00  0.00     0.159 HD
ATOM     19  H   UNL A   1      33.480  28.597  22.845  1.00  0.00     0.159 HD
ATOM     20  O   UNL A   1      33.326  25.826  21.373  1.00  0.00    -0.269 OA
ENDBRANCH  10  16
ENDBRANCH   8   9
ENDBRANCH   6   8
ENDBRANCH   3   6
ENDBRANCH   1   2
BRANCH   1  21
ATOM     21  C   UNL A   1      30.775  31.019  25.551  1.00  0.00     0.042 C 
BRANCH  21  22
ATOM     22  C   UNL A   1      31.910  31.311  26.523  1.00  0.00     0.118 C 
BRANCH  22  23
ATOM     23  N   UNL A   1      31.953  32.679  27.033  1.00  0.00    -0.352 N 
ATOM     24  C   UNL A   1      32.882  33.411  27.738  1.00  0.00     0.251 C 
ATOM     25  H   UNL A   1      31.137  33.191  26.827  1.00  0.00     0.163 HD
ATOM     26  O   UNL A   1      32.591  34.563  28.055  1.00  0.00    -0.269 OA
BRANCH  24  27
ATOM     27  C   UNL A   1      34.179  32.847  28.182  1.00  0.00     0.039 A 
ATOM     28  C   UNL A   1      35.285  33.697  28.320  1.00  0.00     0.014 A 
ATOM     29  C   UNL A   1      34.341  31.498  28.467  1.00  0.00     0.014 A 
ATOM     30  C   UNL A   1      36.485  33.214  28.859  1.00  0.00     0.010 A 
ATOM     31  C   UNL A   1      35.466  31.056  29.150  1.00  0.00     0.010 A 
ATOM     32  C   UNL A   1      36.558  31.905  29.359  1.00  0.00    -0.014 A 
BRANCH  32  33
ATOM     33  C   UNL A   1      37.737  31.386  30.106  1.00  0.00     0.031 A 
ATOM     34  C   UNL A   1      38.681  30.408  29.449  1.00  0.00     0.074 A 
ATOM     35  C   UNL A   1      37.885  31.678  31.415  1.00  0.00     0.049 A 
ATOM     36  N   UNL A   1      39.625  29.679  29.989  1.00  0.00    -0.248 NA
ATOM     37  C   UNL A   1      38.499  30.172  28.007  1.00  0.00     0.031 C 
ATOM     38  C   UNL A   1      37.006  32.549  32.198  1.00  0.00     0.029 A 
ATOM     39  N   UNL A   1      38.821  31.254  32.327  1.00  0.00    -0.354 N 
ATOM     40  C   UNL A   1      40.104  28.865  28.969  1.00  0.00     0.074 A 
ATOM     41  C   UNL A   1      39.309  29.146  27.795  1.00  0.00     0.031 C 
ATOM     42  C   UNL A   1      37.464  32.627  33.455  1.00  0.00     0.029 A 
ATOM     43  C   UNL A   1      38.636  31.768  33.588  1.00  0.00     0.049 A 
ATOM     44  H   UNL A   1      39.557  30.641  32.098  1.00  0.00     0.167 HD
ATOM     45  C   UNL A   1      41.133  27.987  28.997  1.00  0.00     0.037 A 
ATOM     46  C   UNL A   1      39.321  31.564  34.729  1.00  0.00     0.037 A 
ATOM     47  C   UNL A   1      41.980  27.778  30.140  1.00  0.00     0.049 A 
ATOM     48  C   UNL A   1      40.499  30.635  34.724  1.00  0.00     0.074 A 
ATOM     49  C   UNL A   1      43.119  26.997  30.234  1.00  0.00     0.029 A 
ATOM     50  N   UNL A   1      41.791  28.366  31.382  1.00  0.00    -0.354 N 
ATOM     51  N   UNL A   1      40.975  29.916  33.735  1.00  0.00    -0.248 NA
ATOM     52  C   UNL A   1      41.238  30.484  35.985  1.00  0.00     0.031 C 
ATOM     53  C   UNL A   1      43.596  27.082  31.544  1.00  0.00     0.029 A 
ATOM     54  C   UNL A   1      42.782  27.951  32.254  1.00  0.00     0.049 A 
ATOM     55  H   UNL A   1      41.060  28.985  31.608  1.00  0.00     0.167 HD
ATOM     56  C   UNL A   1      42.076  29.245  34.248  1.00  0.00     0.074 A 
ATOM     57  C   UNL A   1      42.208  29.650  35.633  1.00  0.00     0.031 C 
ATOM     58  C   UNL A   1      42.902  28.368  33.627  1.00  0.00     0.037 A 
BRANCH  45  59
ATOM     59  C   UNL A   1      41.426  27.204  27.747  1.00  0.00     0.057 A 
ATOM     60  C   UNL A   1      42.243  27.741  26.743  1.00  0.00     0.134 A 
ATOM     61  C   UNL A   1      40.859  25.945  27.512  1.00  0.00     0.134 A 
ATOM     62  F   UNL A   1      42.812  28.946  26.899  1.00  0.00    -0.206 F 
ATOM     63  C   UNL A   1      42.480  27.056  25.551  1.00  0.00     0.040 A 
ATOM     64  C   UNL A   1      41.115  25.236  26.336  1.00  0.00     0.040 A 
ATOM     65  F   UNL A   1      40.075  25.368  28.436  1.00  0.00    -0.206 F 
ATOM     66  C   UNL A   1      41.920  25.797  25.347  1.00  0.00     0.006 A 
ENDBRANCH  45  59
BRANCH  46  67
ATOM     67  C   UNL A   1      38.922  32.294  35.960  1.00  0.00     0.057 A 
ATOM     68  C   UNL A   1      38.099  31.711  36.930  1.00  0.00     0.134 A 
ATOM     69  C   UNL A   1      39.320  33.620  36.163  1.00  0.00     0.134 A 
ATOM     70  F   UNL A   1      37.672  30.448  36.786  1.00  0.00    -0.206 F 
ATOM     71  C   UNL A   1      37.667  32.427  38.048  1.00  0.00     0.040 A 
ATOM     72  C   UNL A   1      38.914  34.341  37.288  1.00  0.00     0.040 A 
ATOM     73  F   UNL A   1      40.120  34.228  35.275  1.00  0.00    -0.206 F 
ATOM     74  C   UNL A   1      38.077  33.746  38.230  1.00  0.00     0.006 A 
ENDBRANCH  46  67
BRANCH  58  75
ATOM     75  C   UNL A   1      44.037  27.795  34.422  1.00  0.00     0.057 A 
ATOM     76  C   UNL A   1      45.289  28.422  34.430  1.00  0.00     0.134 A 
ATOM     77  C   UNL A   1      43.916  26.574  35.096  1.00  0.00     0.134 A 
ATOM     78  F   UNL A   1      45.472  29.588  33.793  1.00  0.00    -0.206 F 
ATOM     79  C   UNL A   1      46.389  27.843  35.064  1.00  0.00     0.040 A 
ATOM     80  C   UNL A   1      45.004  25.997  35.754  1.00  0.00     0.040 A 
ATOM     81  F   UNL A   1      42.740  25.929  35.131  1.00  0.00    -0.206 F 
ATOM     82  C   UNL A   1      46.247  26.627  35.728  1.00  0.00     0.006 A 
ENDBRANCH  58  75
ENDBRANCH  32  33
ENDBRANCH  24  27
ENDBRANCH  22  23
ENDBRANCH  21  22
ENDBRANCH   1  21
TORSDOF 13
ENDMDL
