MODEL 1
REMARK VINA RESULT:     -12.6      0.000      0.000
REMARK SMILES C[C@H](Oc1ccc(-c2ccccc2)cc1)C(=O)N[C@H](C)C(=O)NCCCNC(=O)c1ccc(-c2c3nc(c(-c4c(F)cccc4F)c4ccc([nH]4)c(-c4c(F)cccc4F)c4nc(c(-c5c(F)cccc5F)c5ccc2[nH]5)C=C4)C=C3)cc1
REMARK SMILES IDX 21 1 22 2 23 3 19 5 20 6 18 7 16 8 17 9 2 11 1 12 3 13 4 14
REMARK SMILES IDX 5 15 15 16 6 17 14 18 7 19 8 20 9 21 13 22 10 23 12 24 11 25
REMARK SMILES IDX 24 26 25 27 26 28 27 29 28 30 29 32 30 33 31 34 83 35 32 36
REMARK SMILES IDX 82 37 33 38 34 39 35 40 76 41 36 42 81 43 75 44 77 45 37 46
REMARK SMILES IDX 80 47 74 48 73 49 38 51 64 52 47 53 63 54 48 55 51 56 62 57
REMARK SMILES IDX 78 58 49 59 50 60 61 62 79 63 52 64 39 65 40 66 45 67 41 68
REMARK SMILES IDX 42 69 44 70 46 71 43 72 65 73 66 74 71 75 67 76 68 77 70 78
REMARK SMILES IDX 72 79 69 80 53 81 54 82 59 83 55 84 56 85 58 86 60 87 57 88
REMARK H PARENT 23 4 18 10 27 31 77 50 51 61
REMARK Flexibility Score: inf
ROOT
ATOM      1  C   UNL A   1      33.404  20.221  25.172  1.00  0.00     0.242 C 
ATOM      2  O   UNL A   1      32.563  19.407  25.560  1.00  0.00    -0.273 OA
ATOM      3  N   UNL A   1      34.725  19.887  25.323  1.00  0.00    -0.354 N 
ATOM      4  H   UNL A   1      34.879  18.993  25.704  1.00  0.00     0.163 HD
ENDROOT
BRANCH   1   5
ATOM      5  C   UNL A   1      32.988  21.630  24.690  1.00  0.00     0.168 C 
ATOM      6  C   UNL A   1      32.396  21.437  23.306  1.00  0.00     0.041 C 
BRANCH   5   7
ATOM      7  N   UNL A   1      32.198  22.270  25.753  1.00  0.00    -0.341 N 
ATOM      8  C   UNL A   1      32.002  23.523  26.238  1.00  0.00     0.261 C 
ATOM      9  O   UNL A   1      31.377  23.595  27.304  1.00  0.00    -0.271 OA
ATOM     10  H   UNL A   1      31.664  21.608  26.249  1.00  0.00     0.164 HD
BRANCH   8  11
ATOM     11  C   UNL A   1      32.380  24.805  25.486  1.00  0.00     0.258 C 
ATOM     12  C   UNL A   1      33.805  25.184  25.888  1.00  0.00     0.064 C 
BRANCH  11  13
ATOM     13  O   UNL A   1      31.281  25.696  25.621  1.00  0.00    -0.481 OA
BRANCH  13  14
ATOM     14  C   UNL A   1      31.067  26.818  24.894  1.00  0.00     0.120 A 
ATOM     15  C   UNL A   1      31.606  28.078  25.093  1.00  0.00     0.047 A 
ATOM     16  C   UNL A   1      30.092  26.653  23.905  1.00  0.00     0.047 A 
ATOM     17  C   UNL A   1      31.052  29.186  24.438  1.00  0.00     0.012 A 
ATOM     18  C   UNL A   1      29.566  27.753  23.224  1.00  0.00     0.012 A 
ATOM     19  C   UNL A   1      29.998  29.052  23.518  1.00  0.00    -0.018 A 
BRANCH  19  20
ATOM     20  C   UNL A   1      29.351  30.235  22.916  1.00  0.00    -0.018 A 
ATOM     21  C   UNL A   1      29.129  31.406  23.661  1.00  0.00     0.009 A 
ATOM     22  C   UNL A   1      28.896  30.219  21.583  1.00  0.00     0.009 A 
ATOM     23  C   UNL A   1      28.475  32.508  23.104  1.00  0.00     0.001 A 
ATOM     24  C   UNL A   1      28.249  31.323  21.022  1.00  0.00     0.001 A 
ATOM     25  C   UNL A   1      28.035  32.466  21.785  1.00  0.00     0.000 A 
ENDBRANCH  19  20
ENDBRANCH  13  14
ENDBRANCH  11  13
ENDBRANCH   8  11
ENDBRANCH   5   7
ENDBRANCH   1   5
BRANCH   3  26
ATOM     26  C   UNL A   1      35.939  20.629  25.015  1.00  0.00     0.117 C 
BRANCH  26  27
ATOM     27  C   UNL A   1      37.187  19.757  24.928  1.00  0.00     0.042 C 
BRANCH  27  28
ATOM     28  C   UNL A   1      38.469  20.428  25.394  1.00  0.00     0.118 C 
BRANCH  28  29
ATOM     29  N   UNL A   1      39.563  19.487  25.566  1.00  0.00    -0.352 N 
ATOM     30  C   UNL A   1      40.858  19.685  25.972  1.00  0.00     0.251 C 
ATOM     31  H   UNL A   1      39.337  18.552  25.354  1.00  0.00     0.163 HD
ATOM     32  O   UNL A   1      41.661  18.761  25.869  1.00  0.00    -0.269 OA
BRANCH  30  33
ATOM     33  C   UNL A   1      41.307  20.986  26.520  1.00  0.00     0.039 A 
ATOM     34  C   UNL A   1      41.115  21.234  27.882  1.00  0.00     0.014 A 
ATOM     35  C   UNL A   1      41.849  21.985  25.706  1.00  0.00     0.014 A 
ATOM     36  C   UNL A   1      41.493  22.460  28.432  1.00  0.00     0.010 A 
ATOM     37  C   UNL A   1      42.306  23.174  26.270  1.00  0.00     0.010 A 
ATOM     38  C   UNL A   1      42.111  23.435  27.634  1.00  0.00    -0.014 A 
BRANCH  38  39
ATOM     39  C   UNL A   1      42.514  24.746  28.200  1.00  0.00     0.031 A 
ATOM     40  C   UNL A   1      41.489  25.830  28.402  1.00  0.00     0.074 A 
ATOM     41  C   UNL A   1      43.807  24.982  28.492  1.00  0.00     0.049 A 
ATOM     42  N   UNL A   1      41.652  27.055  28.836  1.00  0.00    -0.248 NA
ATOM     43  C   UNL A   1      40.102  25.504  28.035  1.00  0.00     0.031 C 
ATOM     44  C   UNL A   1      44.905  24.035  28.292  1.00  0.00     0.029 A 
ATOM     45  N   UNL A   1      44.417  26.096  29.008  1.00  0.00    -0.354 N 
ATOM     46  C   UNL A   1      40.395  27.644  28.782  1.00  0.00     0.074 A 
ATOM     47  C   UNL A   1      39.494  26.666  28.214  1.00  0.00     0.031 C 
ATOM     48  C   UNL A   1      46.051  24.603  28.698  1.00  0.00     0.029 A 
ATOM     49  C   UNL A   1      45.775  25.960  29.159  1.00  0.00     0.049 A 
ATOM     50  H   UNL A   1      43.927  26.917  29.249  1.00  0.00     0.167 HD
ATOM     51  C   UNL A   1      40.017  28.879  29.195  1.00  0.00     0.037 A 
ATOM     52  C   UNL A   1      46.695  26.832  29.613  1.00  0.00     0.037 A 
ATOM     53  C   UNL A   1      40.910  29.844  29.780  1.00  0.00     0.049 A 
ATOM     54  C   UNL A   1      46.253  28.188  30.087  1.00  0.00     0.074 A 
ATOM     55  C   UNL A   1      40.619  31.103  30.273  1.00  0.00     0.029 A 
ATOM     56  N   UNL A   1      42.273  29.652  29.953  1.00  0.00    -0.354 N 
ATOM     57  N   UNL A   1      45.050  28.711  30.088  1.00  0.00    -0.248 NA
ATOM     58  C   UNL A   1      47.292  29.068  30.637  1.00  0.00     0.031 C 
ATOM     59  C   UNL A   1      41.812  31.688  30.712  1.00  0.00     0.029 A 
ATOM     60  C   UNL A   1      42.839  30.775  30.535  1.00  0.00     0.049 A 
ATOM     61  H   UNL A   1      42.766  28.838  29.700  1.00  0.00     0.167 HD
ATOM     62  C   UNL A   1      45.183  29.971  30.657  1.00  0.00     0.074 A 
ATOM     63  C   UNL A   1      46.581  30.125  31.004  1.00  0.00     0.031 C 
ATOM     64  C   UNL A   1      44.233  30.913  30.874  1.00  0.00     0.037 A 
BRANCH  51  65
ATOM     65  C   UNL A   1      38.571  29.244  29.026  1.00  0.00     0.057 A 
ATOM     66  C   UNL A   1      38.052  29.650  27.787  1.00  0.00     0.134 A 
ATOM     67  C   UNL A   1      37.684  29.190  30.108  1.00  0.00     0.134 A 
ATOM     68  F   UNL A   1      38.851  29.737  26.712  1.00  0.00    -0.206 F 
ATOM     69  C   UNL A   1      36.715  30.024  27.641  1.00  0.00     0.040 A 
ATOM     70  C   UNL A   1      36.337  29.533  29.967  1.00  0.00     0.040 A 
ATOM     71  F   UNL A   1      38.110  28.805  31.320  1.00  0.00    -0.206 F 
ATOM     72  C   UNL A   1      35.853  29.961  28.733  1.00  0.00     0.006 A 
ENDBRANCH  51  65
BRANCH  52  73
ATOM     73  C   UNL A   1      48.121  26.429  29.672  1.00  0.00     0.057 A 
ATOM     74  C   UNL A   1      48.640  25.764  30.788  1.00  0.00     0.134 A 
ATOM     75  C   UNL A   1      48.992  26.682  28.606  1.00  0.00     0.134 A 
ATOM     76  F   UNL A   1      47.856  25.508  31.846  1.00  0.00    -0.206 F 
ATOM     77  C   UNL A   1      49.980  25.376  30.850  1.00  0.00     0.040 A 
ATOM     78  C   UNL A   1      50.328  26.280  28.644  1.00  0.00     0.040 A 
ATOM     79  F   UNL A   1      48.552  27.306  27.504  1.00  0.00    -0.206 F 
ATOM     80  C   UNL A   1      50.826  25.628  29.771  1.00  0.00     0.006 A 
ENDBRANCH  52  73
BRANCH  64  81
ATOM     81  C   UNL A   1      44.671  32.184  31.542  1.00  0.00     0.057 A 
ATOM     82  C   UNL A   1      44.678  32.322  32.936  1.00  0.00     0.134 A 
ATOM     83  C   UNL A   1      45.120  33.270  30.780  1.00  0.00     0.134 A 
ATOM     84  F   UNL A   1      44.247  31.323  33.720  1.00  0.00    -0.206 F 
ATOM     85  C   UNL A   1      45.094  33.505  33.548  1.00  0.00     0.040 A 
ATOM     86  C   UNL A   1      45.563  34.448  31.381  1.00  0.00     0.040 A 
ATOM     87  F   UNL A   1      45.146  33.199  29.441  1.00  0.00    -0.206 F 
ATOM     88  C   UNL A   1      45.545  34.571  32.770  1.00  0.00     0.006 A 
ENDBRANCH  64  81
ENDBRANCH  38  39
ENDBRANCH  30  33
ENDBRANCH  28  29
ENDBRANCH  27  28
ENDBRANCH  26  27
ENDBRANCH   3  26
TORSDOF 15
ENDMDL
MODEL 2
REMARK VINA RESULT:     -12.5      3.519      9.552
REMARK SMILES C[C@H](Oc1ccc(-c2ccccc2)cc1)C(=O)N[C@H](C)C(=O)NCCCNC(=O)c1ccc(-c2c3nc(c(-c4c(F)cccc4F)c4ccc([nH]4)c(-c4c(F)cccc4F)c4nc(c(-c5c(F)cccc5F)c5ccc2[nH]5)C=C4)C=C3)cc1
REMARK SMILES IDX 21 1 22 2 23 3 19 5 20 6 18 7 16 8 17 9 2 11 1 12 3 13 4 14
REMARK SMILES IDX 5 15 15 16 6 17 14 18 7 19 8 20 9 21 13 22 10 23 12 24 11 25
REMARK SMILES IDX 24 26 25 27 26 28 27 29 28 30 29 32 30 33 31 34 83 35 32 36
REMARK SMILES IDX 82 37 33 38 34 39 35 40 76 41 36 42 81 43 75 44 77 45 37 46
REMARK SMILES IDX 80 47 74 48 73 49 38 51 64 52 47 53 63 54 48 55 51 56 62 57
REMARK SMILES IDX 78 58 49 59 50 60 61 62 79 63 52 64 39 65 40 66 45 67 41 68
REMARK SMILES IDX 42 69 44 70 46 71 43 72 65 73 66 74 71 75 67 76 68 77 70 78
REMARK SMILES IDX 72 79 69 80 53 81 54 82 59 83 55 84 56 85 58 86 60 87 57 88
REMARK H PARENT 23 4 18 10 27 31 77 50 51 61
REMARK Flexibility Score: inf
ROOT
ATOM      1  C   UNL A   1      30.488  28.967  23.244  1.00  0.00     0.242 C 
ATOM      2  O   UNL A   1      30.039  29.210  22.122  1.00  0.00    -0.273 OA
ATOM      3  N   UNL A   1      30.794  30.034  24.048  1.00  0.00    -0.354 N 
ATOM      4  H   UNL A   1      30.587  30.912  23.656  1.00  0.00     0.163 HD
ENDROOT
BRANCH   1   5
ATOM      5  C   UNL A   1      30.850  27.523  23.663  1.00  0.00     0.168 C 
ATOM      6  C   UNL A   1      29.529  26.794  23.823  1.00  0.00     0.041 C 
BRANCH   5   7
ATOM      7  N   UNL A   1      31.873  27.013  22.736  1.00  0.00    -0.341 N 
ATOM      8  C   UNL A   1      32.946  26.182  22.789  1.00  0.00     0.261 C 
ATOM      9  O   UNL A   1      33.671  26.178  21.787  1.00  0.00    -0.271 OA
ATOM     10  H   UNL A   1      31.745  27.374  21.829  1.00  0.00     0.164 HD
BRANCH   8  11
ATOM     11  C   UNL A   1      33.207  25.185  23.925  1.00  0.00     0.258 C 
ATOM     12  C   UNL A   1      34.012  25.906  25.006  1.00  0.00     0.064 C 
BRANCH  11  13
ATOM     13  O   UNL A   1      33.644  23.979  23.316  1.00  0.00    -0.481 OA
BRANCH  13  14
ATOM     14  C   UNL A   1      33.678  22.756  23.897  1.00  0.00     0.120 A 
ATOM     15  C   UNL A   1      34.750  22.138  24.519  1.00  0.00     0.047 A 
ATOM     16  C   UNL A   1      32.495  22.032  23.722  1.00  0.00     0.047 A 
ATOM     17  C   UNL A   1      34.699  20.766  24.799  1.00  0.00     0.012 A 
ATOM     18  C   UNL A   1      32.431  20.673  24.035  1.00  0.00     0.012 A 
ATOM     19  C   UNL A   1      33.554  19.997  24.530  1.00  0.00    -0.018 A 
BRANCH  19  20
ATOM     20  C   UNL A   1      33.548  18.534  24.727  1.00  0.00    -0.018 A 
ATOM     21  C   UNL A   1      34.469  17.703  24.066  1.00  0.00     0.009 A 
ATOM     22  C   UNL A   1      32.594  17.913  25.556  1.00  0.00     0.009 A 
ATOM     23  C   UNL A   1      34.434  16.315  24.218  1.00  0.00     0.001 A 
ATOM     24  C   UNL A   1      32.562  16.525  25.715  1.00  0.00     0.001 A 
ATOM     25  C   UNL A   1      33.480  15.726  25.042  1.00  0.00     0.000 A 
ENDBRANCH  19  20
ENDBRANCH  13  14
ENDBRANCH  11  13
ENDBRANCH   8  11
ENDBRANCH   5   7
ENDBRANCH   1   5
BRANCH   3  26
ATOM     26  C   UNL A   1      31.372  30.089  25.383  1.00  0.00     0.117 C 
BRANCH  26  27
ATOM     27  C   UNL A   1      31.162  31.426  26.089  1.00  0.00     0.042 C 
BRANCH  27  28
ATOM     28  C   UNL A   1      32.336  31.892  26.934  1.00  0.00     0.118 C 
BRANCH  28  29
ATOM     29  N   UNL A   1      32.232  33.291  27.314  1.00  0.00    -0.352 N 
ATOM     30  C   UNL A   1      33.010  34.052  28.149  1.00  0.00     0.251 C 
ATOM     31  H   UNL A   1      31.477  33.772  26.904  1.00  0.00     0.163 HD
ATOM     32  O   UNL A   1      32.623  35.175  28.462  1.00  0.00    -0.269 OA
BRANCH  30  33
ATOM     33  C   UNL A   1      34.294  33.545  28.685  1.00  0.00     0.039 A 
ATOM     34  C   UNL A   1      35.475  33.897  28.023  1.00  0.00     0.014 A 
ATOM     35  C   UNL A   1      34.350  32.680  29.782  1.00  0.00     0.014 A 
ATOM     36  C   UNL A   1      36.704  33.413  28.476  1.00  0.00     0.010 A 
ATOM     37  C   UNL A   1      35.582  32.268  30.286  1.00  0.00     0.010 A 
ATOM     38  C   UNL A   1      36.770  32.609  29.625  1.00  0.00    -0.014 A 
BRANCH  38  39
ATOM     39  C   UNL A   1      38.067  32.082  30.116  1.00  0.00     0.031 A 
ATOM     40  C   UNL A   1      38.603  30.780  29.586  1.00  0.00     0.074 A 
ATOM     41  C   UNL A   1      38.742  32.747  31.073  1.00  0.00     0.049 A 
ATOM     42  N   UNL A   1      39.689  30.131  29.925  1.00  0.00    -0.248 NA
ATOM     43  C   UNL A   1      37.795  30.100  28.562  1.00  0.00     0.031 C 
ATOM     44  C   UNL A   1      38.304  33.991  31.708  1.00  0.00     0.029 A 
ATOM     45  N   UNL A   1      39.936  32.463  31.684  1.00  0.00    -0.354 N 
ATOM     46  C   UNL A   1      39.686  28.967  29.167  1.00  0.00     0.074 A 
ATOM     47  C   UNL A   1      38.459  28.967  28.399  1.00  0.00     0.031 C 
ATOM     48  C   UNL A   1      39.225  34.371  32.607  1.00  0.00     0.029 A 
ATOM     49  C   UNL A   1      40.302  33.386  32.632  1.00  0.00     0.049 A 
ATOM     50  H   UNL A   1      40.481  31.671  31.464  1.00  0.00     0.167 HD
ATOM     51  C   UNL A   1      40.630  27.997  29.094  1.00  0.00     0.037 A 
ATOM     52  C   UNL A   1      41.382  33.433  33.434  1.00  0.00     0.037 A 
ATOM     53  C   UNL A   1      41.859  28.008  29.842  1.00  0.00     0.049 A 
ATOM     54  C   UNL A   1      42.429  32.360  33.322  1.00  0.00     0.074 A 
ATOM     55  C   UNL A   1      42.901  27.099  29.805  1.00  0.00     0.029 A 
ATOM     56  N   UNL A   1      42.212  28.984  30.763  1.00  0.00    -0.354 N 
ATOM     57  N   UNL A   1      42.442  31.296  32.556  1.00  0.00    -0.248 NA
ATOM     58  C   UNL A   1      43.617  32.503  34.174  1.00  0.00     0.031 C 
ATOM     59  C   UNL A   1      43.870  27.506  30.730  1.00  0.00     0.029 A 
ATOM     60  C   UNL A   1      43.451  28.693  31.310  1.00  0.00     0.049 A 
ATOM     61  H   UNL A   1      41.662  29.768  30.994  1.00  0.00     0.167 HD
ATOM     62  C   UNL A   1      43.647  30.655  32.815  1.00  0.00     0.074 A 
ATOM     63  C   UNL A   1      44.344  31.459  33.798  1.00  0.00     0.031 C 
ATOM     64  C   UNL A   1      44.132  29.504  32.287  1.00  0.00     0.037 A 
BRANCH  51  65
ATOM     65  C   UNL A   1      40.360  26.848  28.166  1.00  0.00     0.057 A 
ATOM     66  C   UNL A   1      39.556  25.764  28.547  1.00  0.00     0.134 A 
ATOM     67  C   UNL A   1      40.906  26.821  26.877  1.00  0.00     0.134 A 
ATOM     68  F   UNL A   1      39.013  25.721  29.774  1.00  0.00    -0.206 F 
ATOM     69  C   UNL A   1      39.337  24.680  27.696  1.00  0.00     0.040 A 
ATOM     70  C   UNL A   1      40.670  25.756  26.005  1.00  0.00     0.040 A 
ATOM     71  F   UNL A   1      41.681  27.827  26.443  1.00  0.00    -0.206 F 
ATOM     72  C   UNL A   1      39.891  24.677  26.418  1.00  0.00     0.006 A 
ENDBRANCH  51  65
BRANCH  52  73
ATOM     73  C   UNL A   1      41.539  34.557  34.389  1.00  0.00     0.057 A 
ATOM     74  C   UNL A   1      42.158  35.752  34.006  1.00  0.00     0.134 A 
ATOM     75  C   UNL A   1      41.057  34.470  35.701  1.00  0.00     0.134 A 
ATOM     76  F   UNL A   1      42.653  35.887  32.766  1.00  0.00    -0.206 F 
ATOM     77  C   UNL A   1      42.304  36.817  34.896  1.00  0.00     0.040 A 
ATOM     78  C   UNL A   1      41.177  35.535  36.594  1.00  0.00     0.040 A 
ATOM     79  F   UNL A   1      40.445  33.355  36.125  1.00  0.00    -0.206 F 
ATOM     80  C   UNL A   1      41.806  36.712  36.193  1.00  0.00     0.006 A 
ENDBRANCH  52  73
BRANCH  64  81
ATOM     81  C   UNL A   1      45.493  29.064  32.741  1.00  0.00     0.057 A 
ATOM     82  C   UNL A   1      46.661  29.489  32.096  1.00  0.00     0.134 A 
ATOM     83  C   UNL A   1      45.635  28.230  33.857  1.00  0.00     0.134 A 
ATOM     84  F   UNL A   1      46.591  30.278  31.013  1.00  0.00    -0.206 F 
ATOM     85  C   UNL A   1      47.922  29.080  32.530  1.00  0.00     0.040 A 
ATOM     86  C   UNL A   1      46.891  27.835  34.316  1.00  0.00     0.040 A 
ATOM     87  F   UNL A   1      44.556  27.794  34.525  1.00  0.00    -0.206 F 
ATOM     88  C   UNL A   1      48.040  28.255  33.649  1.00  0.00     0.006 A 
ENDBRANCH  64  81
ENDBRANCH  38  39
ENDBRANCH  30  33
ENDBRANCH  28  29
ENDBRANCH  27  28
ENDBRANCH  26  27
ENDBRANCH   3  26
TORSDOF 15
ENDMDL
MODEL 3
REMARK VINA RESULT:     -12.4      3.966      9.340
REMARK SMILES C[C@H](Oc1ccc(-c2ccccc2)cc1)C(=O)N[C@H](C)C(=O)NCCCNC(=O)c1ccc(-c2c3nc(c(-c4c(F)cccc4F)c4ccc([nH]4)c(-c4c(F)cccc4F)c4nc(c(-c5c(F)cccc5F)c5ccc2[nH]5)C=C4)C=C3)cc1
REMARK SMILES IDX 21 1 22 2 23 3 19 5 20 6 18 7 16 8 17 9 2 11 1 12 3 13 4 14
REMARK SMILES IDX 5 15 15 16 6 17 14 18 7 19 8 20 9 21 13 22 10 23 12 24 11 25
REMARK SMILES IDX 24 26 25 27 26 28 27 29 28 30 29 32 30 33 31 34 83 35 32 36
REMARK SMILES IDX 82 37 33 38 34 39 35 40 76 41 36 42 81 43 75 44 77 45 37 46
REMARK SMILES IDX 80 47 74 48 73 49 38 51 64 52 47 53 63 54 48 55 51 56 62 57
REMARK SMILES IDX 78 58 49 59 50 60 61 62 79 63 52 64 39 65 40 66 45 67 41 68
REMARK SMILES IDX 42 69 44 70 46 71 43 72 65 73 66 74 71 75 67 76 68 77 70 78
REMARK SMILES IDX 72 79 69 80 53 81 54 82 59 83 55 84 56 85 58 86 60 87 57 88
REMARK H PARENT 23 4 18 10 27 31 77 50 51 61
REMARK Flexibility Score: inf
ROOT
ATOM      1  C   UNL A   1      30.421  29.069  23.126  1.00  0.00     0.242 C 
ATOM      2  O   UNL A   1      29.975  29.267  21.994  1.00  0.00    -0.273 OA
ATOM      3  N   UNL A   1      30.638  30.164  23.921  1.00  0.00    -0.354 N 
ATOM      4  H   UNL A   1      30.377  31.021  23.515  1.00  0.00     0.163 HD
ENDROOT
BRANCH   1   5
ATOM      5  C   UNL A   1      30.877  27.659  23.570  1.00  0.00     0.168 C 
ATOM      6  C   UNL A   1      29.605  26.865  23.798  1.00  0.00     0.041 C 
BRANCH   5   7
ATOM      7  N   UNL A   1      31.892  27.179  22.619  1.00  0.00    -0.341 N 
ATOM      8  C   UNL A   1      32.884  26.252  22.598  1.00  0.00     0.261 C 
ATOM      9  O   UNL A   1      33.651  26.308  21.628  1.00  0.00    -0.271 OA
ATOM     10  H   UNL A   1      31.836  27.662  21.763  1.00  0.00     0.164 HD
BRANCH   8  11
ATOM     11  C   UNL A   1      33.007  25.100  23.603  1.00  0.00     0.258 C 
ATOM     12  C   UNL A   1      34.477  24.687  23.667  1.00  0.00     0.064 C 
BRANCH  11  13
ATOM     13  O   UNL A   1      31.963  24.184  23.302  1.00  0.00    -0.481 OA
BRANCH  13  14
ATOM     14  C   UNL A   1      31.922  22.876  23.650  1.00  0.00     0.120 A 
ATOM     15  C   UNL A   1      31.833  22.335  24.922  1.00  0.00     0.047 A 
ATOM     16  C   UNL A   1      32.108  22.014  22.566  1.00  0.00     0.047 A 
ATOM     17  C   UNL A   1      32.103  20.975  25.124  1.00  0.00     0.012 A 
ATOM     18  C   UNL A   1      32.340  20.651  22.762  1.00  0.00     0.012 A 
ATOM     19  C   UNL A   1      32.398  20.113  24.054  1.00  0.00    -0.018 A 
BRANCH  19  20
ATOM     20  C   UNL A   1      32.787  18.707  24.287  1.00  0.00    -0.018 A 
ATOM     21  C   UNL A   1      33.337  17.921  23.260  1.00  0.00     0.009 A 
ATOM     22  C   UNL A   1      32.584  18.092  25.537  1.00  0.00     0.009 A 
ATOM     23  C   UNL A   1      33.662  16.578  23.469  1.00  0.00     0.001 A 
ATOM     24  C   UNL A   1      32.916  16.751  25.751  1.00  0.00     0.001 A 
ATOM     25  C   UNL A   1      33.452  15.993  24.714  1.00  0.00     0.000 A 
ENDBRANCH  19  20
ENDBRANCH  13  14
ENDBRANCH  11  13
ENDBRANCH   8  11
ENDBRANCH   5   7
ENDBRANCH   1   5
BRANCH   3  26
ATOM     26  C   UNL A   1      31.188  30.276  25.264  1.00  0.00     0.117 C 
BRANCH  26  27
ATOM     27  C   UNL A   1      31.037  31.665  25.877  1.00  0.00     0.042 C 
BRANCH  27  28
ATOM     28  C   UNL A   1      32.119  32.043  26.876  1.00  0.00     0.118 C 
BRANCH  28  29
ATOM     29  N   UNL A   1      32.089  33.453  27.227  1.00  0.00    -0.352 N 
ATOM     30  C   UNL A   1      32.872  34.177  28.088  1.00  0.00     0.251 C 
ATOM     31  H   UNL A   1      31.390  33.974  26.770  1.00  0.00     0.163 HD
ATOM     32  O   UNL A   1      32.547  35.329  28.362  1.00  0.00    -0.269 OA
BRANCH  30  33
ATOM     33  C   UNL A   1      34.091  33.598  28.699  1.00  0.00     0.039 A 
ATOM     34  C   UNL A   1      35.337  34.022  28.226  1.00  0.00     0.014 A 
ATOM     35  C   UNL A   1      34.028  32.601  29.677  1.00  0.00     0.014 A 
ATOM     36  C   UNL A   1      36.509  33.476  28.752  1.00  0.00     0.010 A 
ATOM     37  C   UNL A   1      35.197  32.120  30.263  1.00  0.00     0.010 A 
ATOM     38  C   UNL A   1      36.450  32.533  29.790  1.00  0.00    -0.014 A 
BRANCH  38  39
ATOM     39  C   UNL A   1      37.686  31.938  30.356  1.00  0.00     0.031 A 
ATOM     40  C   UNL A   1      38.290  32.504  31.613  1.00  0.00     0.074 A 
ATOM     41  C   UNL A   1      38.295  30.921  29.717  1.00  0.00     0.049 A 
ATOM     42  N   UNL A   1      39.389  32.156  32.234  1.00  0.00    -0.248 NA
ATOM     43  C   UNL A   1      37.580  33.632  32.237  1.00  0.00     0.031 C 
ATOM     44  C   UNL A   1      37.841  30.318  28.463  1.00  0.00     0.029 A 
ATOM     45  N   UNL A   1      39.431  30.221  30.032  1.00  0.00    -0.354 N 
ATOM     46  C   UNL A   1      39.507  33.028  33.309  1.00  0.00     0.074 A 
ATOM     47  C   UNL A   1      38.404  33.960  33.220  1.00  0.00     0.031 C 
ATOM     48  C   UNL A   1      38.683  29.328  28.124  1.00  0.00     0.029 A 
ATOM     49  C   UNL A   1      39.747  29.245  29.120  1.00  0.00     0.049 A 
ATOM     50  H   UNL A   1      39.970  30.401  30.838  1.00  0.00     0.167 HD
ATOM     51  C   UNL A   1      40.432  33.036  34.300  1.00  0.00     0.037 A 
ATOM     52  C   UNL A   1      40.779  28.381  29.087  1.00  0.00     0.037 A 
ATOM     53  C   UNL A   1      41.516  32.095  34.400  1.00  0.00     0.049 A 
ATOM     54  C   UNL A   1      41.783  28.391  30.206  1.00  0.00     0.074 A 
ATOM     55  C   UNL A   1      42.479  31.988  35.388  1.00  0.00     0.029 A 
ATOM     56  N   UNL A   1      41.778  31.094  33.476  1.00  0.00    -0.354 N 
ATOM     57  N   UNL A   1      41.847  29.182  31.251  1.00  0.00    -0.248 NA
ATOM     58  C   UNL A   1      42.846  27.380  30.151  1.00  0.00     0.031 C 
ATOM     59  C   UNL A   1      43.346  30.944  35.044  1.00  0.00     0.029 A 
ATOM     60  C   UNL A   1      42.895  30.372  33.865  1.00  0.00     0.049 A 
ATOM     61  H   UNL A   1      41.248  30.922  32.664  1.00  0.00     0.167 HD
ATOM     62  C   UNL A   1      42.943  28.750  31.988  1.00  0.00     0.074 A 
ATOM     63  C   UNL A   1      43.502  27.618  31.278  1.00  0.00     0.031 C 
ATOM     64  C   UNL A   1      43.439  29.247  33.148  1.00  0.00     0.037 A 
BRANCH  51  65
ATOM     65  C   UNL A   1      40.300  34.099  35.351  1.00  0.00     0.057 A 
ATOM     66  C   UNL A   1      40.883  35.366  35.198  1.00  0.00     0.134 A 
ATOM     67  C   UNL A   1      39.582  33.861  36.530  1.00  0.00     0.134 A 
ATOM     68  F   UNL A   1      41.596  35.656  34.098  1.00  0.00    -0.206 F 
ATOM     69  C   UNL A   1      40.790  36.340  36.193  1.00  0.00     0.040 A 
ATOM     70  C   UNL A   1      39.457  34.838  37.519  1.00  0.00     0.040 A 
ATOM     71  F   UNL A   1      38.993  32.674  36.740  1.00  0.00    -0.206 F 
ATOM     72  C   UNL A   1      40.070  36.078  37.356  1.00  0.00     0.006 A 
ENDBRANCH  51  65
BRANCH  52  73
ATOM     73  C   UNL A   1      40.891  27.413  27.969  1.00  0.00     0.057 A 
ATOM     74  C   UNL A   1      40.214  26.189  28.000  1.00  0.00     0.134 A 
ATOM     75  C   UNL A   1      41.661  27.699  26.835  1.00  0.00     0.134 A 
ATOM     76  F   UNL A   1      39.474  25.855  29.068  1.00  0.00    -0.206 F 
ATOM     77  C   UNL A   1      40.309  25.275  26.950  1.00  0.00     0.040 A 
ATOM     78  C   UNL A   1      41.746  26.803  25.767  1.00  0.00     0.040 A 
ATOM     79  F   UNL A   1      42.324  28.860  26.740  1.00  0.00    -0.206 F 
ATOM     80  C   UNL A   1      41.072  25.585  25.826  1.00  0.00     0.006 A 
ENDBRANCH  52  73
BRANCH  64  81
ATOM     81  C   UNL A   1      44.631  28.549  33.735  1.00  0.00     0.057 A 
ATOM     82  C   UNL A   1      45.941  28.954  33.449  1.00  0.00     0.134 A 
ATOM     83  C   UNL A   1      44.462  27.478  34.622  1.00  0.00     0.134 A 
ATOM     84  F   UNL A   1      46.169  29.964  32.596  1.00  0.00    -0.206 F 
ATOM     85  C   UNL A   1      47.042  28.303  34.006  1.00  0.00     0.040 A 
ATOM     86  C   UNL A   1      45.555  26.836  35.205  1.00  0.00     0.040 A 
ATOM     87  F   UNL A   1      43.234  27.046  34.944  1.00  0.00    -0.206 F 
ATOM     88  C   UNL A   1      46.850  27.244  34.893  1.00  0.00     0.006 A 
ENDBRANCH  64  81
ENDBRANCH  38  39
ENDBRANCH  30  33
ENDBRANCH  28  29
ENDBRANCH  27  28
ENDBRANCH  26  27
ENDBRANCH   3  26
TORSDOF 15
ENDMDL
