MODEL 1
REMARK VINA RESULT:     -10.3      0.000      0.000
REMARK SMILES O=C(NCCCNC(=O)[C@@H]1CN(C(=O)[C@H]2CC=CCC2)c2ccccc2O1)c1ccc(-c2c3nc(c(-c4c(F)cccc4F)c4ccc([nH]4)c(-c4c(F)cccc4F)c4nc(c(-c5c(F)cccc5F)c5ccc2[nH]5)C=C4)C=C3)cc1
REMARK SMILES IDX 5 1 4 2 3 3 1 4 2 5 28 7 29 8 81 9 30 10 80 11 31 12 32 13
REMARK SMILES IDX 33 14 74 15 34 16 79 17 73 18 75 19 35 20 78 21 72 22 71 23
REMARK SMILES IDX 36 25 62 26 45 27 61 28 46 29 49 30 60 31 76 32 47 33 48 34
REMARK SMILES IDX 59 36 77 37 50 38 37 39 38 40 43 41 39 42 40 43 42 44 44 45
REMARK SMILES IDX 41 46 63 47 64 48 69 49 65 50 66 51 68 52 70 53 67 54 51 55
REMARK SMILES IDX 52 56 57 57 53 58 54 59 56 60 58 61 55 62 6 63 7 64 8 65
REMARK SMILES IDX 9 67 10 68 11 69 27 70 12 71 26 72 21 73 25 74 22 75 24 76
REMARK SMILES IDX 23 77 13 78 14 79 15 80 16 81 20 82 17 83 19 84 18 85
REMARK H PARENT 3 6 75 24 49 35 7 66
REMARK Flexibility Score: inf
ROOT
ATOM      1  C   UNL A   1      44.622  19.476  24.326  1.00  0.00     0.042 C 
ENDROOT
BRANCH   1   2
ATOM      2  C   UNL A   1      43.834  19.314  25.617  1.00  0.00     0.118 C 
BRANCH   2   3
ATOM      3  N   UNL A   1      42.407  19.129  25.367  1.00  0.00    -0.352 N 
ATOM      4  O   UNL A   1      40.197  19.343  25.775  1.00  0.00    -0.269 OA
ATOM      5  C   UNL A   1      41.331  19.802  25.890  1.00  0.00     0.251 C 
ATOM      6  H   UNL A   1      42.184  18.414  24.726  1.00  0.00     0.163 HD
BRANCH   5   7
ATOM      7  C   UNL A   1      41.548  21.074  26.604  1.00  0.00     0.039 A 
ATOM      8  C   UNL A   1      41.934  22.206  25.889  1.00  0.00     0.014 A 
ATOM      9  C   UNL A   1      41.365  21.146  27.988  1.00  0.00     0.014 A 
ATOM     10  C   UNL A   1      42.346  23.337  26.569  1.00  0.00     0.010 A 
ATOM     11  C   UNL A   1      41.633  22.345  28.657  1.00  0.00     0.010 A 
ATOM     12  C   UNL A   1      42.156  23.442  27.955  1.00  0.00    -0.014 A 
BRANCH  12  13
ATOM     13  C   UNL A   1      42.432  24.751  28.598  1.00  0.00     0.031 A 
ATOM     14  C   UNL A   1      43.791  25.100  29.129  1.00  0.00     0.074 A 
ATOM     15  C   UNL A   1      41.433  25.657  28.629  1.00  0.00     0.049 A 
ATOM     16  N   UNL A   1      44.196  26.223  29.667  1.00  0.00    -0.248 NA
ATOM     17  C   UNL A   1      44.831  24.062  29.057  1.00  0.00     0.031 C 
ATOM     18  C   UNL A   1      40.065  25.417  28.155  1.00  0.00     0.029 A 
ATOM     19  N   UNL A   1      41.413  26.963  29.037  1.00  0.00    -0.354 N 
ATOM     20  C   UNL A   1      45.529  26.027  30.004  1.00  0.00     0.074 A 
ATOM     21  C   UNL A   1      45.856  24.663  29.645  1.00  0.00     0.031 C 
ATOM     22  C   UNL A   1      39.363  26.555  28.233  1.00  0.00     0.029 A 
ATOM     23  C   UNL A   1      40.198  27.576  28.846  1.00  0.00     0.049 A 
ATOM     24  H   UNL A   1      42.192  27.419  29.428  1.00  0.00     0.167 HD
ATOM     25  C   UNL A   1      46.399  26.910  30.551  1.00  0.00     0.037 A 
ATOM     26  C   UNL A   1      39.786  28.818  29.157  1.00  0.00     0.037 A 
ATOM     27  C   UNL A   1      46.059  28.266  30.906  1.00  0.00     0.049 A 
ATOM     28  C   UNL A   1      40.763  29.757  29.798  1.00  0.00     0.074 A 
ATOM     29  C   UNL A   1      46.867  29.240  31.468  1.00  0.00     0.029 A 
ATOM     30  N   UNL A   1      44.806  28.839  30.735  1.00  0.00    -0.354 N 
ATOM     31  N   UNL A   1      42.025  29.561  30.094  1.00  0.00    -0.248 NA
ATOM     32  C   UNL A   1      40.259  31.089  30.150  1.00  0.00     0.031 C 
ATOM     33  C   UNL A   1      46.093  30.385  31.679  1.00  0.00     0.029 A 
ATOM     34  C   UNL A   1      44.817  30.148  31.196  1.00  0.00     0.049 A 
ATOM     35  H   UNL A   1      44.025  28.384  30.345  1.00  0.00     0.167 HD
ATOM     36  C   UNL A   1      42.471  30.748  30.653  1.00  0.00     0.074 A 
ATOM     37  C   UNL A   1      41.352  31.669  30.622  1.00  0.00     0.031 C 
ATOM     38  C   UNL A   1      43.693  31.049  31.156  1.00  0.00     0.037 A 
BRANCH  25  39
ATOM     39  C   UNL A   1      47.803  26.440  30.808  1.00  0.00     0.057 A 
ATOM     40  C   UNL A   1      48.848  26.705  29.914  1.00  0.00     0.134 A 
ATOM     41  C   UNL A   1      48.125  25.758  31.991  1.00  0.00     0.134 A 
ATOM     42  F   UNL A   1      48.608  27.343  28.758  1.00  0.00    -0.206 F 
ATOM     43  C   UNL A   1      50.158  26.298  30.177  1.00  0.00     0.040 A 
ATOM     44  C   UNL A   1      49.436  25.369  32.276  1.00  0.00     0.040 A 
ATOM     45  F   UNL A   1      47.176  25.476  32.895  1.00  0.00    -0.206 F 
ATOM     46  C   UNL A   1      50.456  25.635  31.366  1.00  0.00     0.006 A 
ENDBRANCH  25  39
BRANCH  26  47
ATOM     47  C   UNL A   1      38.380  29.221  28.901  1.00  0.00     0.057 A 
ATOM     48  C   UNL A   1      37.961  29.658  27.641  1.00  0.00     0.134 A 
ATOM     49  C   UNL A   1      37.421  29.187  29.923  1.00  0.00     0.134 A 
ATOM     50  F   UNL A   1      38.835  29.725  26.625  1.00  0.00    -0.206 F 
ATOM     51  C   UNL A   1      36.649  30.075  27.411  1.00  0.00     0.040 A 
ATOM     52  C   UNL A   1      36.097  29.565  29.698  1.00  0.00     0.040 A 
ATOM     53  F   UNL A   1      37.752  28.764  31.152  1.00  0.00    -0.206 F 
ATOM     54  C   UNL A   1      35.711  30.023  28.442  1.00  0.00     0.006 A 
ENDBRANCH  26  47
BRANCH  38  55
ATOM     55  C   UNL A   1      43.882  32.444  31.677  1.00  0.00     0.057 A 
ATOM     56  C   UNL A   1      43.643  32.774  33.018  1.00  0.00     0.134 A 
ATOM     57  C   UNL A   1      44.309  33.470  30.825  1.00  0.00     0.134 A 
ATOM     58  F   UNL A   1      43.216  31.840  33.882  1.00  0.00    -0.206 F 
ATOM     59  C   UNL A   1      43.784  34.081  33.483  1.00  0.00     0.040 A 
ATOM     60  C   UNL A   1      44.485  34.774  31.286  1.00  0.00     0.040 A 
ATOM     61  F   UNL A   1      44.563  33.220  29.531  1.00  0.00    -0.206 F 
ATOM     62  C   UNL A   1      44.211  35.085  32.616  1.00  0.00     0.006 A 
ENDBRANCH  38  55
ENDBRANCH  12  13
ENDBRANCH   5   7
ENDBRANCH   2   3
ENDBRANCH   1   2
BRANCH   1  63
ATOM     63  C   UNL A   1      45.839  20.372  24.498  1.00  0.00     0.118 C 
BRANCH  63  64
ATOM     64  N   UNL A   1      45.644  21.258  25.629  1.00  0.00    -0.353 N 
ATOM     65  C   UNL A   1      45.977  22.570  25.724  1.00  0.00     0.262 C 
ATOM     66  H   UNL A   1      45.218  20.859  26.422  1.00  0.00     0.163 HD
ATOM     67  O   UNL A   1      46.386  22.958  26.821  1.00  0.00    -0.271 OA
BRANCH  65  68
ATOM     68  C   UNL A   1      45.821  23.542  24.537  1.00  0.00     0.281 C 
ATOM     69  C   UNL A   1      47.159  24.243  24.312  1.00  0.00     0.181 C 
ATOM     70  O   UNL A   1      44.781  24.494  24.510  1.00  0.00    -0.477 OA
ATOM     71  N   UNL A   1      47.473  25.202  25.381  1.00  0.00    -0.304 N 
ATOM     72  C   UNL A   1      45.035  25.625  25.249  1.00  0.00     0.144 A 
ATOM     73  C   UNL A   1      46.311  26.014  25.717  1.00  0.00     0.086 A 
ATOM     74  C   UNL A   1      43.881  26.370  25.532  1.00  0.00     0.049 A 
ATOM     75  C   UNL A   1      46.361  27.188  26.480  1.00  0.00     0.030 A 
ATOM     76  C   UNL A   1      43.964  27.519  26.304  1.00  0.00     0.004 A 
ATOM     77  C   UNL A   1      45.204  27.930  26.772  1.00  0.00     0.002 A 
BRANCH  71  78
ATOM     78  C   UNL A   1      48.724  25.360  25.984  1.00  0.00     0.230 C 
ATOM     79  O   UNL A   1      49.005  24.814  27.063  1.00  0.00    -0.274 OA
BRANCH  78  80
ATOM     80  C   UNL A   1      49.876  26.238  25.417  1.00  0.00     0.083 C 
ATOM     81  C   UNL A   1      49.893  27.758  25.597  1.00  0.00     0.040 C 
ATOM     82  C   UNL A   1      51.261  25.613  25.608  1.00  0.00     0.018 C 
ATOM     83  C   UNL A   1      50.894  28.264  26.605  1.00  0.00    -0.030 C 
ATOM     84  C   UNL A   1      51.916  26.006  26.927  1.00  0.00     0.028 C 
ATOM     85  C   UNL A   1      51.785  27.471  27.221  1.00  0.00    -0.031 C 
ENDBRANCH  78  80
ENDBRANCH  71  78
ENDBRANCH  65  68
ENDBRANCH  63  64
ENDBRANCH   1  63
TORSDOF 12
ENDMDL
MODEL 2
REMARK VINA RESULT:     -10.1      5.476     11.179
REMARK SMILES O=C(NCCCNC(=O)[C@@H]1CN(C(=O)[C@H]2CC=CCC2)c2ccccc2O1)c1ccc(-c2c3nc(c(-c4c(F)cccc4F)c4ccc([nH]4)c(-c4c(F)cccc4F)c4nc(c(-c5c(F)cccc5F)c5ccc2[nH]5)C=C4)C=C3)cc1
REMARK SMILES IDX 5 1 4 2 3 3 1 4 2 5 28 7 29 8 81 9 30 10 80 11 31 12 32 13
REMARK SMILES IDX 33 14 74 15 34 16 79 17 73 18 75 19 35 20 78 21 72 22 71 23
REMARK SMILES IDX 36 25 62 26 45 27 61 28 46 29 49 30 60 31 76 32 47 33 48 34
REMARK SMILES IDX 59 36 77 37 50 38 37 39 38 40 43 41 39 42 40 43 42 44 44 45
REMARK SMILES IDX 41 46 63 47 64 48 69 49 65 50 66 51 68 52 70 53 67 54 51 55
REMARK SMILES IDX 52 56 57 57 53 58 54 59 56 60 58 61 55 62 6 63 7 64 8 65
REMARK SMILES IDX 9 67 10 68 11 69 27 70 12 71 26 72 21 73 25 74 22 75 24 76
REMARK SMILES IDX 23 77 13 78 14 79 15 80 16 81 20 82 17 83 19 84 18 85
REMARK H PARENT 3 6 75 24 49 35 7 66
REMARK Flexibility Score: inf
ROOT
ATOM      1  C   UNL A   1      32.844  27.506  25.558  1.00  0.00     0.042 C 
ENDROOT
BRANCH   1   2
ATOM      2  C   UNL A   1      33.657  28.740  25.198  1.00  0.00     0.118 C 
BRANCH   2   3
ATOM      3  N   UNL A   1      33.006  29.970  25.640  1.00  0.00    -0.352 N 
ATOM      4  O   UNL A   1      32.462  31.608  27.096  1.00  0.00    -0.269 OA
ATOM      5  C   UNL A   1      33.273  30.761  26.731  1.00  0.00     0.251 C 
ATOM      6  H   UNL A   1      32.266  30.281  25.069  1.00  0.00     0.163 HD
BRANCH   5   7
ATOM      7  C   UNL A   1      34.536  30.576  27.469  1.00  0.00     0.039 A 
ATOM      8  C   UNL A   1      34.840  29.327  28.009  1.00  0.00     0.014 A 
ATOM      9  C   UNL A   1      35.425  31.643  27.626  1.00  0.00     0.014 A 
ATOM     10  C   UNL A   1      35.907  29.199  28.879  1.00  0.00     0.010 A 
ATOM     11  C   UNL A   1      36.590  31.465  28.381  1.00  0.00     0.010 A 
ATOM     12  C   UNL A   1      36.823  30.248  29.040  1.00  0.00    -0.014 A 
BRANCH  12  13
ATOM     13  C   UNL A   1      38.052  29.983  29.828  1.00  0.00     0.031 A 
ATOM     14  C   UNL A   1      38.236  30.531  31.213  1.00  0.00     0.074 A 
ATOM     15  C   UNL A   1      38.981  29.168  29.287  1.00  0.00     0.049 A 
ATOM     16  N   UNL A   1      39.231  30.341  32.043  1.00  0.00    -0.248 NA
ATOM     17  C   UNL A   1      37.179  31.409  31.737  1.00  0.00     0.031 C 
ATOM     18  C   UNL A   1      38.912  28.592  27.939  1.00  0.00     0.029 A 
ATOM     19  N   UNL A   1      40.139  28.652  29.804  1.00  0.00    -0.354 N 
ATOM     20  C   UNL A   1      38.926  31.078  33.180  1.00  0.00     0.074 A 
ATOM     21  C   UNL A   1      37.672  31.751  32.920  1.00  0.00     0.031 C 
ATOM     22  C   UNL A   1      39.938  27.750  27.763  1.00  0.00     0.029 A 
ATOM     23  C   UNL A   1      40.786  27.796  28.945  1.00  0.00     0.049 A 
ATOM     24  H   UNL A   1      40.474  28.871  30.703  1.00  0.00     0.167 HD
ATOM     25  C   UNL A   1      39.627  31.171  34.337  1.00  0.00     0.037 A 
ATOM     26  C   UNL A   1      41.952  27.140  29.077  1.00  0.00     0.037 A 
ATOM     27  C   UNL A   1      40.877  30.496  34.582  1.00  0.00     0.049 A 
ATOM     28  C   UNL A   1      42.721  27.297  30.355  1.00  0.00     0.074 A 
ATOM     29  C   UNL A   1      41.667  30.528  35.719  1.00  0.00     0.029 A 
ATOM     30  N   UNL A   1      41.523  29.670  33.672  1.00  0.00    -0.354 N 
ATOM     31  N   UNL A   1      42.410  27.985  31.427  1.00  0.00    -0.248 NA
ATOM     32  C   UNL A   1      44.004  26.590  30.440  1.00  0.00     0.031 C 
ATOM     33  C   UNL A   1      42.810  29.758  35.481  1.00  0.00     0.029 A 
ATOM     34  C   UNL A   1      42.708  29.199  34.218  1.00  0.00     0.049 A 
ATOM     35  H   UNL A   1      41.190  29.450  32.772  1.00  0.00     0.167 HD
ATOM     36  C   UNL A   1      43.449  27.781  32.321  1.00  0.00     0.074 A 
ATOM     37  C   UNL A   1      44.382  26.878  31.677  1.00  0.00     0.031 C 
ATOM     38  C   UNL A   1      43.623  28.300  33.561  1.00  0.00     0.037 A 
BRANCH  25  39
ATOM     39  C   UNL A   1      39.063  32.039  35.426  1.00  0.00     0.057 A 
ATOM     40  C   UNL A   1      38.268  31.514  36.453  1.00  0.00     0.134 A 
ATOM     41  C   UNL A   1      39.362  33.408  35.480  1.00  0.00     0.134 A 
ATOM     42  F   UNL A   1      37.933  30.215  36.458  1.00  0.00    -0.206 F 
ATOM     43  C   UNL A   1      37.777  32.320  37.484  1.00  0.00     0.040 A 
ATOM     44  C   UNL A   1      38.900  34.217  36.520  1.00  0.00     0.040 A 
ATOM     45  F   UNL A   1      40.123  33.976  34.534  1.00  0.00    -0.206 F 
ATOM     46  C   UNL A   1      38.101  33.674  37.523  1.00  0.00     0.006 A 
ENDBRANCH  25  39
BRANCH  26  47
ATOM     47  C   UNL A   1      42.473  26.315  27.959  1.00  0.00     0.057 A 
ATOM     48  C   UNL A   1      43.314  26.854  26.980  1.00  0.00     0.134 A 
ATOM     49  C   UNL A   1      42.129  24.961  27.838  1.00  0.00     0.134 A 
ATOM     50  F   UNL A   1      43.670  28.147  27.033  1.00  0.00    -0.206 F 
ATOM     51  C   UNL A   1      43.770  26.087  25.906  1.00  0.00     0.040 A 
ATOM     52  C   UNL A   1      42.608  24.174  26.791  1.00  0.00     0.040 A 
ATOM     53  F   UNL A   1      41.338  24.378  28.750  1.00  0.00    -0.206 F 
ATOM     54  C   UNL A   1      43.421  24.741  25.814  1.00  0.00     0.006 A 
ENDBRANCH  26  47
BRANCH  38  55
ATOM     55  C   UNL A   1      44.853  27.870  34.305  1.00  0.00     0.057 A 
ATOM     56  C   UNL A   1      46.053  28.590  34.236  1.00  0.00     0.134 A 
ATOM     57  C   UNL A   1      44.836  26.717  35.101  1.00  0.00     0.134 A 
ATOM     58  F   UNL A   1      46.141  29.694  33.477  1.00  0.00    -0.206 F 
ATOM     59  C   UNL A   1      47.202  28.159  34.900  1.00  0.00     0.040 A 
ATOM     60  C   UNL A   1      45.969  26.295  35.796  1.00  0.00     0.040 A 
ATOM     61  F   UNL A   1      43.718  25.985  35.217  1.00  0.00    -0.206 F 
ATOM     62  C   UNL A   1      47.160  27.011  35.687  1.00  0.00     0.006 A 
ENDBRANCH  38  55
ENDBRANCH  12  13
ENDBRANCH   5   7
ENDBRANCH   2   3
ENDBRANCH   1   2
BRANCH   1  63
ATOM     63  C   UNL A   1      33.096  26.348  24.606  1.00  0.00     0.118 C 
BRANCH  63  64
ATOM     64  N   UNL A   1      32.721  25.098  25.238  1.00  0.00    -0.353 N 
ATOM     65  C   UNL A   1      32.369  23.934  24.635  1.00  0.00     0.262 C 
ATOM     66  H   UNL A   1      32.723  25.094  26.223  1.00  0.00     0.163 HD
ATOM     67  O   UNL A   1      31.484  23.272  25.184  1.00  0.00    -0.271 OA
BRANCH  65  68
ATOM     68  C   UNL A   1      33.060  23.438  23.349  1.00  0.00     0.281 C 
ATOM     69  C   UNL A   1      32.637  21.991  23.104  1.00  0.00     0.181 C 
ATOM     70  O   UNL A   1      34.456  23.553  23.183  1.00  0.00    -0.477 OA
ATOM     71  N   UNL A   1      33.228  21.064  24.080  1.00  0.00    -0.304 N 
ATOM     72  C   UNL A   1      35.180  22.568  23.811  1.00  0.00     0.144 A 
ATOM     73  C   UNL A   1      34.643  21.349  24.285  1.00  0.00     0.086 A 
ATOM     74  C   UNL A   1      36.534  22.894  23.972  1.00  0.00     0.049 A 
ATOM     75  C   UNL A   1      35.539  20.482  24.925  1.00  0.00     0.030 A 
ATOM     76  C   UNL A   1      37.391  22.020  24.623  1.00  0.00     0.004 A 
ATOM     77  C   UNL A   1      36.894  20.812  25.093  1.00  0.00     0.002 A 
BRANCH  71  78
ATOM     78  C   UNL A   1      32.555  20.015  24.711  1.00  0.00     0.230 C 
ATOM     79  O   UNL A   1      32.142  20.110  25.879  1.00  0.00    -0.274 OA
BRANCH  78  80
ATOM     80  C   UNL A   1      32.271  18.629  24.065  1.00  0.00     0.083 C 
ATOM     81  C   UNL A   1      32.942  18.199  22.758  1.00  0.00     0.040 C 
ATOM     82  C   UNL A   1      32.202  17.490  25.087  1.00  0.00     0.018 C 
ATOM     83  C   UNL A   1      34.028  17.163  22.915  1.00  0.00    -0.030 C 
ATOM     84  C   UNL A   1      33.555  16.839  25.348  1.00  0.00     0.028 C 
ATOM     85  C   UNL A   1      34.319  16.573  24.084  1.00  0.00    -0.031 C 
ENDBRANCH  78  80
ENDBRANCH  71  78
ENDBRANCH  65  68
ENDBRANCH  63  64
ENDBRANCH   1  63
TORSDOF 12
ENDMDL
MODEL 3
REMARK VINA RESULT:     -10.1      4.637     10.629
REMARK SMILES O=C(NCCCNC(=O)[C@@H]1CN(C(=O)[C@H]2CC=CCC2)c2ccccc2O1)c1ccc(-c2c3nc(c(-c4c(F)cccc4F)c4ccc([nH]4)c(-c4c(F)cccc4F)c4nc(c(-c5c(F)cccc5F)c5ccc2[nH]5)C=C4)C=C3)cc1
REMARK SMILES IDX 5 1 4 2 3 3 1 4 2 5 28 7 29 8 81 9 30 10 80 11 31 12 32 13
REMARK SMILES IDX 33 14 74 15 34 16 79 17 73 18 75 19 35 20 78 21 72 22 71 23
REMARK SMILES IDX 36 25 62 26 45 27 61 28 46 29 49 30 60 31 76 32 47 33 48 34
REMARK SMILES IDX 59 36 77 37 50 38 37 39 38 40 43 41 39 42 40 43 42 44 44 45
REMARK SMILES IDX 41 46 63 47 64 48 69 49 65 50 66 51 68 52 70 53 67 54 51 55
REMARK SMILES IDX 52 56 57 57 53 58 54 59 56 60 58 61 55 62 6 63 7 64 8 65
REMARK SMILES IDX 9 67 10 68 11 69 27 70 12 71 26 72 21 73 25 74 22 75 24 76
REMARK SMILES IDX 23 77 13 78 14 79 15 80 16 81 20 82 17 83 19 84 18 85
REMARK H PARENT 3 6 75 24 49 35 7 66
REMARK Flexibility Score: inf
ROOT
ATOM      1  C   UNL A   1      32.961  27.147  26.486  1.00  0.00     0.042 C 
ENDROOT
BRANCH   1   2
ATOM      2  C   UNL A   1      34.175  28.061  26.531  1.00  0.00     0.118 C 
BRANCH   2   3
ATOM      3  N   UNL A   1      33.833  29.402  26.996  1.00  0.00    -0.352 N 
ATOM      4  O   UNL A   1      33.960  31.216  28.335  1.00  0.00    -0.269 OA
ATOM      5  C   UNL A   1      34.518  30.238  27.843  1.00  0.00     0.251 C 
ATOM      6  H   UNL A   1      32.984  29.761  26.650  1.00  0.00     0.163 HD
BRANCH   5   7
ATOM      7  C   UNL A   1      35.926  29.945  28.171  1.00  0.00     0.039 A 
ATOM      8  C   UNL A   1      36.922  30.235  27.241  1.00  0.00     0.014 A 
ATOM      9  C   UNL A   1      36.260  29.382  29.405  1.00  0.00     0.014 A 
ATOM     10  C   UNL A   1      38.208  29.770  27.447  1.00  0.00     0.010 A 
ATOM     11  C   UNL A   1      37.594  29.054  29.675  1.00  0.00     0.010 A 
ATOM     12  C   UNL A   1      38.573  29.218  28.684  1.00  0.00    -0.014 A 
BRANCH  12  13
ATOM     13  C   UNL A   1      40.009  28.922  28.916  1.00  0.00     0.031 A 
ATOM     14  C   UNL A   1      40.904  29.877  29.650  1.00  0.00     0.074 A 
ATOM     15  C   UNL A   1      40.477  27.725  28.507  1.00  0.00     0.049 A 
ATOM     16  N   UNL A   1      42.165  29.732  29.976  1.00  0.00    -0.248 NA
ATOM     17  C   UNL A   1      40.322  31.161  30.069  1.00  0.00     0.031 C 
ATOM     18  C   UNL A   1      39.697  26.725  27.768  1.00  0.00     0.029 A 
ATOM     19  N   UNL A   1      41.696  27.126  28.679  1.00  0.00    -0.354 N 
ATOM     20  C   UNL A   1      42.528  30.903  30.627  1.00  0.00     0.074 A 
ATOM     21  C   UNL A   1      41.366  31.766  30.619  1.00  0.00     0.031 C 
ATOM     22  C   UNL A   1      40.430  25.615  27.615  1.00  0.00     0.029 A 
ATOM     23  C   UNL A   1      41.758  25.855  28.159  1.00  0.00     0.049 A 
ATOM     24  H   UNL A   1      42.453  27.562  29.133  1.00  0.00     0.167 HD
ATOM     25  C   UNL A   1      43.720  31.219  31.191  1.00  0.00     0.037 A 
ATOM     26  C   UNL A   1      42.781  24.985  28.097  1.00  0.00     0.037 A 
ATOM     27  C   UNL A   1      44.870  30.350  31.190  1.00  0.00     0.049 A 
ATOM     28  C   UNL A   1      44.097  25.382  28.695  1.00  0.00     0.074 A 
ATOM     29  C   UNL A   1      46.125  30.578  31.731  1.00  0.00     0.029 A 
ATOM     30  N   UNL A   1      44.909  29.086  30.617  1.00  0.00    -0.354 N 
ATOM     31  N   UNL A   1      44.419  26.487  29.323  1.00  0.00    -0.248 NA
ATOM     32  C   UNL A   1      45.193  24.414  28.573  1.00  0.00     0.031 C 
ATOM     33  C   UNL A   1      46.933  29.472  31.446  1.00  0.00     0.029 A 
ATOM     34  C   UNL A   1      46.169  28.530  30.778  1.00  0.00     0.049 A 
ATOM     35  H   UNL A   1      44.153  28.648  30.163  1.00  0.00     0.167 HD
ATOM     36  C   UNL A   1      45.749  26.342  29.686  1.00  0.00     0.074 A 
ATOM     37  C   UNL A   1      46.162  25.027  29.237  1.00  0.00     0.031 C 
ATOM     38  C   UNL A   1      46.561  27.219  30.325  1.00  0.00     0.037 A 
BRANCH  25  39
ATOM     39  C   UNL A   1      43.846  32.564  31.850  1.00  0.00     0.057 A 
ATOM     40  C   UNL A   1      44.158  33.718  31.120  1.00  0.00     0.134 A 
ATOM     41  C   UNL A   1      43.599  32.716  33.221  1.00  0.00     0.134 A 
ATOM     42  F   UNL A   1      44.417  33.643  29.806  1.00  0.00    -0.206 F 
ATOM     43  C   UNL A   1      44.236  34.972  31.732  1.00  0.00     0.040 A 
ATOM     44  C   UNL A   1      43.649  33.968  33.839  1.00  0.00     0.040 A 
ATOM     45  F   UNL A   1      43.289  31.655  33.980  1.00  0.00    -0.206 F 
ATOM     46  C   UNL A   1      43.972  35.100  33.094  1.00  0.00     0.006 A 
ENDBRANCH  25  39
BRANCH  26  47
ATOM     47  C   UNL A   1      42.606  23.679  27.413  1.00  0.00     0.057 A 
ATOM     48  C   UNL A   1      42.202  22.535  28.109  1.00  0.00     0.134 A 
ATOM     49  C   UNL A   1      42.851  23.543  26.040  1.00  0.00     0.134 A 
ATOM     50  F   UNL A   1      41.964  22.597  29.429  1.00  0.00    -0.206 F 
ATOM     51  C   UNL A   1      42.076  21.299  27.473  1.00  0.00     0.040 A 
ATOM     52  C   UNL A   1      42.693  22.322  25.384  1.00  0.00     0.040 A 
ATOM     53  F   UNL A   1      43.227  24.603  25.309  1.00  0.00    -0.206 F 
ATOM     54  C   UNL A   1      42.317  21.193  26.105  1.00  0.00     0.006 A 
ENDBRANCH  26  47
BRANCH  38  55
ATOM     55  C   UNL A   1      47.962  26.761  30.602  1.00  0.00     0.057 A 
ATOM     56  C   UNL A   1      48.298  26.060  31.768  1.00  0.00     0.134 A 
ATOM     57  C   UNL A   1      48.991  27.028  29.689  1.00  0.00     0.134 A 
ATOM     58  F   UNL A   1      47.362  25.788  32.691  1.00  0.00    -0.206 F 
ATOM     59  C   UNL A   1      49.612  25.674  32.034  1.00  0.00     0.040 A 
ATOM     60  C   UNL A   1      50.303  26.619  29.929  1.00  0.00     0.040 A 
ATOM     61  F   UNL A   1      48.737  27.689  28.550  1.00  0.00    -0.206 F 
ATOM     62  C   UNL A   1      50.618  25.949  31.110  1.00  0.00     0.006 A 
ENDBRANCH  38  55
ENDBRANCH  12  13
ENDBRANCH   5   7
ENDBRANCH   2   3
ENDBRANCH   1   2
BRANCH   1  63
ATOM     63  C   UNL A   1      33.082  26.074  25.415  1.00  0.00     0.118 C 
BRANCH  63  64
ATOM     64  N   UNL A   1      32.793  24.773  25.986  1.00  0.00    -0.353 N 
ATOM     65  C   UNL A   1      32.372  23.657  25.338  1.00  0.00     0.262 C 
ATOM     66  H   UNL A   1      32.918  24.689  26.959  1.00  0.00     0.163 HD
ATOM     67  O   UNL A   1      31.565  22.942  25.938  1.00  0.00    -0.271 OA
BRANCH  65  68
ATOM     68  C   UNL A   1      32.897  23.274  23.940  1.00  0.00     0.281 C 
ATOM     69  C   UNL A   1      32.555  21.808  23.683  1.00  0.00     0.181 C 
ATOM     70  O   UNL A   1      34.240  23.514  23.578  1.00  0.00    -0.477 OA
ATOM     71  N   UNL A   1      33.357  20.895  24.511  1.00  0.00    -0.304 N 
ATOM     72  C   UNL A   1      35.124  22.568  24.039  1.00  0.00     0.144 A 
ATOM     73  C   UNL A   1      34.760  21.289  24.521  1.00  0.00     0.086 A 
ATOM     74  C   UNL A   1      36.457  23.001  24.017  1.00  0.00     0.049 A 
ATOM     75  C   UNL A   1      35.806  20.476  24.975  1.00  0.00     0.030 A 
ATOM     76  C   UNL A   1      37.468  22.175  24.488  1.00  0.00     0.004 A 
ATOM     77  C   UNL A   1      37.142  20.912  24.960  1.00  0.00     0.002 A 
BRANCH  71  78
ATOM     78  C   UNL A   1      32.869  19.767  25.177  1.00  0.00     0.230 C 
ATOM     79  O   UNL A   1      32.790  19.721  26.415  1.00  0.00    -0.274 OA
BRANCH  78  80
ATOM     80  C   UNL A   1      32.407  18.457  24.478  1.00  0.00     0.083 C 
ATOM     81  C   UNL A   1      32.825  18.120  23.045  1.00  0.00     0.040 C 
ATOM     82  C   UNL A   1      32.448  17.235  25.400  1.00  0.00     0.018 C 
ATOM     83  C   UNL A   1      33.864  17.032  22.927  1.00  0.00    -0.030 C 
ATOM     84  C   UNL A   1      33.789  16.510  25.370  1.00  0.00     0.028 C 
ATOM     85  C   UNL A   1      34.315  16.328  23.977  1.00  0.00    -0.031 C 
ENDBRANCH  78  80
ENDBRANCH  71  78
ENDBRANCH  65  68
ENDBRANCH  63  64
ENDBRANCH   1  63
TORSDOF 12
ENDMDL
