MODEL 1
REMARK VINA RESULT:     -11.4      0.000      0.000
REMARK SMILES CCC[C@H](Oc1ccccc1C)C(=O)NCCCNC(=O)c1ccc(-c2c3nc(c(-c4c(F)cccc4F)c4ccc([nH]4)c(-c4c(F)cccc4F)c4nc(c(-c5c(F)cccc5F)c5ccc2[nH]5)C=C4)C=C3)cc1
REMARK SMILES IDX 17 1 16 2 15 3 13 4 14 5 4 7 3 8 2 9 1 10 5 11 6 12 7 13
REMARK SMILES IDX 11 14 8 15 10 16 12 17 9 18 18 19 19 20 20 21 21 23 22 24
REMARK SMILES IDX 23 25 75 26 24 27 74 28 25 29 26 30 27 31 68 32 28 33 73 34
REMARK SMILES IDX 67 35 69 36 29 37 72 38 66 39 65 40 30 42 56 43 39 44 55 45
REMARK SMILES IDX 40 46 43 47 54 48 70 49 41 50 42 51 53 53 71 54 44 55 31 56
REMARK SMILES IDX 32 57 37 58 33 59 34 60 36 61 38 62 35 63 57 64 58 65 63 66
REMARK SMILES IDX 59 67 60 68 62 69 64 70 61 71 45 72 46 73 51 74 47 75 48 76
REMARK SMILES IDX 50 77 52 78 49 79
REMARK H PARENT 15 6 19 22 69 41 43 52
REMARK Flexibility Score: inf
ROOT
ATOM      1  C   UNL A   1      32.476  31.240  27.072  1.00  0.00     0.042 C 
ENDROOT
BRANCH   1   2
ATOM      2  C   UNL A   1      31.887  30.454  25.910  1.00  0.00     0.118 C 
BRANCH   2   3
ATOM      3  N   UNL A   1      32.908  29.932  25.018  1.00  0.00    -0.353 N 
ATOM      4  C   UNL A   1      33.005  28.745  24.354  1.00  0.00     0.261 C 
ATOM      5  O   UNL A   1      34.007  28.597  23.643  1.00  0.00    -0.271 OA
ATOM      6  H   UNL A   1      33.664  30.544  24.867  1.00  0.00     0.163 HD
BRANCH   4   7
ATOM      7  C   UNL A   1      31.946  27.619  24.448  1.00  0.00     0.261 C 
BRANCH   7   8
ATOM      8  C   UNL A   1      32.496  26.345  25.132  1.00  0.00     0.055 C 
BRANCH   8   9
ATOM      9  C   UNL A   1      31.776  25.742  26.347  1.00  0.00     0.001 C 
ATOM     10  C   UNL A   1      31.215  24.340  26.188  1.00  0.00     0.004 C 
ENDBRANCH   8   9
ENDBRANCH   7   8
BRANCH   7  11
ATOM     11  O   UNL A   1      31.338  27.423  23.174  1.00  0.00    -0.480 OA
BRANCH  11  12
ATOM     12  C   UNL A   1      30.258  28.198  22.821  1.00  0.00     0.123 A 
ATOM     13  C   UNL A   1      30.327  29.406  22.114  1.00  0.00     0.047 A 
ATOM     14  C   UNL A   1      29.005  27.748  23.277  1.00  0.00    -0.009 A 
ATOM     15  C   UNL A   1      29.187  30.189  21.919  1.00  0.00     0.004 A 
ATOM     16  C   UNL A   1      27.866  28.549  23.082  1.00  0.00     0.007 A 
ATOM     17  C   UNL A   1      28.862  26.428  23.981  1.00  0.00     0.048 C 
ATOM     18  C   UNL A   1      27.959  29.769  22.418  1.00  0.00     0.001 A 
ENDBRANCH  11  12
ENDBRANCH   7  11
ENDBRANCH   4   7
ENDBRANCH   2   3
ENDBRANCH   1   2
BRANCH   1  19
ATOM     19  C   UNL A   1      33.901  30.835  27.408  1.00  0.00     0.118 C 
BRANCH  19  20
ATOM     20  N   UNL A   1      34.575  31.706  28.371  1.00  0.00    -0.352 N 
ATOM     21  C   UNL A   1      35.713  31.430  29.120  1.00  0.00     0.251 C 
ATOM     22  H   UNL A   1      34.173  32.595  28.504  1.00  0.00     0.163 HD
ATOM     23  O   UNL A   1      36.189  32.257  29.876  1.00  0.00    -0.269 OA
BRANCH  21  24
ATOM     24  C   UNL A   1      36.413  30.149  28.862  1.00  0.00     0.039 A 
ATOM     25  C   UNL A   1      36.659  29.330  29.967  1.00  0.00     0.014 A 
ATOM     26  C   UNL A   1      37.101  29.966  27.664  1.00  0.00     0.014 A 
ATOM     27  C   UNL A   1      37.802  28.542  29.970  1.00  0.00     0.010 A 
ATOM     28  C   UNL A   1      38.288  29.258  27.701  1.00  0.00     0.010 A 
ATOM     29  C   UNL A   1      38.681  28.632  28.891  1.00  0.00    -0.014 A 
BRANCH  29  30
ATOM     30  C   UNL A   1      40.092  28.286  29.017  1.00  0.00     0.031 A 
ATOM     31  C   UNL A   1      40.586  26.963  28.591  1.00  0.00     0.074 A 
ATOM     32  C   UNL A   1      40.957  29.205  29.512  1.00  0.00     0.049 A 
ATOM     33  N   UNL A   1      41.705  26.454  28.988  1.00  0.00    -0.248 NA
ATOM     34  C   UNL A   1      39.808  26.052  27.756  1.00  0.00     0.031 C 
ATOM     35  C   UNL A   1      42.417  29.167  29.477  1.00  0.00     0.029 A 
ATOM     36  N   UNL A   1      40.658  30.274  30.373  1.00  0.00    -0.354 N 
ATOM     37  C   UNL A   1      41.929  25.320  28.249  1.00  0.00     0.074 A 
ATOM     38  C   UNL A   1      40.666  25.037  27.617  1.00  0.00     0.031 C 
ATOM     39  C   UNL A   1      42.894  29.942  30.464  1.00  0.00     0.029 A 
ATOM     40  C   UNL A   1      41.757  30.382  31.253  1.00  0.00     0.049 A 
ATOM     41  H   UNL A   1      39.848  30.832  30.365  1.00  0.00     0.167 HD
ATOM     42  C   UNL A   1      43.201  24.846  28.148  1.00  0.00     0.037 A 
ATOM     43  C   UNL A   1      41.623  30.198  32.598  1.00  0.00     0.037 A 
ATOM     44  C   UNL A   1      44.058  25.427  29.183  1.00  0.00     0.049 A 
ATOM     45  C   UNL A   1      42.482  29.089  33.166  1.00  0.00     0.074 A 
ATOM     46  C   UNL A   1      45.074  26.367  29.172  1.00  0.00     0.029 A 
ATOM     47  N   UNL A   1      43.737  25.211  30.522  1.00  0.00    -0.354 N 
ATOM     48  N   UNL A   1      43.076  28.181  32.443  1.00  0.00    -0.248 NA
ATOM     49  C   UNL A   1      42.680  28.880  34.598  1.00  0.00     0.031 C 
ATOM     50  C   UNL A   1      45.284  26.793  30.512  1.00  0.00     0.029 A 
ATOM     51  C   UNL A   1      44.431  26.080  31.338  1.00  0.00     0.049 A 
ATOM     52  H   UNL A   1      43.100  24.531  30.842  1.00  0.00     0.167 HD
ATOM     53  C   UNL A   1      43.634  27.239  33.267  1.00  0.00     0.074 A 
ATOM     54  C   UNL A   1      43.404  27.748  34.605  1.00  0.00     0.031 C 
ATOM     55  C   UNL A   1      44.192  26.093  32.778  1.00  0.00     0.037 A 
BRANCH  42  56
ATOM     56  C   UNL A   1      43.729  24.009  26.996  1.00  0.00     0.057 A 
ATOM     57  C   UNL A   1      44.361  24.632  25.901  1.00  0.00     0.134 A 
ATOM     58  C   UNL A   1      43.527  22.623  26.824  1.00  0.00     0.134 A 
ATOM     59  F   UNL A   1      44.618  25.948  25.897  1.00  0.00    -0.206 F 
ATOM     60  C   UNL A   1      44.738  23.940  24.737  1.00  0.00     0.040 A 
ATOM     61  C   UNL A   1      43.944  21.913  25.689  1.00  0.00     0.040 A 
ATOM     62  F   UNL A   1      42.859  21.873  27.705  1.00  0.00    -0.206 F 
ATOM     63  C   UNL A   1      44.537  22.573  24.630  1.00  0.00     0.006 A 
ENDBRANCH  42  56
BRANCH  43  64
ATOM     64  C   UNL A   1      40.287  30.572  33.127  1.00  0.00     0.057 A 
ATOM     65  C   UNL A   1      39.973  31.932  33.289  1.00  0.00     0.134 A 
ATOM     66  C   UNL A   1      39.223  29.666  33.154  1.00  0.00     0.134 A 
ATOM     67  F   UNL A   1      40.947  32.856  33.271  1.00  0.00    -0.206 F 
ATOM     68  C   UNL A   1      38.653  32.381  33.373  1.00  0.00     0.040 A 
ATOM     69  C   UNL A   1      37.896  30.103  33.246  1.00  0.00     0.040 A 
ATOM     70  F   UNL A   1      39.439  28.354  32.980  1.00  0.00    -0.206 F 
ATOM     71  C   UNL A   1      37.607  31.464  33.321  1.00  0.00     0.006 A 
ENDBRANCH  43  64
BRANCH  55  72
ATOM     72  C   UNL A   1      44.595  24.902  33.611  1.00  0.00     0.057 A 
ATOM     73  C   UNL A   1      45.913  24.434  33.738  1.00  0.00     0.134 A 
ATOM     74  C   UNL A   1      43.652  24.263  34.446  1.00  0.00     0.134 A 
ATOM     75  F   UNL A   1      46.932  25.024  33.097  1.00  0.00    -0.206 F 
ATOM     76  C   UNL A   1      46.257  23.365  34.579  1.00  0.00     0.040 A 
ATOM     77  C   UNL A   1      43.993  23.232  35.328  1.00  0.00     0.040 A 
ATOM     78  F   UNL A   1      42.362  24.632  34.454  1.00  0.00    -0.206 F 
ATOM     79  C   UNL A   1      45.297  22.767  35.385  1.00  0.00     0.006 A 
ENDBRANCH  55  72
ENDBRANCH  29  30
ENDBRANCH  21  24
ENDBRANCH  19  20
ENDBRANCH   1  19
TORSDOF 14
ENDMDL
MODEL 2
REMARK VINA RESULT:     -11.2      4.375      9.522
REMARK SMILES CCC[C@H](Oc1ccccc1C)C(=O)NCCCNC(=O)c1ccc(-c2c3nc(c(-c4c(F)cccc4F)c4ccc([nH]4)c(-c4c(F)cccc4F)c4nc(c(-c5c(F)cccc5F)c5ccc2[nH]5)C=C4)C=C3)cc1
REMARK SMILES IDX 17 1 16 2 15 3 13 4 14 5 4 7 3 8 2 9 1 10 5 11 6 12 7 13
REMARK SMILES IDX 11 14 8 15 10 16 12 17 9 18 18 19 19 20 20 21 21 23 22 24
REMARK SMILES IDX 23 25 75 26 24 27 74 28 25 29 26 30 27 31 68 32 28 33 73 34
REMARK SMILES IDX 67 35 69 36 29 37 72 38 66 39 65 40 30 42 56 43 39 44 55 45
REMARK SMILES IDX 40 46 43 47 54 48 70 49 41 50 42 51 53 53 71 54 44 55 31 56
REMARK SMILES IDX 32 57 37 58 33 59 34 60 36 61 38 62 35 63 57 64 58 65 63 66
REMARK SMILES IDX 59 67 60 68 62 69 64 70 61 71 45 72 46 73 51 74 47 75 48 76
REMARK SMILES IDX 50 77 52 78 49 79
REMARK H PARENT 15 6 19 22 69 41 43 52
REMARK Flexibility Score: inf
ROOT
ATOM      1  C   UNL A   1      38.175  21.090  25.367  1.00  0.00     0.042 C 
ENDROOT
BRANCH   1   2
ATOM      2  C   UNL A   1      36.693  21.125  25.023  1.00  0.00     0.118 C 
BRANCH   2   3
ATOM      3  N   UNL A   1      35.850  21.176  26.205  1.00  0.00    -0.353 N 
ATOM      4  C   UNL A   1      34.520  21.434  26.353  1.00  0.00     0.261 C 
ATOM      5  O   UNL A   1      34.080  21.388  27.509  1.00  0.00    -0.271 OA
ATOM      6  H   UNL A   1      36.324  20.992  27.048  1.00  0.00     0.163 HD
BRANCH   4   7
ATOM      7  C   UNL A   1      33.572  21.764  25.174  1.00  0.00     0.261 C 
BRANCH   7   8
ATOM      8  C   UNL A   1      33.276  23.279  25.059  1.00  0.00     0.055 C 
BRANCH   8   9
ATOM      9  C   UNL A   1      34.347  24.241  24.522  1.00  0.00     0.001 C 
ATOM     10  C   UNL A   1      34.184  25.712  24.865  1.00  0.00     0.004 C 
ENDBRANCH   8   9
ENDBRANCH   7   8
BRANCH   7  11
ATOM     11  O   UNL A   1      32.429  20.915  25.222  1.00  0.00    -0.480 OA
BRANCH  11  12
ATOM     12  C   UNL A   1      32.508  19.655  24.674  1.00  0.00     0.123 A 
ATOM     13  C   UNL A   1      32.788  18.481  25.385  1.00  0.00     0.047 A 
ATOM     14  C   UNL A   1      32.354  19.584  23.277  1.00  0.00    -0.009 A 
ATOM     15  C   UNL A   1      32.979  17.268  24.719  1.00  0.00     0.004 A 
ATOM     16  C   UNL A   1      32.557  18.359  22.618  1.00  0.00     0.007 A 
ATOM     17  C   UNL A   1      31.986  20.799  22.471  1.00  0.00     0.048 C 
ATOM     18  C   UNL A   1      32.880  17.210  23.335  1.00  0.00     0.001 A 
ENDBRANCH  11  12
ENDBRANCH   7  11
ENDBRANCH   4   7
ENDBRANCH   2   3
ENDBRANCH   1   2
BRANCH   1  19
ATOM     19  C   UNL A   1      38.660  22.351  26.059  1.00  0.00     0.118 C 
BRANCH  19  20
ATOM     20  N   UNL A   1      40.108  22.431  26.246  1.00  0.00    -0.352 N 
ATOM     21  C   UNL A   1      40.865  23.545  26.589  1.00  0.00     0.251 C 
ATOM     22  H   UNL A   1      40.608  21.593  26.111  1.00  0.00     0.163 HD
ATOM     23  O   UNL A   1      42.070  23.472  26.735  1.00  0.00    -0.269 OA
BRANCH  21  24
ATOM     24  C   UNL A   1      40.138  24.796  26.914  1.00  0.00     0.039 A 
ATOM     25  C   UNL A   1      40.486  25.936  26.185  1.00  0.00     0.014 A 
ATOM     26  C   UNL A   1      39.437  24.898  28.115  1.00  0.00     0.014 A 
ATOM     27  C   UNL A   1      40.406  27.175  26.806  1.00  0.00     0.010 A 
ATOM     28  C   UNL A   1      39.447  26.114  28.770  1.00  0.00     0.010 A 
ATOM     29  C   UNL A   1      40.026  27.227  28.148  1.00  0.00    -0.014 A 
BRANCH  29  30
ATOM     30  C   UNL A   1      40.404  28.341  29.011  1.00  0.00     0.031 A 
ATOM     31  C   UNL A   1      39.466  29.451  29.266  1.00  0.00     0.074 A 
ATOM     32  C   UNL A   1      41.625  28.337  29.599  1.00  0.00     0.049 A 
ATOM     33  N   UNL A   1      39.830  30.611  29.701  1.00  0.00    -0.248 NA
ATOM     34  C   UNL A   1      38.041  29.378  28.954  1.00  0.00     0.031 C 
ATOM     35  C   UNL A   1      42.097  29.196  30.683  1.00  0.00     0.029 A 
ATOM     36  N   UNL A   1      42.783  27.682  29.147  1.00  0.00    -0.354 N 
ATOM     37  C   UNL A   1      38.691  31.314  30.005  1.00  0.00     0.074 A 
ATOM     38  C   UNL A   1      37.624  30.572  29.387  1.00  0.00     0.031 C 
ATOM     39  C   UNL A   1      43.437  29.248  30.642  1.00  0.00     0.029 A 
ATOM     40  C   UNL A   1      43.859  28.547  29.443  1.00  0.00     0.049 A 
ATOM     41  H   UNL A   1      42.833  26.800  28.712  1.00  0.00     0.167 HD
ATOM     42  C   UNL A   1      38.781  32.361  30.870  1.00  0.00     0.037 A 
ATOM     43  C   UNL A   1      44.643  29.080  28.462  1.00  0.00     0.037 A 
ATOM     44  C   UNL A   1      40.172  32.793  31.024  1.00  0.00     0.049 A 
ATOM     45  C   UNL A   1      44.666  30.592  28.433  1.00  0.00     0.074 A 
ATOM     46  C   UNL A   1      41.104  32.683  32.041  1.00  0.00     0.029 A 
ATOM     47  N   UNL A   1      40.866  33.240  29.902  1.00  0.00    -0.354 N 
ATOM     48  N   UNL A   1      43.810  31.348  29.062  1.00  0.00    -0.248 NA
ATOM     49  C   UNL A   1      45.616  31.366  27.637  1.00  0.00     0.031 C 
ATOM     50  C   UNL A   1      42.383  32.963  31.488  1.00  0.00     0.029 A 
ATOM     51  C   UNL A   1      42.222  33.288  30.152  1.00  0.00     0.049 A 
ATOM     52  H   UNL A   1      40.446  33.486  29.046  1.00  0.00     0.167 HD
ATOM     53  C   UNL A   1      44.008  32.656  28.700  1.00  0.00     0.074 A 
ATOM     54  C   UNL A   1      45.181  32.621  27.848  1.00  0.00     0.031 C 
ATOM     55  C   UNL A   1      43.157  33.649  29.091  1.00  0.00     0.037 A 
BRANCH  42  56
ATOM     56  C   UNL A   1      37.644  32.876  31.735  1.00  0.00     0.057 A 
ATOM     57  C   UNL A   1      37.490  32.405  33.055  1.00  0.00     0.134 A 
ATOM     58  C   UNL A   1      36.590  33.709  31.301  1.00  0.00     0.134 A 
ATOM     59  F   UNL A   1      38.397  31.593  33.618  1.00  0.00    -0.206 F 
ATOM     60  C   UNL A   1      36.381  32.721  33.858  1.00  0.00     0.040 A 
ATOM     61  C   UNL A   1      35.504  34.071  32.111  1.00  0.00     0.040 A 
ATOM     62  F   UNL A   1      36.503  34.176  30.053  1.00  0.00    -0.206 F 
ATOM     63  C   UNL A   1      35.386  33.564  33.390  1.00  0.00     0.006 A 
ENDBRANCH  42  56
BRANCH  43  64
ATOM     64  C   UNL A   1      44.771  28.220  27.258  1.00  0.00     0.057 A 
ATOM     65  C   UNL A   1      45.649  27.124  27.291  1.00  0.00     0.134 A 
ATOM     66  C   UNL A   1      43.827  28.249  26.228  1.00  0.00     0.134 A 
ATOM     67  F   UNL A   1      46.579  27.033  28.256  1.00  0.00    -0.206 F 
ATOM     68  C   UNL A   1      45.529  26.054  26.401  1.00  0.00     0.040 A 
ATOM     69  C   UNL A   1      43.702  27.187  25.324  1.00  0.00     0.040 A 
ATOM     70  F   UNL A   1      42.937  29.249  26.144  1.00  0.00    -0.206 F 
ATOM     71  C   UNL A   1      44.532  26.071  25.431  1.00  0.00     0.006 A 
ENDBRANCH  43  64
BRANCH  55  72
ATOM     72  C   UNL A   1      43.154  35.053  28.541  1.00  0.00     0.057 A 
ATOM     73  C   UNL A   1      42.943  35.374  27.190  1.00  0.00     0.134 A 
ATOM     74  C   UNL A   1      43.227  36.161  29.413  1.00  0.00     0.134 A 
ATOM     75  F   UNL A   1      42.737  34.424  26.267  1.00  0.00    -0.206 F 
ATOM     76  C   UNL A   1      42.879  36.697  26.729  1.00  0.00     0.040 A 
ATOM     77  C   UNL A   1      43.110  37.484  28.972  1.00  0.00     0.040 A 
ATOM     78  F   UNL A   1      43.391  36.001  30.734  1.00  0.00    -0.206 F 
ATOM     79  C   UNL A   1      42.952  37.757  27.623  1.00  0.00     0.006 A 
ENDBRANCH  55  72
ENDBRANCH  29  30
ENDBRANCH  21  24
ENDBRANCH  19  20
ENDBRANCH   1  19
TORSDOF 14
ENDMDL
MODEL 3
REMARK VINA RESULT:     -11.1      1.548      3.289
REMARK SMILES CCC[C@H](Oc1ccccc1C)C(=O)NCCCNC(=O)c1ccc(-c2c3nc(c(-c4c(F)cccc4F)c4ccc([nH]4)c(-c4c(F)cccc4F)c4nc(c(-c5c(F)cccc5F)c5ccc2[nH]5)C=C4)C=C3)cc1
REMARK SMILES IDX 17 1 16 2 15 3 13 4 14 5 4 7 3 8 2 9 1 10 5 11 6 12 7 13
REMARK SMILES IDX 11 14 8 15 10 16 12 17 9 18 18 19 19 20 20 21 21 23 22 24
REMARK SMILES IDX 23 25 75 26 24 27 74 28 25 29 26 30 27 31 68 32 28 33 73 34
REMARK SMILES IDX 67 35 69 36 29 37 72 38 66 39 65 40 30 42 56 43 39 44 55 45
REMARK SMILES IDX 40 46 43 47 54 48 70 49 41 50 42 51 53 53 71 54 44 55 31 56
REMARK SMILES IDX 32 57 37 58 33 59 34 60 36 61 38 62 35 63 57 64 58 65 63 66
REMARK SMILES IDX 59 67 60 68 62 69 64 70 61 71 45 72 46 73 51 74 47 75 48 76
REMARK SMILES IDX 50 77 52 78 49 79
REMARK H PARENT 15 6 19 22 69 41 43 52
REMARK Flexibility Score: inf
ROOT
ATOM      1  C   UNL A   1      34.036  30.997  27.825  1.00  0.00     0.042 C 
ENDROOT
BRANCH   1   2
ATOM      2  C   UNL A   1      33.919  29.642  27.141  1.00  0.00     0.118 C 
BRANCH   2   3
ATOM      3  N   UNL A   1      32.786  28.873  27.624  1.00  0.00    -0.353 N 
ATOM      4  C   UNL A   1      31.900  28.067  26.973  1.00  0.00     0.261 C 
ATOM      5  O   UNL A   1      31.036  27.526  27.675  1.00  0.00    -0.271 OA
ATOM      6  H   UNL A   1      32.630  28.947  28.594  1.00  0.00     0.163 HD
BRANCH   4   7
ATOM      7  C   UNL A   1      31.935  27.808  25.447  1.00  0.00     0.261 C 
BRANCH   7   8
ATOM      8  C   UNL A   1      31.029  28.787  24.660  1.00  0.00     0.055 C 
BRANCH   8   9
ATOM      9  C   UNL A   1      30.385  28.354  23.335  1.00  0.00     0.001 C 
ATOM     10  C   UNL A   1      29.909  29.460  22.408  1.00  0.00     0.004 C 
ENDBRANCH   8   9
ENDBRANCH   7   8
BRANCH   7  11
ATOM     11  O   UNL A   1      31.718  26.424  25.188  1.00  0.00    -0.480 OA
BRANCH  11  12
ATOM     12  C   UNL A   1      32.715  25.524  25.485  1.00  0.00     0.123 A 
ATOM     13  C   UNL A   1      34.074  25.696  25.188  1.00  0.00     0.047 A 
ATOM     14  C   UNL A   1      32.295  24.316  26.074  1.00  0.00    -0.009 A 
ATOM     15  C   UNL A   1      34.992  24.667  25.409  1.00  0.00     0.004 A 
ATOM     16  C   UNL A   1      33.228  23.285  26.283  1.00  0.00     0.007 A 
ATOM     17  C   UNL A   1      30.862  24.103  26.474  1.00  0.00     0.048 C 
ATOM     18  C   UNL A   1      34.566  23.455  25.940  1.00  0.00     0.001 A 
ENDBRANCH  11  12
ENDBRANCH   7  11
ENDBRANCH   4   7
ENDBRANCH   2   3
ENDBRANCH   1   2
BRANCH   1  19
ATOM     19  C   UNL A   1      35.396  31.647  27.640  1.00  0.00     0.118 C 
BRANCH  19  20
ATOM     20  N   UNL A   1      36.056  32.053  28.880  1.00  0.00    -0.352 N 
ATOM     21  C   UNL A   1      36.970  31.329  29.637  1.00  0.00     0.251 C 
ATOM     22  H   UNL A   1      35.824  32.947  29.220  1.00  0.00     0.163 HD
ATOM     23  O   UNL A   1      37.465  31.794  30.647  1.00  0.00    -0.269 OA
BRANCH  21  24
ATOM     24  C   UNL A   1      37.433  30.027  29.098  1.00  0.00     0.039 A 
ATOM     25  C   UNL A   1      37.500  28.960  29.997  1.00  0.00     0.014 A 
ATOM     26  C   UNL A   1      38.105  29.984  27.878  1.00  0.00     0.014 A 
ATOM     27  C   UNL A   1      38.480  27.995  29.812  1.00  0.00     0.010 A 
ATOM     28  C   UNL A   1      39.143  29.081  27.743  1.00  0.00     0.010 A 
ATOM     29  C   UNL A   1      39.387  28.153  28.764  1.00  0.00    -0.014 A 
BRANCH  29  30
ATOM     30  C   UNL A   1      40.709  27.537  28.790  1.00  0.00     0.031 A 
ATOM     31  C   UNL A   1      40.875  26.094  28.534  1.00  0.00     0.074 A 
ATOM     32  C   UNL A   1      41.795  28.311  29.033  1.00  0.00     0.049 A 
ATOM     33  N   UNL A   1      41.919  25.419  28.884  1.00  0.00    -0.248 NA
ATOM     34  C   UNL A   1      39.827  25.263  27.947  1.00  0.00     0.031 C 
ATOM     35  C   UNL A   1      43.201  27.961  28.847  1.00  0.00     0.029 A 
ATOM     36  N   UNL A   1      41.831  29.527  29.737  1.00  0.00    -0.354 N 
ATOM     37  C   UNL A   1      41.815  24.174  28.318  1.00  0.00     0.074 A 
ATOM     38  C   UNL A   1      40.446  24.080  27.882  1.00  0.00     0.031 C 
ATOM     39  C   UNL A   1      43.951  28.745  29.637  1.00  0.00     0.029 A 
ATOM     40  C   UNL A   1      43.042  29.519  30.463  1.00  0.00     0.049 A 
ATOM     41  H   UNL A   1      41.150  30.237  29.727  1.00  0.00     0.167 HD
ATOM     42  C   UNL A   1      42.945  23.432  28.158  1.00  0.00     0.037 A 
ATOM     43  C   UNL A   1      43.063  29.552  31.827  1.00  0.00     0.037 A 
ATOM     44  C   UNL A   1      44.034  23.955  28.986  1.00  0.00     0.049 A 
ATOM     45  C   UNL A   1      43.763  28.376  32.470  1.00  0.00     0.074 A 
ATOM     46  C   UNL A   1      45.200  24.648  28.713  1.00  0.00     0.029 A 
ATOM     47  N   UNL A   1      43.868  23.996  30.368  1.00  0.00    -0.354 N 
ATOM     48  N   UNL A   1      44.064  27.273  31.844  1.00  0.00    -0.248 NA
ATOM     49  C   UNL A   1      44.115  28.327  33.887  1.00  0.00     0.031 C 
ATOM     50  C   UNL A   1      45.673  25.199  29.935  1.00  0.00     0.029 A 
ATOM     51  C   UNL A   1      44.823  24.802  30.954  1.00  0.00     0.049 A 
ATOM     52  H   UNL A   1      43.162  23.516  30.862  1.00  0.00     0.167 HD
ATOM     53  C   UNL A   1      44.540  26.355  32.744  1.00  0.00     0.074 A 
ATOM     54  C   UNL A   1      44.602  27.079  33.998  1.00  0.00     0.031 C 
ATOM     55  C   UNL A   1      44.793  25.062  32.389  1.00  0.00     0.037 A 
BRANCH  42  56
ATOM     56  C   UNL A   1      43.137  22.354  27.107  1.00  0.00     0.057 A 
ATOM     57  C   UNL A   1      42.410  21.148  27.188  1.00  0.00     0.134 A 
ATOM     58  C   UNL A   1      44.110  22.363  26.084  1.00  0.00     0.134 A 
ATOM     59  F   UNL A   1      41.456  20.968  28.113  1.00  0.00    -0.206 F 
ATOM     60  C   UNL A   1      42.645  20.051  26.342  1.00  0.00     0.040 A 
ATOM     61  C   UNL A   1      44.318  21.294  25.201  1.00  0.00     0.040 A 
ATOM     62  F   UNL A   1      44.965  23.374  25.907  1.00  0.00    -0.206 F 
ATOM     63  C   UNL A   1      43.597  20.124  25.337  1.00  0.00     0.006 A 
ENDBRANCH  42  56
BRANCH  43  64
ATOM     64  C   UNL A   1      41.911  30.270  32.430  1.00  0.00     0.057 A 
ATOM     65  C   UNL A   1      40.792  29.533  32.851  1.00  0.00     0.134 A 
ATOM     66  C   UNL A   1      42.021  31.582  32.898  1.00  0.00     0.134 A 
ATOM     67  F   UNL A   1      40.625  28.265  32.439  1.00  0.00    -0.206 F 
ATOM     68  C   UNL A   1      39.876  30.041  33.776  1.00  0.00     0.040 A 
ATOM     69  C   UNL A   1      41.106  32.106  33.818  1.00  0.00     0.040 A 
ATOM     70  F   UNL A   1      43.075  32.341  32.561  1.00  0.00    -0.206 F 
ATOM     71  C   UNL A   1      40.051  31.324  34.285  1.00  0.00     0.006 A 
ENDBRANCH  43  64
BRANCH  55  72
ATOM     72  C   UNL A   1      45.072  23.938  33.356  1.00  0.00     0.057 A 
ATOM     73  C   UNL A   1      44.170  22.902  33.650  1.00  0.00     0.134 A 
ATOM     74  C   UNL A   1      46.355  23.790  33.926  1.00  0.00     0.134 A 
ATOM     75  F   UNL A   1      42.956  22.848  33.083  1.00  0.00    -0.206 F 
ATOM     76  C   UNL A   1      44.494  21.837  34.502  1.00  0.00     0.040 A 
ATOM     77  C   UNL A   1      46.707  22.704  34.735  1.00  0.00     0.040 A 
ATOM     78  F   UNL A   1      47.328  24.687  33.702  1.00  0.00    -0.206 F 
ATOM     79  C   UNL A   1      45.770  21.730  35.040  1.00  0.00     0.006 A 
ENDBRANCH  55  72
ENDBRANCH  29  30
ENDBRANCH  21  24
ENDBRANCH  19  20
ENDBRANCH   1  19
TORSDOF 14
ENDMDL
