MODEL 1
REMARK VINA RESULT:     -12.2      0.000      0.000
REMARK SMILES COc1ccc(C(=O)N[C@@H]2CCC[C@H]2C(=O)NCCCNC(=O)c2ccc(-c3c4nc(c(-c5c(F)cccc5F)c5ccc([nH]5)c(-c5c(F)cccc5F)c5nc(c(-c6c(F)cccc6F)c6ccc3[nH]6)C=C5)C=C4)cc2)cc1O
REMARK SMILES IDX 18 1 17 2 15 3 16 4 14 6 10 7 11 8 12 9 13 10 9 11 7 12 8 13
REMARK SMILES IDX 6 15 3 16 4 17 79 18 5 19 78 20 2 21 1 22 80 23 19 25 20 26
REMARK SMILES IDX 21 27 22 28 23 30 24 31 25 32 77 33 26 34 76 35 27 36 28 37
REMARK SMILES IDX 29 38 70 39 30 40 75 41 69 42 71 43 31 44 74 45 68 46 67 47
REMARK SMILES IDX 32 49 58 50 41 51 57 52 42 53 45 54 56 55 72 56 43 57 44 58
REMARK SMILES IDX 55 60 73 61 46 62 33 63 34 64 39 65 35 66 36 67 38 68 40 69
REMARK SMILES IDX 37 70 59 71 60 72 65 73 61 74 62 75 64 76 66 77 63 78 47 79
REMARK SMILES IDX 48 80 53 81 49 82 50 83 52 84 54 85 51 86
REMARK H PARENT 17 5 9 14 80 24 21 29 71 48 45 59
REMARK Flexibility Score: inf
ROOT
ATOM      1  C   UNL A   1      36.767  20.719  24.548  1.00  0.00     0.117 C 
ENDROOT
BRANCH   1   2
ATOM      2  N   UNL A   1      35.834  20.687  25.656  1.00  0.00    -0.356 N 
ATOM      3  C   UNL A   1      34.799  21.507  25.980  1.00  0.00     0.225 C 
ATOM      4  O   UNL A   1      34.177  21.245  27.011  1.00  0.00    -0.275 OA
ATOM      5  H   UNL A   1      35.974  19.940  26.283  1.00  0.00     0.163 HD
BRANCH   3   6
ATOM      6  C   UNL A   1      34.423  22.718  25.134  1.00  0.00     0.101 C 
ATOM      7  C   UNL A   1      32.919  22.782  24.855  1.00  0.00     0.094 C 
ATOM      8  C   UNL A   1      32.415  24.159  25.286  1.00  0.00     0.026 C 
ATOM      9  C   UNL A   1      33.603  24.925  25.869  1.00  0.00     0.003 C 
ATOM     10  C   UNL A   1      34.848  24.048  25.754  1.00  0.00     0.016 C 
BRANCH   7  11
ATOM     11  N   UNL A   1      32.548  22.290  23.522  1.00  0.00    -0.349 N 
ATOM     12  C   UNL A   1      32.256  21.099  22.908  1.00  0.00     0.251 C 
ATOM     13  O   UNL A   1      31.922  21.143  21.724  1.00  0.00    -0.269 OA
ATOM     14  H   UNL A   1      32.494  23.034  22.879  1.00  0.00     0.164 HD
BRANCH  12  15
ATOM     15  C   UNL A   1      32.416  19.773  23.544  1.00  0.00     0.043 A 
ATOM     16  C   UNL A   1      33.089  17.277  24.682  1.00  0.00     0.160 A 
ATOM     17  C   UNL A   1      33.045  17.441  23.293  1.00  0.00     0.051 A 
ATOM     18  C   UNL A   1      32.727  18.363  25.477  1.00  0.00     0.158 A 
ATOM     19  C   UNL A   1      32.732  18.682  22.727  1.00  0.00     0.018 A 
ATOM     20  C   UNL A   1      32.306  19.565  24.910  1.00  0.00     0.064 A 
BRANCH  16  21
ATOM     21  O   UNL A   1      33.507  16.040  25.079  1.00  0.00    -0.493 OA
ATOM     22  C   UNL A   1      34.887  15.839  25.347  1.00  0.00     0.278 C 
ENDBRANCH  16  21
BRANCH  18  23
ATOM     23  O   UNL A   1      32.853  18.380  26.836  1.00  0.00    -0.504 OA
ATOM     24  H   UNL A   1      32.354  18.987  27.347  1.00  0.00     0.293 HD
ENDBRANCH  18  23
ENDBRANCH  12  15
ENDBRANCH   7  11
ENDBRANCH   3   6
ENDBRANCH   1   2
BRANCH   1  25
ATOM     25  C   UNL A   1      37.895  19.716  24.706  1.00  0.00     0.042 C 
BRANCH  25  26
ATOM     26  C   UNL A   1      38.840  20.073  25.836  1.00  0.00     0.118 C 
BRANCH  26  27
ATOM     27  N   UNL A   1      40.042  19.252  25.820  1.00  0.00    -0.352 N 
ATOM     28  C   UNL A   1      41.351  19.613  26.013  1.00  0.00     0.251 C 
ATOM     29  H   UNL A   1      39.892  18.295  25.645  1.00  0.00     0.163 HD
ATOM     30  O   UNL A   1      42.249  18.832  25.719  1.00  0.00    -0.269 OA
BRANCH  28  31
ATOM     31  C   UNL A   1      41.670  20.943  26.570  1.00  0.00     0.039 A 
ATOM     32  C   UNL A   1      41.521  21.159  27.940  1.00  0.00     0.014 A 
ATOM     33  C   UNL A   1      42.089  21.982  25.736  1.00  0.00     0.014 A 
ATOM     34  C   UNL A   1      41.822  22.411  28.475  1.00  0.00     0.010 A 
ATOM     35  C   UNL A   1      42.505  23.186  26.283  1.00  0.00     0.010 A 
ATOM     36  C   UNL A   1      42.333  23.428  27.652  1.00  0.00    -0.014 A 
BRANCH  36  37
ATOM     37  C   UNL A   1      42.616  24.782  28.183  1.00  0.00     0.031 A 
ATOM     38  C   UNL A   1      44.024  25.147  28.575  1.00  0.00     0.074 A 
ATOM     39  C   UNL A   1      41.610  25.660  28.354  1.00  0.00     0.049 A 
ATOM     40  N   UNL A   1      44.475  26.256  29.103  1.00  0.00    -0.248 NA
ATOM     41  C   UNL A   1      45.057  24.115  28.382  1.00  0.00     0.031 C 
ATOM     42  C   UNL A   1      40.198  25.402  28.062  1.00  0.00     0.029 A 
ATOM     43  N   UNL A   1      41.622  26.949  28.819  1.00  0.00    -0.354 N 
ATOM     44  C   UNL A   1      45.832  26.044  29.321  1.00  0.00     0.074 A 
ATOM     45  C   UNL A   1      46.115  24.680  28.941  1.00  0.00     0.031 C 
ATOM     46  C   UNL A   1      39.487  26.510  28.321  1.00  0.00     0.029 A 
ATOM     47  C   UNL A   1      40.384  27.542  28.831  1.00  0.00     0.049 A 
ATOM     48  H   UNL A   1      42.442  27.406  29.116  1.00  0.00     0.167 HD
ATOM     49  C   UNL A   1      46.766  26.917  29.764  1.00  0.00     0.037 A 
ATOM     50  C   UNL A   1      40.020  28.780  29.208  1.00  0.00     0.037 A 
ATOM     51  C   UNL A   1      46.482  28.284  30.111  1.00  0.00     0.049 A 
ATOM     52  C   UNL A   1      41.078  29.737  29.684  1.00  0.00     0.074 A 
ATOM     53  C   UNL A   1      47.361  29.270  30.524  1.00  0.00     0.029 A 
ATOM     54  N   UNL A   1      45.220  28.857  30.080  1.00  0.00    -0.354 N 
ATOM     55  N   UNL A   1      42.368  29.545  29.825  1.00  0.00    -0.248 NA
ATOM     56  C   UNL A   1      40.630  31.090  30.039  1.00  0.00     0.031 C 
ATOM     57  C   UNL A   1      46.621  30.428  30.787  1.00  0.00     0.029 A 
ATOM     58  C   UNL A   1      45.293  30.181  30.479  1.00  0.00     0.049 A 
ATOM     59  H   UNL A   1      44.394  28.391  29.815  1.00  0.00     0.167 HD
ATOM     60  C   UNL A   1      42.892  30.762  30.244  1.00  0.00     0.074 A 
ATOM     61  C   UNL A   1      41.779  31.687  30.321  1.00  0.00     0.031 C 
ATOM     62  C   UNL A   1      44.175  31.088  30.536  1.00  0.00     0.037 A 
BRANCH  49  63
ATOM     63  C   UNL A   1      48.177  26.415  29.890  1.00  0.00     0.057 A 
ATOM     64  C   UNL A   1      49.104  26.538  28.845  1.00  0.00     0.134 A 
ATOM     65  C   UNL A   1      48.619  25.814  31.075  1.00  0.00     0.134 A 
ATOM     66  F   UNL A   1      48.743  27.087  27.676  1.00  0.00    -0.206 F 
ATOM     67  C   UNL A   1      50.407  26.050  28.962  1.00  0.00     0.040 A 
ATOM     68  C   UNL A   1      49.929  25.352  31.216  1.00  0.00     0.040 A 
ATOM     69  F   UNL A   1      47.787  25.666  32.116  1.00  0.00    -0.206 F 
ATOM     70  C   UNL A   1      50.824  25.462  30.153  1.00  0.00     0.006 A 
ENDBRANCH  49  63
BRANCH  50  71
ATOM     71  C   UNL A   1      38.599  29.202  29.113  1.00  0.00     0.057 A 
ATOM     72  C   UNL A   1      38.063  29.671  27.907  1.00  0.00     0.134 A 
ATOM     73  C   UNL A   1      37.748  29.163  30.223  1.00  0.00     0.134 A 
ATOM     74  F   UNL A   1      38.833  29.745  26.810  1.00  0.00    -0.206 F 
ATOM     75  C   UNL A   1      36.743  30.113  27.815  1.00  0.00     0.040 A 
ATOM     76  C   UNL A   1      36.417  29.575  30.139  1.00  0.00     0.040 A 
ATOM     77  F   UNL A   1      38.195  28.712  31.405  1.00  0.00    -0.206 F 
ATOM     78  C   UNL A   1      35.914  30.062  28.934  1.00  0.00     0.006 A 
ENDBRANCH  50  71
BRANCH  62  79
ATOM     79  C   UNL A   1      44.450  32.518  30.905  1.00  0.00     0.057 A 
ATOM     80  C   UNL A   1      44.435  32.964  32.233  1.00  0.00     0.134 A 
ATOM     81  C   UNL A   1      44.746  33.459  29.911  1.00  0.00     0.134 A 
ATOM     82  F   UNL A   1      44.148  32.117  33.232  1.00  0.00    -0.206 F 
ATOM     83  C   UNL A   1      44.665  34.303  32.554  1.00  0.00     0.040 A 
ATOM     84  C   UNL A   1      45.011  34.793  30.222  1.00  0.00     0.040 A 
ATOM     85  F   UNL A   1      44.790  33.098  28.619  1.00  0.00    -0.206 F 
ATOM     86  C   UNL A   1      44.959  35.220  31.547  1.00  0.00     0.006 A 
ENDBRANCH  62  79
ENDBRANCH  36  37
ENDBRANCH  28  31
ENDBRANCH  26  27
ENDBRANCH  25  26
ENDBRANCH   1  25
TORSDOF 14
ENDMDL
MODEL 2
REMARK VINA RESULT:     -12.0      5.372     10.075
REMARK SMILES COc1ccc(C(=O)N[C@@H]2CCC[C@H]2C(=O)NCCCNC(=O)c2ccc(-c3c4nc(c(-c5c(F)cccc5F)c5ccc([nH]5)c(-c5c(F)cccc5F)c5nc(c(-c6c(F)cccc6F)c6ccc3[nH]6)C=C5)C=C4)cc2)cc1O
REMARK SMILES IDX 18 1 17 2 15 3 16 4 14 6 10 7 11 8 12 9 13 10 9 11 7 12 8 13
REMARK SMILES IDX 6 15 3 16 4 17 79 18 5 19 78 20 2 21 1 22 80 23 19 25 20 26
REMARK SMILES IDX 21 27 22 28 23 30 24 31 25 32 77 33 26 34 76 35 27 36 28 37
REMARK SMILES IDX 29 38 70 39 30 40 75 41 69 42 71 43 31 44 74 45 68 46 67 47
REMARK SMILES IDX 32 49 58 50 41 51 57 52 42 53 45 54 56 55 72 56 43 57 44 58
REMARK SMILES IDX 55 60 73 61 46 62 33 63 34 64 39 65 35 66 36 67 38 68 40 69
REMARK SMILES IDX 37 70 59 71 60 72 65 73 61 74 62 75 64 76 66 77 63 78 47 79
REMARK SMILES IDX 48 80 53 81 49 82 50 83 52 84 54 85 51 86
REMARK H PARENT 17 5 9 14 80 24 21 29 71 48 45 59
REMARK Flexibility Score: inf
ROOT
ATOM      1  C   UNL A   1      31.409  30.445  26.442  1.00  0.00     0.117 C 
ENDROOT
BRANCH   1   2
ATOM      2  N   UNL A   1      31.958  30.093  25.148  1.00  0.00    -0.356 N 
ATOM      3  C   UNL A   1      32.239  28.884  24.592  1.00  0.00     0.225 C 
ATOM      4  O   UNL A   1      32.728  28.886  23.461  1.00  0.00    -0.275 OA
ATOM      5  H   UNL A   1      32.163  30.864  24.570  1.00  0.00     0.163 HD
BRANCH   3   6
ATOM      6  C   UNL A   1      31.992  27.572  25.328  1.00  0.00     0.101 C 
ATOM      7  C   UNL A   1      31.464  26.479  24.396  1.00  0.00     0.094 C 
ATOM      8  C   UNL A   1      32.365  25.254  24.542  1.00  0.00     0.026 C 
ATOM      9  C   UNL A   1      33.474  25.611  25.534  1.00  0.00     0.003 C 
ATOM     10  C   UNL A   1      33.231  27.032  26.039  1.00  0.00     0.016 C 
BRANCH   7  11
ATOM     11  N   UNL A   1      30.010  26.288  24.481  1.00  0.00    -0.349 N 
ATOM     12  C   UNL A   1      28.867  26.846  23.970  1.00  0.00     0.251 C 
ATOM     13  O   UNL A   1      27.797  26.315  24.270  1.00  0.00    -0.269 OA
ATOM     14  H   UNL A   1      29.791  25.539  25.081  1.00  0.00     0.164 HD
BRANCH  12  15
ATOM     15  C   UNL A   1      28.831  28.094  23.176  1.00  0.00     0.043 A 
ATOM     16  C   UNL A   1      28.803  30.657  21.990  1.00  0.00     0.160 A 
ATOM     17  C   UNL A   1      27.683  30.174  22.675  1.00  0.00     0.051 A 
ATOM     18  C   UNL A   1      29.900  29.809  21.858  1.00  0.00     0.158 A 
ATOM     19  C   UNL A   1      27.701  28.913  23.282  1.00  0.00     0.018 A 
ATOM     20  C   UNL A   1      29.876  28.510  22.365  1.00  0.00     0.064 A 
BRANCH  16  21
ATOM     21  O   UNL A   1      28.666  31.939  21.543  1.00  0.00    -0.493 OA
ATOM     22  C   UNL A   1      27.931  32.173  20.350  1.00  0.00     0.278 C 
ENDBRANCH  16  21
BRANCH  18  23
ATOM     23  O   UNL A   1      31.099  30.200  21.333  1.00  0.00    -0.504 OA
ATOM     24  H   UNL A   1      31.678  30.739  21.836  1.00  0.00     0.293 HD
ENDBRANCH  18  23
ENDBRANCH  12  15
ENDBRANCH   7  11
ENDBRANCH   3   6
ENDBRANCH   1   2
BRANCH   1  25
ATOM     25  C   UNL A   1      31.302  31.946  26.641  1.00  0.00     0.042 C 
BRANCH  25  26
ATOM     26  C   UNL A   1      32.647  32.597  26.895  1.00  0.00     0.118 C 
BRANCH  26  27
ATOM     27  N   UNL A   1      32.507  33.921  27.485  1.00  0.00    -0.352 N 
ATOM     28  C   UNL A   1      33.143  34.466  28.571  1.00  0.00     0.251 C 
ATOM     29  H   UNL A   1      31.860  34.512  27.037  1.00  0.00     0.163 HD
ATOM     30  O   UNL A   1      32.720  35.504  29.069  1.00  0.00    -0.269 OA
BRANCH  28  31
ATOM     31  C   UNL A   1      34.332  33.798  29.136  1.00  0.00     0.039 A 
ATOM     32  C   UNL A   1      35.602  34.253  28.777  1.00  0.00     0.014 A 
ATOM     33  C   UNL A   1      34.193  32.707  29.997  1.00  0.00     0.014 A 
ATOM     34  C   UNL A   1      36.731  33.628  29.308  1.00  0.00     0.010 A 
ATOM     35  C   UNL A   1      35.309  32.168  30.619  1.00  0.00     0.010 A 
ATOM     36  C   UNL A   1      36.591  32.593  30.247  1.00  0.00    -0.014 A 
BRANCH  36  37
ATOM     37  C   UNL A   1      37.770  31.880  30.791  1.00  0.00     0.031 A 
ATOM     38  C   UNL A   1      38.269  32.215  32.172  1.00  0.00     0.074 A 
ATOM     39  C   UNL A   1      38.414  30.972  30.033  1.00  0.00     0.049 A 
ATOM     40  N   UNL A   1      39.309  31.745  32.813  1.00  0.00    -0.248 NA
ATOM     41  C   UNL A   1      37.522  33.242  32.919  1.00  0.00     0.031 C 
ATOM     42  C   UNL A   1      38.057  30.603  28.662  1.00  0.00     0.029 A 
ATOM     43  N   UNL A   1      39.507  30.195  30.312  1.00  0.00    -0.354 N 
ATOM     44  C   UNL A   1      39.348  32.433  34.021  1.00  0.00     0.074 A 
ATOM     45  C   UNL A   1      38.278  33.402  33.993  1.00  0.00     0.031 C 
ATOM     46  C   UNL A   1      38.894  29.646  28.233  1.00  0.00     0.029 A 
ATOM     47  C   UNL A   1      39.867  29.361  29.282  1.00  0.00     0.049 A 
ATOM     48  H   UNL A   1      39.990  30.231  31.170  1.00  0.00     0.167 HD
ATOM     49  C   UNL A   1      40.178  32.249  35.074  1.00  0.00     0.037 A 
ATOM     50  C   UNL A   1      40.868  28.466  29.200  1.00  0.00     0.037 A 
ATOM     51  C   UNL A   1      41.221  31.260  35.107  1.00  0.00     0.049 A 
ATOM     52  C   UNL A   1      41.768  28.271  30.389  1.00  0.00     0.074 A 
ATOM     53  C   UNL A   1      42.088  30.955  36.141  1.00  0.00     0.029 A 
ATOM     54  N   UNL A   1      41.535  30.412  34.056  1.00  0.00    -0.354 N 
ATOM     55  N   UNL A   1      41.755  28.881  31.550  1.00  0.00    -0.248 NA
ATOM     56  C   UNL A   1      42.815  27.247  30.261  1.00  0.00     0.031 C 
ATOM     57  C   UNL A   1      42.957  29.952  35.697  1.00  0.00     0.029 A 
ATOM     58  C   UNL A   1      42.591  29.591  34.410  1.00  0.00     0.049 A 
ATOM     59  H   UNL A   1      41.074  30.398  33.185  1.00  0.00     0.167 HD
ATOM     60  C   UNL A   1      42.761  28.289  32.304  1.00  0.00     0.074 A 
ATOM     61  C   UNL A   1      43.354  27.263  31.471  1.00  0.00     0.031 C 
ATOM     62  C   UNL A   1      43.158  28.566  33.571  1.00  0.00     0.037 A 
BRANCH  49  63
ATOM     63  C   UNL A   1      39.980  33.135  36.272  1.00  0.00     0.057 A 
ATOM     64  C   UNL A   1      40.676  34.343  36.425  1.00  0.00     0.134 A 
ATOM     65  C   UNL A   1      39.071  32.785  37.278  1.00  0.00     0.134 A 
ATOM     66  F   UNL A   1      41.574  34.732  35.508  1.00  0.00    -0.206 F 
ATOM     67  C   UNL A   1      40.502  35.151  37.550  1.00  0.00     0.040 A 
ATOM     68  C   UNL A   1      38.864  33.600  38.392  1.00  0.00     0.040 A 
ATOM     69  F   UNL A   1      38.369  31.645  37.196  1.00  0.00    -0.206 F 
ATOM     70  C   UNL A   1      39.587  34.783  38.534  1.00  0.00     0.006 A 
ENDBRANCH  49  63
BRANCH  50  71
ATOM     71  C   UNL A   1      41.047  27.657  27.968  1.00  0.00     0.057 A 
ATOM     72  C   UNL A   1      41.845  28.116  26.912  1.00  0.00     0.134 A 
ATOM     73  C   UNL A   1      40.418  26.417  27.808  1.00  0.00     0.134 A 
ATOM     74  F   UNL A   1      42.463  29.303  27.000  1.00  0.00    -0.206 F 
ATOM     75  C   UNL A   1      41.985  27.387  25.731  1.00  0.00     0.040 A 
ATOM     76  C   UNL A   1      40.572  25.664  26.643  1.00  0.00     0.040 A 
ATOM     77  F   UNL A   1      39.651  25.915  28.787  1.00  0.00    -0.206 F 
ATOM     78  C   UNL A   1      41.350  26.154  25.595  1.00  0.00     0.006 A 
ENDBRANCH  50  71
BRANCH  62  79
ATOM     79  C   UNL A   1      44.243  27.705  34.150  1.00  0.00     0.057 A 
ATOM     80  C   UNL A   1      45.595  28.067  34.096  1.00  0.00     0.134 A 
ATOM     81  C   UNL A   1      43.923  26.497  34.785  1.00  0.00     0.134 A 
ATOM     82  F   UNL A   1      45.971  29.205  33.494  1.00  0.00    -0.206 F 
ATOM     83  C   UNL A   1      46.593  27.240  34.615  1.00  0.00     0.040 A 
ATOM     84  C   UNL A   1      44.908  25.678  35.337  1.00  0.00     0.040 A 
ATOM     85  F   UNL A   1      42.647  26.095  34.884  1.00  0.00    -0.206 F 
ATOM     86  C   UNL A   1      46.249  26.044  35.242  1.00  0.00     0.006 A 
ENDBRANCH  62  79
ENDBRANCH  36  37
ENDBRANCH  28  31
ENDBRANCH  26  27
ENDBRANCH  25  26
ENDBRANCH   1  25
TORSDOF 14
ENDMDL
MODEL 3
REMARK VINA RESULT:     -11.9      5.237      9.710
REMARK SMILES COc1ccc(C(=O)N[C@@H]2CCC[C@H]2C(=O)NCCCNC(=O)c2ccc(-c3c4nc(c(-c5c(F)cccc5F)c5ccc([nH]5)c(-c5c(F)cccc5F)c5nc(c(-c6c(F)cccc6F)c6ccc3[nH]6)C=C5)C=C4)cc2)cc1O
REMARK SMILES IDX 18 1 17 2 15 3 16 4 14 6 10 7 11 8 12 9 13 10 9 11 7 12 8 13
REMARK SMILES IDX 6 15 3 16 4 17 79 18 5 19 78 20 2 21 1 22 80 23 19 25 20 26
REMARK SMILES IDX 21 27 22 28 23 30 24 31 25 32 77 33 26 34 76 35 27 36 28 37
REMARK SMILES IDX 29 38 70 39 30 40 75 41 69 42 71 43 31 44 74 45 68 46 67 47
REMARK SMILES IDX 32 49 58 50 41 51 57 52 42 53 45 54 56 55 72 56 43 57 44 58
REMARK SMILES IDX 55 60 73 61 46 62 33 63 34 64 39 65 35 66 36 67 38 68 40 69
REMARK SMILES IDX 37 70 59 71 60 72 65 73 61 74 62 75 64 76 66 77 63 78 47 79
REMARK SMILES IDX 48 80 53 81 49 82 50 83 52 84 54 85 51 86
REMARK H PARENT 17 5 9 14 80 24 21 29 71 48 45 59
REMARK Flexibility Score: inf
ROOT
ATOM      1  C   UNL A   1      31.471  30.372  26.442  1.00  0.00     0.117 C 
ENDROOT
BRANCH   1   2
ATOM      2  N   UNL A   1      32.134  30.077  25.188  1.00  0.00    -0.356 N 
ATOM      3  C   UNL A   1      32.580  28.903  24.665  1.00  0.00     0.225 C 
ATOM      4  O   UNL A   1      33.134  28.953  23.565  1.00  0.00    -0.275 OA
ATOM      5  H   UNL A   1      32.288  30.862  24.614  1.00  0.00     0.163 HD
BRANCH   3   6
ATOM      6  C   UNL A   1      32.434  27.576  25.401  1.00  0.00     0.101 C 
ATOM      7  C   UNL A   1      31.922  26.462  24.484  1.00  0.00     0.094 C 
ATOM      8  C   UNL A   1      32.891  25.284  24.581  1.00  0.00     0.026 C 
ATOM      9  C   UNL A   1      34.023  25.693  25.525  1.00  0.00     0.003 C 
ATOM     10  C   UNL A   1      33.730  27.096  26.051  1.00  0.00     0.016 C 
BRANCH   7  11
ATOM     11  N   UNL A   1      30.485  26.195  24.632  1.00  0.00    -0.349 N 
ATOM     12  C   UNL A   1      29.296  26.651  24.126  1.00  0.00     0.251 C 
ATOM     13  O   UNL A   1      28.269  26.081  24.497  1.00  0.00    -0.269 OA
ATOM     14  H   UNL A   1      30.330  25.478  25.289  1.00  0.00     0.164 HD
BRANCH  12  15
ATOM     15  C   UNL A   1      29.162  27.838  23.252  1.00  0.00     0.043 A 
ATOM     16  C   UNL A   1      28.904  30.305  21.902  1.00  0.00     0.160 A 
ATOM     17  C   UNL A   1      27.809  29.729  22.554  1.00  0.00     0.051 A 
ATOM     18  C   UNL A   1      30.101  29.591  21.887  1.00  0.00     0.158 A 
ATOM     19  C   UNL A   1      27.939  28.516  23.241  1.00  0.00     0.018 A 
ATOM     20  C   UNL A   1      30.199  28.331  22.474  1.00  0.00     0.064 A 
BRANCH  16  21
ATOM     21  O   UNL A   1      28.645  31.533  21.366  1.00  0.00    -0.493 OA
ATOM     22  C   UNL A   1      28.524  32.648  22.237  1.00  0.00     0.278 C 
ENDBRANCH  16  21
BRANCH  18  23
ATOM     23  O   UNL A   1      31.275  30.095  21.405  1.00  0.00    -0.504 OA
ATOM     24  H   UNL A   1      31.487  30.005  20.496  1.00  0.00     0.293 HD
ENDBRANCH  18  23
ENDBRANCH  12  15
ENDBRANCH   7  11
ENDBRANCH   3   6
ENDBRANCH   1   2
BRANCH   1  25
ATOM     25  C   UNL A   1      31.366  31.863  26.709  1.00  0.00     0.042 C 
BRANCH  25  26
ATOM     26  C   UNL A   1      32.702  32.487  27.062  1.00  0.00     0.118 C 
BRANCH  26  27
ATOM     27  N   UNL A   1      32.556  33.863  27.514  1.00  0.00    -0.352 N 
ATOM     28  C   UNL A   1      33.182  34.516  28.545  1.00  0.00     0.251 C 
ATOM     29  H   UNL A   1      31.913  34.405  27.003  1.00  0.00     0.163 HD
ATOM     30  O   UNL A   1      32.754  35.597  28.932  1.00  0.00    -0.269 OA
BRANCH  28  31
ATOM     31  C   UNL A   1      34.367  33.910  29.185  1.00  0.00     0.039 A 
ATOM     32  C   UNL A   1      35.636  34.387  28.856  1.00  0.00     0.014 A 
ATOM     33  C   UNL A   1      34.225  32.853  30.088  1.00  0.00     0.014 A 
ATOM     34  C   UNL A   1      36.760  33.821  29.457  1.00  0.00     0.010 A 
ATOM     35  C   UNL A   1      35.330  32.376  30.776  1.00  0.00     0.010 A 
ATOM     36  C   UNL A   1      36.613  32.823  30.435  1.00  0.00    -0.014 A 
BRANCH  36  37
ATOM     37  C   UNL A   1      37.790  32.170  31.055  1.00  0.00     0.031 A 
ATOM     38  C   UNL A   1      38.454  31.015  30.353  1.00  0.00     0.074 A 
ATOM     39  C   UNL A   1      38.230  32.583  32.258  1.00  0.00     0.049 A 
ATOM     40  N   UNL A   1      39.462  30.277  30.744  1.00  0.00    -0.248 NA
ATOM     41  C   UNL A   1      37.888  30.611  29.055  1.00  0.00     0.031 C 
ATOM     42  C   UNL A   1      37.635  33.656  33.059  1.00  0.00     0.029 A 
ATOM     43  N   UNL A   1      39.282  32.146  33.019  1.00  0.00    -0.354 N 
ATOM     44  C   UNL A   1      39.631  29.317  29.753  1.00  0.00     0.074 A 
ATOM     45  C   UNL A   1      38.579  29.516  28.784  1.00  0.00     0.031 C 
ATOM     46  C   UNL A   1      38.354  33.815  34.181  1.00  0.00     0.029 A 
ATOM     47  C   UNL A   1      39.435  32.835  34.197  1.00  0.00     0.049 A 
ATOM     48  H   UNL A   1      39.874  31.407  32.746  1.00  0.00     0.167 HD
ATOM     49  C   UNL A   1      40.597  28.375  29.642  1.00  0.00     0.037 A 
ATOM     50  C   UNL A   1      40.347  32.690  35.174  1.00  0.00     0.037 A 
ATOM     51  C   UNL A   1      41.659  28.203  30.595  1.00  0.00     0.049 A 
ATOM     52  C   UNL A   1      41.419  31.646  35.021  1.00  0.00     0.074 A 
ATOM     53  C   UNL A   1      42.719  27.314  30.556  1.00  0.00     0.029 A 
ATOM     54  N   UNL A   1      41.797  28.942  31.761  1.00  0.00    -0.354 N 
ATOM     55  N   UNL A   1      41.607  30.786  34.048  1.00  0.00    -0.248 NA
ATOM     56  C   UNL A   1      42.416  31.564  36.096  1.00  0.00     0.031 C 
ATOM     57  C   UNL A   1      43.472  27.485  31.722  1.00  0.00     0.029 A 
ATOM     58  C   UNL A   1      42.918  28.521  32.456  1.00  0.00     0.049 A 
ATOM     59  H   UNL A   1      41.188  29.659  32.051  1.00  0.00     0.167 HD
ATOM     60  C   UNL A   1      42.765  30.090  34.373  1.00  0.00     0.074 A 
ATOM     61  C   UNL A   1      43.241  30.639  35.626  1.00  0.00     0.031 C 
ATOM     62  C   UNL A   1      43.382  29.090  33.697  1.00  0.00     0.037 A 
BRANCH  49  63
ATOM     63  C   UNL A   1      40.544  27.470  28.443  1.00  0.00     0.057 A 
ATOM     64  C   UNL A   1      41.243  27.760  27.263  1.00  0.00     0.134 A 
ATOM     65  C   UNL A   1      39.797  26.286  28.474  1.00  0.00     0.134 A 
ATOM     66  F   UNL A   1      41.964  28.885  27.158  1.00  0.00    -0.206 F 
ATOM     67  C   UNL A   1      41.172  26.924  26.146  1.00  0.00     0.040 A 
ATOM     68  C   UNL A   1      39.744  25.426  27.376  1.00  0.00     0.040 A 
ATOM     69  F   UNL A   1      39.105  25.944  29.571  1.00  0.00    -0.206 F 
ATOM     70  C   UNL A   1      40.427  25.749  26.205  1.00  0.00     0.006 A 
ENDBRANCH  49  63
BRANCH  50  71
ATOM     71  C   UNL A   1      40.316  33.580  36.363  1.00  0.00     0.057 A 
ATOM     72  C   UNL A   1      39.534  33.265  37.481  1.00  0.00     0.134 A 
ATOM     73  C   UNL A   1      41.051  34.771  36.406  1.00  0.00     0.134 A 
ATOM     74  F   UNL A   1      38.796  32.145  37.495  1.00  0.00    -0.206 F 
ATOM     75  C   UNL A   1      39.460  34.115  38.586  1.00  0.00     0.040 A 
ATOM     76  C   UNL A   1      41.009  35.616  37.515  1.00  0.00     0.040 A 
ATOM     77  F   UNL A   1      41.830  35.124  35.373  1.00  0.00    -0.206 F 
ATOM     78  C   UNL A   1      40.203  35.294  38.606  1.00  0.00     0.006 A 
ENDBRANCH  50  71
BRANCH  62  79
ATOM     79  C   UNL A   1      44.670  28.571  34.268  1.00  0.00     0.057 A 
ATOM     80  C   UNL A   1      44.710  27.496  35.166  1.00  0.00     0.134 A 
ATOM     81  C   UNL A   1      45.890  29.152  33.902  1.00  0.00     0.134 A 
ATOM     82  F   UNL A   1      43.576  26.901  35.566  1.00  0.00    -0.206 F 
ATOM     83  C   UNL A   1      45.914  27.045  35.710  1.00  0.00     0.040 A 
ATOM     84  C   UNL A   1      47.103  28.689  34.412  1.00  0.00     0.040 A 
ATOM     85  F   UNL A   1      45.926  30.177  33.036  1.00  0.00    -0.206 F 
ATOM     86  C   UNL A   1      47.116  27.640  35.329  1.00  0.00     0.006 A 
ENDBRANCH  62  79
ENDBRANCH  36  37
ENDBRANCH  28  31
ENDBRANCH  26  27
ENDBRANCH  25  26
ENDBRANCH   1  25
TORSDOF 14
ENDMDL
