MODEL 1
REMARK VINA RESULT:     -13.0      0.000      0.000
REMARK SMILES C[C@@H]1Cc2ccccc2N1S(=O)(=O)c1cccc(C(=O)NCCCNC(=O)c2ccc(-c3c4nc(c(-c5c(F)cccc5F)c5ccc([nH]5)c(-c5c(F)cccc5F)c5nc(c(-c6c(F)cccc6F)c6ccc3[nH]6)C=C5)C=C4)cc2)c1
REMARK SMILES IDX 23 1 22 2 21 3 19 4 20 5 18 7 14 8 15 9 82 10 16 11 17 12
REMARK SMILES IDX 11 13 12 14 13 15 10 16 1 17 2 18 3 19 4 20 9 21 5 22 8 23
REMARK SMILES IDX 6 24 7 25 24 26 25 27 26 28 27 30 28 31 29 32 81 33 30 34
REMARK SMILES IDX 80 35 31 36 32 37 33 38 74 39 34 40 79 41 73 42 75 43 35 44
REMARK SMILES IDX 78 45 72 46 71 47 36 49 62 50 45 51 61 52 46 53 49 54 60 55
REMARK SMILES IDX 76 56 47 57 48 58 59 60 77 61 50 62 37 63 38 64 43 65 39 66
REMARK SMILES IDX 40 67 42 68 44 69 41 70 63 71 64 72 69 73 65 74 66 75 68 76
REMARK SMILES IDX 70 77 67 78 51 79 52 80 57 81 53 82 54 83 56 84 58 85 55 86
REMARK H PARENT 21 6 25 29 75 48 49 59
REMARK Flexibility Score: inf
ROOT
ATOM      1  C   UNL A   1      30.821  31.823  25.648  1.00  0.00     0.042 C 
ENDROOT
BRANCH   1   2
ATOM      2  C   UNL A   1      30.923  30.515  24.875  1.00  0.00     0.118 C 
BRANCH   2   3
ATOM      3  N   UNL A   1      29.879  30.341  23.874  1.00  0.00    -0.352 N 
ATOM      4  C   UNL A   1      29.412  29.286  23.133  1.00  0.00     0.251 C 
ATOM      5  O   UNL A   1      28.467  29.525  22.378  1.00  0.00    -0.269 OA
ATOM      6  H   UNL A   1      29.396  31.177  23.685  1.00  0.00     0.163 HD
BRANCH   4   7
ATOM      7  C   UNL A   1      30.000  27.916  23.127  1.00  0.00     0.041 A 
ATOM      8  C   UNL A   1      30.546  25.786  24.118  1.00  0.00     0.088 A 
ATOM      9  C   UNL A   1      31.422  25.480  23.075  1.00  0.00     0.022 A 
ATOM     10  C   UNL A   1      29.747  26.933  24.079  1.00  0.00     0.036 A 
ATOM     11  C   UNL A   1      31.595  26.400  22.049  1.00  0.00     0.002 A 
ATOM     12  C   UNL A   1      30.920  27.624  22.098  1.00  0.00     0.014 A 
BRANCH   8  13
ATOM     13  S   UNL A   1      30.538  24.770  25.572  1.00  0.00     0.264 S 
ATOM     14  O   UNL A   1      30.514  23.390  25.140  1.00  0.00    -0.201 OA
ATOM     15  O   UNL A   1      29.494  25.280  26.446  1.00  0.00    -0.201 OA
BRANCH  13  16
ATOM     16  N   UNL A   1      32.047  25.067  26.376  1.00  0.00    -0.263 N 
ATOM     17  C   UNL A   1      33.618  23.140  26.529  1.00  0.00     0.032 C 
ATOM     18  C   UNL A   1      33.181  24.320  25.674  1.00  0.00     0.101 C 
ATOM     19  C   UNL A   1      34.323  25.335  25.440  1.00  0.00     0.063 C 
ATOM     20  C   UNL A   1      33.755  26.614  25.950  1.00  0.00    -0.021 A 
ATOM     21  C   UNL A   1      32.501  26.426  26.513  1.00  0.00     0.055 A 
ATOM     22  C   UNL A   1      34.376  27.858  25.964  1.00  0.00     0.006 A 
ATOM     23  C   UNL A   1      31.914  27.451  27.238  1.00  0.00     0.027 A 
ATOM     24  C   UNL A   1      33.734  28.921  26.598  1.00  0.00     0.000 A 
ATOM     25  C   UNL A   1      32.516  28.713  27.253  1.00  0.00     0.002 A 
ENDBRANCH  13  16
ENDBRANCH   8  13
ENDBRANCH   4   7
ENDBRANCH   2   3
ENDBRANCH   1   2
BRANCH   1  26
ATOM     26  C   UNL A   1      31.841  31.980  26.764  1.00  0.00     0.118 C 
BRANCH  26  27
ATOM     27  N   UNL A   1      31.989  33.355  27.228  1.00  0.00    -0.352 N 
ATOM     28  C   UNL A   1      32.981  33.970  27.958  1.00  0.00     0.251 C 
ATOM     29  H   UNL A   1      31.247  33.949  26.974  1.00  0.00     0.163 HD
ATOM     30  O   UNL A   1      32.815  35.120  28.356  1.00  0.00    -0.269 OA
BRANCH  28  31
ATOM     31  C   UNL A   1      34.219  33.245  28.321  1.00  0.00     0.039 A 
ATOM     32  C   UNL A   1      34.184  31.912  28.720  1.00  0.00     0.014 A 
ATOM     33  C   UNL A   1      35.447  33.915  28.266  1.00  0.00     0.014 A 
ATOM     34  C   UNL A   1      35.306  31.337  29.302  1.00  0.00     0.010 A 
ATOM     35  C   UNL A   1      36.607  33.286  28.733  1.00  0.00     0.010 A 
ATOM     36  C   UNL A   1      36.532  32.019  29.328  1.00  0.00    -0.014 A 
BRANCH  36  37
ATOM     37  C   UNL A   1      37.698  31.396  30.013  1.00  0.00     0.031 A 
ATOM     38  C   UNL A   1      37.961  31.658  31.475  1.00  0.00     0.074 A 
ATOM     39  C   UNL A   1      38.477  30.526  29.340  1.00  0.00     0.049 A 
ATOM     40  N   UNL A   1      38.912  31.184  32.242  1.00  0.00    -0.248 NA
ATOM     41  C   UNL A   1      37.042  32.576  32.164  1.00  0.00     0.031 C 
ATOM     42  C   UNL A   1      38.318  30.166  27.930  1.00  0.00     0.029 A 
ATOM     43  N   UNL A   1      39.533  29.758  29.760  1.00  0.00    -0.354 N 
ATOM     44  C   UNL A   1      38.726  31.771  33.488  1.00  0.00     0.074 A 
ATOM     45  C   UNL A   1      37.588  32.656  33.369  1.00  0.00     0.031 C 
ATOM     46  C   UNL A   1      39.188  29.193  27.623  1.00  0.00     0.029 A 
ATOM     47  C   UNL A   1      40.021  28.919  28.788  1.00  0.00     0.049 A 
ATOM     48  H   UNL A   1      39.905  29.804  30.671  1.00  0.00     0.167 HD
ATOM     49  C   UNL A   1      39.431  31.584  34.631  1.00  0.00     0.037 A 
ATOM     50  C   UNL A   1      41.037  28.038  28.823  1.00  0.00     0.037 A 
ATOM     51  C   UNL A   1      40.545  30.680  34.760  1.00  0.00     0.049 A 
ATOM     52  C   UNL A   1      41.837  27.893  30.084  1.00  0.00     0.074 A 
ATOM     53  C   UNL A   1      41.299  30.392  35.884  1.00  0.00     0.029 A 
ATOM     54  N   UNL A   1      41.066  29.918  33.725  1.00  0.00    -0.354 N 
ATOM     55  N   UNL A   1      41.648  28.455  31.252  1.00  0.00    -0.248 NA
ATOM     56  C   UNL A   1      43.008  27.009  30.020  1.00  0.00     0.031 C 
ATOM     57  C   UNL A   1      42.305  29.490  35.518  1.00  0.00     0.029 A 
ATOM     58  C   UNL A   1      42.151  29.183  34.177  1.00  0.00     0.049 A 
ATOM     59  H   UNL A   1      40.715  29.901  32.805  1.00  0.00     0.167 HD
ATOM     60  C   UNL A   1      42.671  27.989  32.066  1.00  0.00     0.074 A 
ATOM     61  C   UNL A   1      43.462  27.077  31.263  1.00  0.00     0.031 C 
ATOM     62  C   UNL A   1      42.937  28.293  33.361  1.00  0.00     0.037 A 
BRANCH  49  63
ATOM     63  C   UNL A   1      39.035  32.406  35.825  1.00  0.00     0.057 A 
ATOM     64  C   UNL A   1      38.194  31.869  36.809  1.00  0.00     0.134 A 
ATOM     65  C   UNL A   1      39.476  33.725  36.006  1.00  0.00     0.134 A 
ATOM     66  F   UNL A   1      37.728  30.616  36.697  1.00  0.00    -0.206 F 
ATOM     67  C   UNL A   1      37.814  32.609  37.931  1.00  0.00     0.040 A 
ATOM     68  C   UNL A   1      39.123  34.465  37.136  1.00  0.00     0.040 A 
ATOM     69  F   UNL A   1      40.295  34.297  35.109  1.00  0.00    -0.206 F 
ATOM     70  C   UNL A   1      38.287  33.908  38.102  1.00  0.00     0.006 A 
ENDBRANCH  49  63
BRANCH  50  71
ATOM     71  C   UNL A   1      41.363  27.235  27.619  1.00  0.00     0.057 A 
ATOM     72  C   UNL A   1      40.851  25.944  27.439  1.00  0.00     0.134 A 
ATOM     73  C   UNL A   1      42.199  27.745  26.620  1.00  0.00     0.134 A 
ATOM     74  F   UNL A   1      40.045  25.401  28.363  1.00  0.00    -0.206 F 
ATOM     75  C   UNL A   1      41.175  25.180  26.318  1.00  0.00     0.040 A 
ATOM     76  C   UNL A   1      42.511  27.001  25.480  1.00  0.00     0.040 A 
ATOM     77  F   UNL A   1      42.702  28.983  26.725  1.00  0.00    -0.206 F 
ATOM     78  C   UNL A   1      42.003  25.711  25.332  1.00  0.00     0.006 A 
ENDBRANCH  50  71
BRANCH  62  79
ATOM     79  C   UNL A   1      44.126  27.621  33.978  1.00  0.00     0.057 A 
ATOM     80  C   UNL A   1      45.385  28.235  33.964  1.00  0.00     0.134 A 
ATOM     81  C   UNL A   1      44.025  26.364  34.590  1.00  0.00     0.134 A 
ATOM     82  F   UNL A   1      45.550  29.436  33.389  1.00  0.00    -0.206 F 
ATOM     83  C   UNL A   1      46.499  27.626  34.540  1.00  0.00     0.040 A 
ATOM     84  C   UNL A   1      45.127  25.757  35.193  1.00  0.00     0.040 A 
ATOM     85  F   UNL A   1      42.844  25.733  34.653  1.00  0.00    -0.206 F 
ATOM     86  C   UNL A   1      46.370  26.386  35.165  1.00  0.00     0.006 A 
ENDBRANCH  62  79
ENDBRANCH  36  37
ENDBRANCH  28  31
ENDBRANCH  26  27
ENDBRANCH   1  26
TORSDOF 12
ENDMDL
MODEL 2
REMARK VINA RESULT:     -12.7      2.566      7.612
REMARK SMILES C[C@@H]1Cc2ccccc2N1S(=O)(=O)c1cccc(C(=O)NCCCNC(=O)c2ccc(-c3c4nc(c(-c5c(F)cccc5F)c5ccc([nH]5)c(-c5c(F)cccc5F)c5nc(c(-c6c(F)cccc6F)c6ccc3[nH]6)C=C5)C=C4)cc2)c1
REMARK SMILES IDX 23 1 22 2 21 3 19 4 20 5 18 7 14 8 15 9 82 10 16 11 17 12
REMARK SMILES IDX 11 13 12 14 13 15 10 16 1 17 2 18 3 19 4 20 9 21 5 22 8 23
REMARK SMILES IDX 6 24 7 25 24 26 25 27 26 28 27 30 28 31 29 32 81 33 30 34
REMARK SMILES IDX 80 35 31 36 32 37 33 38 74 39 34 40 79 41 73 42 75 43 35 44
REMARK SMILES IDX 78 45 72 46 71 47 36 49 62 50 45 51 61 52 46 53 49 54 60 55
REMARK SMILES IDX 76 56 47 57 48 58 59 60 77 61 50 62 37 63 38 64 43 65 39 66
REMARK SMILES IDX 40 67 42 68 44 69 41 70 63 71 64 72 69 73 65 74 66 75 68 76
REMARK SMILES IDX 70 77 67 78 51 79 52 80 57 81 53 82 54 83 56 84 58 85 55 86
REMARK H PARENT 21 6 25 29 75 48 49 59
REMARK Flexibility Score: inf
ROOT
ATOM      1  C   UNL A   1      37.343  22.968  25.071  1.00  0.00     0.042 C 
ENDROOT
BRANCH   1   2
ATOM      2  C   UNL A   1      36.648  21.657  25.414  1.00  0.00     0.118 C 
BRANCH   2   3
ATOM      3  N   UNL A   1      35.682  21.768  26.497  1.00  0.00    -0.352 N 
ATOM      4  C   UNL A   1      34.466  22.382  26.655  1.00  0.00     0.251 C 
ATOM      5  O   UNL A   1      33.915  22.231  27.747  1.00  0.00    -0.269 OA
ATOM      6  H   UNL A   1      35.970  21.290  27.308  1.00  0.00     0.163 HD
BRANCH   4   7
ATOM      7  C   UNL A   1      33.812  23.259  25.641  1.00  0.00     0.041 A 
ATOM      8  C   UNL A   1      32.412  25.093  24.942  1.00  0.00     0.088 A 
ATOM      9  C   UNL A   1      32.397  24.633  23.624  1.00  0.00     0.022 A 
ATOM     10  C   UNL A   1      33.215  24.487  25.912  1.00  0.00     0.036 A 
ATOM     11  C   UNL A   1      33.091  23.471  23.309  1.00  0.00     0.002 A 
ATOM     12  C   UNL A   1      33.758  22.770  24.319  1.00  0.00     0.014 A 
BRANCH   8  13
ATOM     13  S   UNL A   1      31.300  26.390  25.420  1.00  0.00     0.264 S 
ATOM     14  O   UNL A   1      31.244  26.405  26.866  1.00  0.00    -0.201 OA
ATOM     15  O   UNL A   1      30.082  26.220  24.644  1.00  0.00    -0.201 OA
BRANCH  13  16
ATOM     16  N   UNL A   1      32.028  27.871  24.884  1.00  0.00    -0.263 N 
ATOM     17  C   UNL A   1      31.027  28.929  22.862  1.00  0.00     0.032 C 
ATOM     18  C   UNL A   1      30.958  28.839  24.380  1.00  0.00     0.101 C 
ATOM     19  C   UNL A   1      31.214  30.202  25.064  1.00  0.00     0.063 C 
ATOM     20  C   UNL A   1      32.362  29.920  25.970  1.00  0.00    -0.021 A 
ATOM     21  C   UNL A   1      32.830  28.623  25.813  1.00  0.00     0.055 A 
ATOM     22  C   UNL A   1      32.986  30.816  26.832  1.00  0.00     0.006 A 
ATOM     23  C   UNL A   1      34.026  28.250  26.403  1.00  0.00     0.027 A 
ATOM     24  C   UNL A   1      34.130  30.403  27.513  1.00  0.00     0.000 A 
ATOM     25  C   UNL A   1      34.662  29.131  27.283  1.00  0.00     0.002 A 
ENDBRANCH  13  16
ENDBRANCH   8  13
ENDBRANCH   4   7
ENDBRANCH   2   3
ENDBRANCH   1   2
BRANCH   1  26
ATOM     26  C   UNL A   1      38.092  23.609  26.227  1.00  0.00     0.118 C 
BRANCH  26  27
ATOM     27  N   UNL A   1      39.541  23.471  26.131  1.00  0.00    -0.352 N 
ATOM     28  C   UNL A   1      40.567  24.263  26.596  1.00  0.00     0.251 C 
ATOM     29  H   UNL A   1      39.838  22.667  25.647  1.00  0.00     0.163 HD
ATOM     30  O   UNL A   1      41.722  24.013  26.264  1.00  0.00    -0.269 OA
BRANCH  28  31
ATOM     31  C   UNL A   1      40.291  25.447  27.440  1.00  0.00     0.039 A 
ATOM     32  C   UNL A   1      40.989  26.638  27.263  1.00  0.00     0.014 A 
ATOM     33  C   UNL A   1      39.314  25.364  28.439  1.00  0.00     0.014 A 
ATOM     34  C   UNL A   1      40.904  27.637  28.224  1.00  0.00     0.010 A 
ATOM     35  C   UNL A   1      39.136  26.428  29.331  1.00  0.00     0.010 A 
ATOM     36  C   UNL A   1      39.985  27.542  29.279  1.00  0.00    -0.014 A 
BRANCH  36  37
ATOM     37  C   UNL A   1      39.962  28.603  30.324  1.00  0.00     0.031 A 
ATOM     38  C   UNL A   1      38.943  29.713  30.271  1.00  0.00     0.074 A 
ATOM     39  C   UNL A   1      40.807  28.523  31.371  1.00  0.00     0.049 A 
ATOM     40  N   UNL A   1      38.757  30.706  31.106  1.00  0.00    -0.248 NA
ATOM     41  C   UNL A   1      38.014  29.713  29.131  1.00  0.00     0.031 C 
ATOM     42  C   UNL A   1      41.826  27.488  31.556  1.00  0.00     0.029 A 
ATOM     43  N   UNL A   1      40.920  29.302  32.494  1.00  0.00    -0.354 N 
ATOM     44  C   UNL A   1      37.720  31.464  30.574  1.00  0.00     0.074 A 
ATOM     45  C   UNL A   1      37.333  30.831  29.332  1.00  0.00     0.031 C 
ATOM     46  C   UNL A   1      42.405  27.649  32.755  1.00  0.00     0.029 A 
ATOM     47  C   UNL A   1      41.858  28.844  33.387  1.00  0.00     0.049 A 
ATOM     48  H   UNL A   1      40.381  30.112  32.645  1.00  0.00     0.167 HD
ATOM     49  C   UNL A   1      37.136  32.578  31.076  1.00  0.00     0.037 A 
ATOM     50  C   UNL A   1      42.248  29.338  34.576  1.00  0.00     0.037 A 
ATOM     51  C   UNL A   1      37.498  33.192  32.328  1.00  0.00     0.049 A 
ATOM     52  C   UNL A   1      41.625  30.605  35.081  1.00  0.00     0.074 A 
ATOM     53  C   UNL A   1      36.941  34.300  32.942  1.00  0.00     0.029 A 
ATOM     54  N   UNL A   1      38.518  32.749  33.158  1.00  0.00    -0.354 N 
ATOM     55  N   UNL A   1      40.647  31.308  34.566  1.00  0.00    -0.248 NA
ATOM     56  C   UNL A   1      42.181  31.159  36.322  1.00  0.00     0.031 C 
ATOM     57  C   UNL A   1      37.653  34.554  34.120  1.00  0.00     0.029 A 
ATOM     58  C   UNL A   1      38.625  33.579  34.262  1.00  0.00     0.049 A 
ATOM     59  H   UNL A   1      39.081  31.960  32.986  1.00  0.00     0.167 HD
ATOM     60  C   UNL A   1      40.463  32.385  35.423  1.00  0.00     0.074 A 
ATOM     61  C   UNL A   1      41.416  32.226  36.504  1.00  0.00     0.031 C 
ATOM     62  C   UNL A   1      39.590  33.417  35.320  1.00  0.00     0.037 A 
BRANCH  49  63
ATOM     63  C   UNL A   1      36.062  33.226  30.247  1.00  0.00     0.057 A 
ATOM     64  C   UNL A   1      36.399  33.986  29.119  1.00  0.00     0.134 A 
ATOM     65  C   UNL A   1      34.701  33.106  30.559  1.00  0.00     0.134 A 
ATOM     66  F   UNL A   1      37.683  34.149  28.766  1.00  0.00    -0.206 F 
ATOM     67  C   UNL A   1      35.423  34.595  28.328  1.00  0.00     0.040 A 
ATOM     68  C   UNL A   1      33.714  33.690  29.761  1.00  0.00     0.040 A 
ATOM     69  F   UNL A   1      34.307  32.381  31.618  1.00  0.00    -0.206 F 
ATOM     70  C   UNL A   1      34.074  34.440  28.643  1.00  0.00     0.006 A 
ENDBRANCH  49  63
BRANCH  50  71
ATOM     71  C   UNL A   1      43.294  28.639  35.361  1.00  0.00     0.057 A 
ATOM     72  C   UNL A   1      42.967  27.663  36.312  1.00  0.00     0.134 A 
ATOM     73  C   UNL A   1      44.650  28.934  35.178  1.00  0.00     0.134 A 
ATOM     74  F   UNL A   1      41.685  27.338  36.533  1.00  0.00    -0.206 F 
ATOM     75  C   UNL A   1      43.948  27.021  37.067  1.00  0.00     0.040 A 
ATOM     76  C   UNL A   1      45.643  28.280  35.908  1.00  0.00     0.040 A 
ATOM     77  F   UNL A   1      45.027  29.842  34.267  1.00  0.00    -0.206 F 
ATOM     78  C   UNL A   1      45.292  27.325  36.862  1.00  0.00     0.006 A 
ENDBRANCH  50  71
BRANCH  62  79
ATOM     79  C   UNL A   1      39.628  34.440  36.415  1.00  0.00     0.057 A 
ATOM     80  C   UNL A   1      38.876  34.268  37.585  1.00  0.00     0.134 A 
ATOM     81  C   UNL A   1      40.411  35.597  36.313  1.00  0.00     0.134 A 
ATOM     82  F   UNL A   1      38.101  33.184  37.743  1.00  0.00    -0.206 F 
ATOM     83  C   UNL A   1      38.907  35.207  38.615  1.00  0.00     0.040 A 
ATOM     84  C   UNL A   1      40.470  36.531  37.349  1.00  0.00     0.040 A 
ATOM     85  F   UNL A   1      41.168  35.812  35.227  1.00  0.00    -0.206 F 
ATOM     86  C   UNL A   1      39.712  36.339  38.503  1.00  0.00     0.006 A 
ENDBRANCH  62  79
ENDBRANCH  36  37
ENDBRANCH  28  31
ENDBRANCH  26  27
ENDBRANCH   1  26
TORSDOF 12
ENDMDL
MODEL 3
REMARK VINA RESULT:     -12.7      4.501      8.114
REMARK SMILES C[C@@H]1Cc2ccccc2N1S(=O)(=O)c1cccc(C(=O)NCCCNC(=O)c2ccc(-c3c4nc(c(-c5c(F)cccc5F)c5ccc([nH]5)c(-c5c(F)cccc5F)c5nc(c(-c6c(F)cccc6F)c6ccc3[nH]6)C=C5)C=C4)cc2)c1
REMARK SMILES IDX 23 1 22 2 21 3 19 4 20 5 18 7 14 8 15 9 82 10 16 11 17 12
REMARK SMILES IDX 11 13 12 14 13 15 10 16 1 17 2 18 3 19 4 20 9 21 5 22 8 23
REMARK SMILES IDX 6 24 7 25 24 26 25 27 26 28 27 30 28 31 29 32 81 33 30 34
REMARK SMILES IDX 80 35 31 36 32 37 33 38 74 39 34 40 79 41 73 42 75 43 35 44
REMARK SMILES IDX 78 45 72 46 71 47 36 49 62 50 45 51 61 52 46 53 49 54 60 55
REMARK SMILES IDX 76 56 47 57 48 58 59 60 77 61 50 62 37 63 38 64 43 65 39 66
REMARK SMILES IDX 40 67 42 68 44 69 41 70 63 71 64 72 69 73 65 74 66 75 68 76
REMARK SMILES IDX 70 77 67 78 51 79 52 80 57 81 53 82 54 83 56 84 58 85 55 86
REMARK H PARENT 21 6 25 29 75 48 49 59
REMARK Flexibility Score: inf
ROOT
ATOM      1  C   UNL A   1      33.365  29.485  27.252  1.00  0.00     0.042 C 
ENDROOT
BRANCH   1   2
ATOM      2  C   UNL A   1      32.551  29.899  26.034  1.00  0.00     0.118 C 
BRANCH   2   3
ATOM      3  N   UNL A   1      33.229  29.668  24.766  1.00  0.00    -0.352 N 
ATOM      4  C   UNL A   1      33.395  28.589  23.936  1.00  0.00     0.251 C 
ATOM      5  O   UNL A   1      34.037  28.788  22.903  1.00  0.00    -0.269 OA
ATOM      6  H   UNL A   1      33.674  30.477  24.425  1.00  0.00     0.163 HD
BRANCH   4   7
ATOM      7  C   UNL A   1      32.921  27.205  24.226  1.00  0.00     0.041 A 
ATOM      8  C   UNL A   1      33.061  24.800  24.125  1.00  0.00     0.088 A 
ATOM      9  C   UNL A   1      31.748  24.664  24.578  1.00  0.00     0.022 A 
ATOM     10  C   UNL A   1      33.684  26.051  24.074  1.00  0.00     0.036 A 
ATOM     11  C   UNL A   1      31.008  25.807  24.853  1.00  0.00     0.002 A 
ATOM     12  C   UNL A   1      31.579  27.066  24.639  1.00  0.00     0.014 A 
BRANCH   8  13
ATOM     13  S   UNL A   1      33.912  23.379  23.489  1.00  0.00     0.264 S 
ATOM     14  O   UNL A   1      35.055  23.854  22.740  1.00  0.00    -0.201 OA
ATOM     15  O   UNL A   1      32.917  22.535  22.847  1.00  0.00    -0.201 OA
BRANCH  13  16
ATOM     16  N   UNL A   1      34.488  22.503  24.871  1.00  0.00    -0.263 N 
ATOM     17  C   UNL A   1      33.173  20.494  25.536  1.00  0.00     0.032 C 
ATOM     18  C   UNL A   1      34.311  20.999  24.661  1.00  0.00     0.101 C 
ATOM     19  C   UNL A   1      35.661  20.327  25.002  1.00  0.00     0.063 C 
ATOM     20  C   UNL A   1      36.549  21.481  25.314  1.00  0.00    -0.021 A 
ATOM     21  C   UNL A   1      35.856  22.682  25.282  1.00  0.00     0.055 A 
ATOM     22  C   UNL A   1      37.891  21.429  25.676  1.00  0.00     0.006 A 
ATOM     23  C   UNL A   1      36.457  23.834  25.763  1.00  0.00     0.027 A 
ATOM     24  C   UNL A   1      38.529  22.610  26.054  1.00  0.00     0.000 A 
ATOM     25  C   UNL A   1      37.808  23.806  26.119  1.00  0.00     0.002 A 
ENDBRANCH  13  16
ENDBRANCH   8  13
ENDBRANCH   4   7
ENDBRANCH   2   3
ENDBRANCH   1   2
BRANCH   1  26
ATOM     26  C   UNL A   1      34.681  30.225  27.416  1.00  0.00     0.118 C 
BRANCH  26  27
ATOM     27  N   UNL A   1      34.858  30.815  28.739  1.00  0.00    -0.352 N 
ATOM     28  C   UNL A   1      35.882  30.716  29.653  1.00  0.00     0.251 C 
ATOM     29  H   UNL A   1      34.110  31.384  29.029  1.00  0.00     0.163 HD
ATOM     30  O   UNL A   1      35.740  31.194  30.776  1.00  0.00    -0.269 OA
BRANCH  28  31
ATOM     31  C   UNL A   1      37.129  29.989  29.324  1.00  0.00     0.039 A 
ATOM     32  C   UNL A   1      37.827  29.278  30.295  1.00  0.00     0.014 A 
ATOM     33  C   UNL A   1      37.615  30.023  28.012  1.00  0.00     0.014 A 
ATOM     34  C   UNL A   1      39.115  28.831  30.030  1.00  0.00     0.010 A 
ATOM     35  C   UNL A   1      38.859  29.455  27.714  1.00  0.00     0.010 A 
ATOM     36  C   UNL A   1      39.656  28.923  28.738  1.00  0.00    -0.014 A 
BRANCH  36  37
ATOM     37  C   UNL A   1      41.060  28.489  28.503  1.00  0.00     0.031 A 
ATOM     38  C   UNL A   1      41.371  27.066  28.113  1.00  0.00     0.074 A 
ATOM     39  C   UNL A   1      42.055  29.397  28.557  1.00  0.00     0.049 A 
ATOM     40  N   UNL A   1      42.529  26.515  27.844  1.00  0.00    -0.248 NA
ATOM     41  C   UNL A   1      40.234  26.137  28.019  1.00  0.00     0.031 C 
ATOM     42  C   UNL A   1      41.889  30.811  28.899  1.00  0.00     0.029 A 
ATOM     43  N   UNL A   1      43.395  29.277  28.291  1.00  0.00    -0.354 N 
ATOM     44  C   UNL A   1      42.265  25.175  27.586  1.00  0.00     0.074 A 
ATOM     45  C   UNL A   1      40.840  24.989  27.753  1.00  0.00     0.031 C 
ATOM     46  C   UNL A   1      43.062  31.442  28.745  1.00  0.00     0.029 A 
ATOM     47  C   UNL A   1      44.080  30.465  28.376  1.00  0.00     0.049 A 
ATOM     48  H   UNL A   1      43.824  28.421  28.061  1.00  0.00     0.167 HD
ATOM     49  C   UNL A   1      43.126  24.191  27.230  1.00  0.00     0.037 A 
ATOM     50  C   UNL A   1      45.384  30.737  28.192  1.00  0.00     0.037 A 
ATOM     51  C   UNL A   1      44.540  24.381  27.031  1.00  0.00     0.049 A 
ATOM     52  C   UNL A   1      46.325  29.618  27.856  1.00  0.00     0.074 A 
ATOM     53  C   UNL A   1      45.489  23.455  26.634  1.00  0.00     0.029 A 
ATOM     54  N   UNL A   1      45.208  25.582  27.218  1.00  0.00    -0.354 N 
ATOM     55  N   UNL A   1      46.059  28.359  27.615  1.00  0.00    -0.248 NA
ATOM     56  C   UNL A   1      47.752  29.959  27.792  1.00  0.00     0.031 C 
ATOM     57  C   UNL A   1      46.739  24.086  26.625  1.00  0.00     0.029 A 
ATOM     58  C   UNL A   1      46.562  25.414  26.975  1.00  0.00     0.049 A 
ATOM     59  H   UNL A   1      44.782  26.428  27.485  1.00  0.00     0.167 HD
ATOM     60  C   UNL A   1      47.283  27.754  27.364  1.00  0.00     0.074 A 
ATOM     61  C   UNL A   1      48.289  28.794  27.456  1.00  0.00     0.031 C 
ATOM     62  C   UNL A   1      47.552  26.454  27.088  1.00  0.00     0.037 A 
BRANCH  49  63
ATOM     63  C   UNL A   1      42.560  22.807  27.069  1.00  0.00     0.057 A 
ATOM     64  C   UNL A   1      42.383  22.258  25.793  1.00  0.00     0.134 A 
ATOM     65  C   UNL A   1      42.187  22.019  28.167  1.00  0.00     0.134 A 
ATOM     66  F   UNL A   1      42.713  22.959  24.697  1.00  0.00    -0.206 F 
ATOM     67  C   UNL A   1      41.864  20.973  25.614  1.00  0.00     0.040 A 
ATOM     68  C   UNL A   1      41.691  20.724  28.001  1.00  0.00     0.040 A 
ATOM     69  F   UNL A   1      42.343  22.478  29.418  1.00  0.00    -0.206 F 
ATOM     70  C   UNL A   1      41.525  20.199  26.721  1.00  0.00     0.006 A 
ENDBRANCH  49  63
BRANCH  50  71
ATOM     71  C   UNL A   1      45.878  32.128  28.339  1.00  0.00     0.057 A 
ATOM     72  C   UNL A   1      46.317  32.622  29.575  1.00  0.00     0.134 A 
ATOM     73  C   UNL A   1      45.920  32.997  27.244  1.00  0.00     0.134 A 
ATOM     74  F   UNL A   1      46.300  31.837  30.662  1.00  0.00    -0.206 F 
ATOM     75  C   UNL A   1      46.761  33.936  29.719  1.00  0.00     0.040 A 
ATOM     76  C   UNL A   1      46.386  34.307  27.369  1.00  0.00     0.040 A 
ATOM     77  F   UNL A   1      45.533  32.576  26.032  1.00  0.00    -0.206 F 
ATOM     78  C   UNL A   1      46.801  34.781  28.613  1.00  0.00     0.006 A 
ENDBRANCH  50  71
BRANCH  62  79
ATOM     79  C   UNL A   1      48.991  26.100  26.859  1.00  0.00     0.057 A 
ATOM     80  C   UNL A   1      49.574  26.250  25.595  1.00  0.00     0.134 A 
ATOM     81  C   UNL A   1      49.800  25.612  27.893  1.00  0.00     0.134 A 
ATOM     82  F   UNL A   1      48.852  26.708  24.561  1.00  0.00    -0.206 F 
ATOM     83  C   UNL A   1      50.913  25.932  25.368  1.00  0.00     0.040 A 
ATOM     84  C   UNL A   1      51.148  25.315  27.685  1.00  0.00     0.040 A 
ATOM     85  F   UNL A   1      49.306  25.463  29.131  1.00  0.00    -0.206 F 
ATOM     86  C   UNL A   1      51.707  25.471  26.418  1.00  0.00     0.006 A 
ENDBRANCH  62  79
ENDBRANCH  36  37
ENDBRANCH  28  31
ENDBRANCH  26  27
ENDBRANCH   1  26
TORSDOF 12
ENDMDL
