MODEL 1
REMARK VINA RESULT:     -12.3      0.000      0.000
REMARK SMILES O=C(NCCCNC(=O)[C@@H]1CC[C@@H](CN2C(=O)CC3(CCCC3)CC2=O)O1)c1ccc(-c2c3nc(c(-c4c(F)cccc4F)c4ccc([nH]4)c(-c4c(F)cccc4F)c4nc(c(-c5c(F)cccc5F)c5ccc2[nH]5)C=C4)C=C3)cc1
REMARK SMILES IDX 5 1 4 2 3 3 1 4 2 5 28 7 29 8 81 9 30 10 80 11 31 12 32 13
REMARK SMILES IDX 33 14 74 15 34 16 79 17 73 18 75 19 35 20 78 21 72 22 71 23
REMARK SMILES IDX 36 25 62 26 45 27 61 28 46 29 49 30 60 31 76 32 47 33 48 34
REMARK SMILES IDX 59 36 77 37 50 38 37 39 38 40 43 41 39 42 40 43 42 44 44 45
REMARK SMILES IDX 41 46 63 47 64 48 69 49 65 50 66 51 68 52 70 53 67 54 51 55
REMARK SMILES IDX 52 56 57 57 53 58 54 59 56 60 58 61 55 62 6 63 7 64 8 65
REMARK SMILES IDX 9 67 10 68 11 69 27 70 12 71 13 72 14 73 15 74 16 75 25 76
REMARK SMILES IDX 17 77 18 78 24 79 26 80 19 81 20 82 23 83 21 84 22 85
REMARK H PARENT 3 6 75 24 49 35 7 66
REMARK Flexibility Score: inf
ROOT
ATOM      1  C   UNL A   1      37.356  19.598  24.985  1.00  0.00     0.042 C 
ENDROOT
BRANCH   1   2
ATOM      2  C   UNL A   1      38.613  20.282  25.490  1.00  0.00     0.118 C 
BRANCH   2   3
ATOM      3  N   UNL A   1      39.724  19.353  25.672  1.00  0.00    -0.352 N 
ATOM      4  O   UNL A   1      41.856  18.678  25.930  1.00  0.00    -0.269 OA
ATOM      5  C   UNL A   1      41.027  19.569  26.055  1.00  0.00     0.251 C 
ATOM      6  H   UNL A   1      39.503  18.411  25.491  1.00  0.00     0.163 HD
BRANCH   5   7
ATOM      7  C   UNL A   1      41.430  20.884  26.594  1.00  0.00     0.039 A 
ATOM      8  C   UNL A   1      41.321  21.151  27.957  1.00  0.00     0.014 A 
ATOM      9  C   UNL A   1      41.945  21.858  25.731  1.00  0.00     0.014 A 
ATOM     10  C   UNL A   1      41.527  22.437  28.428  1.00  0.00     0.010 A 
ATOM     11  C   UNL A   1      42.286  23.117  26.233  1.00  0.00     0.010 A 
ATOM     12  C   UNL A   1      42.048  23.426  27.580  1.00  0.00    -0.014 A 
BRANCH  12  13
ATOM     13  C   UNL A   1      42.414  24.740  28.164  1.00  0.00     0.031 A 
ATOM     14  C   UNL A   1      43.833  25.068  28.528  1.00  0.00     0.074 A 
ATOM     15  C   UNL A   1      41.439  25.658  28.322  1.00  0.00     0.049 A 
ATOM     16  N   UNL A   1      44.315  26.174  29.035  1.00  0.00    -0.248 NA
ATOM     17  C   UNL A   1      44.843  24.021  28.302  1.00  0.00     0.031 C 
ATOM     18  C   UNL A   1      40.024  25.446  28.004  1.00  0.00     0.029 A 
ATOM     19  N   UNL A   1      41.487  26.955  28.759  1.00  0.00    -0.354 N 
ATOM     20  C   UNL A   1      45.675  25.953  29.208  1.00  0.00     0.074 A 
ATOM     21  C   UNL A   1      45.940  24.597  28.776  1.00  0.00     0.031 C 
ATOM     22  C   UNL A   1      39.352  26.589  28.193  1.00  0.00     0.029 A 
ATOM     23  C   UNL A   1      40.268  27.588  28.726  1.00  0.00     0.049 A 
ATOM     24  H   UNL A   1      42.315  27.392  29.066  1.00  0.00     0.167 HD
ATOM     25  C   UNL A   1      46.615  26.809  29.679  1.00  0.00     0.037 A 
ATOM     26  C   UNL A   1      39.917  28.828  29.108  1.00  0.00     0.037 A 
ATOM     27  C   UNL A   1      46.339  28.161  30.096  1.00  0.00     0.049 A 
ATOM     28  C   UNL A   1      40.971  29.736  29.664  1.00  0.00     0.074 A 
ATOM     29  C   UNL A   1      47.225  29.115  30.568  1.00  0.00     0.029 A 
ATOM     30  N   UNL A   1      45.083  28.751  30.094  1.00  0.00    -0.354 N 
ATOM     31  N   UNL A   1      42.256  29.518  29.808  1.00  0.00    -0.248 NA
ATOM     32  C   UNL A   1      40.526  31.058  30.121  1.00  0.00     0.031 C 
ATOM     33  C   UNL A   1      46.498  30.263  30.897  1.00  0.00     0.029 A 
ATOM     34  C   UNL A   1      45.166  30.047  30.579  1.00  0.00     0.049 A 
ATOM     35  H   UNL A   1      44.254  28.313  29.793  1.00  0.00     0.167 HD
ATOM     36  C   UNL A   1      42.778  30.680  30.355  1.00  0.00     0.074 A 
ATOM     37  C   UNL A   1      41.672  31.608  30.496  1.00  0.00     0.031 C 
ATOM     38  C   UNL A   1      44.056  30.956  30.712  1.00  0.00     0.037 A 
BRANCH  25  39
ATOM     39  C   UNL A   1      48.025  26.305  29.790  1.00  0.00     0.057 A 
ATOM     40  C   UNL A   1      48.521  25.735  30.969  1.00  0.00     0.134 A 
ATOM     41  C   UNL A   1      48.884  26.345  28.683  1.00  0.00     0.134 A 
ATOM     42  F   UNL A   1      47.756  25.676  32.070  1.00  0.00    -0.206 F 
ATOM     43  C   UNL A   1      49.826  25.241  31.050  1.00  0.00     0.040 A 
ATOM     44  C   UNL A   1      50.182  25.832  28.745  1.00  0.00     0.040 A 
ATOM     45  F   UNL A   1      48.473  26.871  27.520  1.00  0.00    -0.206 F 
ATOM     46  C   UNL A   1      50.657  25.282  29.933  1.00  0.00     0.006 A 
ENDBRANCH  25  39
BRANCH  26  47
ATOM     47  C   UNL A   1      38.504  29.266  28.989  1.00  0.00     0.057 A 
ATOM     48  C   UNL A   1      37.986  29.714  27.770  1.00  0.00     0.134 A 
ATOM     49  C   UNL A   1      37.637  29.232  30.088  1.00  0.00     0.134 A 
ATOM     50  F   UNL A   1      38.771  29.782  26.687  1.00  0.00    -0.206 F 
ATOM     51  C   UNL A   1      36.658  30.127  27.651  1.00  0.00     0.040 A 
ATOM     52  C   UNL A   1      36.300  29.613  29.976  1.00  0.00     0.040 A 
ATOM     53  F   UNL A   1      38.070  28.801  31.283  1.00  0.00    -0.206 F 
ATOM     54  C   UNL A   1      35.809  30.070  28.755  1.00  0.00     0.006 A 
ENDBRANCH  26  47
BRANCH  38  55
ATOM     55  C   UNL A   1      44.327  32.326  31.256  1.00  0.00     0.057 A 
ATOM     56  C   UNL A   1      44.292  32.596  32.630  1.00  0.00     0.134 A 
ATOM     57  C   UNL A   1      44.646  33.383  30.394  1.00  0.00     0.134 A 
ATOM     58  F   UNL A   1      43.976  31.631  33.505  1.00  0.00    -0.206 F 
ATOM     59  C   UNL A   1      44.540  33.877  33.126  1.00  0.00     0.040 A 
ATOM     60  C   UNL A   1      44.923  34.661  30.881  1.00  0.00     0.040 A 
ATOM     61  F   UNL A   1      44.703  33.189  29.069  1.00  0.00    -0.206 F 
ATOM     62  C   UNL A   1      44.863  34.912  32.250  1.00  0.00     0.006 A 
ENDBRANCH  38  55
ENDBRANCH  12  13
ENDBRANCH   5   7
ENDBRANCH   2   3
ENDBRANCH   1   2
BRANCH   1  63
ATOM     63  C   UNL A   1      36.146  20.510  24.979  1.00  0.00     0.117 C 
BRANCH  63  64
ATOM     64  N   UNL A   1      34.906  19.807  25.234  1.00  0.00    -0.354 N 
ATOM     65  C   UNL A   1      33.620  20.242  25.135  1.00  0.00     0.249 C 
ATOM     66  H   UNL A   1      35.008  18.872  25.523  1.00  0.00     0.163 HD
ATOM     67  O   UNL A   1      32.720  19.430  25.367  1.00  0.00    -0.272 OA
BRANCH  65  68
ATOM     68  C   UNL A   1      33.308  21.684  24.728  1.00  0.00     0.207 C 
ATOM     69  C   UNL A   1      32.002  22.234  25.274  1.00  0.00     0.045 C 
ATOM     70  O   UNL A   1      33.295  21.856  23.311  1.00  0.00    -0.363 OA
ATOM     71  C   UNL A   1      31.384  23.011  24.128  1.00  0.00     0.037 C 
ATOM     72  C   UNL A   1      32.347  22.870  22.950  1.00  0.00     0.139 C 
BRANCH  72  73
ATOM     73  C   UNL A   1      33.064  24.170  22.484  1.00  0.00     0.160 C 
BRANCH  73  74
ATOM     74  N   UNL A   1      32.938  25.250  23.461  1.00  0.00    -0.280 N 
ATOM     75  C   UNL A   1      32.134  26.333  23.168  1.00  0.00     0.229 C 
ATOM     76  C   UNL A   1      33.821  25.288  24.519  1.00  0.00     0.229 C 
ATOM     77  O   UNL A   1      31.744  26.602  22.033  1.00  0.00    -0.274 OA
ATOM     78  C   UNL A   1      31.625  27.127  24.351  1.00  0.00     0.108 C 
ATOM     79  C   UNL A   1      33.206  25.801  25.794  1.00  0.00     0.108 C 
ATOM     80  O   UNL A   1      34.968  24.855  24.483  1.00  0.00    -0.274 OA
ATOM     81  C   UNL A   1      32.500  27.136  25.611  1.00  0.00    -0.012 C 
ATOM     82  C   UNL A   1      31.596  27.425  26.842  1.00  0.00     0.008 C 
ATOM     83  C   UNL A   1      33.534  28.283  25.596  1.00  0.00     0.008 C 
ATOM     84  C   UNL A   1      32.261  28.565  27.592  1.00  0.00     0.001 C 
ATOM     85  C   UNL A   1      32.938  29.361  26.491  1.00  0.00     0.001 C 
ENDBRANCH  73  74
ENDBRANCH  72  73
ENDBRANCH  65  68
ENDBRANCH  63  64
ENDBRANCH   1  63
TORSDOF 12
ENDMDL
MODEL 2
REMARK VINA RESULT:     -12.2      0.222      6.179
REMARK SMILES O=C(NCCCNC(=O)[C@@H]1CC[C@@H](CN2C(=O)CC3(CCCC3)CC2=O)O1)c1ccc(-c2c3nc(c(-c4c(F)cccc4F)c4ccc([nH]4)c(-c4c(F)cccc4F)c4nc(c(-c5c(F)cccc5F)c5ccc2[nH]5)C=C4)C=C3)cc1
REMARK SMILES IDX 5 1 4 2 3 3 1 4 2 5 28 7 29 8 81 9 30 10 80 11 31 12 32 13
REMARK SMILES IDX 33 14 74 15 34 16 79 17 73 18 75 19 35 20 78 21 72 22 71 23
REMARK SMILES IDX 36 25 62 26 45 27 61 28 46 29 49 30 60 31 76 32 47 33 48 34
REMARK SMILES IDX 59 36 77 37 50 38 37 39 38 40 43 41 39 42 40 43 42 44 44 45
REMARK SMILES IDX 41 46 63 47 64 48 69 49 65 50 66 51 68 52 70 53 67 54 51 55
REMARK SMILES IDX 52 56 57 57 53 58 54 59 56 60 58 61 55 62 6 63 7 64 8 65
REMARK SMILES IDX 9 67 10 68 11 69 27 70 12 71 13 72 14 73 15 74 16 75 25 76
REMARK SMILES IDX 17 77 18 78 24 79 26 80 19 81 20 82 23 83 21 84 22 85
REMARK H PARENT 3 6 75 24 49 35 7 66
REMARK Flexibility Score: inf
ROOT
ATOM      1  C   UNL A   1      37.386  19.578  24.967  1.00  0.00     0.042 C 
ENDROOT
BRANCH   1   2
ATOM      2  C   UNL A   1      38.646  20.270  25.455  1.00  0.00     0.118 C 
BRANCH   2   3
ATOM      3  N   UNL A   1      39.750  19.339  25.670  1.00  0.00    -0.352 N 
ATOM      4  O   UNL A   1      41.876  18.660  25.965  1.00  0.00    -0.269 OA
ATOM      5  C   UNL A   1      41.050  19.558  26.061  1.00  0.00     0.251 C 
ATOM      6  H   UNL A   1      39.526  18.395  25.507  1.00  0.00     0.163 HD
BRANCH   5   7
ATOM      7  C   UNL A   1      41.454  20.883  26.575  1.00  0.00     0.039 A 
ATOM      8  C   UNL A   1      41.327  21.182  27.931  1.00  0.00     0.014 A 
ATOM      9  C   UNL A   1      41.987  21.832  25.698  1.00  0.00     0.014 A 
ATOM     10  C   UNL A   1      41.535  22.477  28.374  1.00  0.00     0.010 A 
ATOM     11  C   UNL A   1      42.330  23.101  26.176  1.00  0.00     0.010 A 
ATOM     12  C   UNL A   1      42.075  23.442  27.511  1.00  0.00    -0.014 A 
BRANCH  12  13
ATOM     13  C   UNL A   1      42.441  24.767  28.070  1.00  0.00     0.031 A 
ATOM     14  C   UNL A   1      41.406  25.830  28.308  1.00  0.00     0.074 A 
ATOM     15  C   UNL A   1      43.729  24.983  28.403  1.00  0.00     0.049 A 
ATOM     16  N   UNL A   1      41.563  27.032  28.800  1.00  0.00    -0.248 NA
ATOM     17  C   UNL A   1      40.018  25.508  27.941  1.00  0.00     0.031 C 
ATOM     18  C   UNL A   1      44.819  24.022  28.214  1.00  0.00     0.029 A 
ATOM     19  N   UNL A   1      44.338  26.058  28.994  1.00  0.00    -0.354 N 
ATOM     20  C   UNL A   1      40.304  27.618  28.785  1.00  0.00     0.074 A 
ATOM     21  C   UNL A   1      39.396  26.649  28.209  1.00  0.00     0.031 C 
ATOM     22  C   UNL A   1      45.946  24.522  28.738  1.00  0.00     0.029 A 
ATOM     23  C   UNL A   1      45.680  25.870  29.220  1.00  0.00     0.049 A 
ATOM     24  H   UNL A   1      43.860  26.885  29.235  1.00  0.00     0.167 HD
ATOM     25  C   UNL A   1      39.943  28.850  29.217  1.00  0.00     0.037 A 
ATOM     26  C   UNL A   1      46.604  26.699  29.735  1.00  0.00     0.037 A 
ATOM     27  C   UNL A   1      40.856  29.802  29.798  1.00  0.00     0.049 A 
ATOM     28  C   UNL A   1      46.181  28.071  30.165  1.00  0.00     0.074 A 
ATOM     29  C   UNL A   1      40.586  31.069  30.288  1.00  0.00     0.029 A 
ATOM     30  N   UNL A   1      42.218  29.594  29.966  1.00  0.00    -0.354 N 
ATOM     31  N   UNL A   1      44.983  28.606  30.158  1.00  0.00    -0.248 NA
ATOM     32  C   UNL A   1      47.237  28.959  30.665  1.00  0.00     0.031 C 
ATOM     33  C   UNL A   1      41.790  31.644  30.705  1.00  0.00     0.029 A 
ATOM     34  C   UNL A   1      42.804  30.717  30.528  1.00  0.00     0.049 A 
ATOM     35  H   UNL A   1      42.698  28.769  29.721  1.00  0.00     0.167 HD
ATOM     36  C   UNL A   1      45.138  29.885  30.668  1.00  0.00     0.074 A 
ATOM     37  C   UNL A   1      46.542  30.037  30.995  1.00  0.00     0.031 C 
ATOM     38  C   UNL A   1      44.203  30.850  30.848  1.00  0.00     0.037 A 
BRANCH  25  39
ATOM     39  C   UNL A   1      38.504  29.251  29.061  1.00  0.00     0.057 A 
ATOM     40  C   UNL A   1      37.606  29.233  30.136  1.00  0.00     0.134 A 
ATOM     41  C   UNL A   1      38.022  29.710  27.828  1.00  0.00     0.134 A 
ATOM     42  F   UNL A   1      37.997  28.793  31.342  1.00  0.00    -0.206 F 
ATOM     43  C   UNL A   1      36.277  29.637  29.986  1.00  0.00     0.040 A 
ATOM     44  C   UNL A   1      36.703  30.141  27.671  1.00  0.00     0.040 A 
ATOM     45  F   UNL A   1      38.829  29.761  26.757  1.00  0.00    -0.206 F 
ATOM     46  C   UNL A   1      35.826  30.101  28.752  1.00  0.00     0.006 A 
ENDBRANCH  25  39
BRANCH  26  47
ATOM     47  C   UNL A   1      48.014  26.254  29.851  1.00  0.00     0.057 A 
ATOM     48  C   UNL A   1      48.905  26.387  28.780  1.00  0.00     0.134 A 
ATOM     49  C   UNL A   1      48.508  25.699  31.037  1.00  0.00     0.134 A 
ATOM     50  F   UNL A   1      48.487  26.899  27.614  1.00  0.00    -0.206 F 
ATOM     51  C   UNL A   1      50.233  25.971  28.881  1.00  0.00     0.040 A 
ATOM     52  C   UNL A   1      49.841  25.306  31.162  1.00  0.00     0.040 A 
ATOM     53  F   UNL A   1      47.707  25.554  32.104  1.00  0.00    -0.206 F 
ATOM     54  C   UNL A   1      50.706  25.435  30.078  1.00  0.00     0.006 A 
ENDBRANCH  26  47
BRANCH  38  55
ATOM     55  C   UNL A   1      44.669  32.139  31.455  1.00  0.00     0.057 A 
ATOM     56  C   UNL A   1      45.135  33.201  30.670  1.00  0.00     0.134 A 
ATOM     57  C   UNL A   1      44.630  32.327  32.843  1.00  0.00     0.134 A 
ATOM     58  F   UNL A   1      45.212  33.078  29.336  1.00  0.00    -0.206 F 
ATOM     59  C   UNL A   1      45.572  34.395  31.245  1.00  0.00     0.040 A 
ATOM     60  C   UNL A   1      45.038  33.526  33.427  1.00  0.00     0.040 A 
ATOM     61  F   UNL A   1      44.189  31.352  33.650  1.00  0.00    -0.206 F 
ATOM     62  C   UNL A   1      45.518  34.562  32.628  1.00  0.00     0.006 A 
ENDBRANCH  38  55
ENDBRANCH  12  13
ENDBRANCH   5   7
ENDBRANCH   2   3
ENDBRANCH   1   2
BRANCH   1  63
ATOM     63  C   UNL A   1      36.171  20.483  24.981  1.00  0.00     0.117 C 
BRANCH  63  64
ATOM     64  N   UNL A   1      34.931  19.764  25.192  1.00  0.00    -0.354 N 
ATOM     65  C   UNL A   1      33.644  20.190  25.077  1.00  0.00     0.249 C 
ATOM     66  H   UNL A   1      35.036  18.822  25.460  1.00  0.00     0.163 HD
ATOM     67  O   UNL A   1      32.747  19.365  25.270  1.00  0.00    -0.272 OA
BRANCH  65  68
ATOM     68  C   UNL A   1      33.328  21.640  24.701  1.00  0.00     0.207 C 
ATOM     69  C   UNL A   1      32.066  22.203  25.330  1.00  0.00     0.045 C 
ATOM     70  O   UNL A   1      33.229  21.822  23.288  1.00  0.00    -0.363 OA
ATOM     71  C   UNL A   1      31.389  22.997  24.230  1.00  0.00     0.037 C 
ATOM     72  C   UNL A   1      32.276  22.852  22.994  1.00  0.00     0.139 C 
BRANCH  72  73
ATOM     73  C   UNL A   1      32.980  24.146  22.493  1.00  0.00     0.160 C 
BRANCH  73  74
ATOM     74  N   UNL A   1      32.884  25.236  23.461  1.00  0.00    -0.280 N 
ATOM     75  C   UNL A   1      32.070  26.316  23.181  1.00  0.00     0.229 C 
ATOM     76  C   UNL A   1      33.799  25.287  24.492  1.00  0.00     0.229 C 
ATOM     77  O   UNL A   1      31.646  26.572  22.056  1.00  0.00    -0.274 OA
ATOM     78  C   UNL A   1      31.596  27.123  24.370  1.00  0.00     0.108 C 
ATOM     79  C   UNL A   1      33.222  25.814  25.779  1.00  0.00     0.108 C 
ATOM     80  O   UNL A   1      34.944  24.854  24.425  1.00  0.00    -0.274 OA
ATOM     81  C   UNL A   1      32.510  27.146  25.602  1.00  0.00    -0.012 C 
ATOM     82  C   UNL A   1      31.644  27.449  26.857  1.00  0.00     0.008 C 
ATOM     83  C   UNL A   1      33.542  28.294  25.543  1.00  0.00     0.008 C 
ATOM     84  C   UNL A   1      32.331  28.597  27.574  1.00  0.00     0.001 C 
ATOM     85  C   UNL A   1      32.973  29.381  26.444  1.00  0.00     0.001 C 
ENDBRANCH  73  74
ENDBRANCH  72  73
ENDBRANCH  65  68
ENDBRANCH  63  64
ENDBRANCH   1  63
TORSDOF 12
ENDMDL
MODEL 3
REMARK VINA RESULT:     -12.2      4.414     10.187
REMARK SMILES O=C(NCCCNC(=O)[C@@H]1CC[C@@H](CN2C(=O)CC3(CCCC3)CC2=O)O1)c1ccc(-c2c3nc(c(-c4c(F)cccc4F)c4ccc([nH]4)c(-c4c(F)cccc4F)c4nc(c(-c5c(F)cccc5F)c5ccc2[nH]5)C=C4)C=C3)cc1
REMARK SMILES IDX 5 1 4 2 3 3 1 4 2 5 28 7 29 8 81 9 30 10 80 11 31 12 32 13
REMARK SMILES IDX 33 14 74 15 34 16 79 17 73 18 75 19 35 20 78 21 72 22 71 23
REMARK SMILES IDX 36 25 62 26 45 27 61 28 46 29 49 30 60 31 76 32 47 33 48 34
REMARK SMILES IDX 59 36 77 37 50 38 37 39 38 40 43 41 39 42 40 43 42 44 44 45
REMARK SMILES IDX 41 46 63 47 64 48 69 49 65 50 66 51 68 52 70 53 67 54 51 55
REMARK SMILES IDX 52 56 57 57 53 58 54 59 56 60 58 61 55 62 6 63 7 64 8 65
REMARK SMILES IDX 9 67 10 68 11 69 27 70 12 71 13 72 14 73 15 74 16 75 25 76
REMARK SMILES IDX 17 77 18 78 24 79 26 80 19 81 20 82 23 83 21 84 22 85
REMARK H PARENT 3 6 75 24 49 35 7 66
REMARK Flexibility Score: inf
ROOT
ATOM      1  C   UNL A   1      34.651  33.776  28.000  1.00  0.00     0.042 C 
ENDROOT
BRANCH   1   2
ATOM      2  C   UNL A   1      35.050  32.614  28.892  1.00  0.00     0.118 C 
BRANCH   2   3
ATOM      3  N   UNL A   1      34.356  31.377  28.545  1.00  0.00    -0.352 N 
ATOM      4  O   UNL A   1      34.088  29.294  27.736  1.00  0.00    -0.269 OA
ATOM      5  C   UNL A   1      34.841  30.136  28.207  1.00  0.00     0.251 C 
ATOM      6  H   UNL A   1      33.374  31.442  28.556  1.00  0.00     0.163 HD
BRANCH   5   7
ATOM      7  C   UNL A   1      36.274  29.827  28.392  1.00  0.00     0.039 A 
ATOM      8  C   UNL A   1      37.183  30.054  27.360  1.00  0.00     0.014 A 
ATOM      9  C   UNL A   1      36.722  29.326  29.618  1.00  0.00     0.014 A 
ATOM     10  C   UNL A   1      38.485  29.597  27.473  1.00  0.00     0.010 A 
ATOM     11  C   UNL A   1      38.071  28.994  29.780  1.00  0.00     0.010 A 
ATOM     12  C   UNL A   1      38.955  29.097  28.696  1.00  0.00    -0.014 A 
BRANCH  12  13
ATOM     13  C   UNL A   1      40.398  28.777  28.824  1.00  0.00     0.031 A 
ATOM     14  C   UNL A   1      41.366  29.753  29.430  1.00  0.00     0.074 A 
ATOM     15  C   UNL A   1      40.818  27.562  28.420  1.00  0.00     0.049 A 
ATOM     16  N   UNL A   1      42.653  29.618  29.623  1.00  0.00    -0.248 NA
ATOM     17  C   UNL A   1      40.825  31.049  29.870  1.00  0.00     0.031 C 
ATOM     18  C   UNL A   1      39.964  26.535  27.815  1.00  0.00     0.029 A 
ATOM     19  N   UNL A   1      42.051  26.969  28.480  1.00  0.00    -0.354 N 
ATOM     20  C   UNL A   1      43.081  30.813  30.186  1.00  0.00     0.074 A 
ATOM     21  C   UNL A   1      41.921  31.673  30.280  1.00  0.00     0.031 C 
ATOM     22  C   UNL A   1      40.682  25.420  27.620  1.00  0.00     0.029 A 
ATOM     23  C   UNL A   1      42.063  25.680  28.005  1.00  0.00     0.049 A 
ATOM     24  H   UNL A   1      42.853  27.423  28.830  1.00  0.00     0.167 HD
ATOM     25  C   UNL A   1      44.329  31.155  30.591  1.00  0.00     0.037 A 
ATOM     26  C   UNL A   1      43.076  24.808  27.868  1.00  0.00     0.037 A 
ATOM     27  C   UNL A   1      45.474  30.284  30.501  1.00  0.00     0.049 A 
ATOM     28  C   UNL A   1      44.452  25.231  28.286  1.00  0.00     0.074 A 
ATOM     29  C   UNL A   1      46.776  30.527  30.904  1.00  0.00     0.029 A 
ATOM     30  N   UNL A   1      45.456  29.003  29.969  1.00  0.00    -0.354 N 
ATOM     31  N   UNL A   1      44.838  26.360  28.831  1.00  0.00    -0.248 NA
ATOM     32  C   UNL A   1      45.534  24.265  28.062  1.00  0.00     0.031 C 
ATOM     33  C   UNL A   1      47.554  29.414  30.571  1.00  0.00     0.029 A 
ATOM     34  C   UNL A   1      46.727  28.453  30.011  1.00  0.00     0.049 A 
ATOM     35  H   UNL A   1      44.656  28.550  29.614  1.00  0.00     0.167 HD
ATOM     36  C   UNL A   1      46.204  26.234  29.031  1.00  0.00     0.074 A 
ATOM     37  C   UNL A   1      46.574  24.910  28.569  1.00  0.00     0.031 C 
ATOM     38  C   UNL A   1      47.076  27.133  29.548  1.00  0.00     0.037 A 
BRANCH  25  39
ATOM     39  C   UNL A   1      44.528  32.535  31.149  1.00  0.00     0.057 A 
ATOM     40  C   UNL A   1      44.855  33.627  30.336  1.00  0.00     0.134 A 
ATOM     41  C   UNL A   1      44.340  32.784  32.516  1.00  0.00     0.134 A 
ATOM     42  F   UNL A   1      45.061  33.457  29.020  1.00  0.00    -0.206 F 
ATOM     43  C   UNL A   1      45.007  34.912  30.862  1.00  0.00     0.040 A 
ATOM     44  C   UNL A   1      44.465  34.068  33.050  1.00  0.00     0.040 A 
ATOM     45  F   UNL A   1      44.019  31.786  33.353  1.00  0.00    -0.206 F 
ATOM     46  C   UNL A   1      44.804  35.136  32.222  1.00  0.00     0.006 A 
ENDBRANCH  25  39
BRANCH  26  47
ATOM     47  C   UNL A   1      42.822  23.463  27.295  1.00  0.00     0.057 A 
ATOM     48  C   UNL A   1      42.407  22.400  28.103  1.00  0.00     0.134 A 
ATOM     49  C   UNL A   1      42.974  23.214  25.926  1.00  0.00     0.134 A 
ATOM     50  F   UNL A   1      42.257  22.573  29.424  1.00  0.00    -0.206 F 
ATOM     51  C   UNL A   1      42.165  21.132  27.572  1.00  0.00     0.040 A 
ATOM     52  C   UNL A   1      42.708  21.960  25.377  1.00  0.00     0.040 A 
ATOM     53  F   UNL A   1      43.360  24.195  25.096  1.00  0.00    -0.206 F 
ATOM     54  C   UNL A   1      42.309  20.912  26.203  1.00  0.00     0.006 A 
ENDBRANCH  26  47
BRANCH  38  55
ATOM     55  C   UNL A   1      48.506  26.698  29.670  1.00  0.00     0.057 A 
ATOM     56  C   UNL A   1      49.464  27.025  28.702  1.00  0.00     0.134 A 
ATOM     57  C   UNL A   1      48.932  25.959  30.781  1.00  0.00     0.134 A 
ATOM     58  F   UNL A   1      49.115  27.715  27.606  1.00  0.00    -0.206 F 
ATOM     59  C   UNL A   1      50.791  26.609  28.821  1.00  0.00     0.040 A 
ATOM     60  C   UNL A   1      50.261  25.563  30.925  1.00  0.00     0.040 A 
ATOM     61  F   UNL A   1      48.066  25.619  31.747  1.00  0.00    -0.206 F 
ATOM     62  C   UNL A   1      51.194  25.881  29.940  1.00  0.00     0.006 A 
ENDBRANCH  38  55
ENDBRANCH  12  13
ENDBRANCH   5   7
ENDBRANCH   2   3
ENDBRANCH   1   2
BRANCH   1  63
ATOM     63  C   UNL A   1      33.274  34.322  28.320  1.00  0.00     0.117 C 
BRANCH  63  64
ATOM     64  N   UNL A   1      33.255  35.763  28.462  1.00  0.00    -0.354 N 
ATOM     65  C   UNL A   1      33.250  36.529  29.587  1.00  0.00     0.249 C 
ATOM     66  H   UNL A   1      33.244  36.266  27.616  1.00  0.00     0.163 HD
ATOM     67  O   UNL A   1      33.278  37.755  29.447  1.00  0.00    -0.272 OA
BRANCH  65  68
ATOM     68  C   UNL A   1      33.232  35.885  30.975  1.00  0.00     0.207 C 
ATOM     69  C   UNL A   1      32.904  36.832  32.116  1.00  0.00     0.045 C 
ATOM     70  O   UNL A   1      34.465  35.238  31.287  1.00  0.00    -0.363 OA
ATOM     71  C   UNL A   1      33.855  36.456  33.236  1.00  0.00     0.037 C 
ATOM     72  C   UNL A   1      34.714  35.313  32.698  1.00  0.00     0.139 C 
BRANCH  72  73
ATOM     73  C   UNL A   1      34.524  33.926  33.379  1.00  0.00     0.160 C 
BRANCH  73  74
ATOM     74  N   UNL A   1      35.779  33.185  33.480  1.00  0.00    -0.280 N 
ATOM     75  C   UNL A   1      36.076  32.230  32.529  1.00  0.00     0.229 C 
ATOM     76  C   UNL A   1      36.500  33.265  34.653  1.00  0.00     0.229 C 
ATOM     77  O   UNL A   1      35.240  31.748  31.767  1.00  0.00    -0.274 OA
ATOM     78  C   UNL A   1      37.539  31.884  32.362  1.00  0.00     0.108 C 
ATOM     79  C   UNL A   1      37.990  33.229  34.443  1.00  0.00     0.108 C 
ATOM     80  O   UNL A   1      36.006  33.455  35.760  1.00  0.00    -0.274 OA
ATOM     81  C   UNL A   1      38.436  32.047  33.597  1.00  0.00    -0.012 C 
ATOM     82  C   UNL A   1      39.901  32.264  33.122  1.00  0.00     0.008 C 
ATOM     83  C   UNL A   1      38.482  30.766  34.459  1.00  0.00     0.008 C 
ATOM     84  C   UNL A   1      40.743  31.260  33.887  1.00  0.00     0.001 C 
ATOM     85  C   UNL A   1      39.796  30.092  34.091  1.00  0.00     0.001 C 
ENDBRANCH  73  74
ENDBRANCH  72  73
ENDBRANCH  65  68
ENDBRANCH  63  64
ENDBRANCH   1  63
TORSDOF 12
ENDMDL
