MODEL 1
REMARK VINA RESULT:     -11.7      0.000      0.000
REMARK SMILES CCc1cc(OC(F)(F)F)cc2c1O[C@@H](C(F)(F)F)C(C(=O)NCCCNC(=O)c1ccc(-c3c4nc(c(-c5c(F)cccc5F)c5ccc([nH]5)c(-c5c(F)cccc5F)c5nc(c(-c6c(F)cccc6F)c6ccc3[nH]6)C=C5)C=C4)cc1)=C2
REMARK SMILES IDX 25 1 24 2 23 3 21 4 22 5 20 7 3 8 4 9 13 10 5 11 12 12 14 13
REMARK SMILES IDX 11 14 84 15 15 16 2 17 1 18 6 19 7 20 8 21 9 22 10 23 16 24
REMARK SMILES IDX 17 25 18 26 19 27 26 28 27 29 28 30 29 32 30 33 31 34 83 35
REMARK SMILES IDX 32 36 82 37 33 38 34 39 35 40 76 41 36 42 81 43 75 44 77 45
REMARK SMILES IDX 37 46 80 47 74 48 73 49 38 51 64 52 47 53 63 54 48 55 51 56
REMARK SMILES IDX 62 57 78 58 49 59 50 60 61 62 79 63 52 64 39 65 40 66 45 67
REMARK SMILES IDX 41 68 42 69 44 70 46 71 43 72 65 73 66 74 71 75 67 76 68 77
REMARK SMILES IDX 70 78 72 79 69 80 53 81 54 82 59 83 55 84 56 85 58 86 60 87
REMARK SMILES IDX 57 88
REMARK H PARENT 23 6 27 31 77 50 51 61
REMARK Flexibility Score: inf
ROOT
ATOM      1  C   UNL A   1      33.973  28.365  25.803  1.00  0.00     0.042 C 
ENDROOT
BRANCH   1   2
ATOM      2  C   UNL A   1      32.719  27.838  25.097  1.00  0.00     0.118 C 
BRANCH   2   3
ATOM      3  N   UNL A   1      32.953  27.728  23.666  1.00  0.00    -0.352 N 
ATOM      4  C   UNL A   1      33.388  26.718  22.869  1.00  0.00     0.251 C 
ATOM      5  O   UNL A   1      33.646  26.987  21.698  1.00  0.00    -0.270 OA
ATOM      6  H   UNL A   1      32.755  28.557  23.172  1.00  0.00     0.163 HD
BRANCH   4   7
ATOM      7  C   UNL A   1      33.500  25.308  23.329  1.00  0.00     0.067 C 
ATOM      8  C   UNL A   1      33.490  21.351  24.774  1.00  0.00    -0.002 A 
ATOM      9  C   UNL A   1      34.662  20.852  25.380  1.00  0.00     0.054 A 
ATOM     10  C   UNL A   1      33.486  22.661  24.273  1.00  0.00     0.131 A 
ATOM     11  C   UNL A   1      35.803  21.646  25.498  1.00  0.00     0.130 A 
ATOM     12  C   UNL A   1      34.633  23.446  24.360  1.00  0.00     0.021 A 
ATOM     13  O   UNL A   1      32.315  23.150  23.772  1.00  0.00    -0.475 OA
ATOM     14  C   UNL A   1      35.783  22.938  24.973  1.00  0.00     0.058 A 
ATOM     15  C   UNL A   1      34.615  24.819  23.885  1.00  0.00     0.025 C 
ATOM     16  C   UNL A   1      32.336  24.381  22.990  1.00  0.00     0.314 C 
BRANCH   8  17
ATOM     17  C   UNL A   1      32.280  20.448  24.664  1.00  0.00     0.036 C 
ATOM     18  C   UNL A   1      32.478  19.304  23.679  1.00  0.00     0.009 C 
ENDBRANCH   8  17
BRANCH  11  19
ATOM     19  O   UNL A   1      36.981  21.302  26.094  1.00  0.00    -0.406 OA
BRANCH  19  20
ATOM     20  C   UNL A   1      38.131  21.185  25.274  1.00  0.00     0.573 C 
ATOM     21  F   UNL A   1      38.999  22.193  25.501  1.00  0.00    -0.132 F 
ATOM     22  F   UNL A   1      38.746  20.001  25.473  1.00  0.00    -0.132 F 
ATOM     23  F   UNL A   1      37.745  21.247  23.980  1.00  0.00    -0.132 F 
ENDBRANCH  19  20
ENDBRANCH  11  19
BRANCH  16  24
ATOM     24  C   UNL A   1      30.915  24.987  23.070  1.00  0.00     0.429 C 
ATOM     25  F   UNL A   1      29.939  24.062  22.938  1.00  0.00    -0.167 F 
ATOM     26  F   UNL A   1      30.702  25.564  24.285  1.00  0.00    -0.167 F 
ATOM     27  F   UNL A   1      30.714  25.951  22.142  1.00  0.00    -0.167 F 
ENDBRANCH  16  24
ENDBRANCH   4   7
ENDBRANCH   2   3
ENDBRANCH   1   2
BRANCH   1  28
ATOM     28  C   UNL A   1      33.778  28.541  27.307  1.00  0.00     0.118 C 
BRANCH  28  29
ATOM     29  N   UNL A   1      33.762  29.948  27.686  1.00  0.00    -0.352 N 
ATOM     30  C   UNL A   1      34.706  30.686  28.356  1.00  0.00     0.251 C 
ATOM     31  H   UNL A   1      32.952  30.443  27.423  1.00  0.00     0.163 HD
ATOM     32  O   UNL A   1      34.415  31.789  28.803  1.00  0.00    -0.269 OA
BRANCH  30  33
ATOM     33  C   UNL A   1      36.070  30.147  28.544  1.00  0.00     0.039 A 
ATOM     34  C   UNL A   1      36.972  30.194  27.478  1.00  0.00     0.014 A 
ATOM     35  C   UNL A   1      36.446  29.571  29.760  1.00  0.00     0.014 A 
ATOM     36  C   UNL A   1      38.273  29.718  27.651  1.00  0.00     0.010 A 
ATOM     37  C   UNL A   1      37.762  29.163  29.953  1.00  0.00     0.010 A 
ATOM     38  C   UNL A   1      38.688  29.230  28.901  1.00  0.00    -0.014 A 
BRANCH  38  39
ATOM     39  C   UNL A   1      40.082  28.778  29.139  1.00  0.00     0.031 A 
ATOM     40  C   UNL A   1      41.089  29.729  29.720  1.00  0.00     0.074 A 
ATOM     41  C   UNL A   1      40.458  27.544  28.750  1.00  0.00     0.049 A 
ATOM     42  N   UNL A   1      42.379  29.573  29.880  1.00  0.00    -0.248 NA
ATOM     43  C   UNL A   1      40.586  31.043  30.152  1.00  0.00     0.031 C 
ATOM     44  C   UNL A   1      39.580  26.543  28.142  1.00  0.00     0.029 A 
ATOM     45  N   UNL A   1      41.685  26.930  28.788  1.00  0.00    -0.354 N 
ATOM     46  C   UNL A   1      42.841  30.773  30.408  1.00  0.00     0.074 A 
ATOM     47  C   UNL A   1      41.705  31.662  30.497  1.00  0.00     0.031 C 
ATOM     48  C   UNL A   1      40.293  25.438  27.874  1.00  0.00     0.029 A 
ATOM     49  C   UNL A   1      41.685  25.667  28.247  1.00  0.00     0.049 A 
ATOM     50  H   UNL A   1      42.488  27.355  29.167  1.00  0.00     0.167 HD
ATOM     51  C   UNL A   1      44.096  31.094  30.802  1.00  0.00     0.037 A 
ATOM     52  C   UNL A   1      42.698  24.800  28.054  1.00  0.00     0.037 A 
ATOM     53  C   UNL A   1      45.218  30.194  30.733  1.00  0.00     0.049 A 
ATOM     54  C   UNL A   1      44.087  25.190  28.481  1.00  0.00     0.074 A 
ATOM     55  C   UNL A   1      46.517  30.405  31.159  1.00  0.00     0.029 A 
ATOM     56  N   UNL A   1      45.172  28.915  30.201  1.00  0.00    -0.354 N 
ATOM     57  N   UNL A   1      44.498  26.304  29.036  1.00  0.00    -0.248 NA
ATOM     58  C   UNL A   1      45.152  24.201  28.258  1.00  0.00     0.031 C 
ATOM     59  C   UNL A   1      47.270  29.271  30.838  1.00  0.00     0.029 A 
ATOM     60  C   UNL A   1      46.427  28.332  30.266  1.00  0.00     0.049 A 
ATOM     61  H   UNL A   1      44.367  28.485  29.831  1.00  0.00     0.167 HD
ATOM     62  C   UNL A   1      45.859  26.137  29.260  1.00  0.00     0.074 A 
ATOM     63  C   UNL A   1      46.201  24.811  28.790  1.00  0.00     0.031 C 
ATOM     64  C   UNL A   1      46.746  27.004  29.809  1.00  0.00     0.037 A 
BRANCH  51  65
ATOM     65  C   UNL A   1      44.325  32.477  31.341  1.00  0.00     0.057 A 
ATOM     66  C   UNL A   1      44.189  32.773  32.704  1.00  0.00     0.134 A 
ATOM     67  C   UNL A   1      44.728  33.518  30.493  1.00  0.00     0.134 A 
ATOM     68  F   UNL A   1      43.795  31.825  33.568  1.00  0.00    -0.206 F 
ATOM     69  C   UNL A   1      44.417  34.057  33.201  1.00  0.00     0.040 A 
ATOM     70  C   UNL A   1      44.989  34.799  30.983  1.00  0.00     0.040 A 
ATOM     71  F   UNL A   1      44.885  33.303  29.179  1.00  0.00    -0.206 F 
ATOM     72  C   UNL A   1      44.827  35.073  32.339  1.00  0.00     0.006 A 
ENDBRANCH  51  65
BRANCH  52  73
ATOM     73  C   UNL A   1      42.439  23.476  27.433  1.00  0.00     0.057 A 
ATOM     74  C   UNL A   1      42.131  22.358  28.219  1.00  0.00     0.134 A 
ATOM     75  C   UNL A   1      42.508  23.288  26.048  1.00  0.00     0.134 A 
ATOM     76  F   UNL A   1      42.068  22.470  29.554  1.00  0.00    -0.206 F 
ATOM     77  C   UNL A   1      41.926  21.100  27.653  1.00  0.00     0.040 A 
ATOM     78  C   UNL A   1      42.278  22.041  25.465  1.00  0.00     0.040 A 
ATOM     79  F   UNL A   1      42.789  24.320  25.237  1.00  0.00    -0.206 F 
ATOM     80  C   UNL A   1      41.995  20.939  26.269  1.00  0.00     0.006 A 
ENDBRANCH  52  73
BRANCH  64  81
ATOM     81  C   UNL A   1      48.161  26.532  29.977  1.00  0.00     0.057 A 
ATOM     82  C   UNL A   1      48.584  25.850  31.124  1.00  0.00     0.134 A 
ATOM     83  C   UNL A   1      49.095  26.715  28.949  1.00  0.00     0.134 A 
ATOM     84  F   UNL A   1      47.743  25.656  32.150  1.00  0.00    -0.206 F 
ATOM     85  C   UNL A   1      49.893  25.381  31.250  1.00  0.00     0.040 A 
ATOM     86  C   UNL A   1      50.397  26.224  29.051  1.00  0.00     0.040 A 
ATOM     87  F   UNL A   1      48.751  27.353  27.820  1.00  0.00    -0.206 F 
ATOM     88  C   UNL A   1      50.800  25.559  30.206  1.00  0.00     0.006 A 
ENDBRANCH  64  81
ENDBRANCH  38  39
ENDBRANCH  30  33
ENDBRANCH  28  29
ENDBRANCH   1  28
TORSDOF 14
ENDMDL
MODEL 2
REMARK VINA RESULT:     -11.6      2.854      7.155
REMARK SMILES CCc1cc(OC(F)(F)F)cc2c1O[C@@H](C(F)(F)F)C(C(=O)NCCCNC(=O)c1ccc(-c3c4nc(c(-c5c(F)cccc5F)c5ccc([nH]5)c(-c5c(F)cccc5F)c5nc(c(-c6c(F)cccc6F)c6ccc3[nH]6)C=C5)C=C4)cc1)=C2
REMARK SMILES IDX 25 1 24 2 23 3 21 4 22 5 20 7 3 8 4 9 13 10 5 11 12 12 14 13
REMARK SMILES IDX 11 14 84 15 15 16 2 17 1 18 6 19 7 20 8 21 9 22 10 23 16 24
REMARK SMILES IDX 17 25 18 26 19 27 26 28 27 29 28 30 29 32 30 33 31 34 83 35
REMARK SMILES IDX 32 36 82 37 33 38 34 39 35 40 76 41 36 42 81 43 75 44 77 45
REMARK SMILES IDX 37 46 80 47 74 48 73 49 38 51 64 52 47 53 63 54 48 55 51 56
REMARK SMILES IDX 62 57 78 58 49 59 50 60 61 62 79 63 52 64 39 65 40 66 45 67
REMARK SMILES IDX 41 68 42 69 44 70 46 71 43 72 65 73 66 74 71 75 67 76 68 77
REMARK SMILES IDX 70 78 72 79 69 80 53 81 54 82 59 83 55 84 56 85 58 86 60 87
REMARK SMILES IDX 57 88
REMARK H PARENT 23 6 27 31 77 50 51 61
REMARK Flexibility Score: inf
ROOT
ATOM      1  C   UNL A   1      31.662  31.111  25.756  1.00  0.00     0.042 C 
ENDROOT
BRANCH   1   2
ATOM      2  C   UNL A   1      31.932  29.643  25.411  1.00  0.00     0.118 C 
BRANCH   2   3
ATOM      3  N   UNL A   1      31.616  28.791  26.546  1.00  0.00    -0.352 N 
ATOM      4  C   UNL A   1      31.670  27.448  26.744  1.00  0.00     0.251 C 
ATOM      5  O   UNL A   1      31.171  27.004  27.776  1.00  0.00    -0.270 OA
ATOM      6  H   UNL A   1      31.298  29.289  27.334  1.00  0.00     0.163 HD
BRANCH   4   7
ATOM      7  C   UNL A   1      32.355  26.513  25.813  1.00  0.00     0.067 C 
ATOM      8  C   UNL A   1      33.985  23.684  23.150  1.00  0.00    -0.002 A 
ATOM      9  C   UNL A   1      35.273  23.174  23.415  1.00  0.00     0.054 A 
ATOM     10  C   UNL A   1      33.438  24.639  24.020  1.00  0.00     0.131 A 
ATOM     11  C   UNL A   1      35.997  23.597  24.529  1.00  0.00     0.130 A 
ATOM     12  C   UNL A   1      34.170  25.087  25.116  1.00  0.00     0.021 A 
ATOM     13  O   UNL A   1      32.156  25.051  23.792  1.00  0.00    -0.475 OA
ATOM     14  C   UNL A   1      35.443  24.563  25.368  1.00  0.00     0.058 A 
ATOM     15  C   UNL A   1      33.587  26.041  26.043  1.00  0.00     0.025 C 
ATOM     16  C   UNL A   1      31.658  26.234  24.484  1.00  0.00     0.314 C 
BRANCH   8  17
ATOM     17  C   UNL A   1      33.241  23.199  21.924  1.00  0.00     0.036 C 
ATOM     18  C   UNL A   1      32.378  21.975  22.196  1.00  0.00     0.009 C 
ENDBRANCH   8  17
BRANCH  11  19
ATOM     19  O   UNL A   1      37.228  23.157  24.920  1.00  0.00    -0.406 OA
BRANCH  19  20
ATOM     20  C   UNL A   1      37.352  21.805  25.327  1.00  0.00     0.573 C 
ATOM     21  F   UNL A   1      36.286  21.414  26.057  1.00  0.00    -0.132 F 
ATOM     22  F   UNL A   1      37.495  20.992  24.260  1.00  0.00    -0.132 F 
ATOM     23  F   UNL A   1      38.455  21.687  26.098  1.00  0.00    -0.132 F 
ENDBRANCH  19  20
ENDBRANCH  11  19
BRANCH  16  24
ATOM     24  C   UNL A   1      30.116  26.118  24.516  1.00  0.00     0.429 C 
ATOM     25  F   UNL A   1      29.626  25.327  23.536  1.00  0.00    -0.167 F 
ATOM     26  F   UNL A   1      29.697  25.549  25.680  1.00  0.00    -0.167 F 
ATOM     27  F   UNL A   1      29.507  27.323  24.432  1.00  0.00    -0.167 F 
ENDBRANCH  16  24
ENDBRANCH   4   7
ENDBRANCH   2   3
ENDBRANCH   1   2
BRANCH   1  28
ATOM     28  C   UNL A   1      32.376  31.562  27.029  1.00  0.00     0.118 C 
BRANCH  28  29
ATOM     29  N   UNL A   1      32.180  32.983  27.282  1.00  0.00    -0.352 N 
ATOM     30  C   UNL A   1      32.902  33.840  28.075  1.00  0.00     0.251 C 
ATOM     31  H   UNL A   1      31.416  33.391  26.813  1.00  0.00     0.163 HD
ATOM     32  O   UNL A   1      32.445  34.941  28.359  1.00  0.00    -0.269 OA
BRANCH  30  33
ATOM     33  C   UNL A   1      34.225  33.432  28.593  1.00  0.00     0.039 A 
ATOM     34  C   UNL A   1      34.293  32.694  29.778  1.00  0.00     0.014 A 
ATOM     35  C   UNL A   1      35.396  33.802  27.928  1.00  0.00     0.014 A 
ATOM     36  C   UNL A   1      35.534  32.275  30.263  1.00  0.00     0.010 A 
ATOM     37  C   UNL A   1      36.624  33.324  28.372  1.00  0.00     0.010 A 
ATOM     38  C   UNL A   1      36.706  32.558  29.545  1.00  0.00    -0.014 A 
BRANCH  38  39
ATOM     39  C   UNL A   1      38.034  32.072  29.995  1.00  0.00     0.031 A 
ATOM     40  C   UNL A   1      38.571  30.768  29.474  1.00  0.00     0.074 A 
ATOM     41  C   UNL A   1      38.712  32.758  30.936  1.00  0.00     0.049 A 
ATOM     42  N   UNL A   1      39.640  30.107  29.841  1.00  0.00    -0.248 NA
ATOM     43  C   UNL A   1      37.786  30.103  28.422  1.00  0.00     0.031 C 
ATOM     44  C   UNL A   1      38.278  34.017  31.543  1.00  0.00     0.029 A 
ATOM     45  N   UNL A   1      39.900  32.479  31.563  1.00  0.00    -0.354 N 
ATOM     46  C   UNL A   1      39.641  28.943  29.082  1.00  0.00     0.074 A 
ATOM     47  C   UNL A   1      38.445  28.964  28.271  1.00  0.00     0.031 C 
ATOM     48  C   UNL A   1      39.191  34.407  32.446  1.00  0.00     0.029 A 
ATOM     49  C   UNL A   1      40.249  33.406  32.517  1.00  0.00     0.049 A 
ATOM     50  H   UNL A   1      40.451  31.691  31.350  1.00  0.00     0.167 HD
ATOM     51  C   UNL A   1      40.569  27.957  29.052  1.00  0.00     0.037 A 
ATOM     52  C   UNL A   1      41.295  33.432  33.366  1.00  0.00     0.037 A 
ATOM     53  C   UNL A   1      41.770  27.955  29.845  1.00  0.00     0.049 A 
ATOM     54  C   UNL A   1      42.299  32.313  33.326  1.00  0.00     0.074 A 
ATOM     55  C   UNL A   1      42.800  27.031  29.845  1.00  0.00     0.029 A 
ATOM     56  N   UNL A   1      42.099  28.923  30.781  1.00  0.00    -0.354 N 
ATOM     57  N   UNL A   1      42.321  31.249  32.560  1.00  0.00    -0.248 NA
ATOM     58  C   UNL A   1      43.426  32.400  34.266  1.00  0.00     0.031 C 
ATOM     59  C   UNL A   1      43.728  27.413  30.818  1.00  0.00     0.029 A 
ATOM     60  C   UNL A   1      43.306  28.605  31.383  1.00  0.00     0.049 A 
ATOM     61  H   UNL A   1      41.556  29.717  30.989  1.00  0.00     0.167 HD
ATOM     62  C   UNL A   1      43.479  30.560  32.900  1.00  0.00     0.074 A 
ATOM     63  C   UNL A   1      44.136  31.331  33.935  1.00  0.00     0.031 C 
ATOM     64  C   UNL A   1      43.955  29.394  32.399  1.00  0.00     0.037 A 
BRANCH  51  65
ATOM     65  C   UNL A   1      40.321  26.796  28.132  1.00  0.00     0.057 A 
ATOM     66  C   UNL A   1      39.482  25.732  28.492  1.00  0.00     0.134 A 
ATOM     67  C   UNL A   1      40.895  26.760  26.855  1.00  0.00     0.134 A 
ATOM     68  F   UNL A   1      38.910  25.698  29.705  1.00  0.00    -0.206 F 
ATOM     69  C   UNL A   1      39.245  24.663  27.627  1.00  0.00     0.040 A 
ATOM     70  C   UNL A   1      40.641  25.711  25.968  1.00  0.00     0.040 A 
ATOM     71  F   UNL A   1      41.702  27.748  26.442  1.00  0.00    -0.206 F 
ATOM     72  C   UNL A   1      39.819  24.655  26.356  1.00  0.00     0.006 A 
ENDBRANCH  51  65
BRANCH  52  73
ATOM     73  C   UNL A   1      41.451  34.558  34.322  1.00  0.00     0.057 A 
ATOM     74  C   UNL A   1      40.935  34.479  35.621  1.00  0.00     0.134 A 
ATOM     75  C   UNL A   1      42.103  35.743  33.961  1.00  0.00     0.134 A 
ATOM     76  F   UNL A   1      40.285  33.376  36.022  1.00  0.00    -0.206 F 
ATOM     77  C   UNL A   1      41.039  35.543  36.517  1.00  0.00     0.040 A 
ATOM     78  C   UNL A   1      42.238  36.806  34.855  1.00  0.00     0.040 A 
ATOM     79  F   UNL A   1      42.629  35.881  32.734  1.00  0.00    -0.206 F 
ATOM     80  C   UNL A   1      41.697  36.712  36.135  1.00  0.00     0.006 A 
ENDBRANCH  52  73
BRANCH  64  81
ATOM     81  C   UNL A   1      45.273  28.902  32.923  1.00  0.00     0.057 A 
ATOM     82  C   UNL A   1      46.490  29.285  32.349  1.00  0.00     0.134 A 
ATOM     83  C   UNL A   1      45.321  28.079  34.057  1.00  0.00     0.134 A 
ATOM     84  F   UNL A   1      46.513  30.060  31.254  1.00  0.00    -0.206 F 
ATOM     85  C   UNL A   1      47.710  28.853  32.874  1.00  0.00     0.040 A 
ATOM     86  C   UNL A   1      46.534  27.665  34.607  1.00  0.00     0.040 A 
ATOM     87  F   UNL A   1      44.190  27.683  34.660  1.00  0.00    -0.206 F 
ATOM     88  C   UNL A   1      47.733  28.049  34.012  1.00  0.00     0.006 A 
ENDBRANCH  64  81
ENDBRANCH  38  39
ENDBRANCH  30  33
ENDBRANCH  28  29
ENDBRANCH   1  28
TORSDOF 14
ENDMDL
MODEL 3
REMARK VINA RESULT:     -11.5      3.103      8.067
REMARK SMILES CCc1cc(OC(F)(F)F)cc2c1O[C@@H](C(F)(F)F)C(C(=O)NCCCNC(=O)c1ccc(-c3c4nc(c(-c5c(F)cccc5F)c5ccc([nH]5)c(-c5c(F)cccc5F)c5nc(c(-c6c(F)cccc6F)c6ccc3[nH]6)C=C5)C=C4)cc1)=C2
REMARK SMILES IDX 25 1 24 2 23 3 21 4 22 5 20 7 3 8 4 9 13 10 5 11 12 12 14 13
REMARK SMILES IDX 11 14 84 15 15 16 2 17 1 18 6 19 7 20 8 21 9 22 10 23 16 24
REMARK SMILES IDX 17 25 18 26 19 27 26 28 27 29 28 30 29 32 30 33 31 34 83 35
REMARK SMILES IDX 32 36 82 37 33 38 34 39 35 40 76 41 36 42 81 43 75 44 77 45
REMARK SMILES IDX 37 46 80 47 74 48 73 49 38 51 64 52 47 53 63 54 48 55 51 56
REMARK SMILES IDX 62 57 78 58 49 59 50 60 61 62 79 63 52 64 39 65 40 66 45 67
REMARK SMILES IDX 41 68 42 69 44 70 46 71 43 72 65 73 66 74 71 75 67 76 68 77
REMARK SMILES IDX 70 78 72 79 69 80 53 81 54 82 59 83 55 84 56 85 58 86 60 87
REMARK SMILES IDX 57 88
REMARK H PARENT 23 6 27 31 77 50 51 61
REMARK Flexibility Score: inf
ROOT
ATOM      1  C   UNL A   1      35.299  23.405  26.467  1.00  0.00     0.042 C 
ENDROOT
BRANCH   1   2
ATOM      2  C   UNL A   1      34.140  23.233  25.479  1.00  0.00     0.118 C 
BRANCH   2   3
ATOM      3  N   UNL A   1      32.909  22.930  26.192  1.00  0.00    -0.352 N 
ATOM      4  C   UNL A   1      31.879  23.696  26.635  1.00  0.00     0.251 C 
ATOM      5  O   UNL A   1      31.045  23.162  27.365  1.00  0.00    -0.270 OA
ATOM      6  H   UNL A   1      32.800  21.973  26.396  1.00  0.00     0.163 HD
BRANCH   4   7
ATOM      7  C   UNL A   1      31.681  25.112  26.229  1.00  0.00     0.067 C 
ATOM      8  C   UNL A   1      31.203  29.025  24.740  1.00  0.00    -0.002 A 
ATOM      9  C   UNL A   1      31.737  30.098  25.483  1.00  0.00     0.054 A 
ATOM     10  C   UNL A   1      31.341  27.718  25.234  1.00  0.00     0.131 A 
ATOM     11  C   UNL A   1      32.407  29.875  26.686  1.00  0.00     0.130 A 
ATOM     12  C   UNL A   1      31.981  27.494  26.450  1.00  0.00     0.021 A 
ATOM     13  O   UNL A   1      30.894  26.691  24.454  1.00  0.00    -0.475 OA
ATOM     14  C   UNL A   1      32.513  28.571  27.168  1.00  0.00     0.058 A 
ATOM     15  C   UNL A   1      32.165  26.139  26.939  1.00  0.00     0.025 C 
ATOM     16  C   UNL A   1      30.755  25.363  25.042  1.00  0.00     0.314 C 
BRANCH   8  17
ATOM     17  C   UNL A   1      30.479  29.318  23.443  1.00  0.00     0.036 C 
ATOM     18  C   UNL A   1      29.415  30.397  23.587  1.00  0.00     0.009 C 
ENDBRANCH   8  17
BRANCH  11  19
ATOM     19  O   UNL A   1      33.002  30.813  27.478  1.00  0.00    -0.406 OA
BRANCH  19  20
ATOM     20  C   UNL A   1      34.417  30.814  27.558  1.00  0.00     0.573 C 
ATOM     21  F   UNL A   1      34.924  32.026  27.248  1.00  0.00    -0.132 F 
ATOM     22  F   UNL A   1      34.830  30.450  28.790  1.00  0.00    -0.132 F 
ATOM     23  F   UNL A   1      34.899  29.917  26.670  1.00  0.00    -0.132 F 
ENDBRANCH  19  20
ENDBRANCH  11  19
BRANCH  16  24
ATOM     24  C   UNL A   1      30.822  24.348  23.877  1.00  0.00     0.429 C 
ATOM     25  F   UNL A   1      30.536  23.084  24.263  1.00  0.00    -0.167 F 
ATOM     26  F   UNL A   1      29.903  24.648  22.919  1.00  0.00    -0.167 F 
ATOM     27  F   UNL A   1      32.030  24.342  23.268  1.00  0.00    -0.167 F 
ENDBRANCH  16  24
ENDBRANCH   4   7
ENDBRANCH   2   3
ENDBRANCH   1   2
BRANCH   1  28
ATOM     28  C   UNL A   1      36.624  23.719  25.777  1.00  0.00     0.118 C 
BRANCH  28  29
ATOM     29  N   UNL A   1      37.617  22.681  26.019  1.00  0.00    -0.352 N 
ATOM     30  C   UNL A   1      38.941  22.797  26.364  1.00  0.00     0.251 C 
ATOM     31  H   UNL A   1      37.289  21.757  25.922  1.00  0.00     0.163 HD
ATOM     32  O   UNL A   1      39.680  21.822  26.284  1.00  0.00    -0.269 OA
BRANCH  30  33
ATOM     33  C   UNL A   1      39.476  24.096  26.822  1.00  0.00     0.039 A 
ATOM     34  C   UNL A   1      40.070  24.953  25.891  1.00  0.00     0.014 A 
ATOM     35  C   UNL A   1      39.419  24.454  28.171  1.00  0.00     0.014 A 
ATOM     36  C   UNL A   1      40.551  26.197  26.304  1.00  0.00     0.010 A 
ATOM     37  C   UNL A   1      39.834  25.721  28.568  1.00  0.00     0.010 A 
ATOM     38  C   UNL A   1      40.406  26.604  27.640  1.00  0.00    -0.014 A 
BRANCH  38  39
ATOM     39  C   UNL A   1      40.846  27.945  28.099  1.00  0.00     0.031 A 
ATOM     40  C   UNL A   1      42.311  28.281  28.137  1.00  0.00     0.074 A 
ATOM     41  C   UNL A   1      39.936  28.823  28.564  1.00  0.00     0.049 A 
ATOM     42  N   UNL A   1      42.905  29.339  28.627  1.00  0.00    -0.248 NA
ATOM     43  C   UNL A   1      43.233  27.281  27.576  1.00  0.00     0.031 C 
ATOM     44  C   UNL A   1      38.490  28.598  28.611  1.00  0.00     0.029 A 
ATOM     45  N   UNL A   1      40.096  30.073  29.107  1.00  0.00    -0.354 N 
ATOM     46  C   UNL A   1      44.266  29.121  28.454  1.00  0.00     0.074 A 
ATOM     47  C   UNL A   1      44.414  27.812  27.858  1.00  0.00     0.031 C 
ATOM     48  C   UNL A   1      37.895  29.678  29.142  1.00  0.00     0.029 A 
ATOM     49  C   UNL A   1      38.917  30.649  29.517  1.00  0.00     0.049 A 
ATOM     50  H   UNL A   1      40.971  30.515  29.194  1.00  0.00     0.167 HD
ATOM     51  C   UNL A   1      45.298  29.948  28.746  1.00  0.00     0.037 A 
ATOM     52  C   UNL A   1      38.690  31.820  30.143  1.00  0.00     0.037 A 
ATOM     53  C   UNL A   1      45.142  31.261  29.317  1.00  0.00     0.049 A 
ATOM     54  C   UNL A   1      39.855  32.711  30.476  1.00  0.00     0.074 A 
ATOM     55  C   UNL A   1      46.119  32.199  29.598  1.00  0.00     0.029 A 
ATOM     56  N   UNL A   1      43.930  31.818  29.696  1.00  0.00    -0.354 N 
ATOM     57  N   UNL A   1      41.132  32.519  30.250  1.00  0.00    -0.248 NA
ATOM     58  C   UNL A   1      39.548  33.982  31.148  1.00  0.00     0.031 C 
ATOM     59  C   UNL A   1      45.504  33.304  30.194  1.00  0.00     0.029 A 
ATOM     60  C   UNL A   1      44.138  33.079  30.231  1.00  0.00     0.049 A 
ATOM     61  H   UNL A   1      43.052  31.382  29.599  1.00  0.00     0.167 HD
ATOM     62  C   UNL A   1      41.776  33.658  30.719  1.00  0.00     0.074 A 
ATOM     63  C   UNL A   1      40.748  34.538  31.233  1.00  0.00     0.031 C 
ATOM     64  C   UNL A   1      43.100  33.949  30.722  1.00  0.00     0.037 A 
BRANCH  51  65
ATOM     65  C   UNL A   1      46.688  29.459  28.457  1.00  0.00     0.057 A 
ATOM     66  C   UNL A   1      47.313  29.691  27.225  1.00  0.00     0.134 A 
ATOM     67  C   UNL A   1      47.426  28.783  29.437  1.00  0.00     0.134 A 
ATOM     68  F   UNL A   1      46.658  30.323  26.239  1.00  0.00    -0.206 F 
ATOM     69  C   UNL A   1      48.611  29.246  26.967  1.00  0.00     0.040 A 
ATOM     70  C   UNL A   1      48.736  28.359  29.202  1.00  0.00     0.040 A 
ATOM     71  F   UNL A   1      46.892  28.533  30.641  1.00  0.00    -0.206 F 
ATOM     72  C   UNL A   1      49.330  28.585  27.962  1.00  0.00     0.006 A 
ENDBRANCH  51  65
BRANCH  52  73
ATOM     73  C   UNL A   1      37.303  32.223  30.491  1.00  0.00     0.057 A 
ATOM     74  C   UNL A   1      36.593  33.129  29.694  1.00  0.00     0.134 A 
ATOM     75  C   UNL A   1      36.660  31.729  31.632  1.00  0.00     0.134 A 
ATOM     76  F   UNL A   1      37.162  33.651  28.598  1.00  0.00    -0.206 F 
ATOM     77  C   UNL A   1      35.305  33.548  30.031  1.00  0.00     0.040 A 
ATOM     78  C   UNL A   1      35.362  32.118  31.967  1.00  0.00     0.040 A 
ATOM     79  F   UNL A   1      37.280  30.850  32.434  1.00  0.00    -0.206 F 
ATOM     80  C   UNL A   1      34.684  33.038  31.170  1.00  0.00     0.006 A 
ENDBRANCH  52  73
BRANCH  64  81
ATOM     81  C   UNL A   1      43.512  35.292  31.251  1.00  0.00     0.057 A 
ATOM     82  C   UNL A   1      43.787  35.503  32.607  1.00  0.00     0.134 A 
ATOM     83  C   UNL A   1      43.692  36.373  30.377  1.00  0.00     0.134 A 
ATOM     84  F   UNL A   1      43.620  34.514  33.498  1.00  0.00    -0.206 F 
ATOM     85  C   UNL A   1      44.210  36.748  33.078  1.00  0.00     0.040 A 
ATOM     86  C   UNL A   1      44.143  37.612  30.831  1.00  0.00     0.040 A 
ATOM     87  F   UNL A   1      43.455  36.234  29.063  1.00  0.00    -0.206 F 
ATOM     88  C   UNL A   1      44.399  37.803  32.187  1.00  0.00     0.006 A 
ENDBRANCH  64  81
ENDBRANCH  38  39
ENDBRANCH  30  33
ENDBRANCH  28  29
ENDBRANCH   1  28
TORSDOF 14
ENDMDL
