MODEL 1
REMARK VINA RESULT:     -11.6      0.000      0.000
REMARK SMILES O=C(NCCCNC(=O)[C@H]1COCCN1C(=O)c1ccc(Br)nc1)c1ccc(-c2c3nc(c(-c4c(F)cccc4F)c4ccc([nH]4)c(-c4c(F)cccc4F)c4nc(c(-c5c(F)cccc5F)c5ccc2[nH]5)C=C4)C=C3)cc1
REMARK SMILES IDX 5 1 4 2 3 3 1 4 2 5 25 7 26 8 78 9 27 10 77 11 28 12 29 13
REMARK SMILES IDX 30 14 71 15 31 16 76 17 70 18 72 19 32 20 75 21 69 22 68 23
REMARK SMILES IDX 33 25 59 26 42 27 58 28 43 29 46 30 57 31 73 32 44 33 45 34
REMARK SMILES IDX 56 36 74 37 47 38 34 39 35 40 40 41 36 42 37 43 39 44 41 45
REMARK SMILES IDX 38 46 60 47 61 48 66 49 62 50 63 51 65 52 67 53 64 54 48 55
REMARK SMILES IDX 49 56 54 57 50 58 51 59 53 60 55 61 52 62 6 63 7 64 8 65
REMARK SMILES IDX 9 67 10 68 11 69 15 70 12 71 14 72 13 73 16 74 17 75 18 76
REMARK SMILES IDX 19 77 24 78 20 79 23 80 21 81 22 82
REMARK H PARENT 3 6 72 24 46 35 7 66
REMARK Flexibility Score: inf
ROOT
ATOM      1  C   UNL A   1      31.283  31.913  26.484  1.00  0.00     0.042 C 
ENDROOT
BRANCH   1   2
ATOM      2  C   UNL A   1      32.633  32.488  26.884  1.00  0.00     0.118 C 
BRANCH   2   3
ATOM      3  N   UNL A   1      32.511  33.848  27.403  1.00  0.00    -0.352 N 
ATOM      4  O   UNL A   1      32.724  35.511  28.908  1.00  0.00    -0.269 OA
ATOM      5  C   UNL A   1      33.142  34.449  28.464  1.00  0.00     0.251 C 
ATOM      6  H   UNL A   1      31.877  34.423  26.916  1.00  0.00     0.163 HD
BRANCH   5   7
ATOM      7  C   UNL A   1      34.326  33.805  29.065  1.00  0.00     0.039 A 
ATOM      8  C   UNL A   1      34.169  32.712  29.917  1.00  0.00     0.014 A 
ATOM      9  C   UNL A   1      35.603  34.278  28.754  1.00  0.00     0.014 A 
ATOM     10  C   UNL A   1      35.265  32.199  30.589  1.00  0.00     0.010 A 
ATOM     11  C   UNL A   1      36.721  33.679  29.338  1.00  0.00     0.010 A 
ATOM     12  C   UNL A   1      36.557  32.651  30.279  1.00  0.00    -0.014 A 
BRANCH  12  13
ATOM     13  C   UNL A   1      37.714  31.954  30.887  1.00  0.00     0.031 A 
ATOM     14  C   UNL A   1      38.166  32.263  32.284  1.00  0.00     0.074 A 
ATOM     15  C   UNL A   1      38.336  31.006  30.160  1.00  0.00     0.049 A 
ATOM     16  N   UNL A   1      39.149  31.732  32.965  1.00  0.00    -0.248 NA
ATOM     17  C   UNL A   1      37.427  33.306  33.011  1.00  0.00     0.031 C 
ATOM     18  C   UNL A   1      37.983  30.632  28.786  1.00  0.00     0.029 A 
ATOM     19  N   UNL A   1      39.375  30.169  30.471  1.00  0.00    -0.354 N 
ATOM     20  C   UNL A   1      39.162  32.384  34.189  1.00  0.00     0.074 A 
ATOM     21  C   UNL A   1      38.104  33.373  34.150  1.00  0.00     0.031 C 
ATOM     22  C   UNL A   1      38.752  29.607  28.396  1.00  0.00     0.029 A 
ATOM     23  C   UNL A   1      39.705  29.306  29.456  1.00  0.00     0.049 A 
ATOM     24  H   UNL A   1      39.839  30.184  31.340  1.00  0.00     0.167 HD
ATOM     25  C   UNL A   1      39.979  32.171  35.249  1.00  0.00     0.037 A 
ATOM     26  C   UNL A   1      40.686  28.391  29.373  1.00  0.00     0.037 A 
ATOM     27  C   UNL A   1      41.026  31.180  35.273  1.00  0.00     0.049 A 
ATOM     28  C   UNL A   1      41.602  28.209  30.545  1.00  0.00     0.074 A 
ATOM     29  C   UNL A   1      41.889  30.863  36.307  1.00  0.00     0.029 A 
ATOM     30  N   UNL A   1      41.359  30.353  34.209  1.00  0.00    -0.354 N 
ATOM     31  N   UNL A   1      41.580  28.809  31.709  1.00  0.00    -0.248 NA
ATOM     32  C   UNL A   1      42.683  27.228  30.389  1.00  0.00     0.031 C 
ATOM     33  C   UNL A   1      42.780  29.887  35.850  1.00  0.00     0.029 A 
ATOM     34  C   UNL A   1      42.434  29.549  34.552  1.00  0.00     0.049 A 
ATOM     35  H   UNL A   1      40.899  30.340  33.338  1.00  0.00     0.167 HD
ATOM     36  C   UNL A   1      42.631  28.267  32.435  1.00  0.00     0.074 A 
ATOM     37  C   UNL A   1      43.254  27.272  31.583  1.00  0.00     0.031 C 
ATOM     38  C   UNL A   1      43.044  28.566  33.691  1.00  0.00     0.037 A 
BRANCH  25  39
ATOM     39  C   UNL A   1      39.793  33.042  36.460  1.00  0.00     0.057 A 
ATOM     40  C   UNL A   1      40.509  34.232  36.637  1.00  0.00     0.134 A 
ATOM     41  C   UNL A   1      38.856  32.702  37.445  1.00  0.00     0.134 A 
ATOM     42  F   UNL A   1      41.431  34.613  35.741  1.00  0.00    -0.206 F 
ATOM     43  C   UNL A   1      40.316  35.041  37.761  1.00  0.00     0.040 A 
ATOM     44  C   UNL A   1      38.633  33.515  38.557  1.00  0.00     0.040 A 
ATOM     45  F   UNL A   1      38.130  31.579  37.336  1.00  0.00    -0.206 F 
ATOM     46  C   UNL A   1      39.370  34.687  38.720  1.00  0.00     0.006 A 
ENDBRANCH  25  39
BRANCH  26  47
ATOM     47  C   UNL A   1      40.854  27.600  28.128  1.00  0.00     0.057 A 
ATOM     48  C   UNL A   1      40.234  26.355  27.971  1.00  0.00     0.134 A 
ATOM     49  C   UNL A   1      41.626  28.076  27.060  1.00  0.00     0.134 A 
ATOM     50  F   UNL A   1      39.492  25.841  28.963  1.00  0.00    -0.206 F 
ATOM     51  C   UNL A   1      40.391  25.604  26.804  1.00  0.00     0.040 A 
ATOM     52  C   UNL A   1      41.765  27.350  25.877  1.00  0.00     0.040 A 
ATOM     53  F   UNL A   1      42.234  29.267  27.143  1.00  0.00    -0.206 F 
ATOM     54  C   UNL A   1      41.152  26.106  25.751  1.00  0.00     0.006 A 
ENDBRANCH  26  47
BRANCH  38  55
ATOM     55  C   UNL A   1      44.208  27.783  34.226  1.00  0.00     0.057 A 
ATOM     56  C   UNL A   1      45.524  28.252  34.130  1.00  0.00     0.134 A 
ATOM     57  C   UNL A   1      44.003  26.553  34.864  1.00  0.00     0.134 A 
ATOM     58  F   UNL A   1      45.789  29.416  33.516  1.00  0.00    -0.206 F 
ATOM     59  C   UNL A   1      46.598  27.512  34.625  1.00  0.00     0.040 A 
ATOM     60  C   UNL A   1      45.066  25.819  35.390  1.00  0.00     0.040 A 
ATOM     61  F   UNL A   1      42.766  26.050  34.995  1.00  0.00    -0.206 F 
ATOM     62  C   UNL A   1      46.370  26.294  35.263  1.00  0.00     0.006 A 
ENDBRANCH  38  55
ENDBRANCH  12  13
ENDBRANCH   5   7
ENDBRANCH   2   3
ENDBRANCH   1   2
BRANCH   1  63
ATOM     63  C   UNL A   1      31.403  30.483  25.984  1.00  0.00     0.117 C 
BRANCH  63  64
ATOM     64  N   UNL A   1      30.910  30.361  24.626  1.00  0.00    -0.354 N 
ATOM     65  C   UNL A   1      30.729  29.321  23.777  1.00  0.00     0.245 C 
ATOM     66  H   UNL A   1      30.648  31.225  24.233  1.00  0.00     0.163 HD
ATOM     67  O   UNL A   1      30.344  29.641  22.642  1.00  0.00    -0.273 OA
BRANCH  65  68
ATOM     68  C   UNL A   1      30.979  27.827  24.102  1.00  0.00     0.200 C 
ATOM     69  C   UNL A   1      30.391  26.724  23.231  1.00  0.00     0.195 C 
ATOM     70  N   UNL A   1      32.447  27.600  24.094  1.00  0.00    -0.322 N 
ATOM     71  O   UNL A   1      30.881  26.800  21.881  1.00  0.00    -0.377 OA
ATOM     72  C   UNL A   1      33.031  27.671  22.752  1.00  0.00     0.149 C 
ATOM     73  C   UNL A   1      32.314  26.684  21.819  1.00  0.00     0.181 C 
BRANCH  70  74
ATOM     74  C   UNL A   1      33.251  27.306  25.183  1.00  0.00     0.256 C 
ATOM     75  O   UNL A   1      33.862  28.154  25.827  1.00  0.00    -0.269 OA
BRANCH  74  76
ATOM     76  C   UNL A   1      33.425  25.902  25.586  1.00  0.00     0.058 A 
ATOM     77  C   UNL A   1      34.617  25.206  25.380  1.00  0.00     0.018 A 
ATOM     78  C   UNL A   1      32.381  25.256  26.228  1.00  0.00     0.126 A 
ATOM     79  C   UNL A   1      34.689  23.866  25.754  1.00  0.00     0.037 A 
ATOM     80  N   UNL A   1      32.431  23.956  26.610  1.00  0.00    -0.249 NA
ATOM     81  C   UNL A   1      33.578  23.286  26.355  1.00  0.00     0.106 A 
ATOM     82  Br  UNL A   1      33.654  21.455  26.839  1.00  0.00    -0.029 Br
ENDBRANCH  74  76
ENDBRANCH  70  74
ENDBRANCH  65  68
ENDBRANCH  63  64
ENDBRANCH   1  63
TORSDOF 12
ENDMDL
MODEL 2
REMARK VINA RESULT:     -11.6      4.823      9.070
REMARK SMILES O=C(NCCCNC(=O)[C@H]1COCCN1C(=O)c1ccc(Br)nc1)c1ccc(-c2c3nc(c(-c4c(F)cccc4F)c4ccc([nH]4)c(-c4c(F)cccc4F)c4nc(c(-c5c(F)cccc5F)c5ccc2[nH]5)C=C4)C=C3)cc1
REMARK SMILES IDX 5 1 4 2 3 3 1 4 2 5 25 7 26 8 78 9 27 10 77 11 28 12 29 13
REMARK SMILES IDX 30 14 71 15 31 16 76 17 70 18 72 19 32 20 75 21 69 22 68 23
REMARK SMILES IDX 33 25 59 26 42 27 58 28 43 29 46 30 57 31 73 32 44 33 45 34
REMARK SMILES IDX 56 36 74 37 47 38 34 39 35 40 40 41 36 42 37 43 39 44 41 45
REMARK SMILES IDX 38 46 60 47 61 48 66 49 62 50 63 51 65 52 67 53 64 54 48 55
REMARK SMILES IDX 49 56 54 57 50 58 51 59 53 60 55 61 52 62 6 63 7 64 8 65
REMARK SMILES IDX 9 67 10 68 11 69 15 70 12 71 14 72 13 73 16 74 17 75 18 76
REMARK SMILES IDX 19 77 24 78 20 79 23 80 21 81 22 82
REMARK H PARENT 3 6 72 24 46 35 7 66
REMARK Flexibility Score: inf
ROOT
ATOM      1  C   UNL A   1      37.804  19.508  24.968  1.00  0.00     0.042 C 
ENDROOT
BRANCH   1   2
ATOM      2  C   UNL A   1      38.950  20.156  25.731  1.00  0.00     0.118 C 
BRANCH   2   3
ATOM      3  N   UNL A   1      40.106  19.270  25.829  1.00  0.00    -0.352 N 
ATOM      4  O   UNL A   1      42.291  18.722  25.854  1.00  0.00    -0.269 OA
ATOM      5  C   UNL A   1      41.427  19.564  26.064  1.00  0.00     0.251 C 
ATOM      6  H   UNL A   1      39.909  18.313  25.707  1.00  0.00     0.163 HD
BRANCH   5   7
ATOM      7  C   UNL A   1      41.796  20.900  26.569  1.00  0.00     0.039 A 
ATOM      8  C   UNL A   1      42.097  21.927  25.673  1.00  0.00     0.014 A 
ATOM      9  C   UNL A   1      41.813  21.139  27.945  1.00  0.00     0.014 A 
ATOM     10  C   UNL A   1      42.577  23.135  26.147  1.00  0.00     0.010 A 
ATOM     11  C   UNL A   1      42.180  22.400  28.421  1.00  0.00     0.010 A 
ATOM     12  C   UNL A   1      42.588  23.399  27.524  1.00  0.00    -0.014 A 
BRANCH  12  13
ATOM     13  C   UNL A   1      42.938  24.764  27.981  1.00  0.00     0.031 A 
ATOM     14  C   UNL A   1      41.879  25.786  28.270  1.00  0.00     0.074 A 
ATOM     15  C   UNL A   1      44.241  25.057  28.163  1.00  0.00     0.049 A 
ATOM     16  N   UNL A   1      42.020  27.017  28.691  1.00  0.00    -0.248 NA
ATOM     17  C   UNL A   1      40.482  25.382  28.053  1.00  0.00     0.031 C 
ATOM     18  C   UNL A   1      45.354  24.137  27.904  1.00  0.00     0.029 A 
ATOM     19  N   UNL A   1      44.852  26.191  28.626  1.00  0.00    -0.354 N 
ATOM     20  C   UNL A   1      40.738  27.542  28.772  1.00  0.00     0.074 A 
ATOM     21  C   UNL A   1      39.830  26.503  28.330  1.00  0.00     0.031 C 
ATOM     22  C   UNL A   1      46.504  24.724  28.262  1.00  0.00     0.029 A 
ATOM     23  C   UNL A   1      46.219  26.085  28.697  1.00  0.00     0.049 A 
ATOM     24  H   UNL A   1      44.359  27.004  28.882  1.00  0.00     0.167 HD
ATOM     25  C   UNL A   1      40.357  28.775  29.185  1.00  0.00     0.037 A 
ATOM     26  C   UNL A   1      47.148  26.992  29.047  1.00  0.00     0.037 A 
ATOM     27  C   UNL A   1      41.273  29.796  29.625  1.00  0.00     0.049 A 
ATOM     28  C   UNL A   1      46.698  28.361  29.456  1.00  0.00     0.074 A 
ATOM     29  C   UNL A   1      40.988  31.068  30.092  1.00  0.00     0.029 A 
ATOM     30  N   UNL A   1      42.655  29.667  29.643  1.00  0.00    -0.354 N 
ATOM     31  N   UNL A   1      45.480  28.832  29.561  1.00  0.00    -0.248 NA
ATOM     32  C   UNL A   1      47.752  29.328  29.788  1.00  0.00     0.031 C 
ATOM     33  C   UNL A   1      42.197  31.726  30.336  1.00  0.00     0.029 A 
ATOM     34  C   UNL A   1      43.237  30.846  30.083  1.00  0.00     0.049 A 
ATOM     35  H   UNL A   1      43.150  28.856  29.381  1.00  0.00     0.167 HD
ATOM     36  C   UNL A   1      45.617  30.145  29.990  1.00  0.00     0.074 A 
ATOM     37  C   UNL A   1      47.038  30.384  30.146  1.00  0.00     0.031 C 
ATOM     38  C   UNL A   1      44.654  31.068  30.230  1.00  0.00     0.037 A 
BRANCH  25  39
ATOM     39  C   UNL A   1      38.890  29.099  29.153  1.00  0.00     0.057 A 
ATOM     40  C   UNL A   1      38.081  29.001  30.293  1.00  0.00     0.134 A 
ATOM     41  C   UNL A   1      38.286  29.551  27.973  1.00  0.00     0.134 A 
ATOM     42  F   UNL A   1      38.589  28.562  31.454  1.00  0.00    -0.206 F 
ATOM     43  C   UNL A   1      36.721  29.321  30.254  1.00  0.00     0.040 A 
ATOM     44  C   UNL A   1      36.935  29.900  27.928  1.00  0.00     0.040 A 
ATOM     45  F   UNL A   1      39.001  29.676  26.845  1.00  0.00    -0.206 F 
ATOM     46  C   UNL A   1      36.146  29.779  29.070  1.00  0.00     0.006 A 
ENDBRANCH  25  39
BRANCH  26  47
ATOM     47  C   UNL A   1      48.586  26.629  29.004  1.00  0.00     0.057 A 
ATOM     48  C   UNL A   1      49.207  25.995  30.087  1.00  0.00     0.134 A 
ATOM     49  C   UNL A   1      49.372  26.893  27.874  1.00  0.00     0.134 A 
ATOM     50  F   UNL A   1      48.511  25.726  31.201  1.00  0.00    -0.206 F 
ATOM     51  C   UNL A   1      50.561  25.655  30.054  1.00  0.00     0.040 A 
ATOM     52  C   UNL A   1      50.717  26.530  27.817  1.00  0.00     0.040 A 
ATOM     53  F   UNL A   1      48.833  27.486  26.800  1.00  0.00    -0.206 F 
ATOM     54  C   UNL A   1      51.317  25.916  28.913  1.00  0.00     0.006 A 
ENDBRANCH  26  47
BRANCH  38  55
ATOM     55  C   UNL A   1      45.111  32.412  30.717  1.00  0.00     0.057 A 
ATOM     56  C   UNL A   1      45.297  32.684  32.078  1.00  0.00     0.134 A 
ATOM     57  C   UNL A   1      45.388  33.442  29.807  1.00  0.00     0.134 A 
ATOM     58  F   UNL A   1      45.033  31.747  33.002  1.00  0.00    -0.206 F 
ATOM     59  C   UNL A   1      45.714  33.940  32.519  1.00  0.00     0.040 A 
ATOM     60  C   UNL A   1      45.836  34.691  30.234  1.00  0.00     0.040 A 
ATOM     61  F   UNL A   1      45.237  33.245  28.489  1.00  0.00    -0.206 F 
ATOM     62  C   UNL A   1      45.992  34.946  31.596  1.00  0.00     0.006 A 
ENDBRANCH  38  55
ENDBRANCH  12  13
ENDBRANCH   5   7
ENDBRANCH   2   3
ENDBRANCH   1   2
BRANCH   1  63
ATOM     63  C   UNL A   1      36.630  20.456  24.798  1.00  0.00     0.117 C 
BRANCH  63  64
ATOM     64  N   UNL A   1      35.378  19.804  25.134  1.00  0.00    -0.354 N 
ATOM     65  C   UNL A   1      34.078  20.181  25.101  1.00  0.00     0.245 C 
ATOM     66  H   UNL A   1      35.501  18.882  25.458  1.00  0.00     0.163 HD
ATOM     67  O   UNL A   1      33.283  19.341  25.551  1.00  0.00    -0.273 OA
BRANCH  65  68
ATOM     68  C   UNL A   1      33.538  21.538  24.583  1.00  0.00     0.200 C 
ATOM     69  C   UNL A   1      32.062  21.720  24.250  1.00  0.00     0.195 C 
ATOM     70  N   UNL A   1      33.844  22.569  25.608  1.00  0.00    -0.322 N 
ATOM     71  O   UNL A   1      31.230  21.511  25.404  1.00  0.00    -0.377 OA
ATOM     72  C   UNL A   1      33.043  22.423  26.826  1.00  0.00     0.149 C 
ATOM     73  C   UNL A   1      31.549  22.423  26.472  1.00  0.00     0.181 C 
BRANCH  70  74
ATOM     74  C   UNL A   1      34.743  23.616  25.493  1.00  0.00     0.256 C 
ATOM     75  O   UNL A   1      35.906  23.560  25.880  1.00  0.00    -0.269 OA
BRANCH  74  76
ATOM     76  C   UNL A   1      34.289  24.889  24.910  1.00  0.00     0.058 A 
ATOM     77  C   UNL A   1      34.106  26.040  25.677  1.00  0.00     0.018 A 
ATOM     78  C   UNL A   1      34.071  24.959  23.544  1.00  0.00     0.126 A 
ATOM     79  C   UNL A   1      33.635  27.196  25.057  1.00  0.00     0.037 A 
ATOM     80  N   UNL A   1      33.623  26.074  22.917  1.00  0.00    -0.249 NA
ATOM     81  C   UNL A   1      33.404  27.164  23.687  1.00  0.00     0.106 A 
ATOM     82  Br  UNL A   1      32.733  28.721  22.839  1.00  0.00    -0.029 Br
ENDBRANCH  74  76
ENDBRANCH  70  74
ENDBRANCH  65  68
ENDBRANCH  63  64
ENDBRANCH   1  63
TORSDOF 12
ENDMDL
MODEL 3
REMARK VINA RESULT:     -11.5      4.894      9.698
REMARK SMILES O=C(NCCCNC(=O)[C@H]1COCCN1C(=O)c1ccc(Br)nc1)c1ccc(-c2c3nc(c(-c4c(F)cccc4F)c4ccc([nH]4)c(-c4c(F)cccc4F)c4nc(c(-c5c(F)cccc5F)c5ccc2[nH]5)C=C4)C=C3)cc1
REMARK SMILES IDX 5 1 4 2 3 3 1 4 2 5 25 7 26 8 78 9 27 10 77 11 28 12 29 13
REMARK SMILES IDX 30 14 71 15 31 16 76 17 70 18 72 19 32 20 75 21 69 22 68 23
REMARK SMILES IDX 33 25 59 26 42 27 58 28 43 29 46 30 57 31 73 32 44 33 45 34
REMARK SMILES IDX 56 36 74 37 47 38 34 39 35 40 40 41 36 42 37 43 39 44 41 45
REMARK SMILES IDX 38 46 60 47 61 48 66 49 62 50 63 51 65 52 67 53 64 54 48 55
REMARK SMILES IDX 49 56 54 57 50 58 51 59 53 60 55 61 52 62 6 63 7 64 8 65
REMARK SMILES IDX 9 67 10 68 11 69 15 70 12 71 14 72 13 73 16 74 17 75 18 76
REMARK SMILES IDX 19 77 24 78 20 79 23 80 21 81 22 82
REMARK H PARENT 3 6 72 24 46 35 7 66
REMARK Flexibility Score: inf
ROOT
ATOM      1  C   UNL A   1      37.506  19.581  25.024  1.00  0.00     0.042 C 
ENDROOT
BRANCH   1   2
ATOM      2  C   UNL A   1      38.825  20.254  25.372  1.00  0.00     0.118 C 
BRANCH   2   3
ATOM      3  N   UNL A   1      39.860  19.279  25.705  1.00  0.00    -0.352 N 
ATOM      4  O   UNL A   1      41.951  18.544  26.109  1.00  0.00    -0.269 OA
ATOM      5  C   UNL A   1      41.152  19.472  26.129  1.00  0.00     0.251 C 
ATOM      6  H   UNL A   1      39.590  18.337  25.610  1.00  0.00     0.163 HD
BRANCH   5   7
ATOM      7  C   UNL A   1      41.569  20.804  26.606  1.00  0.00     0.039 A 
ATOM      8  C   UNL A   1      41.920  21.796  25.689  1.00  0.00     0.014 A 
ATOM      9  C   UNL A   1      41.583  21.075  27.976  1.00  0.00     0.014 A 
ATOM     10  C   UNL A   1      42.444  22.996  26.139  1.00  0.00     0.010 A 
ATOM     11  C   UNL A   1      41.996  22.331  28.426  1.00  0.00     0.010 A 
ATOM     12  C   UNL A   1      42.452  23.291  27.511  1.00  0.00    -0.014 A 
BRANCH  12  13
ATOM     13  C   UNL A   1      42.853  24.652  27.939  1.00  0.00     0.031 A 
ATOM     14  C   UNL A   1      44.297  25.052  28.017  1.00  0.00     0.074 A 
ATOM     15  C   UNL A   1      41.880  25.538  28.227  1.00  0.00     0.049 A 
ATOM     16  N   UNL A   1      44.811  26.207  28.358  1.00  0.00    -0.248 NA
ATOM     17  C   UNL A   1      45.295  24.027  27.678  1.00  0.00     0.031 C 
ATOM     18  C   UNL A   1      40.442  25.250  28.190  1.00  0.00     0.029 A 
ATOM     19  N   UNL A   1      41.941  26.859  28.583  1.00  0.00    -0.354 N 
ATOM     20  C   UNL A   1      46.187  26.045  28.293  1.00  0.00     0.074 A 
ATOM     21  C   UNL A   1      46.432  24.670  27.907  1.00  0.00     0.031 C 
ATOM     22  C   UNL A   1      39.760  26.371  28.457  1.00  0.00     0.029 A 
ATOM     23  C   UNL A   1      40.708  27.435  28.763  1.00  0.00     0.049 A 
ATOM     24  H   UNL A   1      42.788  27.348  28.699  1.00  0.00     0.167 HD
ATOM     25  C   UNL A   1      47.155  26.964  28.529  1.00  0.00     0.037 A 
ATOM     26  C   UNL A   1      40.373  28.675  29.159  1.00  0.00     0.037 A 
ATOM     27  C   UNL A   1      46.895  28.329  28.910  1.00  0.00     0.049 A 
ATOM     28  C   UNL A   1      41.467  29.655  29.456  1.00  0.00     0.074 A 
ATOM     29  C   UNL A   1      47.802  29.348  29.142  1.00  0.00     0.029 A 
ATOM     30  N   UNL A   1      45.632  28.865  29.125  1.00  0.00    -0.354 N 
ATOM     31  N   UNL A   1      42.764  29.498  29.357  1.00  0.00    -0.248 NA
ATOM     32  C   UNL A   1      41.051  30.982  29.925  1.00  0.00     0.031 C 
ATOM     33  C   UNL A   1      47.094  30.481  29.554  1.00  0.00     0.029 A 
ATOM     34  C   UNL A   1      45.739  30.190  29.517  1.00  0.00     0.049 A 
ATOM     35  H   UNL A   1      44.785  28.375  29.014  1.00  0.00     0.167 HD
ATOM     36  C   UNL A   1      43.322  30.712  29.734  1.00  0.00     0.074 A 
ATOM     37  C   UNL A   1      42.217  31.599  30.040  1.00  0.00     0.031 C 
ATOM     38  C   UNL A   1      44.629  31.058  29.820  1.00  0.00     0.037 A 
BRANCH  25  39
ATOM     39  C   UNL A   1      48.585  26.517  28.410  1.00  0.00     0.057 A 
ATOM     40  C   UNL A   1      49.286  25.969  29.492  1.00  0.00     0.134 A 
ATOM     41  C   UNL A   1      49.258  26.602  27.184  1.00  0.00     0.134 A 
ATOM     42  F   UNL A   1      48.708  25.869  30.698  1.00  0.00    -0.206 F 
ATOM     43  C   UNL A   1      50.611  25.543  29.364  1.00  0.00     0.040 A 
ATOM     44  C   UNL A   1      50.572  26.154  27.037  1.00  0.00     0.040 A 
ATOM     45  F   UNL A   1      48.646  27.110  26.104  1.00  0.00    -0.206 F 
ATOM     46  C   UNL A   1      51.255  25.629  28.132  1.00  0.00     0.006 A 
ENDBRANCH  25  39
BRANCH  26  47
ATOM     47  C   UNL A   1      38.943  29.040  29.311  1.00  0.00     0.057 A 
ATOM     48  C   UNL A   1      38.291  28.919  30.544  1.00  0.00     0.134 A 
ATOM     49  C   UNL A   1      38.197  29.531  28.232  1.00  0.00     0.134 A 
ATOM     50  F   UNL A   1      38.948  28.443  31.611  1.00  0.00    -0.206 F 
ATOM     51  C   UNL A   1      36.944  29.257  30.693  1.00  0.00     0.040 A 
ATOM     52  C   UNL A   1      36.860  29.902  28.375  1.00  0.00     0.040 A 
ATOM     53  F   UNL A   1      38.767  29.683  27.028  1.00  0.00    -0.206 F 
ATOM     54  C   UNL A   1      36.228  29.757  29.607  1.00  0.00     0.006 A 
ENDBRANCH  26  47
BRANCH  38  55
ATOM     55  C   UNL A   1      44.930  32.470  30.235  1.00  0.00     0.057 A 
ATOM     56  C   UNL A   1      45.002  33.516  29.307  1.00  0.00     0.134 A 
ATOM     57  C   UNL A   1      45.129  32.786  31.586  1.00  0.00     0.134 A 
ATOM     58  F   UNL A   1      44.838  33.277  27.997  1.00  0.00    -0.206 F 
ATOM     59  C   UNL A   1      45.289  34.823  29.704  1.00  0.00     0.040 A 
ATOM     60  C   UNL A   1      45.386  34.094  31.997  1.00  0.00     0.040 A 
ATOM     61  F   UNL A   1      45.066  31.832  32.526  1.00  0.00    -0.206 F 
ATOM     62  C   UNL A   1      45.475  35.115  31.054  1.00  0.00     0.006 A 
ENDBRANCH  38  55
ENDBRANCH  12  13
ENDBRANCH   5   7
ENDBRANCH   2   3
ENDBRANCH   1   2
BRANCH   1  63
ATOM     63  C   UNL A   1      36.359  20.576  24.973  1.00  0.00     0.117 C 
BRANCH  63  64
ATOM     64  N   UNL A   1      35.095  19.935  25.283  1.00  0.00    -0.354 N 
ATOM     65  C   UNL A   1      33.802  20.334  25.257  1.00  0.00     0.245 C 
ATOM     66  H   UNL A   1      35.202  19.000  25.577  1.00  0.00     0.163 HD
ATOM     67  O   UNL A   1      32.991  19.494  25.676  1.00  0.00    -0.273 OA
BRANCH  65  68
ATOM     68  C   UNL A   1      33.287  21.716  24.781  1.00  0.00     0.200 C 
ATOM     69  C   UNL A   1      31.806  21.950  24.506  1.00  0.00     0.195 C 
ATOM     70  N   UNL A   1      33.663  22.720  25.809  1.00  0.00    -0.322 N 
ATOM     71  O   UNL A   1      31.011  21.748  25.687  1.00  0.00    -0.377 OA
ATOM     72  C   UNL A   1      32.904  22.578  27.055  1.00  0.00     0.149 C 
ATOM     73  C   UNL A   1      31.398  22.631  26.756  1.00  0.00     0.181 C 
BRANCH  70  74
ATOM     74  C   UNL A   1      34.590  23.740  25.678  1.00  0.00     0.256 C 
ATOM     75  O   UNL A   1      35.742  23.672  26.097  1.00  0.00    -0.269 OA
BRANCH  74  76
ATOM     76  C   UNL A   1      34.183  24.998  25.034  1.00  0.00     0.058 A 
ATOM     77  C   UNL A   1      33.975  26.175  25.754  1.00  0.00     0.018 A 
ATOM     78  C   UNL A   1      34.036  25.029  23.657  1.00  0.00     0.126 A 
ATOM     79  C   UNL A   1      33.551  27.316  25.076  1.00  0.00     0.037 A 
ATOM     80  N   UNL A   1      33.635  26.129  22.974  1.00  0.00    -0.249 NA
ATOM     81  C   UNL A   1      33.390  27.244  23.698  1.00  0.00     0.106 A 
ATOM     82  Br  UNL A   1      32.783  28.782  22.770  1.00  0.00    -0.029 Br
ENDBRANCH  74  76
ENDBRANCH  70  74
ENDBRANCH  65  68
ENDBRANCH  63  64
ENDBRANCH   1  63
TORSDOF 12
ENDMDL
