MODEL 1
REMARK VINA RESULT:     -10.9      0.000      0.000
REMARK SMILES COc1cc(/C=C/C(=O)NCCCNC(=O)c2ccc(-c3c4nc(c(-c5c(F)cccc5F)c5ccc([nH]5)c(-c5c(F)cccc5F)c5nc(c(-c6c(F)cccc6F)c6ccc3[nH]6)C=C5)C=C4)cc2)cc(OC)c1O
REMARK SMILES IDX 12 1 11 2 10 3 8 4 9 5 7 7 6 8 5 9 3 10 4 11 75 12 72 13
REMARK SMILES IDX 71 14 2 15 1 16 76 17 73 19 74 20 13 21 14 22 15 23 16 25
REMARK SMILES IDX 17 26 18 27 70 28 19 29 69 30 20 31 21 32 22 33 63 34 23 35
REMARK SMILES IDX 68 36 62 37 64 38 24 39 67 40 61 41 60 42 25 44 51 45 34 46
REMARK SMILES IDX 50 47 35 48 38 49 49 50 65 51 36 52 37 53 48 55 66 56 39 57
REMARK SMILES IDX 26 58 27 59 32 60 28 61 29 62 31 63 33 64 30 65 52 66 53 67
REMARK SMILES IDX 58 68 54 69 55 70 57 71 59 72 56 73 40 74 41 75 46 76 42 77
REMARK SMILES IDX 43 78 45 79 47 80 44 81
REMARK H PARENT 10 6 76 18 14 24 64 43 38 54
REMARK Flexibility Score: inf
ROOT
ATOM      1  C   UNL A   1      37.037  19.910  24.987  1.00  0.00     0.042 C 
ENDROOT
BRANCH   1   2
ATOM      2  C   UNL A   1      35.906  20.930  24.859  1.00  0.00     0.118 C 
BRANCH   2   3
ATOM      3  N   UNL A   1      35.227  21.131  26.128  1.00  0.00    -0.352 N 
ATOM      4  C   UNL A   1      34.689  22.247  26.685  1.00  0.00     0.244 C 
ATOM      5  O   UNL A   1      34.063  22.151  27.739  1.00  0.00    -0.270 OA
ATOM      6  H   UNL A   1      35.142  20.318  26.677  1.00  0.00     0.163 HD
BRANCH   4   7
ATOM      7  C   UNL A   1      34.767  23.562  26.011  1.00  0.00     0.072 C 
ATOM      8  C   UNL A   1      33.763  24.448  25.952  1.00  0.00     0.014 C 
BRANCH   8   9
ATOM      9  C   UNL A   1      33.830  25.726  25.229  1.00  0.00    -0.018 A 
ATOM     10  C   UNL A   1      33.740  27.042  23.186  1.00  0.00     0.165 A 
ATOM     11  C   UNL A   1      33.794  25.802  23.833  1.00  0.00     0.058 A 
ATOM     12  C   UNL A   1      33.683  28.224  23.942  1.00  0.00     0.200 A 
ATOM     13  C   UNL A   1      33.767  28.170  25.338  1.00  0.00     0.165 A 
ATOM     14  C   UNL A   1      33.830  26.917  25.965  1.00  0.00     0.058 A 
BRANCH  10  15
ATOM     15  O   UNL A   1      33.633  26.972  21.820  1.00  0.00    -0.493 OA
ATOM     16  C   UNL A   1      32.875  25.881  21.300  1.00  0.00     0.278 C 
ENDBRANCH  10  15
BRANCH  12  17
ATOM     17  O   UNL A   1      33.444  29.412  23.308  1.00  0.00    -0.502 OA
ATOM     18  H   UNL A   1      33.184  29.419  22.408  1.00  0.00     0.293 HD
ENDBRANCH  12  17
BRANCH  13  19
ATOM     19  O   UNL A   1      33.732  29.205  26.236  1.00  0.00    -0.493 OA
ATOM     20  C   UNL A   1      32.476  29.596  26.770  1.00  0.00     0.278 C 
ENDBRANCH  13  19
ENDBRANCH   8   9
ENDBRANCH   4   7
ENDBRANCH   2   3
ENDBRANCH   1   2
BRANCH   1  21
ATOM     21  C   UNL A   1      38.400  20.540  25.269  1.00  0.00     0.118 C 
BRANCH  21  22
ATOM     22  N   UNL A   1      39.431  19.537  25.502  1.00  0.00    -0.352 N 
ATOM     23  C   UNL A   1      40.718  19.678  25.957  1.00  0.00     0.251 C 
ATOM     24  H   UNL A   1      39.163  18.613  25.299  1.00  0.00     0.163 HD
ATOM     25  O   UNL A   1      41.494  18.732  25.874  1.00  0.00    -0.269 OA
BRANCH  23  26
ATOM     26  C   UNL A   1      41.182  20.957  26.540  1.00  0.00     0.039 A 
ATOM     27  C   UNL A   1      41.763  21.907  25.695  1.00  0.00     0.014 A 
ATOM     28  C   UNL A   1      41.103  21.200  27.914  1.00  0.00     0.014 A 
ATOM     29  C   UNL A   1      42.219  23.120  26.219  1.00  0.00     0.010 A 
ATOM     30  C   UNL A   1      41.496  22.435  28.425  1.00  0.00     0.010 A 
ATOM     31  C   UNL A   1      42.064  23.404  27.585  1.00  0.00    -0.014 A 
BRANCH  31  32
ATOM     32  C   UNL A   1      42.493  24.708  28.152  1.00  0.00     0.031 A 
ATOM     33  C   UNL A   1      41.487  25.802  28.383  1.00  0.00     0.074 A 
ATOM     34  C   UNL A   1      43.799  24.929  28.397  1.00  0.00     0.049 A 
ATOM     35  N   UNL A   1      41.679  27.030  28.793  1.00  0.00    -0.248 NA
ATOM     36  C   UNL A   1      40.081  25.479  28.092  1.00  0.00     0.031 C 
ATOM     37  C   UNL A   1      44.876  23.964  28.174  1.00  0.00     0.029 A 
ATOM     38  N   UNL A   1      44.442  26.042  28.875  1.00  0.00    -0.354 N 
ATOM     39  C   UNL A   1      40.426  27.630  28.791  1.00  0.00     0.074 A 
ATOM     40  C   UNL A   1      39.488  26.646  28.295  1.00  0.00     0.031 C 
ATOM     41  C   UNL A   1      46.044  24.520  28.531  1.00  0.00     0.029 A 
ATOM     42  C   UNL A   1      45.805  25.890  28.971  1.00  0.00     0.049 A 
ATOM     43  H   UNL A   1      43.973  26.870  29.126  1.00  0.00     0.167 HD
ATOM     44  C   UNL A   1      40.085  28.880  29.186  1.00  0.00     0.037 A 
ATOM     45  C   UNL A   1      46.753  26.761  29.363  1.00  0.00     0.037 A 
ATOM     46  C   UNL A   1      41.018  29.849  29.701  1.00  0.00     0.049 A 
ATOM     47  C   UNL A   1      46.350  28.143  29.797  1.00  0.00     0.074 A 
ATOM     48  C   UNL A   1      40.763  31.122  30.181  1.00  0.00     0.029 A 
ATOM     49  N   UNL A   1      42.386  29.649  29.806  1.00  0.00    -0.354 N 
ATOM     50  N   UNL A   1      45.155  28.676  29.846  1.00  0.00    -0.248 NA
ATOM     51  C   UNL A   1      47.428  29.040  30.234  1.00  0.00     0.031 C 
ATOM     52  C   UNL A   1      41.982  31.706  30.540  1.00  0.00     0.029 A 
ATOM     53  C   UNL A   1      42.992  30.782  30.325  1.00  0.00     0.049 A 
ATOM     54  H   UNL A   1      42.858  28.823  29.549  1.00  0.00     0.167 HD
ATOM     55  C   UNL A   1      45.331  29.961  30.344  1.00  0.00     0.074 A 
ATOM     56  C   UNL A   1      46.749  30.120  30.594  1.00  0.00     0.031 C 
ATOM     57  C   UNL A   1      44.403  30.922  30.574  1.00  0.00     0.037 A 
BRANCH  44  58
ATOM     58  C   UNL A   1      38.640  29.271  29.077  1.00  0.00     0.057 A 
ATOM     59  C   UNL A   1      38.079  29.692  27.864  1.00  0.00     0.134 A 
ATOM     60  C   UNL A   1      37.792  29.194  30.189  1.00  0.00     0.134 A 
ATOM     61  F   UNL A   1      38.840  29.798  26.764  1.00  0.00    -0.206 F 
ATOM     62  C   UNL A   1      36.733  30.050  27.767  1.00  0.00     0.040 A 
ATOM     63  C   UNL A   1      36.437  29.523  30.098  1.00  0.00     0.040 A 
ATOM     64  F   UNL A   1      38.260  28.791  31.379  1.00  0.00    -0.206 F 
ATOM     65  C   UNL A   1      35.906  29.959  28.885  1.00  0.00     0.006 A 
ENDBRANCH  44  58
BRANCH  45  66
ATOM     66  C   UNL A   1      48.178  26.345  29.384  1.00  0.00     0.057 A 
ATOM     67  C   UNL A   1      48.740  25.754  30.522  1.00  0.00     0.134 A 
ATOM     68  C   UNL A   1      49.010  26.526  28.273  1.00  0.00     0.134 A 
ATOM     69  F   UNL A   1      47.997  25.572  31.623  1.00  0.00    -0.206 F 
ATOM     70  C   UNL A   1      50.082  25.375  30.561  1.00  0.00     0.040 A 
ATOM     71  C   UNL A   1      50.349  26.130  28.290  1.00  0.00     0.040 A 
ATOM     72  F   UNL A   1      48.529  27.078  27.149  1.00  0.00    -0.206 F 
ATOM     73  C   UNL A   1      50.889  25.559  29.440  1.00  0.00     0.006 A 
ENDBRANCH  45  66
BRANCH  57  74
ATOM     74  C   UNL A   1      44.888  32.217  31.154  1.00  0.00     0.057 A 
ATOM     75  C   UNL A   1      44.976  32.418  32.537  1.00  0.00     0.134 A 
ATOM     76  C   UNL A   1      45.307  33.260  30.319  1.00  0.00     0.134 A 
ATOM     77  F   UNL A   1      44.577  31.464  33.391  1.00  0.00    -0.206 F 
ATOM     78  C   UNL A   1      45.443  33.622  33.069  1.00  0.00     0.040 A 
ATOM     79  C   UNL A   1      45.799  34.457  30.838  1.00  0.00     0.040 A 
ATOM     80  F   UNL A   1      45.256  33.126  28.984  1.00  0.00    -0.206 F 
ATOM     81  C   UNL A   1      45.863  34.643  32.218  1.00  0.00     0.006 A 
ENDBRANCH  57  74
ENDBRANCH  31  32
ENDBRANCH  23  26
ENDBRANCH  21  22
ENDBRANCH   1  21
TORSDOF 14
ENDMDL
MODEL 2
REMARK VINA RESULT:     -10.7      0.437      1.757
REMARK SMILES COc1cc(/C=C/C(=O)NCCCNC(=O)c2ccc(-c3c4nc(c(-c5c(F)cccc5F)c5ccc([nH]5)c(-c5c(F)cccc5F)c5nc(c(-c6c(F)cccc6F)c6ccc3[nH]6)C=C5)C=C4)cc2)cc(OC)c1O
REMARK SMILES IDX 12 1 11 2 10 3 8 4 9 5 7 7 6 8 5 9 3 10 4 11 75 12 72 13
REMARK SMILES IDX 71 14 2 15 1 16 76 17 73 19 74 20 13 21 14 22 15 23 16 25
REMARK SMILES IDX 17 26 18 27 70 28 19 29 69 30 20 31 21 32 22 33 63 34 23 35
REMARK SMILES IDX 68 36 62 37 64 38 24 39 67 40 61 41 60 42 25 44 51 45 34 46
REMARK SMILES IDX 50 47 35 48 38 49 49 50 65 51 36 52 37 53 48 55 66 56 39 57
REMARK SMILES IDX 26 58 27 59 32 60 28 61 29 62 31 63 33 64 30 65 52 66 53 67
REMARK SMILES IDX 58 68 54 69 55 70 57 71 59 72 56 73 40 74 41 75 46 76 42 77
REMARK SMILES IDX 43 78 45 79 47 80 44 81
REMARK H PARENT 10 6 76 18 14 24 64 43 38 54
REMARK Flexibility Score: inf
ROOT
ATOM      1  C   UNL A   1      37.277  19.743  24.975  1.00  0.00     0.042 C 
ENDROOT
BRANCH   1   2
ATOM      2  C   UNL A   1      36.107  20.712  24.819  1.00  0.00     0.118 C 
BRANCH   2   3
ATOM      3  N   UNL A   1      35.505  21.029  26.103  1.00  0.00    -0.352 N 
ATOM      4  C   UNL A   1      34.707  22.060  26.484  1.00  0.00     0.244 C 
ATOM      5  O   UNL A   1      34.227  22.061  27.616  1.00  0.00    -0.270 OA
ATOM      6  H   UNL A   1      35.711  20.384  26.818  1.00  0.00     0.163 HD
BRANCH   4   7
ATOM      7  C   UNL A   1      34.336  23.139  25.543  1.00  0.00     0.072 C 
ATOM      8  C   UNL A   1      34.423  24.449  25.814  1.00  0.00     0.014 C 
BRANCH   8   9
ATOM      9  C   UNL A   1      33.995  25.514  24.896  1.00  0.00    -0.018 A 
ATOM     10  C   UNL A   1      33.506  27.841  24.389  1.00  0.00     0.165 A 
ATOM     11  C   UNL A   1      33.798  26.833  25.315  1.00  0.00     0.058 A 
ATOM     12  C   UNL A   1      33.446  27.536  23.019  1.00  0.00     0.200 A 
ATOM     13  C   UNL A   1      33.592  26.214  22.585  1.00  0.00     0.165 A 
ATOM     14  C   UNL A   1      33.874  25.218  23.532  1.00  0.00     0.058 A 
BRANCH  10  15
ATOM     15  O   UNL A   1      33.412  29.101  24.923  1.00  0.00    -0.493 OA
ATOM     16  C   UNL A   1      32.116  29.509  25.358  1.00  0.00     0.278 C 
ENDBRANCH  10  15
BRANCH  12  17
ATOM     17  O   UNL A   1      33.345  28.556  22.112  1.00  0.00    -0.502 OA
ATOM     18  H   UNL A   1      33.804  28.505  21.296  1.00  0.00     0.293 HD
ENDBRANCH  12  17
BRANCH  13  19
ATOM     19  O   UNL A   1      33.561  25.727  21.305  1.00  0.00    -0.493 OA
ATOM     20  C   UNL A   1      32.310  25.662  20.636  1.00  0.00     0.278 C 
ENDBRANCH  13  19
ENDBRANCH   8   9
ENDBRANCH   4   7
ENDBRANCH   2   3
ENDBRANCH   1   2
BRANCH   1  21
ATOM     21  C   UNL A   1      38.558  20.405  25.479  1.00  0.00     0.118 C 
BRANCH  21  22
ATOM     22  N   UNL A   1      39.642  19.447  25.650  1.00  0.00    -0.352 N 
ATOM     23  C   UNL A   1      40.942  19.640  26.045  1.00  0.00     0.251 C 
ATOM     24  H   UNL A   1      39.405  18.513  25.450  1.00  0.00     0.163 HD
ATOM     25  O   UNL A   1      41.754  18.729  25.914  1.00  0.00    -0.269 OA
BRANCH  23  26
ATOM     26  C   UNL A   1      41.377  20.932  26.621  1.00  0.00     0.039 A 
ATOM     27  C   UNL A   1      41.929  21.894  25.768  1.00  0.00     0.014 A 
ATOM     28  C   UNL A   1      41.302  21.179  27.994  1.00  0.00     0.014 A 
ATOM     29  C   UNL A   1      42.357  23.119  26.284  1.00  0.00     0.010 A 
ATOM     30  C   UNL A   1      41.668  22.425  28.498  1.00  0.00     0.010 A 
ATOM     31  C   UNL A   1      42.205  23.405  27.650  1.00  0.00    -0.014 A 
BRANCH  31  32
ATOM     32  C   UNL A   1      42.604  24.721  28.209  1.00  0.00     0.031 A 
ATOM     33  C   UNL A   1      41.577  25.801  28.415  1.00  0.00     0.074 A 
ATOM     34  C   UNL A   1      43.903  24.966  28.469  1.00  0.00     0.049 A 
ATOM     35  N   UNL A   1      41.744  27.036  28.814  1.00  0.00    -0.248 NA
ATOM     36  C   UNL A   1      40.181  25.452  28.108  1.00  0.00     0.031 C 
ATOM     37  C   UNL A   1      44.999  24.017  28.271  1.00  0.00     0.029 A 
ATOM     38  N   UNL A   1      44.521  26.094  28.945  1.00  0.00    -0.354 N 
ATOM     39  C   UNL A   1      40.481  27.615  28.790  1.00  0.00     0.074 A 
ATOM     40  C   UNL A   1      39.566  26.611  28.291  1.00  0.00     0.031 C 
ATOM     41  C   UNL A   1      46.153  24.596  28.638  1.00  0.00     0.029 A 
ATOM     42  C   UNL A   1      45.885  25.966  29.061  1.00  0.00     0.049 A 
ATOM     43  H   UNL A   1      44.036  26.917  29.181  1.00  0.00     0.167 HD
ATOM     44  C   UNL A   1      40.115  28.864  29.166  1.00  0.00     0.037 A 
ATOM     45  C   UNL A   1      46.813  26.856  29.457  1.00  0.00     0.037 A 
ATOM     46  C   UNL A   1      41.024  29.853  29.684  1.00  0.00     0.049 A 
ATOM     47  C   UNL A   1      46.382  28.236  29.871  1.00  0.00     0.074 A 
ATOM     48  C   UNL A   1      40.742  31.126  30.147  1.00  0.00     0.029 A 
ATOM     49  N   UNL A   1      42.394  29.677  29.809  1.00  0.00    -0.354 N 
ATOM     50  N   UNL A   1      45.177  28.750  29.898  1.00  0.00    -0.248 NA
ATOM     51  C   UNL A   1      47.439  29.155  30.313  1.00  0.00     0.031 C 
ATOM     52  C   UNL A   1      41.947  31.734  30.516  1.00  0.00     0.029 A 
ATOM     53  C   UNL A   1      42.974  30.824  30.325  1.00  0.00     0.049 A 
ATOM     54  H   UNL A   1      42.883  28.856  29.568  1.00  0.00     0.167 HD
ATOM     55  C   UNL A   1      45.326  30.043  30.385  1.00  0.00     0.074 A 
ATOM     56  C   UNL A   1      46.738  30.228  30.652  1.00  0.00     0.031 C 
ATOM     57  C   UNL A   1      44.379  30.990  30.592  1.00  0.00     0.037 A 
BRANCH  44  58
ATOM     58  C   UNL A   1      38.665  29.229  29.033  1.00  0.00     0.057 A 
ATOM     59  C   UNL A   1      38.115  29.635  27.811  1.00  0.00     0.134 A 
ATOM     60  C   UNL A   1      37.801  29.143  30.133  1.00  0.00     0.134 A 
ATOM     61  F   UNL A   1      38.891  29.749  26.722  1.00  0.00    -0.206 F 
ATOM     62  C   UNL A   1      36.765  29.970  27.692  1.00  0.00     0.040 A 
ATOM     63  C   UNL A   1      36.443  29.449  30.020  1.00  0.00     0.040 A 
ATOM     64  F   UNL A   1      38.258  28.754  31.332  1.00  0.00    -0.206 F 
ATOM     65  C   UNL A   1      35.923  29.871  28.797  1.00  0.00     0.006 A 
ENDBRANCH  44  58
BRANCH  45  66
ATOM     66  C   UNL A   1      48.244  26.465  29.501  1.00  0.00     0.057 A 
ATOM     67  C   UNL A   1      48.797  25.884  30.649  1.00  0.00     0.134 A 
ATOM     68  C   UNL A   1      49.092  26.659  28.404  1.00  0.00     0.134 A 
ATOM     69  F   UNL A   1      48.039  25.689  31.737  1.00  0.00    -0.206 F 
ATOM     70  C   UNL A   1      50.145  25.527  30.711  1.00  0.00     0.040 A 
ATOM     71  C   UNL A   1      50.436  26.284  28.444  1.00  0.00     0.040 A 
ATOM     72  F   UNL A   1      48.620  27.202  27.272  1.00  0.00    -0.206 F 
ATOM     73  C   UNL A   1      50.967  25.723  29.603  1.00  0.00     0.006 A 
ENDBRANCH  45  66
BRANCH  57  74
ATOM     74  C   UNL A   1      44.835  32.299  31.165  1.00  0.00     0.057 A 
ATOM     75  C   UNL A   1      45.199  33.376  30.348  1.00  0.00     0.134 A 
ATOM     76  C   UNL A   1      44.872  32.495  32.551  1.00  0.00     0.134 A 
ATOM     77  F   UNL A   1      45.198  33.248  29.013  1.00  0.00    -0.206 F 
ATOM     78  C   UNL A   1      45.608  34.596  30.891  1.00  0.00     0.040 A 
ATOM     79  C   UNL A   1      45.254  33.717  33.105  1.00  0.00     0.040 A 
ATOM     80  F   UNL A   1      44.527  31.505  33.389  1.00  0.00    -0.206 F 
ATOM     81  C   UNL A   1      45.629  34.771  32.273  1.00  0.00     0.006 A 
ENDBRANCH  57  74
ENDBRANCH  31  32
ENDBRANCH  23  26
ENDBRANCH  21  22
ENDBRANCH   1  21
TORSDOF 14
ENDMDL
MODEL 3
REMARK VINA RESULT:     -10.7      3.327      8.751
REMARK SMILES COc1cc(/C=C/C(=O)NCCCNC(=O)c2ccc(-c3c4nc(c(-c5c(F)cccc5F)c5ccc([nH]5)c(-c5c(F)cccc5F)c5nc(c(-c6c(F)cccc6F)c6ccc3[nH]6)C=C5)C=C4)cc2)cc(OC)c1O
REMARK SMILES IDX 12 1 11 2 10 3 8 4 9 5 7 7 6 8 5 9 3 10 4 11 75 12 72 13
REMARK SMILES IDX 71 14 2 15 1 16 76 17 73 19 74 20 13 21 14 22 15 23 16 25
REMARK SMILES IDX 17 26 18 27 70 28 19 29 69 30 20 31 21 32 22 33 63 34 23 35
REMARK SMILES IDX 68 36 62 37 64 38 24 39 67 40 61 41 60 42 25 44 51 45 34 46
REMARK SMILES IDX 50 47 35 48 38 49 49 50 65 51 36 52 37 53 48 55 66 56 39 57
REMARK SMILES IDX 26 58 27 59 32 60 28 61 29 62 31 63 33 64 30 65 52 66 53 67
REMARK SMILES IDX 58 68 54 69 55 70 57 71 59 72 56 73 40 74 41 75 46 76 42 77
REMARK SMILES IDX 43 78 45 79 47 80 44 81
REMARK H PARENT 10 6 76 18 14 24 64 43 38 54
REMARK Flexibility Score: inf
ROOT
ATOM      1  C   UNL A   1      31.258  31.142  25.992  1.00  0.00     0.042 C 
ENDROOT
BRANCH   1   2
ATOM      2  C   UNL A   1      31.429  29.695  25.533  1.00  0.00     0.118 C 
BRANCH   2   3
ATOM      3  N   UNL A   1      32.361  29.597  24.423  1.00  0.00    -0.352 N 
ATOM      4  C   UNL A   1      33.279  28.646  24.111  1.00  0.00     0.244 C 
ATOM      5  O   UNL A   1      33.892  28.728  23.048  1.00  0.00    -0.270 OA
ATOM      6  H   UNL A   1      32.321  30.350  23.789  1.00  0.00     0.163 HD
BRANCH   4   7
ATOM      7  C   UNL A   1      33.500  27.469  24.980  1.00  0.00     0.072 C 
ATOM      8  C   UNL A   1      33.988  26.293  24.560  1.00  0.00     0.014 C 
BRANCH   8   9
ATOM      9  C   UNL A   1      34.147  25.110  25.418  1.00  0.00    -0.018 A 
ATOM     10  C   UNL A   1      33.250  23.371  26.860  1.00  0.00     0.165 A 
ATOM     11  C   UNL A   1      33.088  24.565  26.149  1.00  0.00     0.058 A 
ATOM     12  C   UNL A   1      34.477  22.689  26.811  1.00  0.00     0.200 A 
ATOM     13  C   UNL A   1      35.563  23.243  26.125  1.00  0.00     0.165 A 
ATOM     14  C   UNL A   1      35.381  24.447  25.428  1.00  0.00     0.058 A 
BRANCH  10  15
ATOM     15  O   UNL A   1      32.113  22.907  27.471  1.00  0.00    -0.493 OA
ATOM     16  C   UNL A   1      30.883  23.163  26.796  1.00  0.00     0.278 C 
ENDBRANCH  10  15
BRANCH  12  17
ATOM     17  O   UNL A   1      34.567  21.435  27.353  1.00  0.00    -0.502 OA
ATOM     18  H   UNL A   1      34.563  20.682  26.796  1.00  0.00     0.293 HD
ENDBRANCH  12  17
BRANCH  13  19
ATOM     19  O   UNL A   1      36.826  22.734  25.970  1.00  0.00    -0.493 OA
ATOM     20  C   UNL A   1      37.069  21.844  24.891  1.00  0.00     0.278 C 
ENDBRANCH  13  19
ENDBRANCH   8   9
ENDBRANCH   4   7
ENDBRANCH   2   3
ENDBRANCH   1   2
BRANCH   1  21
ATOM     21  C   UNL A   1      32.370  31.625  26.922  1.00  0.00     0.118 C 
BRANCH  21  22
ATOM     22  N   UNL A   1      32.216  33.028  27.281  1.00  0.00    -0.352 N 
ATOM     23  C   UNL A   1      32.982  33.824  28.095  1.00  0.00     0.251 C 
ATOM     24  H   UNL A   1      31.439  33.477  26.876  1.00  0.00     0.163 HD
ATOM     25  O   UNL A   1      32.556  34.922  28.439  1.00  0.00    -0.269 OA
BRANCH  23  26
ATOM     26  C   UNL A   1      34.310  33.374  28.567  1.00  0.00     0.039 A 
ATOM     27  C   UNL A   1      34.380  32.589  29.723  1.00  0.00     0.014 A 
ATOM     28  C   UNL A   1      35.484  33.764  27.918  1.00  0.00     0.014 A 
ATOM     29  C   UNL A   1      35.620  32.157  30.198  1.00  0.00     0.010 A 
ATOM     30  C   UNL A   1      36.714  33.278  28.354  1.00  0.00     0.010 A 
ATOM     31  C   UNL A   1      36.797  32.475  29.501  1.00  0.00    -0.014 A 
BRANCH  31  32
ATOM     32  C   UNL A   1      38.119  31.981  29.958  1.00  0.00     0.031 A 
ATOM     33  C   UNL A   1      38.655  30.669  29.453  1.00  0.00     0.074 A 
ATOM     34  C   UNL A   1      38.808  32.682  30.880  1.00  0.00     0.049 A 
ATOM     35  N   UNL A   1      39.747  30.035  29.796  1.00  0.00    -0.248 NA
ATOM     36  C   UNL A   1      37.842  29.967  28.448  1.00  0.00     0.031 C 
ATOM     37  C   UNL A   1      38.376  33.945  31.479  1.00  0.00     0.029 A 
ATOM     38  N   UNL A   1      40.013  32.422  31.482  1.00  0.00    -0.354 N 
ATOM     39  C   UNL A   1      39.744  28.854  29.063  1.00  0.00     0.074 A 
ATOM     40  C   UNL A   1      38.518  28.838  28.294  1.00  0.00     0.031 C 
ATOM     41  C   UNL A   1      39.309  34.359  32.350  1.00  0.00     0.029 A 
ATOM     42  C   UNL A   1      40.385  33.376  32.399  1.00  0.00     0.049 A 
ATOM     43  H   UNL A   1      40.559  31.630  31.277  1.00  0.00     0.167 HD
ATOM     44  C   UNL A   1      40.685  27.881  29.021  1.00  0.00     0.037 A 
ATOM     45  C   UNL A   1      41.468  33.444  33.195  1.00  0.00     0.037 A 
ATOM     46  C   UNL A   1      41.915  27.911  29.770  1.00  0.00     0.049 A 
ATOM     47  C   UNL A   1      42.500  32.352  33.130  1.00  0.00     0.074 A 
ATOM     48  C   UNL A   1      42.958  27.002  29.752  1.00  0.00     0.029 A 
ATOM     49  N   UNL A   1      42.267  28.905  30.670  1.00  0.00    -0.354 N 
ATOM     50  N   UNL A   1      42.512  31.271  32.389  1.00  0.00    -0.248 NA
ATOM     51  C   UNL A   1      43.670  32.493  34.007  1.00  0.00     0.031 C 
ATOM     52  C   UNL A   1      43.924  27.428  30.671  1.00  0.00     0.029 A 
ATOM     53  C   UNL A   1      43.503  28.624  31.228  1.00  0.00     0.049 A 
ATOM     54  H   UNL A   1      41.718  29.696  30.881  1.00  0.00     0.167 HD
ATOM     55  C   UNL A   1      43.699  30.616  32.690  1.00  0.00     0.074 A 
ATOM     56  C   UNL A   1      44.388  31.431  33.671  1.00  0.00     0.031 C 
ATOM     57  C   UNL A   1      44.177  29.448  32.198  1.00  0.00     0.037 A 
BRANCH  44  58
ATOM     58  C   UNL A   1      40.422  26.701  28.132  1.00  0.00     0.057 A 
ATOM     59  C   UNL A   1      39.564  25.662  28.518  1.00  0.00     0.134 A 
ATOM     60  C   UNL A   1      41.005  26.616  26.861  1.00  0.00     0.134 A 
ATOM     61  F   UNL A   1      38.982  25.676  29.727  1.00  0.00    -0.206 F 
ATOM     62  C   UNL A   1      39.319  24.569  27.686  1.00  0.00     0.040 A 
ATOM     63  C   UNL A   1      40.746  25.541  26.008  1.00  0.00     0.040 A 
ATOM     64  F   UNL A   1      41.830  27.579  26.424  1.00  0.00    -0.206 F 
ATOM     65  C   UNL A   1      39.905  24.510  26.424  1.00  0.00     0.006 A 
ENDBRANCH  44  58
BRANCH  45  66
ATOM     66  C   UNL A   1      41.645  34.599  34.110  1.00  0.00     0.057 A 
ATOM     67  C   UNL A   1      42.297  35.763  33.684  1.00  0.00     0.134 A 
ATOM     68  C   UNL A   1      41.169  34.572  35.426  1.00  0.00     0.134 A 
ATOM     69  F   UNL A   1      42.790  35.841  32.440  1.00  0.00    -0.206 F 
ATOM     70  C   UNL A   1      42.486  36.850  34.538  1.00  0.00     0.040 A 
ATOM     71  C   UNL A   1      41.329  35.661  36.284  1.00  0.00     0.040 A 
ATOM     72  F   UNL A   1      40.527  33.490  35.892  1.00  0.00    -0.206 F 
ATOM     73  C   UNL A   1      41.996  36.801  35.842  1.00  0.00     0.006 A 
ENDBRANCH  45  66
BRANCH  57  74
ATOM     74  C   UNL A   1      45.521  28.997  32.687  1.00  0.00     0.057 A 
ATOM     75  C   UNL A   1      45.664  28.233  33.852  1.00  0.00     0.134 A 
ATOM     76  C   UNL A   1      46.681  29.300  31.964  1.00  0.00     0.134 A 
ATOM     77  F   UNL A   1      44.594  27.921  34.597  1.00  0.00    -0.206 F 
ATOM     78  C   UNL A   1      46.919  27.805  34.292  1.00  0.00     0.040 A 
ATOM     79  C   UNL A   1      47.937  28.857  32.379  1.00  0.00     0.040 A 
ATOM     80  F   UNL A   1      46.610  30.022  30.835  1.00  0.00    -0.206 F 
ATOM     81  C   UNL A   1      48.058  28.111  33.550  1.00  0.00     0.006 A 
ENDBRANCH  57  74
ENDBRANCH  31  32
ENDBRANCH  23  26
ENDBRANCH  21  22
ENDBRANCH   1  21
TORSDOF 14
ENDMDL
