MODEL 1
REMARK VINA RESULT:     -12.5      0.000      0.000
REMARK SMILES Cc1c(Cl)cc2c(c1C)O[C@H](C(F)(F)F)C(C(=O)NCCCNC(=O)c1ccc(-c3c4nc(c(-c5c(F)cccc5F)c5ccc([nH]5)c(-c5c(F)cccc5F)c5nc(c(-c6c(F)cccc6F)c6ccc3[nH]6)C=C5)C=C4)cc1)=C2
REMARK SMILES IDX 21 1 20 2 19 3 17 4 18 5 16 7 1 8 2 9 3 10 8 11 4 12 5 13
REMARK SMILES IDX 7 14 9 15 6 16 10 17 80 18 11 19 12 20 13 21 14 22 15 23
REMARK SMILES IDX 22 24 23 25 24 26 25 28 26 29 27 30 79 31 28 32 78 33 29 34
REMARK SMILES IDX 30 35 31 36 72 37 32 38 77 39 71 40 73 41 33 42 76 43 70 44
REMARK SMILES IDX 69 45 34 47 60 48 43 49 59 50 44 51 47 52 58 53 74 54 45 55
REMARK SMILES IDX 46 56 57 58 75 59 48 60 35 61 36 62 41 63 37 64 38 65 40 66
REMARK SMILES IDX 42 67 39 68 61 69 62 70 67 71 63 72 64 73 66 74 68 75 65 76
REMARK SMILES IDX 49 77 50 78 55 79 51 80 52 81 54 82 56 83 53 84
REMARK H PARENT 19 6 23 27 73 46 47 57
REMARK Flexibility Score: inf
ROOT
ATOM      1  C   UNL A   1      37.770  19.589  24.958  1.00  0.00     0.042 C 
ENDROOT
BRANCH   1   2
ATOM      2  C   UNL A   1      36.691  20.610  24.632  1.00  0.00     0.118 C 
BRANCH   2   3
ATOM      3  N   UNL A   1      35.706  20.715  25.699  1.00  0.00    -0.352 N 
ATOM      4  C   UNL A   1      34.684  21.539  26.029  1.00  0.00     0.251 C 
ATOM      5  O   UNL A   1      34.087  21.244  27.068  1.00  0.00    -0.270 OA
ATOM      6  H   UNL A   1      35.811  19.992  26.357  1.00  0.00     0.163 HD
BRANCH   4   7
ATOM      7  C   UNL A   1      34.261  22.734  25.246  1.00  0.00     0.067 C 
ATOM      8  C   UNL A   1      32.907  28.687  22.899  1.00  0.00     0.046 C 
ATOM      9  C   UNL A   1      33.298  27.445  23.659  1.00  0.00    -0.026 A 
ATOM     10  C   UNL A   1      33.682  27.521  25.016  1.00  0.00     0.045 A 
ATOM     11  C   UNL A   1      33.355  26.189  23.012  1.00  0.00    -0.004 A 
ATOM     12  Cl  UNL A   1      33.741  29.025  25.872  1.00  0.00    -0.084 Cl
ATOM     13  C   UNL A   1      34.054  26.378  25.734  1.00  0.00     0.032 A 
ATOM     14  C   UNL A   1      33.713  25.050  23.761  1.00  0.00     0.131 A 
ATOM     15  C   UNL A   1      33.011  25.990  21.556  1.00  0.00     0.049 C 
ATOM     16  C   UNL A   1      34.061  25.134  25.110  1.00  0.00     0.019 A 
ATOM     17  O   UNL A   1      33.757  23.858  23.089  1.00  0.00    -0.475 OA
ATOM     18  C   UNL A   1      34.470  23.930  25.825  1.00  0.00     0.025 C 
ATOM     19  C   UNL A   1      33.613  22.662  23.894  1.00  0.00     0.314 C 
BRANCH  19  20
ATOM     20  C   UNL A   1      32.127  22.262  23.964  1.00  0.00     0.429 C 
ATOM     21  F   UNL A   1      32.007  20.912  24.021  1.00  0.00    -0.167 F 
ATOM     22  F   UNL A   1      31.507  22.748  25.067  1.00  0.00    -0.167 F 
ATOM     23  F   UNL A   1      31.416  22.688  22.896  1.00  0.00    -0.167 F 
ENDBRANCH  19  20
ENDBRANCH   4   7
ENDBRANCH   2   3
ENDBRANCH   1   2
BRANCH   1  24
ATOM     24  C   UNL A   1      38.928  20.209  25.729  1.00  0.00     0.118 C 
BRANCH  24  25
ATOM     25  N   UNL A   1      40.068  19.299  25.817  1.00  0.00    -0.352 N 
ATOM     26  C   UNL A   1      41.395  19.562  26.045  1.00  0.00     0.251 C 
ATOM     27  H   UNL A   1      39.849  18.348  25.692  1.00  0.00     0.163 HD
ATOM     28  O   UNL A   1      42.241  18.704  25.808  1.00  0.00    -0.269 OA
BRANCH  26  29
ATOM     29  C   UNL A   1      41.803  20.876  26.572  1.00  0.00     0.039 A 
ATOM     30  C   UNL A   1      42.253  21.860  25.688  1.00  0.00     0.014 A 
ATOM     31  C   UNL A   1      41.755  21.131  27.944  1.00  0.00     0.014 A 
ATOM     32  C   UNL A   1      42.587  23.123  26.180  1.00  0.00     0.010 A 
ATOM     33  C   UNL A   1      41.987  22.414  28.418  1.00  0.00     0.010 A 
ATOM     34  C   UNL A   1      42.417  23.420  27.542  1.00  0.00    -0.014 A 
BRANCH  34  35
ATOM     35  C   UNL A   1      42.704  24.771  28.078  1.00  0.00     0.031 A 
ATOM     36  C   UNL A   1      44.108  25.135  28.475  1.00  0.00     0.074 A 
ATOM     37  C   UNL A   1      41.692  25.642  28.260  1.00  0.00     0.049 A 
ATOM     38  N   UNL A   1      44.550  26.241  29.017  1.00  0.00    -0.248 NA
ATOM     39  C   UNL A   1      45.150  24.115  28.264  1.00  0.00     0.031 C 
ATOM     40  C   UNL A   1      40.284  25.378  27.960  1.00  0.00     0.029 A 
ATOM     41  N   UNL A   1      41.693  26.926  28.742  1.00  0.00    -0.354 N 
ATOM     42  C   UNL A   1      45.910  26.044  29.215  1.00  0.00     0.074 A 
ATOM     43  C   UNL A   1      46.214  24.694  28.799  1.00  0.00     0.031 C 
ATOM     44  C   UNL A   1      39.563  26.479  28.229  1.00  0.00     0.029 A 
ATOM     45  C   UNL A   1      40.449  27.510  28.756  1.00  0.00     0.049 A 
ATOM     46  H   UNL A   1      42.508  27.386  29.048  1.00  0.00     0.167 HD
ATOM     47  C   UNL A   1      46.831  26.925  29.669  1.00  0.00     0.037 A 
ATOM     48  C   UNL A   1      40.070  28.742  29.150  1.00  0.00     0.037 A 
ATOM     49  C   UNL A   1      46.528  28.280  30.043  1.00  0.00     0.049 A 
ATOM     50  C   UNL A   1      41.114  29.698  29.657  1.00  0.00     0.074 A 
ATOM     51  C   UNL A   1      47.399  29.268  30.463  1.00  0.00     0.029 A 
ATOM     52  N   UNL A   1      45.260  28.836  30.032  1.00  0.00    -0.354 N 
ATOM     53  N   UNL A   1      42.407  29.519  29.778  1.00  0.00    -0.248 NA
ATOM     54  C   UNL A   1      40.650  31.028  30.078  1.00  0.00     0.031 C 
ATOM     55  C   UNL A   1      46.651  30.413  30.747  1.00  0.00     0.029 A 
ATOM     56  C   UNL A   1      45.322  30.152  30.457  1.00  0.00     0.049 A 
ATOM     57  H   UNL A   1      44.437  28.366  29.763  1.00  0.00     0.167 HD
ATOM     58  C   UNL A   1      42.913  30.718  30.261  1.00  0.00     0.074 A 
ATOM     59  C   UNL A   1      41.791  31.622  30.399  1.00  0.00     0.031 C 
ATOM     60  C   UNL A   1      44.193  31.040  30.567  1.00  0.00     0.037 A 
BRANCH  47  61
ATOM     61  C   UNL A   1      48.257  26.471  29.756  1.00  0.00     0.057 A 
ATOM     62  C   UNL A   1      49.161  26.694  28.710  1.00  0.00     0.134 A 
ATOM     63  C   UNL A   1      48.753  25.882  30.925  1.00  0.00     0.134 A 
ATOM     64  F   UNL A   1      48.745  27.243  27.557  1.00  0.00    -0.206 F 
ATOM     65  C   UNL A   1      50.508  26.343  28.820  1.00  0.00     0.040 A 
ATOM     66  C   UNL A   1      50.102  25.549  31.058  1.00  0.00     0.040 A 
ATOM     67  F   UNL A   1      47.941  25.643  31.967  1.00  0.00    -0.206 F 
ATOM     68  C   UNL A   1      50.983  25.780  30.003  1.00  0.00     0.006 A 
ENDBRANCH  47  61
BRANCH  48  69
ATOM     69  C   UNL A   1      38.646  29.151  29.045  1.00  0.00     0.057 A 
ATOM     70  C   UNL A   1      38.119  29.619  27.836  1.00  0.00     0.134 A 
ATOM     71  C   UNL A   1      37.778  29.086  30.142  1.00  0.00     0.134 A 
ATOM     72  F   UNL A   1      38.902  29.720  26.752  1.00  0.00    -0.206 F 
ATOM     73  C   UNL A   1      36.788  30.026  27.725  1.00  0.00     0.040 A 
ATOM     74  C   UNL A   1      36.438  29.464  30.039  1.00  0.00     0.040 A 
ATOM     75  F   UNL A   1      38.217  28.637  31.327  1.00  0.00    -0.206 F 
ATOM     76  C   UNL A   1      35.942  29.943  28.829  1.00  0.00     0.006 A 
ENDBRANCH  48  69
BRANCH  60  77
ATOM     77  C   UNL A   1      44.465  32.431  31.053  1.00  0.00     0.057 A 
ATOM     78  C   UNL A   1      44.698  33.486  30.164  1.00  0.00     0.134 A 
ATOM     79  C   UNL A   1      44.393  32.736  32.419  1.00  0.00     0.134 A 
ATOM     80  F   UNL A   1      44.786  33.257  28.845  1.00  0.00    -0.206 F 
ATOM     81  C   UNL A   1      44.855  34.797  30.615  1.00  0.00     0.040 A 
ATOM     82  C   UNL A   1      44.522  34.044  32.881  1.00  0.00     0.040 A 
ATOM     83  F   UNL A   1      44.160  31.769  33.320  1.00  0.00    -0.206 F 
ATOM     84  C   UNL A   1      44.755  35.080  31.978  1.00  0.00     0.006 A 
ENDBRANCH  60  77
ENDBRANCH  34  35
ENDBRANCH  26  29
ENDBRANCH  24  25
ENDBRANCH   1  24
TORSDOF 11
ENDMDL
MODEL 2
REMARK VINA RESULT:     -12.5      0.307      6.233
REMARK SMILES Cc1c(Cl)cc2c(c1C)O[C@H](C(F)(F)F)C(C(=O)NCCCNC(=O)c1ccc(-c3c4nc(c(-c5c(F)cccc5F)c5ccc([nH]5)c(-c5c(F)cccc5F)c5nc(c(-c6c(F)cccc6F)c6ccc3[nH]6)C=C5)C=C4)cc1)=C2
REMARK SMILES IDX 21 1 20 2 19 3 17 4 18 5 16 7 1 8 2 9 3 10 8 11 4 12 5 13
REMARK SMILES IDX 7 14 9 15 6 16 10 17 80 18 11 19 12 20 13 21 14 22 15 23
REMARK SMILES IDX 22 24 23 25 24 26 25 28 26 29 27 30 79 31 28 32 78 33 29 34
REMARK SMILES IDX 30 35 31 36 72 37 32 38 77 39 71 40 73 41 33 42 76 43 70 44
REMARK SMILES IDX 69 45 34 47 60 48 43 49 59 50 44 51 47 52 58 53 74 54 45 55
REMARK SMILES IDX 46 56 57 58 75 59 48 60 35 61 36 62 41 63 37 64 38 65 40 66
REMARK SMILES IDX 42 67 39 68 61 69 62 70 67 71 63 72 64 73 66 74 68 75 65 76
REMARK SMILES IDX 49 77 50 78 55 79 51 80 52 81 54 82 56 83 53 84
REMARK H PARENT 19 6 23 27 73 46 47 57
REMARK Flexibility Score: inf
ROOT
ATOM      1  C   UNL A   1      37.827  19.759  24.923  1.00  0.00     0.042 C 
ENDROOT
BRANCH   1   2
ATOM      2  C   UNL A   1      36.776  20.823  24.647  1.00  0.00     0.118 C 
BRANCH   2   3
ATOM      3  N   UNL A   1      35.786  20.895  25.711  1.00  0.00    -0.352 N 
ATOM      4  C   UNL A   1      34.751  21.697  26.051  1.00  0.00     0.251 C 
ATOM      5  O   UNL A   1      34.155  21.376  27.083  1.00  0.00    -0.270 OA
ATOM      6  H   UNL A   1      35.901  20.163  26.359  1.00  0.00     0.163 HD
BRANCH   4   7
ATOM      7  C   UNL A   1      34.311  22.898  25.286  1.00  0.00     0.067 C 
ATOM      8  C   UNL A   1      32.846  28.863  23.040  1.00  0.00     0.046 C 
ATOM      9  C   UNL A   1      33.255  27.616  23.781  1.00  0.00    -0.026 A 
ATOM     10  C   UNL A   1      33.612  27.673  25.146  1.00  0.00     0.045 A 
ATOM     11  C   UNL A   1      33.356  26.376  23.109  1.00  0.00    -0.004 A 
ATOM     12  Cl  UNL A   1      33.616  29.158  26.035  1.00  0.00    -0.084 Cl
ATOM     13  C   UNL A   1      34.000  26.524  25.846  1.00  0.00     0.032 A 
ATOM     14  C   UNL A   1      33.730  25.231  23.840  1.00  0.00     0.131 A 
ATOM     15  C   UNL A   1      33.044  26.200  21.643  1.00  0.00     0.049 C 
ATOM     16  C   UNL A   1      34.052  25.295  25.197  1.00  0.00     0.019 A 
ATOM     17  O   UNL A   1      33.817  24.055  23.144  1.00  0.00    -0.475 OA
ATOM     18  C   UNL A   1      34.478  24.086  25.894  1.00  0.00     0.025 C 
ATOM     19  C   UNL A   1      33.690  22.839  23.921  1.00  0.00     0.314 C 
BRANCH  19  20
ATOM     20  C   UNL A   1      32.214  22.399  23.954  1.00  0.00     0.429 C 
ATOM     21  F   UNL A   1      31.643  22.756  25.132  1.00  0.00    -0.167 F 
ATOM     22  F   UNL A   1      31.475  22.981  22.979  1.00  0.00    -0.167 F 
ATOM     23  F   UNL A   1      32.059  21.063  23.817  1.00  0.00    -0.167 F 
ENDBRANCH  19  20
ENDBRANCH   4   7
ENDBRANCH   2   3
ENDBRANCH   1   2
BRANCH   1  24
ATOM     24  C   UNL A   1      38.974  20.296  25.769  1.00  0.00     0.118 C 
BRANCH  24  25
ATOM     25  N   UNL A   1      40.074  19.337  25.860  1.00  0.00    -0.352 N 
ATOM     26  C   UNL A   1      41.412  19.545  26.077  1.00  0.00     0.251 C 
ATOM     27  H   UNL A   1      39.813  18.395  25.747  1.00  0.00     0.163 HD
ATOM     28  O   UNL A   1      42.218  18.648  25.844  1.00  0.00    -0.269 OA
BRANCH  26  29
ATOM     29  C   UNL A   1      41.881  20.845  26.587  1.00  0.00     0.039 A 
ATOM     30  C   UNL A   1      42.311  21.821  25.685  1.00  0.00     0.014 A 
ATOM     31  C   UNL A   1      41.909  21.094  27.961  1.00  0.00     0.014 A 
ATOM     32  C   UNL A   1      42.702  23.072  26.163  1.00  0.00     0.010 A 
ATOM     33  C   UNL A   1      42.198  22.369  28.427  1.00  0.00     0.010 A 
ATOM     34  C   UNL A   1      42.610  23.367  27.534  1.00  0.00    -0.014 A 
BRANCH  34  35
ATOM     35  C   UNL A   1      42.959  24.708  28.059  1.00  0.00     0.031 A 
ATOM     36  C   UNL A   1      41.878  25.735  28.262  1.00  0.00     0.074 A 
ATOM     37  C   UNL A   1      44.248  25.014  28.297  1.00  0.00     0.049 A 
ATOM     38  N   UNL A   1      41.987  26.978  28.654  1.00  0.00    -0.248 NA
ATOM     39  C   UNL A   1      40.497  25.323  27.955  1.00  0.00     0.031 C 
ATOM     40  C   UNL A   1      45.385  24.115  28.087  1.00  0.00     0.029 A 
ATOM     41  N   UNL A   1      44.822  26.168  28.767  1.00  0.00    -0.354 N 
ATOM     42  C   UNL A   1      40.698  27.492  28.634  1.00  0.00     0.074 A 
ATOM     43  C   UNL A   1      39.829  26.454  28.130  1.00  0.00     0.031 C 
ATOM     44  C   UNL A   1      46.514  24.737  28.462  1.00  0.00     0.029 A 
ATOM     45  C   UNL A   1      46.188  26.089  28.900  1.00  0.00     0.049 A 
ATOM     46  H   UNL A   1      44.305  26.975  28.988  1.00  0.00     0.167 HD
ATOM     47  C   UNL A   1      40.272  28.711  29.037  1.00  0.00     0.037 A 
ATOM     48  C   UNL A   1      47.075  27.007  29.331  1.00  0.00     0.037 A 
ATOM     49  C   UNL A   1      41.136  29.725  29.576  1.00  0.00     0.049 A 
ATOM     50  C   UNL A   1      46.574  28.357  29.765  1.00  0.00     0.074 A 
ATOM     51  C   UNL A   1      40.794  30.973  30.063  1.00  0.00     0.029 A 
ATOM     52  N   UNL A   1      42.510  29.603  29.705  1.00  0.00    -0.354 N 
ATOM     53  N   UNL A   1      45.342  28.806  29.802  1.00  0.00    -0.248 NA
ATOM     54  C   UNL A   1      47.580  29.325  30.223  1.00  0.00     0.031 C 
ATOM     55  C   UNL A   1      41.967  31.624  30.451  1.00  0.00     0.029 A 
ATOM     56  C   UNL A   1      43.034  30.762  30.250  1.00  0.00     0.049 A 
ATOM     57  H   UNL A   1      43.035  28.810  29.449  1.00  0.00     0.167 HD
ATOM     58  C   UNL A   1      45.424  30.096  30.310  1.00  0.00     0.074 A 
ATOM     59  C   UNL A   1      46.822  30.353  30.580  1.00  0.00     0.031 C 
ATOM     60  C   UNL A   1      44.428  30.989  30.529  1.00  0.00     0.037 A 
BRANCH  47  61
ATOM     61  C   UNL A   1      38.805  29.010  28.946  1.00  0.00     0.057 A 
ATOM     62  C   UNL A   1      37.964  28.895  30.060  1.00  0.00     0.134 A 
ATOM     63  C   UNL A   1      38.243  29.496  27.760  1.00  0.00     0.134 A 
ATOM     64  F   UNL A   1      38.439  28.421  31.224  1.00  0.00    -0.206 F 
ATOM     65  C   UNL A   1      36.615  29.247  29.998  1.00  0.00     0.040 A 
ATOM     66  C   UNL A   1      36.902  29.876  27.690  1.00  0.00     0.040 A 
ATOM     67  F   UNL A   1      38.994  29.634  26.655  1.00  0.00    -0.206 F 
ATOM     68  C   UNL A   1      36.085  29.751  28.812  1.00  0.00     0.006 A 
ENDBRANCH  47  61
BRANCH  48  69
ATOM     69  C   UNL A   1      48.520  26.669  29.407  1.00  0.00     0.057 A 
ATOM     70  C   UNL A   1      49.376  26.926  28.331  1.00  0.00     0.134 A 
ATOM     71  C   UNL A   1      49.080  26.084  30.550  1.00  0.00     0.134 A 
ATOM     72  F   UNL A   1      48.898  27.471  27.203  1.00  0.00    -0.206 F 
ATOM     73  C   UNL A   1      50.732  26.597  28.379  1.00  0.00     0.040 A 
ATOM     74  C   UNL A   1      50.439  25.774  30.622  1.00  0.00     0.040 A 
ATOM     75  F   UNL A   1      48.315  25.821  31.620  1.00  0.00    -0.206 F 
ATOM     76  C   UNL A   1      51.268  26.024  29.530  1.00  0.00     0.006 A 
ENDBRANCH  48  69
BRANCH  60  77
ATOM     77  C   UNL A   1      44.800  32.317  31.116  1.00  0.00     0.057 A 
ATOM     78  C   UNL A   1      45.068  33.427  30.308  1.00  0.00     0.134 A 
ATOM     79  C   UNL A   1      44.788  32.510  32.504  1.00  0.00     0.134 A 
ATOM     80  F   UNL A   1      45.102  33.303  28.972  1.00  0.00    -0.206 F 
ATOM     81  C   UNL A   1      45.319  34.684  30.858  1.00  0.00     0.040 A 
ATOM     82  C   UNL A   1      45.012  33.766  33.066  1.00  0.00     0.040 A 
ATOM     83  F   UNL A   1      44.525  31.487  33.331  1.00  0.00    -0.206 F 
ATOM     84  C   UNL A   1      45.279  34.858  32.242  1.00  0.00     0.006 A 
ENDBRANCH  60  77
ENDBRANCH  34  35
ENDBRANCH  26  29
ENDBRANCH  24  25
ENDBRANCH   1  24
TORSDOF 11
ENDMDL
MODEL 3
REMARK VINA RESULT:     -12.4      2.435      7.320
REMARK SMILES Cc1c(Cl)cc2c(c1C)O[C@H](C(F)(F)F)C(C(=O)NCCCNC(=O)c1ccc(-c3c4nc(c(-c5c(F)cccc5F)c5ccc([nH]5)c(-c5c(F)cccc5F)c5nc(c(-c6c(F)cccc6F)c6ccc3[nH]6)C=C5)C=C4)cc1)=C2
REMARK SMILES IDX 21 1 20 2 19 3 17 4 18 5 16 7 1 8 2 9 3 10 8 11 4 12 5 13
REMARK SMILES IDX 7 14 9 15 6 16 10 17 80 18 11 19 12 20 13 21 14 22 15 23
REMARK SMILES IDX 22 24 23 25 24 26 25 28 26 29 27 30 79 31 28 32 78 33 29 34
REMARK SMILES IDX 30 35 31 36 72 37 32 38 77 39 71 40 73 41 33 42 76 43 70 44
REMARK SMILES IDX 69 45 34 47 60 48 43 49 59 50 44 51 47 52 58 53 74 54 45 55
REMARK SMILES IDX 46 56 57 58 75 59 48 60 35 61 36 62 41 63 37 64 38 65 40 66
REMARK SMILES IDX 42 67 39 68 61 69 62 70 67 71 63 72 64 73 66 74 68 75 65 76
REMARK SMILES IDX 49 77 50 78 55 79 51 80 52 81 54 82 56 83 53 84
REMARK H PARENT 19 6 23 27 73 46 47 57
REMARK Flexibility Score: inf
ROOT
ATOM      1  C   UNL A   1      34.031  28.115  25.811  1.00  0.00     0.042 C 
ENDROOT
BRANCH   1   2
ATOM      2  C   UNL A   1      32.896  27.598  24.942  1.00  0.00     0.118 C 
BRANCH   2   3
ATOM      3  N   UNL A   1      31.899  26.882  25.724  1.00  0.00    -0.352 N 
ATOM      4  C   UNL A   1      31.673  25.606  26.116  1.00  0.00     0.251 C 
ATOM      5  O   UNL A   1      30.660  25.439  26.801  1.00  0.00    -0.270 OA
ATOM      6  H   UNL A   1      31.200  27.489  26.058  1.00  0.00     0.163 HD
BRANCH   4   7
ATOM      7  C   UNL A   1      32.538  24.441  25.778  1.00  0.00     0.067 C 
ATOM      8  C   UNL A   1      37.321  20.056  24.959  1.00  0.00     0.046 C 
ATOM      9  C   UNL A   1      36.408  21.218  25.258  1.00  0.00    -0.026 A 
ATOM     10  C   UNL A   1      36.929  22.435  25.751  1.00  0.00     0.045 A 
ATOM     11  C   UNL A   1      35.007  21.093  25.116  1.00  0.00    -0.004 A 
ATOM     12  Cl  UNL A   1      38.619  22.657  26.052  1.00  0.00    -0.084 Cl
ATOM     13  C   UNL A   1      36.094  23.521  26.040  1.00  0.00     0.032 A 
ATOM     14  C   UNL A   1      34.190  22.206  25.395  1.00  0.00     0.131 A 
ATOM     15  C   UNL A   1      34.332  19.829  24.641  1.00  0.00     0.049 C 
ATOM     16  C   UNL A   1      34.720  23.414  25.853  1.00  0.00     0.019 A 
ATOM     17  O   UNL A   1      32.840  22.034  25.246  1.00  0.00    -0.475 OA
ATOM     18  C   UNL A   1      33.822  24.519  26.170  1.00  0.00     0.025 C 
ATOM     19  C   UNL A   1      32.060  23.235  25.024  1.00  0.00     0.314 C 
BRANCH  19  20
ATOM     20  C   UNL A   1      31.923  23.490  23.511  1.00  0.00     0.429 C 
ATOM     21  F   UNL A   1      32.748  24.497  23.128  1.00  0.00    -0.167 F 
ATOM     22  F   UNL A   1      32.267  22.410  22.768  1.00  0.00    -0.167 F 
ATOM     23  F   UNL A   1      30.668  23.832  23.147  1.00  0.00    -0.167 F 
ENDBRANCH  19  20
ENDBRANCH   4   7
ENDBRANCH   2   3
ENDBRANCH   1   2
BRANCH   1  24
ATOM     24  C   UNL A   1      33.584  28.366  27.244  1.00  0.00     0.118 C 
BRANCH  24  25
ATOM     25  N   UNL A   1      33.585  29.792  27.570  1.00  0.00    -0.352 N 
ATOM     26  C   UNL A   1      34.541  30.558  28.187  1.00  0.00     0.251 C 
ATOM     27  H   UNL A   1      32.771  30.277  27.305  1.00  0.00     0.163 HD
ATOM     28  O   UNL A   1      34.250  31.669  28.622  1.00  0.00    -0.269 OA
BRANCH  26  29
ATOM     29  C   UNL A   1      35.914  30.044  28.330  1.00  0.00     0.039 A 
ATOM     30  C   UNL A   1      36.799  30.141  27.254  1.00  0.00     0.014 A 
ATOM     31  C   UNL A   1      36.322  29.451  29.527  1.00  0.00     0.014 A 
ATOM     32  C   UNL A   1      38.116  29.705  27.407  1.00  0.00     0.010 A 
ATOM     33  C   UNL A   1      37.656  29.114  29.712  1.00  0.00     0.010 A 
ATOM     34  C   UNL A   1      38.563  29.226  28.649  1.00  0.00    -0.014 A 
BRANCH  34  35
ATOM     35  C   UNL A   1      39.972  28.817  28.857  1.00  0.00     0.031 A 
ATOM     36  C   UNL A   1      40.949  29.784  29.467  1.00  0.00     0.074 A 
ATOM     37  C   UNL A   1      40.378  27.601  28.444  1.00  0.00     0.049 A 
ATOM     38  N   UNL A   1      42.232  29.637  29.675  1.00  0.00    -0.248 NA
ATOM     39  C   UNL A   1      40.425  31.101  29.869  1.00  0.00     0.031 C 
ATOM     40  C   UNL A   1      39.530  26.601  27.792  1.00  0.00     0.029 A 
ATOM     41  N   UNL A   1      41.609  26.999  28.509  1.00  0.00    -0.354 N 
ATOM     42  C   UNL A   1      42.663  30.838  30.221  1.00  0.00     0.074 A 
ATOM     43  C   UNL A   1      41.526  31.728  30.255  1.00  0.00     0.031 C 
ATOM     44  C   UNL A   1      40.256  25.497  27.553  1.00  0.00     0.029 A 
ATOM     45  C   UNL A   1      41.627  25.724  27.996  1.00  0.00     0.049 A 
ATOM     46  H   UNL A   1      42.404  27.438  28.889  1.00  0.00     0.167 HD
ATOM     47  C   UNL A   1      43.892  31.157  30.689  1.00  0.00     0.037 A 
ATOM     48  C   UNL A   1      42.638  24.838  27.899  1.00  0.00     0.037 A 
ATOM     49  C   UNL A   1      45.009  30.252  30.691  1.00  0.00     0.049 A 
ATOM     50  C   UNL A   1      43.995  25.223  28.421  1.00  0.00     0.074 A 
ATOM     51  C   UNL A   1      46.280  30.461  31.193  1.00  0.00     0.029 A 
ATOM     52  N   UNL A   1      44.983  28.967  30.174  1.00  0.00    -0.354 N 
ATOM     53  N   UNL A   1      44.372  26.340  28.995  1.00  0.00    -0.248 NA
ATOM     54  C   UNL A   1      45.066  24.225  28.288  1.00  0.00     0.031 C 
ATOM     55  C   UNL A   1      47.039  29.314  30.942  1.00  0.00     0.029 A 
ATOM     56  C   UNL A   1      46.225  28.376  30.328  1.00  0.00     0.049 A 
ATOM     57  H   UNL A   1      44.200  28.539  29.759  1.00  0.00     0.167 HD
ATOM     58  C   UNL A   1      45.712  26.169  29.314  1.00  0.00     0.074 A 
ATOM     59  C   UNL A   1      46.080  24.837  28.883  1.00  0.00     0.031 C 
ATOM     60  C   UNL A   1      46.563  27.040  29.909  1.00  0.00     0.037 A 
BRANCH  47  61
ATOM     61  C   UNL A   1      44.091  32.524  31.272  1.00  0.00     0.057 A 
ATOM     62  C   UNL A   1      44.464  33.613  30.474  1.00  0.00     0.134 A 
ATOM     63  C   UNL A   1      43.829  32.774  32.624  1.00  0.00     0.134 A 
ATOM     64  F   UNL A   1      44.743  33.437  29.172  1.00  0.00    -0.206 F 
ATOM     65  C   UNL A   1      44.574  34.901  30.999  1.00  0.00     0.040 A 
ATOM     66  C   UNL A   1      43.911  34.061  33.157  1.00  0.00     0.040 A 
ATOM     67  F   UNL A   1      43.464  31.776  33.444  1.00  0.00    -0.206 F 
ATOM     68  C   UNL A   1      44.284  35.128  32.343  1.00  0.00     0.006 A 
ENDBRANCH  47  61
BRANCH  48  69
ATOM     69  C   UNL A   1      42.397  23.494  27.316  1.00  0.00     0.057 A 
ATOM     70  C   UNL A   1      42.529  23.271  25.942  1.00  0.00     0.134 A 
ATOM     71  C   UNL A   1      42.031  22.401  28.113  1.00  0.00     0.134 A 
ATOM     72  F   UNL A   1      42.862  24.279  25.123  1.00  0.00    -0.206 F 
ATOM     73  C   UNL A   1      42.287  22.017  25.375  1.00  0.00     0.040 A 
ATOM     74  C   UNL A   1      41.812  21.137  27.564  1.00  0.00     0.040 A 
ATOM     75  F   UNL A   1      41.897  22.545  29.440  1.00  0.00    -0.206 F 
ATOM     76  C   UNL A   1      41.933  20.944  26.190  1.00  0.00     0.006 A 
ENDBRANCH  48  69
BRANCH  60  77
ATOM     77  C   UNL A   1      47.968  26.581  30.160  1.00  0.00     0.057 A 
ATOM     78  C   UNL A   1      48.999  26.844  29.252  1.00  0.00     0.134 A 
ATOM     79  C   UNL A   1      48.308  25.961  31.370  1.00  0.00     0.134 A 
ATOM     80  F   UNL A   1      48.734  27.428  28.073  1.00  0.00    -0.206 F 
ATOM     81  C   UNL A   1      50.321  26.500  29.533  1.00  0.00     0.040 A 
ATOM     82  C   UNL A   1      49.629  25.635  31.675  1.00  0.00     0.040 A 
ATOM     83  F   UNL A   1      47.366  25.694  32.287  1.00  0.00    -0.206 F 
ATOM     84  C   UNL A   1      50.641  25.904  30.754  1.00  0.00     0.006 A 
ENDBRANCH  60  77
ENDBRANCH  34  35
ENDBRANCH  26  29
ENDBRANCH  24  25
ENDBRANCH   1  24
TORSDOF 11
ENDMDL
