MODEL 1
REMARK VINA RESULT:     -10.6      0.000      0.000
REMARK SMILES C[NH2+][C@H](CC(=O)NCCCNC(=O)c1ccc(-c2c3nc(c(-c4c(F)cccc4F)c4ccc([nH]4)c(-c4c(F)cccc4F)c4nc(c(-c5c(F)cccc5F)c5ccc2[nH]5)C=C4)C=C3)cc1)c1cccc(C2CC2)c1
REMARK SMILES IDX 8 1 7 2 5 3 6 4 4 6 3 7 2 8 1 9 68 12 69 13 76 14 70 15
REMARK SMILES IDX 72 16 71 17 73 18 74 19 75 20 9 21 10 22 11 23 12 24 13 26
REMARK SMILES IDX 14 27 15 28 67 29 16 30 66 31 17 32 18 33 19 34 60 35 20 36
REMARK SMILES IDX 65 37 59 38 61 39 21 40 64 41 58 42 57 43 22 45 48 46 31 47
REMARK SMILES IDX 47 48 32 49 35 50 46 51 62 52 33 53 34 54 45 56 63 57 36 58
REMARK SMILES IDX 23 59 24 60 29 61 25 62 26 63 28 64 30 65 27 66 49 67 50 68
REMARK SMILES IDX 55 69 51 70 52 71 54 72 56 73 53 74 37 75 38 76 43 77 39 78
REMARK SMILES IDX 40 79 42 80 44 81 41 82
REMARK H PARENT 7 5 2 10 2 11 11 25 61 44 35 55
REMARK Flexibility Score: inf
ROOT
ATOM      1  C   UNL A   1      32.027  30.375  26.797  1.00  0.00     0.117 C 
ENDROOT
BRANCH   1   2
ATOM      2  N   UNL A   1      32.254  30.092  25.384  1.00  0.00    -0.356 N 
ATOM      3  C   UNL A   1      32.988  29.094  24.800  1.00  0.00     0.226 C 
ATOM      4  O   UNL A   1      33.269  29.211  23.605  1.00  0.00    -0.275 OA
ATOM      5  H   UNL A   1      31.814  30.711  24.756  1.00  0.00     0.163 HD
BRANCH   3   6
ATOM      6  C   UNL A   1      33.388  27.863  25.594  1.00  0.00     0.170 C 
BRANCH   6   7
ATOM      7  C   UNL A   1      32.436  26.652  25.477  1.00  0.00     0.222 C 
BRANCH   7   8
ATOM      8  N   UNL A   1      31.578  26.742  24.286  1.00  0.00    -0.342 N 
ATOM      9  C   UNL A   1      30.276  26.114  24.460  1.00  0.00     0.331 C 
ATOM     10  H   UNL A   1      31.434  27.727  24.066  1.00  0.00     0.346 HD
ATOM     11  H   UNL A   1      32.054  26.242  23.536  1.00  0.00     0.346 HD
ENDBRANCH   7   8
BRANCH   7  12
ATOM     12  C   UNL A   1      33.170  25.330  25.653  1.00  0.00     0.010 A 
ATOM     13  C   UNL A   1      32.635  24.350  26.501  1.00  0.00     0.010 A 
ATOM     14  C   UNL A   1      34.407  25.073  25.029  1.00  0.00     0.014 A 
ATOM     15  C   UNL A   1      33.318  23.156  26.717  1.00  0.00     0.001 A 
ATOM     16  C   UNL A   1      35.133  23.882  25.242  1.00  0.00    -0.044 A 
ATOM     17  C   UNL A   1      34.549  22.930  26.095  1.00  0.00     0.004 A 
BRANCH  16  18
ATOM     18  C   UNL A   1      36.507  23.630  24.649  1.00  0.00     0.019 C 
ATOM     19  C   UNL A   1      37.089  22.242  24.568  1.00  0.00     0.009 C 
ATOM     20  C   UNL A   1      36.652  22.940  23.312  1.00  0.00     0.009 C 
ENDBRANCH  16  18
ENDBRANCH   7  12
ENDBRANCH   6   7
ENDBRANCH   3   6
ENDBRANCH   1   2
BRANCH   1  21
ATOM     21  C   UNL A   1      31.350  31.731  26.974  1.00  0.00     0.042 C 
BRANCH  21  22
ATOM     22  C   UNL A   1      32.087  32.906  26.343  1.00  0.00     0.118 C 
BRANCH  22  23
ATOM     23  N   UNL A   1      32.157  34.040  27.248  1.00  0.00    -0.352 N 
ATOM     24  C   UNL A   1      32.938  34.340  28.335  1.00  0.00     0.251 C 
ATOM     25  H   UNL A   1      31.504  34.745  27.036  1.00  0.00     0.163 HD
ATOM     26  O   UNL A   1      32.559  35.284  29.034  1.00  0.00    -0.269 OA
BRANCH  24  27
ATOM     27  C   UNL A   1      34.195  33.631  28.730  1.00  0.00     0.039 A 
ATOM     28  C   UNL A   1      34.051  32.326  29.236  1.00  0.00     0.014 A 
ATOM     29  C   UNL A   1      35.467  34.204  28.771  1.00  0.00     0.014 A 
ATOM     30  C   UNL A   1      35.139  31.626  29.780  1.00  0.00     0.010 A 
ATOM     31  C   UNL A   1      36.574  33.475  29.245  1.00  0.00     0.010 A 
ATOM     32  C   UNL A   1      36.420  32.190  29.786  1.00  0.00    -0.014 A 
BRANCH  32  33
ATOM     33  C   UNL A   1      37.573  31.475  30.410  1.00  0.00     0.031 A 
ATOM     34  C   UNL A   1      37.945  31.719  31.853  1.00  0.00     0.074 A 
ATOM     35  C   UNL A   1      38.308  30.602  29.692  1.00  0.00     0.049 A 
ATOM     36  N   UNL A   1      38.943  31.228  32.550  1.00  0.00    -0.248 NA
ATOM     37  C   UNL A   1      37.093  32.650  32.609  1.00  0.00     0.031 C 
ATOM     38  C   UNL A   1      38.084  30.261  28.287  1.00  0.00     0.029 A 
ATOM     39  N   UNL A   1      39.398  29.842  30.048  1.00  0.00    -0.354 N 
ATOM     40  C   UNL A   1      38.854  31.811  33.810  1.00  0.00     0.074 A 
ATOM     41  C   UNL A   1      37.727  32.718  33.771  1.00  0.00     0.031 C 
ATOM     42  C   UNL A   1      38.989  29.344  27.908  1.00  0.00     0.029 A 
ATOM     43  C   UNL A   1      39.883  29.059  29.027  1.00  0.00     0.049 A 
ATOM     44  H   UNL A   1      39.793  29.856  30.949  1.00  0.00     0.167 HD
ATOM     45  C   UNL A   1      39.626  31.603  34.906  1.00  0.00     0.037 A 
ATOM     46  C   UNL A   1      40.930  28.212  28.989  1.00  0.00     0.037 A 
ATOM     47  C   UNL A   1      40.722  30.671  34.977  1.00  0.00     0.049 A 
ATOM     48  C   UNL A   1      41.778  28.005  30.213  1.00  0.00     0.074 A 
ATOM     49  C   UNL A   1      41.514  30.355  36.068  1.00  0.00     0.029 A 
ATOM     50  N   UNL A   1      41.180  29.904  33.917  1.00  0.00    -0.354 N 
ATOM     51  N   UNL A   1      41.655  28.535  31.404  1.00  0.00    -0.248 NA
ATOM     52  C   UNL A   1      42.912  27.076  30.085  1.00  0.00     0.031 C 
ATOM     53  C   UNL A   1      42.476  29.423  35.659  1.00  0.00     0.029 A 
ATOM     54  C   UNL A   1      42.255  29.129  34.324  1.00  0.00     0.049 A 
ATOM     55  H   UNL A   1      40.797  29.908  33.010  1.00  0.00     0.167 HD
ATOM     56  C   UNL A   1      42.673  27.984  32.173  1.00  0.00     0.074 A 
ATOM     57  C   UNL A   1      43.401  27.073  31.317  1.00  0.00     0.031 C 
ATOM     58  C   UNL A   1      42.972  28.214  33.475  1.00  0.00     0.037 A 
BRANCH  45  59
ATOM     59  C   UNL A   1      39.314  32.411  36.132  1.00  0.00     0.057 A 
ATOM     60  C   UNL A   1      39.901  33.661  36.366  1.00  0.00     0.134 A 
ATOM     61  C   UNL A   1      38.384  31.949  37.073  1.00  0.00     0.134 A 
ATOM     62  F   UNL A   1      40.806  34.158  35.508  1.00  0.00    -0.206 F 
ATOM     63  C   UNL A   1      39.599  34.408  37.506  1.00  0.00     0.040 A 
ATOM     64  C   UNL A   1      38.054  32.699  38.203  1.00  0.00     0.040 A 
ATOM     65  F   UNL A   1      37.775  30.765  36.904  1.00  0.00    -0.206 F 
ATOM     66  C   UNL A   1      38.668  33.929  38.426  1.00  0.00     0.006 A 
ENDBRANCH  45  59
BRANCH  46  67
ATOM     67  C   UNL A   1      41.233  27.472  27.739  1.00  0.00     0.057 A 
ATOM     68  C   UNL A   1      40.730  26.184  27.525  1.00  0.00     0.134 A 
ATOM     69  C   UNL A   1      42.038  28.027  26.737  1.00  0.00     0.134 A 
ATOM     70  F   UNL A   1      39.974  25.592  28.462  1.00  0.00    -0.206 F 
ATOM     71  C   UNL A   1      41.025  25.468  26.365  1.00  0.00     0.040 A 
ATOM     72  C   UNL A   1      42.322  27.332  25.561  1.00  0.00     0.040 A 
ATOM     73  F   UNL A   1      42.549  29.258  26.883  1.00  0.00    -0.206 F 
ATOM     74  C   UNL A   1      41.819  26.045  25.376  1.00  0.00     0.006 A 
ENDBRANCH  46  67
BRANCH  58  75
ATOM     75  C   UNL A   1      44.110  27.439  34.070  1.00  0.00     0.057 A 
ATOM     76  C   UNL A   1      45.419  27.936  34.082  1.00  0.00     0.134 A 
ATOM     77  C   UNL A   1      43.887  26.193  34.670  1.00  0.00     0.134 A 
ATOM     78  F   UNL A   1      45.703  29.117  33.512  1.00  0.00    -0.206 F 
ATOM     79  C   UNL A   1      46.470  27.213  34.651  1.00  0.00     0.040 A 
ATOM     80  C   UNL A   1      44.925  25.470  35.262  1.00  0.00     0.040 A 
ATOM     81  F   UNL A   1      42.656  25.661  34.699  1.00  0.00    -0.206 F 
ATOM     82  C   UNL A   1      46.222  25.978  35.249  1.00  0.00     0.006 A 
ENDBRANCH  58  75
ENDBRANCH  32  33
ENDBRANCH  24  27
ENDBRANCH  22  23
ENDBRANCH  21  22
ENDBRANCH   1  21
TORSDOF 14
ENDMDL
MODEL 2
REMARK VINA RESULT:     -10.5      3.638      4.812
REMARK SMILES C[NH2+][C@H](CC(=O)NCCCNC(=O)c1ccc(-c2c3nc(c(-c4c(F)cccc4F)c4ccc([nH]4)c(-c4c(F)cccc4F)c4nc(c(-c5c(F)cccc5F)c5ccc2[nH]5)C=C4)C=C3)cc1)c1cccc(C2CC2)c1
REMARK SMILES IDX 8 1 7 2 5 3 6 4 4 6 3 7 2 8 1 9 68 12 69 13 76 14 70 15
REMARK SMILES IDX 72 16 71 17 73 18 74 19 75 20 9 21 10 22 11 23 12 24 13 26
REMARK SMILES IDX 14 27 15 28 67 29 16 30 66 31 17 32 18 33 19 34 60 35 20 36
REMARK SMILES IDX 65 37 59 38 61 39 21 40 64 41 58 42 57 43 22 45 48 46 31 47
REMARK SMILES IDX 47 48 32 49 35 50 46 51 62 52 33 53 34 54 45 56 63 57 36 58
REMARK SMILES IDX 23 59 24 60 29 61 25 62 26 63 28 64 30 65 27 66 49 67 50 68
REMARK SMILES IDX 55 69 51 70 52 71 54 72 56 73 53 74 37 75 38 76 43 77 39 78
REMARK SMILES IDX 40 79 42 80 44 81 41 82
REMARK H PARENT 7 5 2 10 2 11 11 25 61 44 35 55
REMARK Flexibility Score: inf
ROOT
ATOM      1  C   UNL A   1      32.771  29.188  24.401  1.00  0.00     0.117 C 
ENDROOT
BRANCH   1   2
ATOM      2  N   UNL A   1      31.684  29.313  23.436  1.00  0.00    -0.356 N 
ATOM      3  C   UNL A   1      30.939  28.336  22.831  1.00  0.00     0.226 C 
ATOM      4  O   UNL A   1      30.267  28.654  21.846  1.00  0.00    -0.275 OA
ATOM      5  H   UNL A   1      31.452  30.236  23.183  1.00  0.00     0.163 HD
BRANCH   3   6
ATOM      6  C   UNL A   1      30.905  26.927  23.395  1.00  0.00     0.170 C 
BRANCH   6   7
ATOM      7  C   UNL A   1      31.900  25.930  22.764  1.00  0.00     0.222 C 
BRANCH   7   8
ATOM      8  N   UNL A   1      32.547  26.483  21.565  1.00  0.00    -0.342 N 
ATOM      9  C   UNL A   1      32.509  25.588  20.418  1.00  0.00     0.331 C 
ATOM     10  H   UNL A   1      32.071  27.350  21.313  1.00  0.00     0.346 HD
ATOM     11  H   UNL A   1      33.529  26.633  21.796  1.00  0.00     0.346 HD
ENDBRANCH   7   8
BRANCH   7  12
ATOM     12  C   UNL A   1      32.846  25.336  23.798  1.00  0.00     0.010 A 
ATOM     13  C   UNL A   1      32.525  25.422  25.160  1.00  0.00     0.010 A 
ATOM     14  C   UNL A   1      34.073  24.744  23.436  1.00  0.00     0.014 A 
ATOM     15  C   UNL A   1      33.403  24.933  26.124  1.00  0.00     0.001 A 
ATOM     16  C   UNL A   1      34.993  24.257  24.389  1.00  0.00    -0.044 A 
ATOM     17  C   UNL A   1      34.618  24.360  25.740  1.00  0.00     0.004 A 
BRANCH  16  18
ATOM     18  C   UNL A   1      36.355  23.700  24.019  1.00  0.00     0.019 C 
ATOM     19  C   UNL A   1      37.214  22.981  25.028  1.00  0.00     0.009 C 
ATOM     20  C   UNL A   1      36.572  22.208  23.912  1.00  0.00     0.009 C 
ENDBRANCH  16  18
ENDBRANCH   7  12
ENDBRANCH   6   7
ENDBRANCH   3   6
ENDBRANCH   1   2
BRANCH   1  21
ATOM     21  C   UNL A   1      32.251  29.364  25.826  1.00  0.00     0.042 C 
BRANCH  21  22
ATOM     22  C   UNL A   1      33.286  29.142  26.922  1.00  0.00     0.118 C 
BRANCH  22  23
ATOM     23  N   UNL A   1      33.545  30.362  27.665  1.00  0.00    -0.352 N 
ATOM     24  C   UNL A   1      34.601  30.809  28.419  1.00  0.00     0.251 C 
ATOM     25  H   UNL A   1      32.804  31.008  27.618  1.00  0.00     0.163 HD
ATOM     26  O   UNL A   1      34.386  31.797  29.126  1.00  0.00    -0.269 OA
BRANCH  24  27
ATOM     27  C   UNL A   1      35.971  30.208  28.445  1.00  0.00     0.039 A 
ATOM     28  C   UNL A   1      36.407  29.685  29.677  1.00  0.00     0.014 A 
ATOM     29  C   UNL A   1      36.893  30.251  27.398  1.00  0.00     0.014 A 
ATOM     30  C   UNL A   1      37.725  29.239  29.858  1.00  0.00     0.010 A 
ATOM     31  C   UNL A   1      38.192  29.733  27.556  1.00  0.00     0.010 A 
ATOM     32  C   UNL A   1      38.636  29.252  28.796  1.00  0.00    -0.014 A 
BRANCH  32  33
ATOM     33  C   UNL A   1      40.055  28.828  28.993  1.00  0.00     0.031 A 
ATOM     34  C   UNL A   1      41.054  29.753  29.648  1.00  0.00     0.074 A 
ATOM     35  C   UNL A   1      40.471  27.613  28.583  1.00  0.00     0.049 A 
ATOM     36  N   UNL A   1      42.337  29.577  29.857  1.00  0.00    -0.248 NA
ATOM     37  C   UNL A   1      40.548  31.053  30.113  1.00  0.00     0.031 C 
ATOM     38  C   UNL A   1      39.634  26.608  27.929  1.00  0.00     0.029 A 
ATOM     39  N   UNL A   1      41.709  27.017  28.656  1.00  0.00    -0.354 N 
ATOM     40  C   UNL A   1      42.793  30.750  30.449  1.00  0.00     0.074 A 
ATOM     41  C   UNL A   1      41.657  31.643  30.534  1.00  0.00     0.031 C 
ATOM     42  C   UNL A   1      40.373  25.513  27.683  1.00  0.00     0.029 A 
ATOM     43  C   UNL A   1      41.745  25.750  28.125  1.00  0.00     0.049 A 
ATOM     44  H   UNL A   1      42.495  27.457  29.053  1.00  0.00     0.167 HD
ATOM     45  C   UNL A   1      44.036  31.056  30.898  1.00  0.00     0.037 A 
ATOM     46  C   UNL A   1      42.763  24.877  27.999  1.00  0.00     0.037 A 
ATOM     47  C   UNL A   1      45.167  30.164  30.865  1.00  0.00     0.049 A 
ATOM     48  C   UNL A   1      44.136  25.242  28.494  1.00  0.00     0.074 A 
ATOM     49  C   UNL A   1      46.445  30.374  31.357  1.00  0.00     0.029 A 
ATOM     50  N   UNL A   1      45.157  28.892  30.313  1.00  0.00    -0.354 N 
ATOM     51  N   UNL A   1      44.537  26.339  29.085  1.00  0.00    -0.248 NA
ATOM     52  C   UNL A   1      45.197  24.240  28.305  1.00  0.00     0.031 C 
ATOM     53  C   UNL A   1      47.219  29.244  31.069  1.00  0.00     0.029 A 
ATOM     54  C   UNL A   1      46.411  28.315  30.436  1.00  0.00     0.049 A 
ATOM     55  H   UNL A   1      44.374  28.463  29.897  1.00  0.00     0.167 HD
ATOM     56  C   UNL A   1      45.885  26.149  29.365  1.00  0.00     0.074 A 
ATOM     57  C   UNL A   1      46.232  24.829  28.885  1.00  0.00     0.031 C 
ATOM     58  C   UNL A   1      46.753  26.996  29.969  1.00  0.00     0.037 A 
BRANCH  45  59
ATOM     59  C   UNL A   1      44.246  32.430  31.466  1.00  0.00     0.057 A 
ATOM     60  C   UNL A   1      44.637  33.512  30.666  1.00  0.00     0.134 A 
ATOM     61  C   UNL A   1      44.015  32.683  32.825  1.00  0.00     0.134 A 
ATOM     62  F   UNL A   1      44.881  33.335  29.358  1.00  0.00    -0.206 F 
ATOM     63  C   UNL A   1      44.822  34.787  31.202  1.00  0.00     0.040 A 
ATOM     64  C   UNL A   1      44.172  33.960  33.367  1.00  0.00     0.040 A 
ATOM     65  F   UNL A   1      43.627  31.695  33.645  1.00  0.00    -0.206 F 
ATOM     66  C   UNL A   1      44.584  35.015  32.556  1.00  0.00     0.006 A 
ENDBRANCH  45  59
BRANCH  46  67
ATOM     67  C   UNL A   1      42.522  23.548  27.384  1.00  0.00     0.057 A 
ATOM     68  C   UNL A   1      42.186  22.442  28.172  1.00  0.00     0.134 A 
ATOM     69  C   UNL A   1      42.632  23.350  26.003  1.00  0.00     0.134 A 
ATOM     70  F   UNL A   1      42.091  22.566  29.504  1.00  0.00    -0.206 F 
ATOM     71  C   UNL A   1      41.978  21.182  27.611  1.00  0.00     0.040 A 
ATOM     72  C   UNL A   1      42.404  22.101  25.425  1.00  0.00     0.040 A 
ATOM     73  F   UNL A   1      42.951  24.372  25.195  1.00  0.00    -0.206 F 
ATOM     74  C   UNL A   1      42.081  21.010  26.231  1.00  0.00     0.006 A 
ENDBRANCH  46  67
BRANCH  58  75
ATOM     75  C   UNL A   1      48.156  26.509  30.186  1.00  0.00     0.057 A 
ATOM     76  C   UNL A   1      49.166  26.713  29.238  1.00  0.00     0.134 A 
ATOM     77  C   UNL A   1      48.508  25.860  31.376  1.00  0.00     0.134 A 
ATOM     78  F   UNL A   1      48.892  27.317  28.071  1.00  0.00    -0.206 F 
ATOM     79  C   UNL A   1      50.472  26.268  29.456  1.00  0.00     0.040 A 
ATOM     80  C   UNL A   1      49.816  25.430  31.615  1.00  0.00     0.040 A 
ATOM     81  F   UNL A   1      47.591  25.638  32.329  1.00  0.00    -0.206 F 
ATOM     82  C   UNL A   1      50.801  25.630  30.650  1.00  0.00     0.006 A 
ENDBRANCH  58  75
ENDBRANCH  32  33
ENDBRANCH  24  27
ENDBRANCH  22  23
ENDBRANCH  21  22
ENDBRANCH   1  21
TORSDOF 14
ENDMDL
MODEL 3
REMARK VINA RESULT:     -10.5      3.751      5.060
REMARK SMILES C[NH2+][C@H](CC(=O)NCCCNC(=O)c1ccc(-c2c3nc(c(-c4c(F)cccc4F)c4ccc([nH]4)c(-c4c(F)cccc4F)c4nc(c(-c5c(F)cccc5F)c5ccc2[nH]5)C=C4)C=C3)cc1)c1cccc(C2CC2)c1
REMARK SMILES IDX 8 1 7 2 5 3 6 4 4 6 3 7 2 8 1 9 68 12 69 13 76 14 70 15
REMARK SMILES IDX 72 16 71 17 73 18 74 19 75 20 9 21 10 22 11 23 12 24 13 26
REMARK SMILES IDX 14 27 15 28 67 29 16 30 66 31 17 32 18 33 19 34 60 35 20 36
REMARK SMILES IDX 65 37 59 38 61 39 21 40 64 41 58 42 57 43 22 45 48 46 31 47
REMARK SMILES IDX 47 48 32 49 35 50 46 51 62 52 33 53 34 54 45 56 63 57 36 58
REMARK SMILES IDX 23 59 24 60 29 61 25 62 26 63 28 64 30 65 27 66 49 67 50 68
REMARK SMILES IDX 55 69 51 70 52 71 54 72 56 73 53 74 37 75 38 76 43 77 39 78
REMARK SMILES IDX 40 79 42 80 44 81 41 82
REMARK H PARENT 7 5 2 10 2 11 11 25 61 44 35 55
REMARK Flexibility Score: inf
ROOT
ATOM      1  C   UNL A   1      31.491  27.381  25.969  1.00  0.00     0.117 C 
ENDROOT
BRANCH   1   2
ATOM      2  N   UNL A   1      31.407  26.178  26.790  1.00  0.00    -0.356 N 
ATOM      3  C   UNL A   1      31.626  24.871  26.446  1.00  0.00     0.226 C 
ATOM      4  O   UNL A   1      31.227  23.999  27.221  1.00  0.00    -0.275 OA
ATOM      5  H   UNL A   1      31.156  26.328  27.730  1.00  0.00     0.163 HD
BRANCH   3   6
ATOM      6  C   UNL A   1      32.383  24.521  25.177  1.00  0.00     0.170 C 
BRANCH   6   7
ATOM      7  C   UNL A   1      31.815  23.338  24.363  1.00  0.00     0.222 C 
BRANCH   7   8
ATOM      8  N   UNL A   1      31.408  23.747  23.011  1.00  0.00    -0.342 N 
ATOM      9  C   UNL A   1      31.342  25.191  22.836  1.00  0.00     0.331 C 
ATOM     10  H   UNL A   1      32.082  23.372  22.344  1.00  0.00     0.346 HD
ATOM     11  H   UNL A   1      30.468  23.384  22.858  1.00  0.00     0.346 HD
ENDBRANCH   7   8
BRANCH   7  12
ATOM     12  C   UNL A   1      32.718  22.114  24.428  1.00  0.00     0.010 A 
ATOM     13  C   UNL A   1      32.184  20.845  24.163  1.00  0.00     0.010 A 
ATOM     14  C   UNL A   1      34.074  22.204  24.803  1.00  0.00     0.014 A 
ATOM     15  C   UNL A   1      32.981  19.708  24.270  1.00  0.00     0.001 A 
ATOM     16  C   UNL A   1      34.903  21.071  24.938  1.00  0.00    -0.044 A 
ATOM     17  C   UNL A   1      34.320  19.824  24.653  1.00  0.00     0.004 A 
BRANCH  16  18
ATOM     18  C   UNL A   1      36.338  21.145  25.427  1.00  0.00     0.019 C 
ATOM     19  C   UNL A   1      37.409  20.244  24.868  1.00  0.00     0.009 C 
ATOM     20  C   UNL A   1      37.423  21.709  24.539  1.00  0.00     0.009 C 
ENDBRANCH  16  18
ENDBRANCH   7  12
ENDBRANCH   6   7
ENDBRANCH   3   6
ENDBRANCH   1   2
BRANCH   1  21
ATOM     21  C   UNL A   1      31.781  28.605  26.834  1.00  0.00     0.042 C 
BRANCH  21  22
ATOM     22  C   UNL A   1      33.223  28.732  27.311  1.00  0.00     0.118 C 
BRANCH  22  23
ATOM     23  N   UNL A   1      33.512  30.074  27.783  1.00  0.00    -0.352 N 
ATOM     24  C   UNL A   1      34.614  30.665  28.349  1.00  0.00     0.251 C 
ATOM     25  H   UNL A   1      32.755  30.694  27.673  1.00  0.00     0.163 HD
ATOM     26  O   UNL A   1      34.432  31.769  28.868  1.00  0.00    -0.269 OA
BRANCH  24  27
ATOM     27  C   UNL A   1      35.995  30.089  28.380  1.00  0.00     0.039 A 
ATOM     28  C   UNL A   1      36.407  29.504  29.591  1.00  0.00     0.014 A 
ATOM     29  C   UNL A   1      36.943  30.211  27.364  1.00  0.00     0.014 A 
ATOM     30  C   UNL A   1      37.728  29.073  29.784  1.00  0.00     0.010 A 
ATOM     31  C   UNL A   1      38.248  29.709  27.528  1.00  0.00     0.010 A 
ATOM     32  C   UNL A   1      38.668  29.165  28.750  1.00  0.00    -0.014 A 
BRANCH  32  33
ATOM     33  C   UNL A   1      40.089  28.757  28.963  1.00  0.00     0.031 A 
ATOM     34  C   UNL A   1      41.069  29.690  29.636  1.00  0.00     0.074 A 
ATOM     35  C   UNL A   1      40.525  27.550  28.551  1.00  0.00     0.049 A 
ATOM     36  N   UNL A   1      42.351  29.529  29.860  1.00  0.00    -0.248 NA
ATOM     37  C   UNL A   1      40.540  30.981  30.102  1.00  0.00     0.031 C 
ATOM     38  C   UNL A   1      39.708  26.538  27.881  1.00  0.00     0.029 A 
ATOM     39  N   UNL A   1      41.769  26.969  28.636  1.00  0.00    -0.354 N 
ATOM     40  C   UNL A   1      42.785  30.703  30.465  1.00  0.00     0.074 A 
ATOM     41  C   UNL A   1      41.637  31.582  30.540  1.00  0.00     0.031 C 
ATOM     42  C   UNL A   1      40.464  25.454  27.638  1.00  0.00     0.029 A 
ATOM     43  C   UNL A   1      41.827  25.705  28.098  1.00  0.00     0.049 A 
ATOM     44  H   UNL A   1      42.545  27.416  29.045  1.00  0.00     0.167 HD
ATOM     45  C   UNL A   1      44.018  31.021  30.932  1.00  0.00     0.037 A 
ATOM     46  C   UNL A   1      42.858  24.845  27.980  1.00  0.00     0.037 A 
ATOM     47  C   UNL A   1      45.160  30.144  30.907  1.00  0.00     0.049 A 
ATOM     48  C   UNL A   1      44.219  25.224  28.494  1.00  0.00     0.074 A 
ATOM     49  C   UNL A   1      46.429  30.366  31.417  1.00  0.00     0.029 A 
ATOM     50  N   UNL A   1      45.173  28.875  30.348  1.00  0.00    -0.354 N 
ATOM     51  N   UNL A   1      44.599  26.322  29.097  1.00  0.00    -0.248 NA
ATOM     52  C   UNL A   1      45.294  24.236  28.313  1.00  0.00     0.031 C 
ATOM     53  C   UNL A   1      47.220  29.247  31.132  1.00  0.00     0.029 A 
ATOM     54  C   UNL A   1      46.432  28.312  30.483  1.00  0.00     0.049 A 
ATOM     55  H   UNL A   1      44.401  28.439  29.920  1.00  0.00     0.167 HD
ATOM     56  C   UNL A   1      45.946  26.147  29.393  1.00  0.00     0.074 A 
ATOM     57  C   UNL A   1      46.315  24.834  28.910  1.00  0.00     0.031 C 
ATOM     58  C   UNL A   1      46.796  27.001  30.012  1.00  0.00     0.037 A 
BRANCH  45  59
ATOM     59  C   UNL A   1      44.204  32.395  31.510  1.00  0.00     0.057 A 
ATOM     60  C   UNL A   1      44.031  32.654  32.876  1.00  0.00     0.134 A 
ATOM     61  C   UNL A   1      44.599  33.464  30.695  1.00  0.00     0.134 A 
ATOM     62  F   UNL A   1      43.646  31.676  33.709  1.00  0.00    -0.206 F 
ATOM     63  C   UNL A   1      44.212  33.933  33.405  1.00  0.00     0.040 A 
ATOM     64  C   UNL A   1      44.810  34.741  31.217  1.00  0.00     0.040 A 
ATOM     65  F   UNL A   1      44.794  33.282  29.380  1.00  0.00    -0.206 F 
ATOM     66  C   UNL A   1      44.609  34.981  32.574  1.00  0.00     0.006 A 
ENDBRANCH  45  59
BRANCH  46  67
ATOM     67  C   UNL A   1      42.640  23.517  27.354  1.00  0.00     0.057 A 
ATOM     68  C   UNL A   1      42.231  22.420  28.120  1.00  0.00     0.134 A 
ATOM     69  C   UNL A   1      42.847  23.310  25.986  1.00  0.00     0.134 A 
ATOM     70  F   UNL A   1      42.042  22.553  29.441  1.00  0.00    -0.206 F 
ATOM     71  C   UNL A   1      42.043  21.161  27.550  1.00  0.00     0.040 A 
ATOM     72  C   UNL A   1      42.642  22.062  25.397  1.00  0.00     0.040 A 
ATOM     73  F   UNL A   1      43.240  24.323  25.199  1.00  0.00    -0.206 F 
ATOM     74  C   UNL A   1      42.244  20.981  26.182  1.00  0.00     0.006 A 
ENDBRANCH  46  67
BRANCH  58  75
ATOM     75  C   UNL A   1      48.202  26.530  30.245  1.00  0.00     0.057 A 
ATOM     76  C   UNL A   1      49.224  26.762  29.316  1.00  0.00     0.134 A 
ATOM     77  C   UNL A   1      48.545  25.866  31.430  1.00  0.00     0.134 A 
ATOM     78  F   UNL A   1      48.960  27.381  28.155  1.00  0.00    -0.206 F 
ATOM     79  C   UNL A   1      50.532  26.332  29.548  1.00  0.00     0.040 A 
ATOM     80  C   UNL A   1      49.854  25.451  31.683  1.00  0.00     0.040 A 
ATOM     81  F   UNL A   1      47.615  25.617  32.365  1.00  0.00    -0.206 F 
ATOM     82  C   UNL A   1      50.851  25.680  30.738  1.00  0.00     0.006 A 
ENDBRANCH  58  75
ENDBRANCH  32  33
ENDBRANCH  24  27
ENDBRANCH  22  23
ENDBRANCH  21  22
ENDBRANCH   1  21
TORSDOF 14
ENDMDL
