MODEL 1
REMARK VINA RESULT:     -13.8      0.000      0.000
REMARK SMILES Cc1c(-c2nn(-c3ccccc3)cc2/C=N/O)nnn1-c1ccc(C(=O)NCCCNC(=O)c2ccc(-c3c4nc(c(-c5c(F)cccc5F)c5ccc([nH]5)c(-c5c(F)cccc5F)c5nc(c(-c6c(F)cccc6F)c6ccc3[nH]6)C=C5)C=C4)cc2)cc1
REMARK SMILES IDX 28 1 27 2 25 3 26 4 24 6 21 7 22 8 89 9 23 10 88 11 20 12
REMARK SMILES IDX 1 13 2 14 3 15 18 16 19 17 4 18 5 19 14 20 6 21 13 22 15 23
REMARK SMILES IDX 16 24 17 25 7 27 8 28 12 29 9 30 11 31 10 32 29 33 30 34
REMARK SMILES IDX 31 35 32 36 33 38 34 39 35 40 87 41 36 42 86 43 37 44 38 45
REMARK SMILES IDX 39 46 80 47 40 48 85 49 79 50 81 51 41 52 84 53 78 54 77 55
REMARK SMILES IDX 42 57 68 58 51 59 67 60 52 61 55 62 66 63 82 64 53 65 54 66
REMARK SMILES IDX 65 68 83 69 56 70 43 71 44 72 49 73 45 74 46 75 48 76 50 77
REMARK SMILES IDX 47 78 69 79 70 80 75 81 71 82 72 83 74 84 76 85 73 86 57 87
REMARK SMILES IDX 58 88 63 89 59 90 60 91 62 92 64 93 61 94
REMARK H PARENT 27 5 17 26 31 37 81 56 55 67
REMARK Flexibility Score: inf
ROOT
ATOM      1  C   UNL A   1      36.996  33.021  29.763  1.00  0.00     0.118 C 
ENDROOT
BRANCH   1   2
ATOM      2  N   UNL A   1      36.301  33.924  28.863  1.00  0.00    -0.352 N 
ATOM      3  C   UNL A   1      35.281  33.734  27.966  1.00  0.00     0.251 C 
ATOM      4  O   UNL A   1      34.895  34.716  27.334  1.00  0.00    -0.269 OA
ATOM      5  H   UNL A   1      36.623  34.854  28.905  1.00  0.00     0.163 HD
BRANCH   3   6
ATOM      6  C   UNL A   1      34.589  32.423  27.793  1.00  0.00     0.039 A 
ATOM      7  C   UNL A   1      33.470  29.940  27.141  1.00  0.00     0.067 A 
ATOM      8  C   UNL A   1      34.830  30.025  27.453  1.00  0.00     0.029 A 
ATOM      9  C   UNL A   1      32.649  31.058  27.260  1.00  0.00     0.029 A 
ATOM     10  C   UNL A   1      35.392  31.275  27.734  1.00  0.00     0.016 A 
ATOM     11  C   UNL A   1      33.206  32.269  27.662  1.00  0.00     0.016 A 
BRANCH   7  12
ATOM     12  N   UNL A   1      32.908  28.701  26.788  1.00  0.00    -0.217 N 
ATOM     13  C   UNL A   1      33.915  28.323  24.477  1.00  0.00     0.069 C 
ATOM     14  C   UNL A   1      32.986  28.010  25.591  1.00  0.00     0.071 A 
ATOM     15  C   UNL A   1      32.129  26.944  25.796  1.00  0.00     0.137 A 
ATOM     16  N   UNL A   1      31.597  26.998  27.053  1.00  0.00    -0.128 NA
ATOM     17  N   UNL A   1      32.129  28.041  27.673  1.00  0.00    -0.061 NA
BRANCH  15  18
ATOM     18  C   UNL A   1      31.814  25.817  24.921  1.00  0.00     0.124 A 
ATOM     19  N   UNL A   1      32.194  24.565  25.204  1.00  0.00    -0.165 NA
ATOM     20  C   UNL A   1      31.055  25.896  23.727  1.00  0.00     0.044 A 
ATOM     21  N   UNL A   1      31.765  23.838  24.148  1.00  0.00    -0.240 N 
ATOM     22  C   UNL A   1      31.090  24.607  23.229  1.00  0.00     0.125 A 
BRANCH  20  23
ATOM     23  C   UNL A   1      30.366  27.005  23.113  1.00  0.00     0.166 C 
ATOM     24  N   UNL A   1      30.881  27.584  22.079  1.00  0.00    -0.097 NA
BRANCH  24  25
ATOM     25  O   UNL A   1      30.071  28.657  21.689  1.00  0.00    -0.411 OA
ATOM     26  H   UNL A   1      30.122  29.472  22.147  1.00  0.00     0.330 HD
ENDBRANCH  24  25
ENDBRANCH  20  23
BRANCH  21  27
ATOM     27  C   UNL A   1      32.065  22.462  24.047  1.00  0.00     0.065 A 
ATOM     28  C   UNL A   1      31.951  21.821  22.807  1.00  0.00     0.028 A 
ATOM     29  C   UNL A   1      32.430  21.741  25.190  1.00  0.00     0.028 A 
ATOM     30  C   UNL A   1      32.211  20.452  22.713  1.00  0.00     0.002 A 
ATOM     31  C   UNL A   1      32.630  20.362  25.094  1.00  0.00     0.002 A 
ATOM     32  C   UNL A   1      32.528  19.720  23.858  1.00  0.00     0.000 A 
ENDBRANCH  21  27
ENDBRANCH  15  18
ENDBRANCH   7  12
ENDBRANCH   3   6
ENDBRANCH   1   2
BRANCH   1  33
ATOM     33  C   UNL A   1      38.510  33.218  29.650  1.00  0.00     0.042 C 
BRANCH  33  34
ATOM     34  C   UNL A   1      39.209  31.890  29.848  1.00  0.00     0.118 C 
BRANCH  34  35
ATOM     35  N   UNL A   1      38.291  30.825  30.265  1.00  0.00    -0.352 N 
ATOM     36  C   UNL A   1      38.077  29.584  29.658  1.00  0.00     0.251 C 
ATOM     37  H   UNL A   1      37.759  31.006  31.073  1.00  0.00     0.163 HD
ATOM     38  O   UNL A   1      37.099  28.936  29.880  1.00  0.00    -0.269 OA
BRANCH  36  39
ATOM     39  C   UNL A   1      39.206  29.062  28.841  1.00  0.00     0.039 A 
ATOM     40  C   UNL A   1      39.510  29.370  27.520  1.00  0.00     0.014 A 
ATOM     41  C   UNL A   1      39.918  28.026  29.406  1.00  0.00     0.014 A 
ATOM     42  C   UNL A   1      40.476  28.535  26.872  1.00  0.00     0.010 A 
ATOM     43  C   UNL A   1      41.175  27.797  28.961  1.00  0.00     0.010 A 
ATOM     44  C   UNL A   1      41.204  27.544  27.619  1.00  0.00    -0.014 A 
BRANCH  44  45
ATOM     45  C   UNL A   1      42.486  26.831  27.262  1.00  0.00     0.031 A 
ATOM     46  C   UNL A   1      42.022  25.363  27.157  1.00  0.00     0.074 A 
ATOM     47  C   UNL A   1      43.741  27.392  26.944  1.00  0.00     0.049 A 
ATOM     48  N   UNL A   1      42.026  24.550  28.170  1.00  0.00    -0.248 NA
ATOM     49  C   UNL A   1      41.077  24.835  26.114  1.00  0.00     0.031 C 
ATOM     50  C   UNL A   1      44.257  28.807  26.928  1.00  0.00     0.029 A 
ATOM     51  N   UNL A   1      44.969  26.758  26.613  1.00  0.00    -0.354 N 
ATOM     52  C   UNL A   1      41.597  23.321  27.676  1.00  0.00     0.074 A 
ATOM     53  C   UNL A   1      40.739  23.625  26.584  1.00  0.00     0.031 C 
ATOM     54  C   UNL A   1      45.505  28.912  26.353  1.00  0.00     0.029 A 
ATOM     55  C   UNL A   1      46.024  27.591  26.032  1.00  0.00     0.049 A 
ATOM     56  H   UNL A   1      45.105  25.795  26.768  1.00  0.00     0.167 HD
ATOM     57  C   UNL A   1      42.398  22.238  27.892  1.00  0.00     0.037 A 
ATOM     58  C   UNL A   1      47.327  27.240  25.637  1.00  0.00     0.037 A 
ATOM     59  C   UNL A   1      43.325  22.576  28.954  1.00  0.00     0.049 A 
ATOM     60  C   UNL A   1      47.596  25.924  26.260  1.00  0.00     0.074 A 
ATOM     61  C   UNL A   1      43.189  22.947  30.278  1.00  0.00     0.029 A 
ATOM     62  N   UNL A   1      44.432  23.221  28.472  1.00  0.00    -0.354 N 
ATOM     63  N   UNL A   1      47.721  25.798  27.550  1.00  0.00    -0.248 NA
ATOM     64  C   UNL A   1      47.048  24.796  25.526  1.00  0.00     0.031 C 
ATOM     65  C   UNL A   1      44.134  23.998  30.491  1.00  0.00     0.029 A 
ATOM     66  C   UNL A   1      44.965  24.083  29.381  1.00  0.00     0.049 A 
ATOM     67  H   UNL A   1      44.802  23.077  27.571  1.00  0.00     0.167 HD
ATOM     68  C   UNL A   1      46.772  24.841  27.858  1.00  0.00     0.074 A 
ATOM     69  C   UNL A   1      46.406  24.237  26.557  1.00  0.00     0.031 C 
ATOM     70  C   UNL A   1      46.101  24.896  29.051  1.00  0.00     0.037 A 
BRANCH  57  71
ATOM     71  C   UNL A   1      42.766  21.216  26.828  1.00  0.00     0.057 A 
ATOM     72  C   UNL A   1      42.409  19.873  27.040  1.00  0.00     0.134 A 
ATOM     73  C   UNL A   1      43.673  21.421  25.763  1.00  0.00     0.134 A 
ATOM     74  F   UNL A   1      41.595  19.536  28.052  1.00  0.00    -0.206 F 
ATOM     75  C   UNL A   1      42.920  18.820  26.267  1.00  0.00     0.040 A 
ATOM     76  C   UNL A   1      44.151  20.383  24.952  1.00  0.00     0.040 A 
ATOM     77  F   UNL A   1      44.225  22.611  25.504  1.00  0.00    -0.206 F 
ATOM     78  C   UNL A   1      43.788  19.074  25.212  1.00  0.00     0.006 A 
ENDBRANCH  57  71
BRANCH  58  79
ATOM     79  C   UNL A   1      48.218  27.614  24.438  1.00  0.00     0.057 A 
ATOM     80  C   UNL A   1      49.620  27.365  24.285  1.00  0.00     0.134 A 
ATOM     81  C   UNL A   1      47.576  27.921  23.235  1.00  0.00     0.134 A 
ATOM     82  F   UNL A   1      50.380  26.986  25.325  1.00  0.00    -0.206 F 
ATOM     83  C   UNL A   1      50.297  27.437  23.031  1.00  0.00     0.040 A 
ATOM     84  C   UNL A   1      48.229  27.970  21.987  1.00  0.00     0.040 A 
ATOM     85  F   UNL A   1      46.248  28.087  23.223  1.00  0.00    -0.206 F 
ATOM     86  C   UNL A   1      49.591  27.728  21.871  1.00  0.00     0.006 A 
ENDBRANCH  58  79
BRANCH  70  87
ATOM     87  C   UNL A   1      46.593  25.837  30.119  1.00  0.00     0.057 A 
ATOM     88  C   UNL A   1      47.852  25.832  30.744  1.00  0.00     0.134 A 
ATOM     89  C   UNL A   1      45.755  26.910  30.420  1.00  0.00     0.134 A 
ATOM     90  F   UNL A   1      48.794  24.945  30.405  1.00  0.00    -0.206 F 
ATOM     91  C   UNL A   1      48.212  26.802  31.694  1.00  0.00     0.040 A 
ATOM     92  C   UNL A   1      46.113  27.902  31.328  1.00  0.00     0.040 A 
ATOM     93  F   UNL A   1      44.586  27.042  29.773  1.00  0.00    -0.206 F 
ATOM     94  C   UNL A   1      47.330  27.835  31.996  1.00  0.00     0.006 A 
ENDBRANCH  70  87
ENDBRANCH  44  45
ENDBRANCH  36  39
ENDBRANCH  34  35
ENDBRANCH  33  34
ENDBRANCH   1  33
TORSDOF 15
ENDMDL
MODEL 2
REMARK VINA RESULT:     -13.5      4.444      6.189
REMARK SMILES Cc1c(-c2nn(-c3ccccc3)cc2/C=N/O)nnn1-c1ccc(C(=O)NCCCNC(=O)c2ccc(-c3c4nc(c(-c5c(F)cccc5F)c5ccc([nH]5)c(-c5c(F)cccc5F)c5nc(c(-c6c(F)cccc6F)c6ccc3[nH]6)C=C5)C=C4)cc2)cc1
REMARK SMILES IDX 28 1 27 2 25 3 26 4 24 6 21 7 22 8 89 9 23 10 88 11 20 12
REMARK SMILES IDX 1 13 2 14 3 15 18 16 19 17 4 18 5 19 14 20 6 21 13 22 15 23
REMARK SMILES IDX 16 24 17 25 7 27 8 28 12 29 9 30 11 31 10 32 29 33 30 34
REMARK SMILES IDX 31 35 32 36 33 38 34 39 35 40 87 41 36 42 86 43 37 44 38 45
REMARK SMILES IDX 39 46 80 47 40 48 85 49 79 50 81 51 41 52 84 53 78 54 77 55
REMARK SMILES IDX 42 57 68 58 51 59 67 60 52 61 55 62 66 63 82 64 53 65 54 66
REMARK SMILES IDX 65 68 83 69 56 70 43 71 44 72 49 73 45 74 46 75 48 76 50 77
REMARK SMILES IDX 47 78 69 79 70 80 75 81 71 82 72 83 74 84 76 85 73 86 57 87
REMARK SMILES IDX 58 88 63 89 59 90 60 91 62 92 64 93 61 94
REMARK H PARENT 27 5 17 26 31 37 81 56 55 67
REMARK Flexibility Score: inf
ROOT
ATOM      1  C   UNL A   1      32.702  35.282  30.152  1.00  0.00     0.118 C 
ENDROOT
BRANCH   1   2
ATOM      2  N   UNL A   1      33.642  35.461  29.059  1.00  0.00    -0.352 N 
ATOM      3  C   UNL A   1      34.049  34.633  28.044  1.00  0.00     0.251 C 
ATOM      4  O   UNL A   1      34.877  35.080  27.251  1.00  0.00    -0.269 OA
ATOM      5  H   UNL A   1      34.067  36.349  29.042  1.00  0.00     0.163 HD
BRANCH   3   6
ATOM      6  C   UNL A   1      33.478  33.271  27.830  1.00  0.00     0.039 A 
ATOM      7  C   UNL A   1      32.688  30.662  27.190  1.00  0.00     0.067 A 
ATOM      8  C   UNL A   1      33.859  30.869  27.923  1.00  0.00     0.029 A 
ATOM      9  C   UNL A   1      31.857  31.733  26.872  1.00  0.00     0.029 A 
ATOM     10  C   UNL A   1      34.272  32.176  28.202  1.00  0.00     0.016 A 
ATOM     11  C   UNL A   1      32.225  33.017  27.267  1.00  0.00     0.016 A 
BRANCH   7  12
ATOM     12  N   UNL A   1      32.298  29.356  26.843  1.00  0.00    -0.217 N 
ATOM     13  C   UNL A   1      33.251  29.149  24.487  1.00  0.00     0.069 C 
ATOM     14  C   UNL A   1      32.426  28.694  25.634  1.00  0.00     0.071 A 
ATOM     15  C   UNL A   1      31.744  27.512  25.859  1.00  0.00     0.137 A 
ATOM     16  N   UNL A   1      31.264  27.478  27.137  1.00  0.00    -0.128 NA
ATOM     17  N   UNL A   1      31.663  28.583  27.749  1.00  0.00    -0.061 NA
BRANCH  15  18
ATOM     18  C   UNL A   1      31.561  26.358  24.982  1.00  0.00     0.124 A 
ATOM     19  N   UNL A   1      31.986  25.133  25.315  1.00  0.00    -0.165 NA
ATOM     20  C   UNL A   1      30.894  26.379  23.732  1.00  0.00     0.044 A 
ATOM     21  N   UNL A   1      31.681  24.370  24.242  1.00  0.00    -0.240 N 
ATOM     22  C   UNL A   1      31.039  25.087  23.260  1.00  0.00     0.125 A 
BRANCH  20  23
ATOM     23  C   UNL A   1      30.195  27.439  23.047  1.00  0.00     0.166 C 
ATOM     24  N   UNL A   1      30.757  28.035  22.048  1.00  0.00    -0.097 NA
BRANCH  24  25
ATOM     25  O   UNL A   1      29.923  29.055  21.578  1.00  0.00    -0.411 OA
ATOM     26  H   UNL A   1      29.838  29.202  20.657  1.00  0.00     0.330 HD
ENDBRANCH  24  25
ENDBRANCH  20  23
BRANCH  21  27
ATOM     27  C   UNL A   1      32.064  23.011  24.188  1.00  0.00     0.065 A 
ATOM     28  C   UNL A   1      31.797  22.266  23.033  1.00  0.00     0.028 A 
ATOM     29  C   UNL A   1      32.665  22.410  25.300  1.00  0.00     0.028 A 
ATOM     30  C   UNL A   1      32.141  20.913  22.992  1.00  0.00     0.002 A 
ATOM     31  C   UNL A   1      32.949  21.044  25.269  1.00  0.00     0.002 A 
ATOM     32  C   UNL A   1      32.695  20.298  24.116  1.00  0.00     0.000 A 
ENDBRANCH  21  27
ENDBRANCH  15  18
ENDBRANCH   7  12
ENDBRANCH   3   6
ENDBRANCH   1   2
BRANCH   1  33
ATOM     33  C   UNL A   1      32.757  36.480  31.103  1.00  0.00     0.042 C 
BRANCH  33  34
ATOM     34  C   UNL A   1      33.749  36.203  32.211  1.00  0.00     0.118 C 
BRANCH  34  35
ATOM     35  N   UNL A   1      33.407  35.010  32.991  1.00  0.00    -0.352 N 
ATOM     36  C   UNL A   1      33.906  33.712  32.848  1.00  0.00     0.251 C 
ATOM     37  H   UNL A   1      32.741  35.138  33.705  1.00  0.00     0.163 HD
ATOM     38  O   UNL A   1      33.339  32.766  33.306  1.00  0.00    -0.269 OA
BRANCH  36  39
ATOM     39  C   UNL A   1      35.252  33.605  32.224  1.00  0.00     0.039 A 
ATOM     40  C   UNL A   1      35.967  34.603  31.572  1.00  0.00     0.014 A 
ATOM     41  C   UNL A   1      35.761  32.327  32.127  1.00  0.00     0.014 A 
ATOM     42  C   UNL A   1      37.112  34.187  30.819  1.00  0.00     0.010 A 
ATOM     43  C   UNL A   1      37.100  32.181  31.992  1.00  0.00     0.010 A 
ATOM     44  C   UNL A   1      37.574  32.826  30.885  1.00  0.00    -0.014 A 
BRANCH  44  45
ATOM     45  C   UNL A   1      38.918  32.256  30.499  1.00  0.00     0.031 A 
ATOM     46  C   UNL A   1      38.523  30.935  29.807  1.00  0.00     0.074 A 
ATOM     47  C   UNL A   1      40.189  32.861  30.601  1.00  0.00     0.049 A 
ATOM     48  N   UNL A   1      38.398  29.814  30.451  1.00  0.00    -0.248 NA
ATOM     49  C   UNL A   1      37.767  30.839  28.511  1.00  0.00     0.031 C 
ATOM     50  C   UNL A   1      40.656  34.175  31.171  1.00  0.00     0.029 A 
ATOM     51  N   UNL A   1      41.473  32.357  30.260  1.00  0.00    -0.354 N 
ATOM     52  C   UNL A   1      38.089  28.854  29.490  1.00  0.00     0.074 A 
ATOM     53  C   UNL A   1      37.400  29.549  28.460  1.00  0.00     0.031 C 
ATOM     54  C   UNL A   1      41.973  34.446  30.872  1.00  0.00     0.029 A 
ATOM     55  C   UNL A   1      42.577  33.316  30.185  1.00  0.00     0.049 A 
ATOM     56  H   UNL A   1      41.614  31.399  30.080  1.00  0.00     0.167 HD
ATOM     57  C   UNL A   1      38.882  27.745  29.426  1.00  0.00     0.037 A 
ATOM     58  C   UNL A   1      43.936  33.096  29.897  1.00  0.00     0.037 A 
ATOM     59  C   UNL A   1      39.623  27.657  30.668  1.00  0.00     0.049 A 
ATOM     60  C   UNL A   1      44.148  31.638  30.043  1.00  0.00     0.074 A 
ATOM     61  C   UNL A   1      39.275  27.534  32.000  1.00  0.00     0.029 A 
ATOM     62  N   UNL A   1      40.770  28.404  30.626  1.00  0.00    -0.354 N 
ATOM     63  N   UNL A   1      44.077  31.055  31.205  1.00  0.00    -0.248 NA
ATOM     64  C   UNL A   1      43.755  30.861  28.879  1.00  0.00     0.031 C 
ATOM     65  C   UNL A   1      40.141  28.414  32.718  1.00  0.00     0.029 A 
ATOM     66  C   UNL A   1      41.129  28.870  31.853  1.00  0.00     0.049 A 
ATOM     67  H   UNL A   1      41.278  28.582  29.802  1.00  0.00     0.167 HD
ATOM     68  C   UNL A   1      43.124  30.076  31.001  1.00  0.00     0.074 A 
ATOM     69  C   UNL A   1      42.981  29.987  29.530  1.00  0.00     0.031 C 
ATOM     70  C   UNL A   1      42.276  29.718  32.016  1.00  0.00     0.037 A 
BRANCH  57  71
ATOM     71  C   UNL A   1      39.441  27.162  28.137  1.00  0.00     0.057 A 
ATOM     72  C   UNL A   1      39.360  25.772  27.943  1.00  0.00     0.134 A 
ATOM     73  C   UNL A   1      40.284  27.835  27.223  1.00  0.00     0.134 A 
ATOM     74  F   UNL A   1      38.635  25.009  28.775  1.00  0.00    -0.206 F 
ATOM     75  C   UNL A   1      40.068  25.105  26.932  1.00  0.00     0.040 A 
ATOM     76  C   UNL A   1      40.955  27.186  26.179  1.00  0.00     0.040 A 
ATOM     77  F   UNL A   1      40.585  29.132  27.340  1.00  0.00    -0.206 F 
ATOM     78  C   UNL A   1      40.863  25.813  26.039  1.00  0.00     0.006 A 
ENDBRANCH  57  71
BRANCH  58  79
ATOM     79  C   UNL A   1      44.988  33.852  29.064  1.00  0.00     0.057 A 
ATOM     80  C   UNL A   1      44.935  34.153  27.665  1.00  0.00     0.134 A 
ATOM     81  C   UNL A   1      45.926  34.618  29.761  1.00  0.00     0.134 A 
ATOM     82  F   UNL A   1      44.041  33.563  26.856  1.00  0.00    -0.206 F 
ATOM     83  C   UNL A   1      45.769  35.129  27.042  1.00  0.00     0.040 A 
ATOM     84  C   UNL A   1      46.737  35.602  29.161  1.00  0.00     0.040 A 
ATOM     85  F   UNL A   1      46.013  34.500  31.091  1.00  0.00    -0.206 F 
ATOM     86  C   UNL A   1      46.667  35.869  27.800  1.00  0.00     0.006 A 
ENDBRANCH  58  79
BRANCH  70  87
ATOM     87  C   UNL A   1      42.568  30.202  33.412  1.00  0.00     0.057 A 
ATOM     88  C   UNL A   1      41.962  31.276  34.084  1.00  0.00     0.134 A 
ATOM     89  C   UNL A   1      43.438  29.410  34.162  1.00  0.00     0.134 A 
ATOM     90  F   UNL A   1      40.991  31.997  33.513  1.00  0.00    -0.206 F 
ATOM     91  C   UNL A   1      42.286  31.596  35.413  1.00  0.00     0.040 A 
ATOM     92  C   UNL A   1      43.738  29.689  35.492  1.00  0.00     0.040 A 
ATOM     93  F   UNL A   1      43.962  28.301  33.619  1.00  0.00    -0.206 F 
ATOM     94  C   UNL A   1      43.189  30.804  36.115  1.00  0.00     0.006 A 
ENDBRANCH  70  87
ENDBRANCH  44  45
ENDBRANCH  36  39
ENDBRANCH  34  35
ENDBRANCH  33  34
ENDBRANCH   1  33
TORSDOF 15
ENDMDL
MODEL 3
REMARK VINA RESULT:     -13.2      4.028      9.784
REMARK SMILES Cc1c(-c2nn(-c3ccccc3)cc2/C=N/O)nnn1-c1ccc(C(=O)NCCCNC(=O)c2ccc(-c3c4nc(c(-c5c(F)cccc5F)c5ccc([nH]5)c(-c5c(F)cccc5F)c5nc(c(-c6c(F)cccc6F)c6ccc3[nH]6)C=C5)C=C4)cc2)cc1
REMARK SMILES IDX 28 1 27 2 25 3 26 4 24 6 21 7 22 8 89 9 23 10 88 11 20 12
REMARK SMILES IDX 1 13 2 14 3 15 18 16 19 17 4 18 5 19 14 20 6 21 13 22 15 23
REMARK SMILES IDX 16 24 17 25 7 27 8 28 12 29 9 30 11 31 10 32 29 33 30 34
REMARK SMILES IDX 31 35 32 36 33 38 34 39 35 40 87 41 36 42 86 43 37 44 38 45
REMARK SMILES IDX 39 46 80 47 40 48 85 49 79 50 81 51 41 52 84 53 78 54 77 55
REMARK SMILES IDX 42 57 68 58 51 59 67 60 52 61 55 62 66 63 82 64 53 65 54 66
REMARK SMILES IDX 65 68 83 69 56 70 43 71 44 72 49 73 45 74 46 75 48 76 50 77
REMARK SMILES IDX 47 78 69 79 70 80 75 81 71 82 72 83 74 84 76 85 73 86 57 87
REMARK SMILES IDX 58 88 63 89 59 90 60 91 62 92 64 93 61 94
REMARK H PARENT 27 5 17 26 31 37 81 56 55 67
REMARK Flexibility Score: inf
ROOT
ATOM      1  C   UNL A   1      38.244  21.635  25.397  1.00  0.00     0.118 C 
ENDROOT
BRANCH   1   2
ATOM      2  N   UNL A   1      37.401  20.491  25.098  1.00  0.00    -0.352 N 
ATOM      3  C   UNL A   1      36.041  20.321  25.086  1.00  0.00     0.251 C 
ATOM      4  O   UNL A   1      35.614  19.207  24.784  1.00  0.00    -0.269 OA
ATOM      5  H   UNL A   1      37.905  19.680  24.855  1.00  0.00     0.163 HD
BRANCH   3   6
ATOM      6  C   UNL A   1      35.083  21.435  25.346  1.00  0.00     0.039 A 
ATOM      7  C   UNL A   1      33.469  23.712  25.572  1.00  0.00     0.067 A 
ATOM      8  C   UNL A   1      33.393  22.923  24.421  1.00  0.00     0.029 A 
ATOM      9  C   UNL A   1      34.257  23.315  26.648  1.00  0.00     0.029 A 
ATOM     10  C   UNL A   1      34.233  21.811  24.295  1.00  0.00     0.016 A 
ATOM     11  C   UNL A   1      34.993  22.136  26.551  1.00  0.00     0.016 A 
BRANCH   7  12
ATOM     12  N   UNL A   1      32.681  24.872  25.680  1.00  0.00    -0.217 N 
ATOM     13  C   UNL A   1      33.608  26.299  23.783  1.00  0.00     0.069 C 
ATOM     14  C   UNL A   1      32.780  26.069  24.992  1.00  0.00     0.071 A 
ATOM     15  C   UNL A   1      31.839  26.863  25.622  1.00  0.00     0.137 A 
ATOM     16  N   UNL A   1      31.209  26.159  26.609  1.00  0.00    -0.128 NA
ATOM     17  N   UNL A   1      31.687  24.924  26.593  1.00  0.00    -0.061 NA
BRANCH  15  18
ATOM     18  C   UNL A   1      31.421  28.231  25.325  1.00  0.00     0.124 A 
ATOM     19  N   UNL A   1      30.514  28.512  24.380  1.00  0.00    -0.165 NA
ATOM     20  C   UNL A   1      31.874  29.390  26.003  1.00  0.00     0.044 A 
ATOM     21  N   UNL A   1      30.442  29.862  24.377  1.00  0.00    -0.240 N 
ATOM     22  C   UNL A   1      31.260  30.428  25.327  1.00  0.00     0.125 A 
BRANCH  20  23
ATOM     23  C   UNL A   1      32.751  29.542  27.138  1.00  0.00     0.166 C 
ATOM     24  N   UNL A   1      33.462  30.615  27.258  1.00  0.00    -0.097 NA
BRANCH  24  25
ATOM     25  O   UNL A   1      34.268  30.520  28.398  1.00  0.00    -0.411 OA
ATOM     26  H   UNL A   1      34.778  31.256  28.672  1.00  0.00     0.330 HD
ENDBRANCH  24  25
ENDBRANCH  20  23
BRANCH  21  27
ATOM     27  C   UNL A   1      29.639  30.541  23.435  1.00  0.00     0.065 A 
ATOM     28  C   UNL A   1      28.913  31.669  23.835  1.00  0.00     0.028 A 
ATOM     29  C   UNL A   1      29.539  30.059  22.125  1.00  0.00     0.028 A 
ATOM     30  C   UNL A   1      28.089  32.320  22.914  1.00  0.00     0.002 A 
ATOM     31  C   UNL A   1      28.667  30.682  21.230  1.00  0.00     0.002 A 
ATOM     32  C   UNL A   1      27.949  31.814  21.621  1.00  0.00     0.000 A 
ENDBRANCH  21  27
ENDBRANCH  15  18
ENDBRANCH   7  12
ENDBRANCH   3   6
ENDBRANCH   1   2
BRANCH   1  33
ATOM     33  C   UNL A   1      39.508  21.189  26.135  1.00  0.00     0.042 C 
BRANCH  33  34
ATOM     34  C   UNL A   1      40.182  22.391  26.758  1.00  0.00     0.118 C 
BRANCH  34  35
ATOM     35  N   UNL A   1      41.641  22.256  26.814  1.00  0.00    -0.352 N 
ATOM     36  C   UNL A   1      42.606  23.255  26.658  1.00  0.00     0.251 C 
ATOM     37  H   UNL A   1      41.984  21.349  26.981  1.00  0.00     0.163 HD
ATOM     38  O   UNL A   1      43.744  22.996  26.402  1.00  0.00    -0.269 OA
BRANCH  36  39
ATOM     39  C   UNL A   1      42.160  24.638  26.975  1.00  0.00     0.039 A 
ATOM     40  C   UNL A   1      41.297  25.441  26.237  1.00  0.00     0.014 A 
ATOM     41  C   UNL A   1      42.818  25.249  28.021  1.00  0.00     0.014 A 
ATOM     42  C   UNL A   1      41.239  26.825  26.601  1.00  0.00     0.010 A 
ATOM     43  C   UNL A   1      42.207  26.285  28.642  1.00  0.00     0.010 A 
ATOM     44  C   UNL A   1      41.918  27.300  27.777  1.00  0.00    -0.014 A 
BRANCH  44  45
ATOM     45  C   UNL A   1      41.707  28.583  28.546  1.00  0.00     0.031 A 
ATOM     46  C   UNL A   1      42.945  29.410  28.142  1.00  0.00     0.074 A 
ATOM     47  C   UNL A   1      40.584  28.975  29.305  1.00  0.00     0.049 A 
ATOM     48  N   UNL A   1      44.063  29.372  28.801  1.00  0.00    -0.248 NA
ATOM     49  C   UNL A   1      43.214  29.927  26.756  1.00  0.00     0.031 C 
ATOM     50  C   UNL A   1      39.301  28.276  29.674  1.00  0.00     0.029 A 
ATOM     51  N   UNL A   1      40.351  30.163  30.048  1.00  0.00    -0.354 N 
ATOM     52  C   UNL A   1      44.909  30.281  28.172  1.00  0.00     0.074 A 
ATOM     53  C   UNL A   1      44.499  30.309  26.811  1.00  0.00     0.031 C 
ATOM     54  C   UNL A   1      38.388  29.119  30.268  1.00  0.00     0.029 A 
ATOM     55  C   UNL A   1      38.978  30.432  30.480  1.00  0.00     0.049 A 
ATOM     56  H   UNL A   1      41.087  30.782  30.265  1.00  0.00     0.167 HD
ATOM     57  C   UNL A   1      45.475  31.256  28.941  1.00  0.00     0.037 A 
ATOM     58  C   UNL A   1      38.471  31.502  31.238  1.00  0.00     0.037 A 
ATOM     59  C   UNL A   1      45.364  30.848  30.327  1.00  0.00     0.049 A 
ATOM     60  C   UNL A   1      39.648  32.150  31.860  1.00  0.00     0.074 A 
ATOM     61  C   UNL A   1      45.823  29.771  31.061  1.00  0.00     0.029 A 
ATOM     62  N   UNL A   1      44.158  31.209  30.865  1.00  0.00    -0.354 N 
ATOM     63  N   UNL A   1      40.347  31.548  32.779  1.00  0.00    -0.248 NA
ATOM     64  C   UNL A   1      40.350  33.075  30.985  1.00  0.00     0.031 C 
ATOM     65  C   UNL A   1      44.742  29.383  31.911  1.00  0.00     0.029 A 
ATOM     66  C   UNL A   1      43.751  30.355  31.843  1.00  0.00     0.049 A 
ATOM     67  H   UNL A   1      43.645  31.999  30.578  1.00  0.00     0.167 HD
ATOM     68  C   UNL A   1      41.626  31.569  32.257  1.00  0.00     0.074 A 
ATOM     69  C   UNL A   1      41.569  32.555  31.153  1.00  0.00     0.031 C 
ATOM     70  C   UNL A   1      42.486  30.530  32.499  1.00  0.00     0.037 A 
BRANCH  57  71
ATOM     71  C   UNL A   1      45.531  32.727  28.560  1.00  0.00     0.057 A 
ATOM     72  C   UNL A   1      46.760  33.400  28.672  1.00  0.00     0.134 A 
ATOM     73  C   UNL A   1      44.415  33.572  28.360  1.00  0.00     0.134 A 
ATOM     74  F   UNL A   1      47.890  32.719  28.915  1.00  0.00    -0.206 F 
ATOM     75  C   UNL A   1      46.869  34.797  28.604  1.00  0.00     0.040 A 
ATOM     76  C   UNL A   1      44.518  34.964  28.240  1.00  0.00     0.040 A 
ATOM     77  F   UNL A   1      43.157  33.120  28.366  1.00  0.00    -0.206 F 
ATOM     78  C   UNL A   1      45.747  35.585  28.378  1.00  0.00     0.006 A 
ENDBRANCH  57  71
BRANCH  58  79
ATOM     79  C   UNL A   1      37.194  32.360  31.156  1.00  0.00     0.057 A 
ATOM     80  C   UNL A   1      36.770  33.186  30.066  1.00  0.00     0.134 A 
ATOM     81  C   UNL A   1      36.170  32.071  32.063  1.00  0.00     0.134 A 
ATOM     82  F   UNL A   1      37.605  33.503  29.063  1.00  0.00    -0.206 F 
ATOM     83  C   UNL A   1      35.438  33.677  29.926  1.00  0.00     0.040 A 
ATOM     84  C   UNL A   1      34.845  32.530  31.922  1.00  0.00     0.040 A 
ATOM     85  F   UNL A   1      36.410  31.234  33.079  1.00  0.00    -0.206 F 
ATOM     86  C   UNL A   1      34.465  33.333  30.855  1.00  0.00     0.006 A 
ENDBRANCH  58  79
BRANCH  70  87
ATOM     87  C   UNL A   1      42.119  29.512  33.546  1.00  0.00     0.057 A 
ATOM     88  C   UNL A   1      41.606  28.220  33.334  1.00  0.00     0.134 A 
ATOM     89  C   UNL A   1      42.456  29.840  34.859  1.00  0.00     0.134 A 
ATOM     90  F   UNL A   1      41.406  27.744  32.101  1.00  0.00    -0.206 F 
ATOM     91  C   UNL A   1      41.353  27.341  34.400  1.00  0.00     0.040 A 
ATOM     92  C   UNL A   1      42.250  28.963  35.921  1.00  0.00     0.040 A 
ATOM     93  F   UNL A   1      43.058  31.010  35.118  1.00  0.00    -0.206 F 
ATOM     94  C   UNL A   1      41.666  27.721  35.701  1.00  0.00     0.006 A 
ENDBRANCH  70  87
ENDBRANCH  44  45
ENDBRANCH  36  39
ENDBRANCH  34  35
ENDBRANCH  33  34
ENDBRANCH   1  33
TORSDOF 15
ENDMDL
