MODEL 1
REMARK VINA RESULT:     -12.3      0.000      0.000
REMARK SMILES C/C(=C/c1cccc(OCC(=O)NCCCNC(=O)c2ccc(-c3c4nc(c(-c5c(F)cccc5F)c5ccc([nH]5)c(-c5c(F)cccc5F)c5nc(c(-c6c(F)cccc6F)c6ccc3[nH]6)C=C5)C=C4)cc2)c1)c1nc2sccc2c(=O)[nH]1
REMARK SMILES IDX 14 1 13 2 11 3 12 4 10 6 9 7 8 8 4 9 5 10 74 11 6 12 7 13
REMARK SMILES IDX 3 14 1 15 2 16 75 17 76 18 84 19 77 20 82 21 78 23 81 24
REMARK SMILES IDX 83 25 79 26 80 27 15 28 16 29 17 30 18 31 19 33 20 34 21 35
REMARK SMILES IDX 73 36 22 37 72 38 23 39 24 40 25 41 66 42 26 43 71 44 65 45
REMARK SMILES IDX 67 46 27 47 70 48 64 49 63 50 28 52 54 53 37 54 53 55 38 56
REMARK SMILES IDX 41 57 52 58 68 59 39 60 40 61 51 63 69 64 42 65 29 66 30 67
REMARK SMILES IDX 35 68 31 69 32 70 34 71 36 72 33 73 55 74 56 75 61 76 57 77
REMARK SMILES IDX 58 78 60 79 62 80 59 81 43 82 44 83 49 84 45 85 46 86 48 87
REMARK SMILES IDX 50 88 47 89
REMARK H PARENT 13 5 84 22 17 32 67 51 41 62
REMARK Flexibility Score: inf
ROOT
ATOM      1  C   UNL A   1      37.592  21.204  24.875  1.00  0.00     0.117 C 
ENDROOT
BRANCH   1   2
ATOM      2  N   UNL A   1      38.256  22.414  25.317  1.00  0.00    -0.353 N 
ATOM      3  C   UNL A   1      37.674  23.551  25.807  1.00  0.00     0.257 C 
ATOM      4  O   UNL A   1      38.365  24.359  26.427  1.00  0.00    -0.271 OA
ATOM      5  H   UNL A   1      39.239  22.419  25.257  1.00  0.00     0.163 HD
BRANCH   3   6
ATOM      6  C   UNL A   1      36.173  23.786  25.628  1.00  0.00     0.329 C 
BRANCH   6   7
ATOM      7  O   UNL A   1      35.690  23.768  24.295  1.00  0.00    -0.484 OA
BRANCH   7   8
ATOM      8  C   UNL A   1      34.426  23.303  24.065  1.00  0.00     0.120 A 
ATOM      9  C   UNL A   1      32.158  22.624  24.624  1.00  0.00    -0.022 A 
ATOM     10  C   UNL A   1      31.907  22.363  23.273  1.00  0.00     0.008 A 
ATOM     11  C   UNL A   1      33.428  23.085  25.018  1.00  0.00     0.054 A 
ATOM     12  C   UNL A   1      32.902  22.578  22.321  1.00  0.00     0.004 A 
ATOM     13  C   UNL A   1      34.153  23.048  22.720  1.00  0.00     0.046 A 
BRANCH   9  14
ATOM     14  C   UNL A   1      31.097  22.372  25.609  1.00  0.00     0.015 C 
ATOM     15  C   UNL A   1      29.386  22.953  27.339  1.00  0.00     0.048 C 
ATOM     16  C   UNL A   1      30.378  23.299  26.271  1.00  0.00    -0.008 C 
BRANCH  16  17
ATOM     17  C   UNL A   1      30.557  24.755  26.018  1.00  0.00     0.137 A 
ATOM     18  N   UNL A   1      31.301  25.497  26.779  1.00  0.00    -0.219 NA
ATOM     19  N   UNL A   1      29.852  25.225  24.930  1.00  0.00    -0.306 N 
ATOM     20  C   UNL A   1      31.408  26.791  26.374  1.00  0.00     0.131 A 
ATOM     21  C   UNL A   1      29.912  26.529  24.493  1.00  0.00     0.259 A 
ATOM     22  H   UNL A   1      29.276  24.595  24.439  1.00  0.00     0.171 HD
ATOM     23  S   UNL A   1      32.407  27.915  27.184  1.00  0.00    -0.124 S 
ATOM     24  C   UNL A   1      30.784  27.365  25.289  1.00  0.00     0.077 A 
ATOM     25  O   UNL A   1      29.300  26.925  23.510  1.00  0.00    -0.269 OA
ATOM     26  C   UNL A   1      32.044  29.152  26.055  1.00  0.00     0.068 A 
ATOM     27  C   UNL A   1      31.134  28.735  25.109  1.00  0.00     0.028 A 
ENDBRANCH  16  17
ENDBRANCH   9  14
ENDBRANCH   7   8
ENDBRANCH   6   7
ENDBRANCH   3   6
ENDBRANCH   1   2
BRANCH   1  28
ATOM     28  C   UNL A   1      38.425  19.931  25.002  1.00  0.00     0.042 C 
BRANCH  28  29
ATOM     29  C   UNL A   1      39.451  19.888  26.132  1.00  0.00     0.118 C 
BRANCH  29  30
ATOM     30  N   UNL A   1      40.539  18.942  25.928  1.00  0.00    -0.352 N 
ATOM     31  C   UNL A   1      41.899  19.113  26.011  1.00  0.00     0.251 C 
ATOM     32  H   UNL A   1      40.252  18.031  25.692  1.00  0.00     0.163 HD
ATOM     33  O   UNL A   1      42.640  18.170  25.741  1.00  0.00    -0.269 OA
BRANCH  31  34
ATOM     34  C   UNL A   1      42.493  20.417  26.382  1.00  0.00     0.039 A 
ATOM     35  C   UNL A   1      43.112  21.171  25.378  1.00  0.00     0.014 A 
ATOM     36  C   UNL A   1      42.474  20.895  27.695  1.00  0.00     0.014 A 
ATOM     37  C   UNL A   1      43.634  22.434  25.670  1.00  0.00     0.010 A 
ATOM     38  C   UNL A   1      42.951  22.177  27.976  1.00  0.00     0.010 A 
ATOM     39  C   UNL A   1      43.520  22.966  26.963  1.00  0.00    -0.014 A 
BRANCH  39  40
ATOM     40  C   UNL A   1      43.939  24.363  27.254  1.00  0.00     0.031 A 
ATOM     41  C   UNL A   1      42.929  25.411  27.626  1.00  0.00     0.074 A 
ATOM     42  C   UNL A   1      45.236  24.703  27.121  1.00  0.00     0.049 A 
ATOM     43  N   UNL A   1      43.108  26.690  27.849  1.00  0.00    -0.248 NA
ATOM     44  C   UNL A   1      41.531  24.970  27.750  1.00  0.00     0.031 C 
ATOM     45  C   UNL A   1      46.312  23.792  26.728  1.00  0.00     0.029 A 
ATOM     46  N   UNL A   1      45.869  25.911  27.287  1.00  0.00    -0.354 N 
ATOM     47  C   UNL A   1      41.852  27.206  28.137  1.00  0.00     0.074 A 
ATOM     48  C   UNL A   1      40.911  26.111  28.016  1.00  0.00     0.031 C 
ATOM     49  C   UNL A   1      47.470  24.469  26.689  1.00  0.00     0.029 A 
ATOM     50  C   UNL A   1      47.216  25.868  27.018  1.00  0.00     0.049 A 
ATOM     51  H   UNL A   1      45.402  26.729  27.571  1.00  0.00     0.167 HD
ATOM     52  C   UNL A   1      41.514  28.470  28.487  1.00  0.00     0.037 A 
ATOM     53  C   UNL A   1      48.142  26.846  27.022  1.00  0.00     0.037 A 
ATOM     54  C   UNL A   1      42.448  29.561  28.609  1.00  0.00     0.049 A 
ATOM     55  C   UNL A   1      47.737  28.246  27.393  1.00  0.00     0.074 A 
ATOM     56  C   UNL A   1      42.200  30.869  28.991  1.00  0.00     0.029 A 
ATOM     57  N   UNL A   1      43.806  29.473  28.347  1.00  0.00    -0.354 N 
ATOM     58  N   UNL A   1      46.554  28.705  27.718  1.00  0.00    -0.248 NA
ATOM     59  C   UNL A   1      48.800  29.263  27.404  1.00  0.00     0.031 C 
ATOM     60  C   UNL A   1      43.402  31.582  28.922  1.00  0.00     0.029 A 
ATOM     61  C   UNL A   1      44.407  30.707  28.542  1.00  0.00     0.049 A 
ATOM     62  H   UNL A   1      44.275  28.655  28.065  1.00  0.00     0.167 HD
ATOM     63  C   UNL A   1      46.733  30.054  27.998  1.00  0.00     0.074 A 
ATOM     64  C   UNL A   1      48.142  30.336  27.819  1.00  0.00     0.031 C 
ATOM     65  C   UNL A   1      45.812  30.976  28.370  1.00  0.00     0.037 A 
BRANCH  52  66
ATOM     66  C   UNL A   1      40.066  28.746  28.772  1.00  0.00     0.057 A 
ATOM     67  C   UNL A   1      39.537  28.628  30.064  1.00  0.00     0.134 A 
ATOM     68  C   UNL A   1      39.203  29.182  27.759  1.00  0.00     0.134 A 
ATOM     69  F   UNL A   1      40.309  28.209  31.079  1.00  0.00    -0.206 F 
ATOM     70  C   UNL A   1      38.198  28.912  30.335  1.00  0.00     0.040 A 
ATOM     71  C   UNL A   1      37.867  29.493  28.021  1.00  0.00     0.040 A 
ATOM     72  F   UNL A   1      39.647  29.325  26.501  1.00  0.00    -0.206 F 
ATOM     73  C   UNL A   1      37.360  29.352  29.311  1.00  0.00     0.006 A 
ENDBRANCH  52  66
BRANCH  53  74
ATOM     74  C   UNL A   1      49.551  26.538  26.668  1.00  0.00     0.057 A 
ATOM     75  C   UNL A   1      49.998  26.616  25.344  1.00  0.00     0.134 A 
ATOM     76  C   UNL A   1      50.476  26.141  27.640  1.00  0.00     0.134 A 
ATOM     77  F   UNL A   1      49.152  26.972  24.365  1.00  0.00    -0.206 F 
ATOM     78  C   UNL A   1      51.310  26.289  24.996  1.00  0.00     0.040 A 
ATOM     79  C   UNL A   1      51.797  25.835  27.309  1.00  0.00     0.040 A 
ATOM     80  F   UNL A   1      50.111  26.052  28.928  1.00  0.00    -0.206 F 
ATOM     81  C   UNL A   1      52.214  25.901  25.982  1.00  0.00     0.006 A 
ENDBRANCH  53  74
BRANCH  65  82
ATOM     82  C   UNL A   1      46.302  32.367  28.642  1.00  0.00     0.057 A 
ATOM     83  C   UNL A   1      46.762  32.757  29.906  1.00  0.00     0.134 A 
ATOM     84  C   UNL A   1      46.347  33.320  27.616  1.00  0.00     0.134 A 
ATOM     85  F   UNL A   1      46.733  31.896  30.936  1.00  0.00    -0.206 F 
ATOM     86  C   UNL A   1      47.227  34.051  30.146  1.00  0.00     0.040 A 
ATOM     87  C   UNL A   1      46.834  34.609  27.837  1.00  0.00     0.040 A 
ATOM     88  F   UNL A   1      45.928  33.010  26.380  1.00  0.00    -0.206 F 
ATOM     89  C   UNL A   1      47.271  34.979  29.107  1.00  0.00     0.006 A 
ENDBRANCH  65  82
ENDBRANCH  39  40
ENDBRANCH  31  34
ENDBRANCH  29  30
ENDBRANCH  28  29
ENDBRANCH   1  28
TORSDOF 14
ENDMDL
MODEL 2
REMARK VINA RESULT:     -12.3      0.400      6.057
REMARK SMILES C/C(=C/c1cccc(OCC(=O)NCCCNC(=O)c2ccc(-c3c4nc(c(-c5c(F)cccc5F)c5ccc([nH]5)c(-c5c(F)cccc5F)c5nc(c(-c6c(F)cccc6F)c6ccc3[nH]6)C=C5)C=C4)cc2)c1)c1nc2sccc2c(=O)[nH]1
REMARK SMILES IDX 14 1 13 2 11 3 12 4 10 6 9 7 8 8 4 9 5 10 74 11 6 12 7 13
REMARK SMILES IDX 3 14 1 15 2 16 75 17 76 18 84 19 77 20 82 21 78 23 81 24
REMARK SMILES IDX 83 25 79 26 80 27 15 28 16 29 17 30 18 31 19 33 20 34 21 35
REMARK SMILES IDX 73 36 22 37 72 38 23 39 24 40 25 41 66 42 26 43 71 44 65 45
REMARK SMILES IDX 67 46 27 47 70 48 64 49 63 50 28 52 54 53 37 54 53 55 38 56
REMARK SMILES IDX 41 57 52 58 68 59 39 60 40 61 51 63 69 64 42 65 29 66 30 67
REMARK SMILES IDX 35 68 31 69 32 70 34 71 36 72 33 73 55 74 56 75 61 76 57 77
REMARK SMILES IDX 58 78 60 79 62 80 59 81 43 82 44 83 49 84 45 85 46 86 48 87
REMARK SMILES IDX 50 88 47 89
REMARK H PARENT 13 5 84 22 17 32 67 51 41 62
REMARK Flexibility Score: inf
ROOT
ATOM      1  C   UNL A   1      37.540  21.153  24.773  1.00  0.00     0.117 C 
ENDROOT
BRANCH   1   2
ATOM      2  N   UNL A   1      38.230  22.346  25.220  1.00  0.00    -0.353 N 
ATOM      3  C   UNL A   1      37.676  23.478  25.755  1.00  0.00     0.257 C 
ATOM      4  O   UNL A   1      38.395  24.264  26.371  1.00  0.00    -0.271 OA
ATOM      5  H   UNL A   1      39.211  22.343  25.129  1.00  0.00     0.163 HD
BRANCH   3   6
ATOM      6  C   UNL A   1      36.173  23.731  25.629  1.00  0.00     0.329 C 
BRANCH   6   7
ATOM      7  O   UNL A   1      35.656  23.795  24.311  1.00  0.00    -0.484 OA
BRANCH   7   8
ATOM      8  C   UNL A   1      34.399  23.310  24.078  1.00  0.00     0.120 A 
ATOM      9  C   UNL A   1      32.137  22.611  24.630  1.00  0.00    -0.022 A 
ATOM     10  C   UNL A   1      31.899  22.325  23.281  1.00  0.00     0.008 A 
ATOM     11  C   UNL A   1      33.397  23.093  25.026  1.00  0.00     0.054 A 
ATOM     12  C   UNL A   1      32.899  22.539  22.334  1.00  0.00     0.004 A 
ATOM     13  C   UNL A   1      34.140  23.031  22.735  1.00  0.00     0.046 A 
BRANCH   9  14
ATOM     14  C   UNL A   1      31.071  22.359  25.610  1.00  0.00     0.015 C 
ATOM     15  C   UNL A   1      29.354  22.942  27.334  1.00  0.00     0.048 C 
ATOM     16  C   UNL A   1      30.351  23.287  26.270  1.00  0.00    -0.008 C 
BRANCH  16  17
ATOM     17  C   UNL A   1      30.534  24.743  26.020  1.00  0.00     0.137 A 
ATOM     18  N   UNL A   1      31.257  25.488  26.798  1.00  0.00    -0.219 NA
ATOM     19  N   UNL A   1      29.855  25.210  24.913  1.00  0.00    -0.306 N 
ATOM     20  C   UNL A   1      31.372  26.781  26.393  1.00  0.00     0.131 A 
ATOM     21  C   UNL A   1      29.923  26.513  24.476  1.00  0.00     0.259 A 
ATOM     22  H   UNL A   1      29.293  24.578  24.410  1.00  0.00     0.171 HD
ATOM     23  S   UNL A   1      32.349  27.908  27.226  1.00  0.00    -0.124 S 
ATOM     24  C   UNL A   1      30.774  27.352  25.291  1.00  0.00     0.077 A 
ATOM     25  O   UNL A   1      29.336  26.907  23.477  1.00  0.00    -0.269 OA
ATOM     26  C   UNL A   1      32.012  29.143  26.086  1.00  0.00     0.068 A 
ATOM     27  C   UNL A   1      31.126  28.722  25.118  1.00  0.00     0.028 A 
ENDBRANCH  16  17
ENDBRANCH   9  14
ENDBRANCH   7   8
ENDBRANCH   6   7
ENDBRANCH   3   6
ENDBRANCH   1   2
BRANCH   1  28
ATOM     28  C   UNL A   1      38.312  19.851  24.970  1.00  0.00     0.042 C 
BRANCH  28  29
ATOM     29  C   UNL A   1      39.306  19.808  26.129  1.00  0.00     0.118 C 
BRANCH  29  30
ATOM     30  N   UNL A   1      40.424  18.897  25.935  1.00  0.00    -0.352 N 
ATOM     31  C   UNL A   1      41.778  19.113  26.019  1.00  0.00     0.251 C 
ATOM     32  H   UNL A   1      40.168  17.975  25.707  1.00  0.00     0.163 HD
ATOM     33  O   UNL A   1      42.549  18.192  25.758  1.00  0.00    -0.269 OA
BRANCH  31  34
ATOM     34  C   UNL A   1      42.328  20.439  26.379  1.00  0.00     0.039 A 
ATOM     35  C   UNL A   1      42.896  21.217  25.363  1.00  0.00     0.014 A 
ATOM     36  C   UNL A   1      42.317  20.915  27.693  1.00  0.00     0.014 A 
ATOM     37  C   UNL A   1      43.376  22.499  25.645  1.00  0.00     0.010 A 
ATOM     38  C   UNL A   1      42.750  22.215  27.965  1.00  0.00     0.010 A 
ATOM     39  C   UNL A   1      43.267  23.026  26.942  1.00  0.00    -0.014 A 
BRANCH  39  40
ATOM     40  C   UNL A   1      43.637  24.438  27.225  1.00  0.00     0.031 A 
ATOM     41  C   UNL A   1      45.068  24.890  27.155  1.00  0.00     0.074 A 
ATOM     42  C   UNL A   1      42.680  25.307  27.607  1.00  0.00     0.049 A 
ATOM     43  N   UNL A   1      45.578  26.065  27.433  1.00  0.00    -0.248 NA
ATOM     44  C   UNL A   1      46.059  23.889  26.733  1.00  0.00     0.031 C 
ATOM     45  C   UNL A   1      41.259  24.987  27.754  1.00  0.00     0.029 A 
ATOM     46  N   UNL A   1      42.760  26.632  27.960  1.00  0.00    -0.354 N 
ATOM     47  C   UNL A   1      46.945  25.945  27.222  1.00  0.00     0.074 A 
ATOM     48  C   UNL A   1      47.191  24.571  26.837  1.00  0.00     0.031 C 
ATOM     49  C   UNL A   1      40.600  26.085  28.157  1.00  0.00     0.029 A 
ATOM     50  C   UNL A   1      41.554  27.175  28.334  1.00  0.00     0.049 A 
ATOM     51  H   UNL A   1      43.600  27.143  27.946  1.00  0.00     0.167 HD
ATOM     52  C   UNL A   1      47.905  26.896  27.322  1.00  0.00     0.037 A 
ATOM     53  C   UNL A   1      41.250  28.408  28.784  1.00  0.00     0.037 A 
ATOM     54  C   UNL A   1      47.663  28.264  27.704  1.00  0.00     0.049 A 
ATOM     55  C   UNL A   1      42.338  29.439  28.907  1.00  0.00     0.074 A 
ATOM     56  C   UNL A   1      48.570  29.306  27.800  1.00  0.00     0.029 A 
ATOM     57  N   UNL A   1      46.425  28.780  28.057  1.00  0.00    -0.354 N 
ATOM     58  N   UNL A   1      43.617  29.325  28.648  1.00  0.00    -0.248 NA
ATOM     59  C   UNL A   1      41.937  30.773  29.378  1.00  0.00     0.031 C 
ATOM     60  C   UNL A   1      47.889  30.443  28.249  1.00  0.00     0.029 A 
ATOM     61  C   UNL A   1      46.549  30.120  28.388  1.00  0.00     0.049 A 
ATOM     62  H   UNL A   1      45.584  28.270  28.070  1.00  0.00     0.167 HD
ATOM     63  C   UNL A   1      44.168  30.575  28.898  1.00  0.00     0.074 A 
ATOM     64  C   UNL A   1      43.082  31.437  29.315  1.00  0.00     0.031 C 
ATOM     65  C   UNL A   1      45.460  30.973  28.792  1.00  0.00     0.037 A 
BRANCH  52  66
ATOM     66  C   UNL A   1      49.316  26.491  27.006  1.00  0.00     0.057 A 
ATOM     67  C   UNL A   1      50.174  25.991  27.995  1.00  0.00     0.134 A 
ATOM     68  C   UNL A   1      49.807  26.553  25.697  1.00  0.00     0.134 A 
ATOM     69  F   UNL A   1      49.768  25.912  29.271  1.00  0.00    -0.206 F 
ATOM     70  C   UNL A   1      51.476  25.588  27.697  1.00  0.00     0.040 A 
ATOM     71  C   UNL A   1      51.100  26.130  25.380  1.00  0.00     0.040 A 
ATOM     72  F   UNL A   1      49.035  27.013  24.700  1.00  0.00    -0.206 F 
ATOM     73  C   UNL A   1      51.941  25.651  26.383  1.00  0.00     0.006 A 
ENDBRANCH  52  66
BRANCH  53  74
ATOM     74  C   UNL A   1      39.850  28.742  29.147  1.00  0.00     0.057 A 
ATOM     75  C   UNL A   1      39.391  28.609  30.463  1.00  0.00     0.134 A 
ATOM     76  C   UNL A   1      38.933  29.186  28.186  1.00  0.00     0.134 A 
ATOM     77  F   UNL A   1      40.218  28.169  31.424  1.00  0.00    -0.206 F 
ATOM     78  C   UNL A   1      38.066  28.881  30.806  1.00  0.00     0.040 A 
ATOM     79  C   UNL A   1      37.613  29.487  28.521  1.00  0.00     0.040 A 
ATOM     80  F   UNL A   1      39.312  29.341  26.909  1.00  0.00    -0.206 F 
ATOM     81  C   UNL A   1      37.174  29.326  29.833  1.00  0.00     0.006 A 
ENDBRANCH  53  74
BRANCH  65  82
ATOM     82  C   UNL A   1      45.764  32.409  29.098  1.00  0.00     0.057 A 
ATOM     83  C   UNL A   1      46.143  32.831  30.378  1.00  0.00     0.134 A 
ATOM     84  C   UNL A   1      45.709  33.379  28.088  1.00  0.00     0.134 A 
ATOM     85  F   UNL A   1      46.201  31.955  31.393  1.00  0.00    -0.206 F 
ATOM     86  C   UNL A   1      46.435  34.169  30.649  1.00  0.00     0.040 A 
ATOM     87  C   UNL A   1      46.024  34.715  28.341  1.00  0.00     0.040 A 
ATOM     88  F   UNL A   1      45.361  33.042  26.838  1.00  0.00    -0.206 F 
ATOM     89  C   UNL A   1      46.383  35.114  29.626  1.00  0.00     0.006 A 
ENDBRANCH  65  82
ENDBRANCH  39  40
ENDBRANCH  31  34
ENDBRANCH  29  30
ENDBRANCH  28  29
ENDBRANCH   1  28
TORSDOF 14
ENDMDL
MODEL 3
REMARK VINA RESULT:     -12.1      2.825      7.262
REMARK SMILES C/C(=C/c1cccc(OCC(=O)NCCCNC(=O)c2ccc(-c3c4nc(c(-c5c(F)cccc5F)c5ccc([nH]5)c(-c5c(F)cccc5F)c5nc(c(-c6c(F)cccc6F)c6ccc3[nH]6)C=C5)C=C4)cc2)c1)c1nc2sccc2c(=O)[nH]1
REMARK SMILES IDX 14 1 13 2 11 3 12 4 10 6 9 7 8 8 4 9 5 10 74 11 6 12 7 13
REMARK SMILES IDX 3 14 1 15 2 16 75 17 76 18 84 19 77 20 82 21 78 23 81 24
REMARK SMILES IDX 83 25 79 26 80 27 15 28 16 29 17 30 18 31 19 33 20 34 21 35
REMARK SMILES IDX 73 36 22 37 72 38 23 39 24 40 25 41 66 42 26 43 71 44 65 45
REMARK SMILES IDX 67 46 27 47 70 48 64 49 63 50 28 52 54 53 37 54 53 55 38 56
REMARK SMILES IDX 41 57 52 58 68 59 39 60 40 61 51 63 69 64 42 65 29 66 30 67
REMARK SMILES IDX 35 68 31 69 32 70 34 71 36 72 33 73 55 74 56 75 61 76 57 77
REMARK SMILES IDX 58 78 60 79 62 80 59 81 43 82 44 83 49 84 45 85 46 86 48 87
REMARK SMILES IDX 50 88 47 89
REMARK H PARENT 13 5 84 22 17 32 67 51 41 62
REMARK Flexibility Score: inf
ROOT
ATOM      1  C   UNL A   1      32.904  27.397  25.058  1.00  0.00     0.117 C 
ENDROOT
BRANCH   1   2
ATOM      2  N   UNL A   1      33.530  26.710  23.946  1.00  0.00    -0.353 N 
ATOM      3  C   UNL A   1      34.191  25.512  23.974  1.00  0.00     0.257 C 
ATOM      4  O   UNL A   1      34.388  24.912  22.917  1.00  0.00    -0.271 OA
ATOM      5  H   UNL A   1      33.474  27.157  23.071  1.00  0.00     0.163 HD
BRANCH   3   6
ATOM      6  C   UNL A   1      34.630  24.906  25.307  1.00  0.00     0.329 C 
BRANCH   6   7
ATOM      7  O   UNL A   1      35.977  24.472  25.384  1.00  0.00    -0.484 OA
BRANCH   7   8
ATOM      8  C   UNL A   1      36.239  23.134  25.283  1.00  0.00     0.120 A 
ATOM      9  C   UNL A   1      35.734  20.776  24.967  1.00  0.00    -0.022 A 
ATOM     10  C   UNL A   1      37.095  20.472  25.088  1.00  0.00     0.008 A 
ATOM     11  C   UNL A   1      35.309  22.112  25.077  1.00  0.00     0.054 A 
ATOM     12  C   UNL A   1      38.024  21.490  25.295  1.00  0.00     0.004 A 
ATOM     13  C   UNL A   1      37.594  22.812  25.389  1.00  0.00     0.046 A 
BRANCH   9  14
ATOM     14  C   UNL A   1      34.774  19.682  24.768  1.00  0.00     0.015 C 
ATOM     15  C   UNL A   1      32.528  18.582  24.711  1.00  0.00     0.048 C 
ATOM     16  C   UNL A   1      33.431  19.771  24.822  1.00  0.00    -0.008 C 
BRANCH  16  17
ATOM     17  C   UNL A   1      32.742  21.072  25.048  1.00  0.00     0.137 A 
ATOM     18  N   UNL A   1      32.279  21.784  24.067  1.00  0.00    -0.219 NA
ATOM     19  N   UNL A   1      32.669  21.442  26.375  1.00  0.00    -0.306 N 
ATOM     20  C   UNL A   1      31.624  22.912  24.450  1.00  0.00     0.131 A 
ATOM     21  C   UNL A   1      32.035  22.584  26.811  1.00  0.00     0.259 A 
ATOM     22  H   UNL A   1      33.091  20.859  27.047  1.00  0.00     0.171 HD
ATOM     23  S   UNL A   1      30.862  23.945  23.323  1.00  0.00    -0.124 S 
ATOM     24  C   UNL A   1      31.455  23.365  25.740  1.00  0.00     0.077 A 
ATOM     25  O   UNL A   1      31.957  22.886  27.994  1.00  0.00    -0.269 OA
ATOM     26  C   UNL A   1      30.266  24.968  24.562  1.00  0.00     0.068 A 
ATOM     27  C   UNL A   1      30.685  24.563  25.810  1.00  0.00     0.028 A 
ENDBRANCH  16  17
ENDBRANCH   9  14
ENDBRANCH   7   8
ENDBRANCH   6   7
ENDBRANCH   3   6
ENDBRANCH   1   2
BRANCH   1  28
ATOM     28  C   UNL A   1      33.772  28.456  25.732  1.00  0.00     0.042 C 
BRANCH  28  29
ATOM     29  C   UNL A   1      33.610  28.622  27.242  1.00  0.00     0.118 C 
BRANCH  29  30
ATOM     30  N   UNL A   1      33.666  29.999  27.710  1.00  0.00    -0.352 N 
ATOM     31  C   UNL A   1      34.702  30.717  28.255  1.00  0.00     0.251 C 
ATOM     32  H   UNL A   1      32.823  30.498  27.621  1.00  0.00     0.163 HD
ATOM     33  O   UNL A   1      34.501  31.869  28.632  1.00  0.00    -0.269 OA
BRANCH  31  34
ATOM     34  C   UNL A   1      36.046  30.120  28.432  1.00  0.00     0.039 A 
ATOM     35  C   UNL A   1      36.946  30.190  27.362  1.00  0.00     0.014 A 
ATOM     36  C   UNL A   1      36.422  29.476  29.614  1.00  0.00     0.014 A 
ATOM     37  C   UNL A   1      38.244  29.692  27.503  1.00  0.00     0.010 A 
ATOM     38  C   UNL A   1      37.734  29.024  29.772  1.00  0.00     0.010 A 
ATOM     39  C   UNL A   1      38.663  29.143  28.726  1.00  0.00    -0.014 A 
BRANCH  39  40
ATOM     40  C   UNL A   1      40.080  28.744  28.937  1.00  0.00     0.031 A 
ATOM     41  C   UNL A   1      41.081  29.716  29.494  1.00  0.00     0.074 A 
ATOM     42  C   UNL A   1      40.479  27.511  28.568  1.00  0.00     0.049 A 
ATOM     43  N   UNL A   1      42.368  29.559  29.683  1.00  0.00    -0.248 NA
ATOM     44  C   UNL A   1      40.575  31.043  29.874  1.00  0.00     0.031 C 
ATOM     45  C   UNL A   1      39.617  26.485  27.978  1.00  0.00     0.029 A 
ATOM     46  N   UNL A   1      41.716  26.916  28.617  1.00  0.00    -0.354 N 
ATOM     47  C   UNL A   1      42.826  30.762  30.201  1.00  0.00     0.074 A 
ATOM     48  C   UNL A   1      41.688  31.656  30.254  1.00  0.00     0.031 C 
ATOM     49  C   UNL A   1      40.348  25.387  27.727  1.00  0.00     0.029 A 
ATOM     50  C   UNL A   1      41.735  25.642  28.102  1.00  0.00     0.049 A 
ATOM     51  H   UNL A   1      42.513  27.361  28.984  1.00  0.00     0.167 HD
ATOM     52  C   UNL A   1      44.075  31.088  30.612  1.00  0.00     0.037 A 
ATOM     53  C   UNL A   1      42.756  24.778  27.937  1.00  0.00     0.037 A 
ATOM     54  C   UNL A   1      45.209  30.201  30.562  1.00  0.00     0.049 A 
ATOM     55  C   UNL A   1      44.137  25.173  28.381  1.00  0.00     0.074 A 
ATOM     56  C   UNL A   1      46.506  30.434  30.987  1.00  0.00     0.029 A 
ATOM     57  N   UNL A   1      45.183  28.912  30.052  1.00  0.00    -0.354 N 
ATOM     58  N   UNL A   1      44.542  26.295  28.922  1.00  0.00    -0.248 NA
ATOM     59  C   UNL A   1      45.202  24.176  28.198  1.00  0.00     0.031 C 
ATOM     60  C   UNL A   1      47.275  29.301  30.699  1.00  0.00     0.029 A 
ATOM     61  C   UNL A   1      46.445  28.344  30.136  1.00  0.00     0.049 A 
ATOM     62  H   UNL A   1      44.387  28.465  29.685  1.00  0.00     0.167 HD
ATOM     63  C   UNL A   1      45.899  26.131  29.168  1.00  0.00     0.074 A 
ATOM     64  C   UNL A   1      46.246  24.795  28.731  1.00  0.00     0.031 C 
ATOM     65  C   UNL A   1      46.779  27.010  29.707  1.00  0.00     0.037 A 
BRANCH  52  66
ATOM     66  C   UNL A   1      44.285  32.470  31.162  1.00  0.00     0.057 A 
ATOM     67  C   UNL A   1      44.167  32.739  32.532  1.00  0.00     0.134 A 
ATOM     68  C   UNL A   1      44.656  33.529  30.325  1.00  0.00     0.134 A 
ATOM     69  F   UNL A   1      43.808  31.770  33.387  1.00  0.00    -0.206 F 
ATOM     70  C   UNL A   1      44.390  34.018  33.046  1.00  0.00     0.040 A 
ATOM     71  C   UNL A   1      44.905  34.806  30.830  1.00  0.00     0.040 A 
ATOM     72  F   UNL A   1      44.795  33.338  29.003  1.00  0.00    -0.206 F 
ATOM     73  C   UNL A   1      44.767  35.055  32.194  1.00  0.00     0.006 A 
ENDBRANCH  52  66
BRANCH  53  74
ATOM     74  C   UNL A   1      42.511  23.447  27.327  1.00  0.00     0.057 A 
ATOM     75  C   UNL A   1      42.137  22.349  28.110  1.00  0.00     0.134 A 
ATOM     76  C   UNL A   1      42.662  23.237  25.951  1.00  0.00     0.134 A 
ATOM     77  F   UNL A   1      41.997  22.483  29.438  1.00  0.00    -0.206 F 
ATOM     78  C   UNL A   1      41.945  21.084  27.551  1.00  0.00     0.040 A 
ATOM     79  C   UNL A   1      42.448  21.985  25.376  1.00  0.00     0.040 A 
ATOM     80  F   UNL A   1      43.012  24.251  25.145  1.00  0.00    -0.206 F 
ATOM     81  C   UNL A   1      42.096  20.902  26.178  1.00  0.00     0.006 A 
ENDBRANCH  53  74
BRANCH  65  82
ATOM     82  C   UNL A   1      48.193  26.544  29.888  1.00  0.00     0.057 A 
ATOM     83  C   UNL A   1      49.177  26.768  28.917  1.00  0.00     0.134 A 
ATOM     84  C   UNL A   1      48.582  25.890  31.065  1.00  0.00     0.134 A 
ATOM     85  F   UNL A   1      48.867  27.375  27.762  1.00  0.00    -0.206 F 
ATOM     86  C   UNL A   1      50.493  26.339  29.100  1.00  0.00     0.040 A 
ATOM     87  C   UNL A   1      49.901  25.480  31.270  1.00  0.00     0.040 A 
ATOM     88  F   UNL A   1      47.692  25.650  32.038  1.00  0.00    -0.206 F 
ATOM     89  C   UNL A   1      50.859  25.700  30.283  1.00  0.00     0.006 A 
ENDBRANCH  65  82
ENDBRANCH  39  40
ENDBRANCH  31  34
ENDBRANCH  29  30
ENDBRANCH  28  29
ENDBRANCH   1  28
TORSDOF 14
ENDMDL
