MODEL 1
REMARK VINA RESULT:     -11.0      0.000      0.000
REMARK SMILES CC[NH+](CC)[C@](C)(C(=O)NCCCNC(=O)c1ccc(-c2c3nc(c(-c4c(F)cccc4F)c4ccc([nH]4)c(-c4c(F)cccc4F)c4nc(c(-c5c(F)cccc5F)c5ccc2[nH]5)C=C4)C=C3)cc1)c1cc(F)c(C)cc1F
REMARK SMILES IDX 12 1 11 2 10 3 8 4 9 5 6 7 7 8 3 9 2 11 1 12 4 13 5 14 71 15
REMARK SMILES IDX 72 16 78 17 73 18 77 19 79 20 74 21 75 22 76 23 13 24 14 25
REMARK SMILES IDX 15 26 16 28 17 29 18 30 70 31 19 32 69 33 20 34 21 35 22 36
REMARK SMILES IDX 63 37 23 38 68 39 62 40 64 41 24 42 67 43 61 44 60 45 25 47
REMARK SMILES IDX 51 48 34 49 50 50 35 51 38 52 49 53 65 54 36 55 37 56 48 58
REMARK SMILES IDX 66 59 39 60 26 61 27 62 32 63 28 64 29 65 31 66 33 67 30 68
REMARK SMILES IDX 52 69 53 70 58 71 54 72 55 73 57 74 59 75 56 76 40 77 41 78
REMARK SMILES IDX 46 79 42 80 43 81 45 82 47 83 44 84
REMARK H PARENT 10 6 3 10 14 27 64 46 38 57
REMARK Flexibility Score: inf
ROOT
ATOM      1  C   UNL A   1      37.037  20.600  25.018  1.00  0.00     0.042 C 
ENDROOT
BRANCH   1   2
ATOM      2  C   UNL A   1      36.167  21.798  24.699  1.00  0.00     0.118 C 
BRANCH   2   3
ATOM      3  N   UNL A   1      35.690  22.495  25.876  1.00  0.00    -0.350 N 
ATOM      4  C   UNL A   1      34.515  23.156  26.114  1.00  0.00     0.286 C 
ATOM      5  O   UNL A   1      34.222  23.263  27.314  1.00  0.00    -0.267 OA
ATOM      6  H   UNL A   1      36.318  22.493  26.635  1.00  0.00     0.163 HD
BRANCH   4   7
ATOM      7  C   UNL A   1      33.596  23.738  24.962  1.00  0.00     0.202 C 
ATOM      8  C   UNL A   1      34.447  24.010  23.683  1.00  0.00     0.096 C 
BRANCH   7   9
ATOM      9  N   UNL A   1      32.360  22.876  24.699  1.00  0.00    -0.319 N 
ATOM     10  H   UNL A   1      31.719  23.263  25.390  1.00  0.00     0.349 HD
BRANCH   9  11
ATOM     11  C   UNL A   1      32.393  21.445  25.046  1.00  0.00     0.259 C 
ATOM     12  C   UNL A   1      32.684  20.443  23.930  1.00  0.00     0.071 C 
ENDBRANCH   9  11
BRANCH   9  13
ATOM     13  C   UNL A   1      31.853  23.045  23.312  1.00  0.00     0.259 C 
ATOM     14  C   UNL A   1      30.595  23.907  23.205  1.00  0.00     0.071 C 
ENDBRANCH   9  13
ENDBRANCH   7   9
BRANCH   7  15
ATOM     15  C   UNL A   1      33.165  25.180  25.429  1.00  0.00     0.060 A 
ATOM     16  C   UNL A   1      33.915  26.337  25.151  1.00  0.00     0.053 A 
ATOM     17  C   UNL A   1      32.022  25.347  26.239  1.00  0.00     0.133 A 
ATOM     18  C   UNL A   1      33.595  27.557  25.748  1.00  0.00     0.126 A 
ATOM     19  C   UNL A   1      31.687  26.575  26.813  1.00  0.00     0.046 A 
ATOM     20  F   UNL A   1      31.243  24.294  26.530  1.00  0.00    -0.206 F 
ATOM     21  F   UNL A   1      34.399  28.608  25.533  1.00  0.00    -0.207 F 
ATOM     22  C   UNL A   1      32.493  27.692  26.595  1.00  0.00    -0.012 A 
ATOM     23  C   UNL A   1      32.242  28.979  27.317  1.00  0.00     0.047 C 
ENDBRANCH   7  15
ENDBRANCH   4   7
ENDBRANCH   2   3
ENDBRANCH   1   2
BRANCH   1  24
ATOM     24  C   UNL A   1      38.416  20.984  25.534  1.00  0.00     0.118 C 
BRANCH  24  25
ATOM     25  N   UNL A   1      39.351  19.861  25.568  1.00  0.00    -0.352 N 
ATOM     26  C   UNL A   1      40.680  19.802  25.924  1.00  0.00     0.251 C 
ATOM     27  H   UNL A   1      38.965  19.001  25.290  1.00  0.00     0.163 HD
ATOM     28  O   UNL A   1      41.328  18.789  25.708  1.00  0.00    -0.269 OA
BRANCH  26  29
ATOM     29  C   UNL A   1      41.333  20.981  26.532  1.00  0.00     0.039 A 
ATOM     30  C   UNL A   1      41.894  21.957  25.703  1.00  0.00     0.014 A 
ATOM     31  C   UNL A   1      41.367  21.138  27.916  1.00  0.00     0.014 A 
ATOM     32  C   UNL A   1      42.383  23.140  26.264  1.00  0.00     0.010 A 
ATOM     33  C   UNL A   1      41.736  22.360  28.460  1.00  0.00     0.010 A 
ATOM     34  C   UNL A   1      42.247  23.378  27.641  1.00  0.00    -0.014 A 
BRANCH  34  35
ATOM     35  C   UNL A   1      42.616  24.678  28.259  1.00  0.00     0.031 A 
ATOM     36  C   UNL A   1      41.564  25.733  28.473  1.00  0.00     0.074 A 
ATOM     37  C   UNL A   1      43.911  24.951  28.516  1.00  0.00     0.049 A 
ATOM     38  N   UNL A   1      41.707  26.981  28.840  1.00  0.00    -0.248 NA
ATOM     39  C   UNL A   1      40.171  25.348  28.190  1.00  0.00     0.031 C 
ATOM     40  C   UNL A   1      45.038  24.046  28.282  1.00  0.00     0.029 A 
ATOM     41  N   UNL A   1      44.502  26.087  29.013  1.00  0.00    -0.354 N 
ATOM     42  C   UNL A   1      40.435  27.536  28.788  1.00  0.00     0.074 A 
ATOM     43  C   UNL A   1      39.540  26.506  28.309  1.00  0.00     0.031 C 
ATOM     44  C   UNL A   1      46.178  24.649  28.658  1.00  0.00     0.029 A 
ATOM     45  C   UNL A   1      45.870  25.998  29.117  1.00  0.00     0.049 A 
ATOM     46  H   UNL A   1      43.993  26.890  29.271  1.00  0.00     0.167 HD
ATOM     47  C   UNL A   1      40.042  28.785  29.131  1.00  0.00     0.037 A 
ATOM     48  C   UNL A   1      46.774  26.907  29.526  1.00  0.00     0.037 A 
ATOM     49  C   UNL A   1      40.921  29.784  29.678  1.00  0.00     0.049 A 
ATOM     50  C   UNL A   1      46.303  28.266  29.962  1.00  0.00     0.074 A 
ATOM     51  C   UNL A   1      40.602  31.044  30.151  1.00  0.00     0.029 A 
ATOM     52  N   UNL A   1      42.289  29.629  29.834  1.00  0.00    -0.354 N 
ATOM     53  N   UNL A   1      45.085  28.752  29.977  1.00  0.00    -0.248 NA
ATOM     54  C   UNL A   1      47.330  29.202  30.443  1.00  0.00     0.031 C 
ATOM     55  C   UNL A   1      41.784  31.663  30.571  1.00  0.00     0.029 A 
ATOM     56  C   UNL A   1      42.831  30.775  30.389  1.00  0.00     0.049 A 
ATOM     57  H   UNL A   1      42.799  28.823  29.587  1.00  0.00     0.167 HD
ATOM     58  C   UNL A   1      45.196  30.037  30.492  1.00  0.00     0.074 A 
ATOM     59  C   UNL A   1      46.596  30.250  30.791  1.00  0.00     0.031 C 
ATOM     60  C   UNL A   1      44.225  30.959  30.694  1.00  0.00     0.037 A 
BRANCH  47  61
ATOM     61  C   UNL A   1      38.596  29.136  28.951  1.00  0.00     0.057 A 
ATOM     62  C   UNL A   1      37.686  29.088  30.015  1.00  0.00     0.134 A 
ATOM     63  C   UNL A   1      38.117  29.574  27.710  1.00  0.00     0.134 A 
ATOM     64  F   UNL A   1      38.079  28.663  31.226  1.00  0.00    -0.206 F 
ATOM     65  C   UNL A   1      36.347  29.442  29.847  1.00  0.00     0.040 A 
ATOM     66  C   UNL A   1      36.786  29.956  27.536  1.00  0.00     0.040 A 
ATOM     67  F   UNL A   1      38.937  29.650  26.650  1.00  0.00    -0.206 F 
ATOM     68  C   UNL A   1      35.896  29.886  28.605  1.00  0.00     0.006 A 
ENDBRANCH  47  61
BRANCH  48  69
ATOM     69  C   UNL A   1      48.218  26.562  29.564  1.00  0.00     0.057 A 
ATOM     70  C   UNL A   1      49.058  26.863  28.485  1.00  0.00     0.134 A 
ATOM     71  C   UNL A   1      48.787  25.907  30.661  1.00  0.00     0.134 A 
ATOM     72  F   UNL A   1      48.567  27.475  27.397  1.00  0.00    -0.206 F 
ATOM     73  C   UNL A   1      50.406  26.500  28.484  1.00  0.00     0.040 A 
ATOM     74  C   UNL A   1      50.139  25.559  30.683  1.00  0.00     0.040 A 
ATOM     75  F   UNL A   1      48.038  25.600  31.730  1.00  0.00    -0.206 F 
ATOM     76  C   UNL A   1      50.951  25.848  29.588  1.00  0.00     0.006 A 
ENDBRANCH  48  69
BRANCH  60  77
ATOM     77  C   UNL A   1      44.638  32.266  31.301  1.00  0.00     0.057 A 
ATOM     78  C   UNL A   1      44.682  32.453  32.687  1.00  0.00     0.134 A 
ATOM     79  C   UNL A   1      45.039  33.333  30.487  1.00  0.00     0.134 A 
ATOM     80  F   UNL A   1      44.297  31.473  33.518  1.00  0.00    -0.206 F 
ATOM     81  C   UNL A   1      45.096  33.663  33.244  1.00  0.00     0.040 A 
ATOM     82  C   UNL A   1      45.477  34.540  31.032  1.00  0.00     0.040 A 
ATOM     83  F   UNL A   1      45.028  33.212  29.150  1.00  0.00    -0.206 F 
ATOM     84  C   UNL A   1      45.502  34.709  32.416  1.00  0.00     0.006 A 
ENDBRANCH  60  77
ENDBRANCH  34  35
ENDBRANCH  26  29
ENDBRANCH  24  25
ENDBRANCH   1  24
TORSDOF 14
ENDMDL
MODEL 2
REMARK VINA RESULT:     -10.9      0.699      6.284
REMARK SMILES CC[NH+](CC)[C@](C)(C(=O)NCCCNC(=O)c1ccc(-c2c3nc(c(-c4c(F)cccc4F)c4ccc([nH]4)c(-c4c(F)cccc4F)c4nc(c(-c5c(F)cccc5F)c5ccc2[nH]5)C=C4)C=C3)cc1)c1cc(F)c(C)cc1F
REMARK SMILES IDX 12 1 11 2 10 3 8 4 9 5 6 7 7 8 3 9 2 11 1 12 4 13 5 14 71 15
REMARK SMILES IDX 72 16 78 17 73 18 77 19 79 20 74 21 75 22 76 23 13 24 14 25
REMARK SMILES IDX 15 26 16 28 17 29 18 30 70 31 19 32 69 33 20 34 21 35 22 36
REMARK SMILES IDX 63 37 23 38 68 39 62 40 64 41 24 42 67 43 61 44 60 45 25 47
REMARK SMILES IDX 51 48 34 49 50 50 35 51 38 52 49 53 65 54 36 55 37 56 48 58
REMARK SMILES IDX 66 59 39 60 26 61 27 62 32 63 28 64 29 65 31 66 33 67 30 68
REMARK SMILES IDX 52 69 53 70 58 71 54 72 55 73 57 74 59 75 56 76 40 77 41 78
REMARK SMILES IDX 46 79 42 80 43 81 45 82 47 83 44 84
REMARK H PARENT 10 6 3 10 14 27 64 46 38 57
REMARK Flexibility Score: inf
ROOT
ATOM      1  C   UNL A   1      37.757  20.022  25.006  1.00  0.00     0.042 C 
ENDROOT
BRANCH   1   2
ATOM      2  C   UNL A   1      36.861  21.181  24.623  1.00  0.00     0.118 C 
BRANCH   2   3
ATOM      3  N   UNL A   1      36.321  21.895  25.761  1.00  0.00    -0.350 N 
ATOM      4  C   UNL A   1      35.129  22.548  25.929  1.00  0.00     0.286 C 
ATOM      5  O   UNL A   1      34.777  22.673  27.111  1.00  0.00    -0.267 OA
ATOM      6  H   UNL A   1      36.910  21.913  26.550  1.00  0.00     0.163 HD
BRANCH   4   7
ATOM      7  C   UNL A   1      34.262  23.099  24.723  1.00  0.00     0.202 C 
ATOM      8  C   UNL A   1      35.195  23.619  23.586  1.00  0.00     0.096 C 
BRANCH   7   9
ATOM      9  N   UNL A   1      33.215  22.094  24.239  1.00  0.00    -0.319 N 
ATOM     10  H   UNL A   1      32.467  22.275  24.908  1.00  0.00     0.349 HD
BRANCH   9  11
ATOM     11  C   UNL A   1      33.467  20.652  24.410  1.00  0.00     0.259 C 
ATOM     12  C   UNL A   1      32.677  19.908  25.485  1.00  0.00     0.071 C 
ENDBRANCH   9  11
BRANCH   9  13
ATOM     13  C   UNL A   1      32.792  22.366  22.841  1.00  0.00     0.259 C 
ATOM     14  C   UNL A   1      32.011  21.225  22.188  1.00  0.00     0.071 C 
ENDBRANCH   9  13
ENDBRANCH   7   9
BRANCH   7  15
ATOM     15  C   UNL A   1      33.558  24.407  25.248  1.00  0.00     0.060 A 
ATOM     16  C   UNL A   1      34.155  25.679  25.192  1.00  0.00     0.053 A 
ATOM     17  C   UNL A   1      32.304  24.325  25.889  1.00  0.00     0.133 A 
ATOM     18  C   UNL A   1      33.576  26.770  25.842  1.00  0.00     0.126 A 
ATOM     19  C   UNL A   1      31.713  25.424  26.515  1.00  0.00     0.046 A 
ATOM     20  F   UNL A   1      31.661  23.150  25.963  1.00  0.00    -0.206 F 
ATOM     21  F   UNL A   1      34.233  27.939  25.846  1.00  0.00    -0.207 F 
ATOM     22  C   UNL A   1      32.362  26.659  26.522  1.00  0.00    -0.012 A 
ATOM     23  C   UNL A   1      31.823  27.811  27.312  1.00  0.00     0.047 C 
ENDBRANCH   7  15
ENDBRANCH   4   7
ENDBRANCH   2   3
ENDBRANCH   1   2
BRANCH   1  24
ATOM     24  C   UNL A   1      38.958  20.446  25.839  1.00  0.00     0.118 C 
BRANCH  24  25
ATOM     25  N   UNL A   1      40.022  19.444  25.866  1.00  0.00    -0.352 N 
ATOM     26  C   UNL A   1      41.369  19.564  26.124  1.00  0.00     0.251 C 
ATOM     27  H   UNL A   1      39.725  18.528  25.666  1.00  0.00     0.163 HD
ATOM     28  O   UNL A   1      42.118  18.621  25.918  1.00  0.00    -0.269 OA
BRANCH  26  29
ATOM     29  C   UNL A   1      41.915  20.847  26.615  1.00  0.00     0.039 A 
ATOM     30  C   UNL A   1      42.401  21.781  25.696  1.00  0.00     0.014 A 
ATOM     31  C   UNL A   1      41.920  21.141  27.977  1.00  0.00     0.014 A 
ATOM     32  C   UNL A   1      42.783  23.050  26.139  1.00  0.00     0.010 A 
ATOM     33  C   UNL A   1      42.180  22.438  28.398  1.00  0.00     0.010 A 
ATOM     34  C   UNL A   1      42.612  23.409  27.484  1.00  0.00    -0.014 A 
BRANCH  34  35
ATOM     35  C   UNL A   1      42.865  24.790  27.972  1.00  0.00     0.031 A 
ATOM     36  C   UNL A   1      44.248  25.188  28.415  1.00  0.00     0.074 A 
ATOM     37  C   UNL A   1      41.834  25.644  28.126  1.00  0.00     0.049 A 
ATOM     38  N   UNL A   1      44.640  26.279  29.022  1.00  0.00    -0.248 NA
ATOM     39  C   UNL A   1      45.324  24.208  28.193  1.00  0.00     0.031 C 
ATOM     40  C   UNL A   1      40.433  25.358  27.807  1.00  0.00     0.029 A 
ATOM     41  N   UNL A   1      41.802  26.928  28.614  1.00  0.00    -0.354 N 
ATOM     42  C   UNL A   1      45.991  26.096  29.290  1.00  0.00     0.074 A 
ATOM     43  C   UNL A   1      46.342  24.773  28.825  1.00  0.00     0.031 C 
ATOM     44  C   UNL A   1      39.685  26.439  28.084  1.00  0.00     0.029 A 
ATOM     45  C   UNL A   1      40.544  27.479  28.640  1.00  0.00     0.049 A 
ATOM     46  H   UNL A   1      42.607  27.408  28.918  1.00  0.00     0.167 HD
ATOM     47  C   UNL A   1      46.867  26.962  29.851  1.00  0.00     0.037 A 
ATOM     48  C   UNL A   1      40.126  28.682  29.074  1.00  0.00     0.037 A 
ATOM     49  C   UNL A   1      46.533  28.304  30.244  1.00  0.00     0.049 A 
ATOM     50  C   UNL A   1      41.132  29.648  29.634  1.00  0.00     0.074 A 
ATOM     51  C   UNL A   1      47.371  29.293  30.727  1.00  0.00     0.029 A 
ATOM     52  N   UNL A   1      45.260  28.848  30.186  1.00  0.00    -0.354 N 
ATOM     53  N   UNL A   1      42.421  29.488  29.812  1.00  0.00    -0.248 NA
ATOM     54  C   UNL A   1      40.628  30.966  30.048  1.00  0.00     0.031 C 
ATOM     55  C   UNL A   1      46.600  30.429  30.987  1.00  0.00     0.029 A 
ATOM     56  C   UNL A   1      45.288  30.157  30.635  1.00  0.00     0.049 A 
ATOM     57  H   UNL A   1      44.456  28.373  29.873  1.00  0.00     0.167 HD
ATOM     58  C   UNL A   1      42.885  30.688  30.333  1.00  0.00     0.074 A 
ATOM     59  C   UNL A   1      41.743  31.573  30.429  1.00  0.00     0.031 C 
ATOM     60  C   UNL A   1      44.143  31.026  30.704  1.00  0.00     0.037 A 
BRANCH  47  61
ATOM     61  C   UNL A   1      48.278  26.495  30.051  1.00  0.00     0.057 A 
ATOM     62  C   UNL A   1      48.682  25.848  31.226  1.00  0.00     0.134 A 
ATOM     63  C   UNL A   1      49.232  26.651  29.038  1.00  0.00     0.134 A 
ATOM     64  F   UNL A   1      47.819  25.681  32.241  1.00  0.00    -0.206 F 
ATOM     65  C   UNL A   1      49.989  25.392  31.396  1.00  0.00     0.040 A 
ATOM     66  C   UNL A   1      50.536  26.175  29.185  1.00  0.00     0.040 A 
ATOM     67  F   UNL A   1      48.910  27.256  27.885  1.00  0.00    -0.206 F 
ATOM     68  C   UNL A   1      50.919  25.548  30.369  1.00  0.00     0.006 A 
ENDBRANCH  47  61
BRANCH  48  69
ATOM     69  C   UNL A   1      38.693  29.057  28.980  1.00  0.00     0.057 A 
ATOM     70  C   UNL A   1      38.154  29.548  27.785  1.00  0.00     0.134 A 
ATOM     71  C   UNL A   1      37.835  28.958  30.081  1.00  0.00     0.134 A 
ATOM     72  F   UNL A   1      38.932  29.683  26.700  1.00  0.00    -0.206 F 
ATOM     73  C   UNL A   1      36.822  29.952  27.694  1.00  0.00     0.040 A 
ATOM     74  C   UNL A   1      36.493  29.336  29.998  1.00  0.00     0.040 A 
ATOM     75  F   UNL A   1      38.287  28.486  31.252  1.00  0.00    -0.206 F 
ATOM     76  C   UNL A   1      35.986  29.844  28.803  1.00  0.00     0.006 A 
ENDBRANCH  48  69
BRANCH  60  77
ATOM     77  C   UNL A   1      44.357  32.420  31.210  1.00  0.00     0.057 A 
ATOM     78  C   UNL A   1      44.632  33.484  30.343  1.00  0.00     0.134 A 
ATOM     79  C   UNL A   1      44.240  32.707  32.576  1.00  0.00     0.134 A 
ATOM     80  F   UNL A   1      44.770  33.269  29.026  1.00  0.00    -0.206 F 
ATOM     81  C   UNL A   1      44.801  34.784  30.820  1.00  0.00     0.040 A 
ATOM     82  C   UNL A   1      44.383  34.007  33.061  1.00  0.00     0.040 A 
ATOM     83  F   UNL A   1      43.967  31.732  33.456  1.00  0.00    -0.206 F 
ATOM     84  C   UNL A   1      44.669  35.050  32.182  1.00  0.00     0.006 A 
ENDBRANCH  60  77
ENDBRANCH  34  35
ENDBRANCH  26  29
ENDBRANCH  24  25
ENDBRANCH   1  24
TORSDOF 14
ENDMDL
MODEL 3
REMARK VINA RESULT:     -10.7      4.525      8.998
REMARK SMILES CC[NH+](CC)[C@](C)(C(=O)NCCCNC(=O)c1ccc(-c2c3nc(c(-c4c(F)cccc4F)c4ccc([nH]4)c(-c4c(F)cccc4F)c4nc(c(-c5c(F)cccc5F)c5ccc2[nH]5)C=C4)C=C3)cc1)c1cc(F)c(C)cc1F
REMARK SMILES IDX 12 1 11 2 10 3 8 4 9 5 6 7 7 8 3 9 2 11 1 12 4 13 5 14 71 15
REMARK SMILES IDX 72 16 78 17 73 18 77 19 79 20 74 21 75 22 76 23 13 24 14 25
REMARK SMILES IDX 15 26 16 28 17 29 18 30 70 31 19 32 69 33 20 34 21 35 22 36
REMARK SMILES IDX 63 37 23 38 68 39 62 40 64 41 24 42 67 43 61 44 60 45 25 47
REMARK SMILES IDX 51 48 34 49 50 50 35 51 38 52 49 53 65 54 36 55 37 56 48 58
REMARK SMILES IDX 66 59 39 60 26 61 27 62 32 63 28 64 29 65 31 66 33 67 30 68
REMARK SMILES IDX 52 69 53 70 58 71 54 72 55 73 57 74 59 75 56 76 40 77 41 78
REMARK SMILES IDX 46 79 42 80 43 81 45 82 47 83 44 84
REMARK H PARENT 10 6 3 10 14 27 64 46 38 57
REMARK Flexibility Score: inf
ROOT
ATOM      1  C   UNL A   1      31.025  31.945  26.031  1.00  0.00     0.042 C 
ENDROOT
BRANCH   1   2
ATOM      2  C   UNL A   1      31.031  30.537  25.471  1.00  0.00     0.118 C 
BRANCH   2   3
ATOM      3  N   UNL A   1      32.347  30.080  25.075  1.00  0.00    -0.350 N 
ATOM      4  C   UNL A   1      32.747  28.931  24.446  1.00  0.00     0.286 C 
ATOM      5  O   UNL A   1      33.839  29.020  23.865  1.00  0.00    -0.267 OA
ATOM      6  H   UNL A   1      33.079  30.700  25.295  1.00  0.00     0.163 HD
BRANCH   4   7
ATOM      7  C   UNL A   1      31.896  27.596  24.449  1.00  0.00     0.202 C 
ATOM      8  C   UNL A   1      31.395  27.282  25.894  1.00  0.00     0.096 C 
BRANCH   7   9
ATOM      9  N   UNL A   1      30.776  27.606  23.407  1.00  0.00    -0.319 N 
ATOM     10  H   UNL A   1      30.969  26.728  22.925  1.00  0.00     0.349 HD
BRANCH   9  11
ATOM     11  C   UNL A   1      30.815  28.594  22.316  1.00  0.00     0.259 C 
ATOM     12  C   UNL A   1      29.659  29.586  22.203  1.00  0.00     0.071 C 
ENDBRANCH   9  11
BRANCH   9  13
ATOM     13  C   UNL A   1      29.431  27.610  24.040  1.00  0.00     0.259 C 
ATOM     14  C   UNL A   1      28.608  26.349  23.773  1.00  0.00     0.071 C 
ENDBRANCH   9  13
ENDBRANCH   7   9
BRANCH   7  15
ATOM     15  C   UNL A   1      32.908  26.427  24.150  1.00  0.00     0.060 A 
ATOM     16  C   UNL A   1      32.841  25.624  22.997  1.00  0.00     0.053 A 
ATOM     17  C   UNL A   1      33.891  26.084  25.101  1.00  0.00     0.133 A 
ATOM     18  C   UNL A   1      33.636  24.484  22.871  1.00  0.00     0.126 A 
ATOM     19  C   UNL A   1      34.706  24.959  24.960  1.00  0.00     0.046 A 
ATOM     20  F   UNL A   1      34.033  26.816  26.217  1.00  0.00    -0.206 F 
ATOM     21  F   UNL A   1      33.463  23.695  21.801  1.00  0.00    -0.207 F 
ATOM     22  C   UNL A   1      34.564  24.127  23.850  1.00  0.00    -0.012 A 
ATOM     23  C   UNL A   1      35.317  22.836  23.750  1.00  0.00     0.047 C 
ENDBRANCH   7  15
ENDBRANCH   4   7
ENDBRANCH   2   3
ENDBRANCH   1   2
BRANCH   1  24
ATOM     24  C   UNL A   1      32.305  32.297  26.774  1.00  0.00     0.118 C 
BRANCH  24  25
ATOM     25  N   UNL A   1      32.280  33.635  27.362  1.00  0.00    -0.352 N 
ATOM     26  C   UNL A   1      33.109  34.233  28.284  1.00  0.00     0.251 C 
ATOM     27  H   UNL A   1      31.545  34.206  27.043  1.00  0.00     0.163 HD
ATOM     28  O   UNL A   1      32.802  35.308  28.778  1.00  0.00    -0.269 OA
BRANCH  26  29
ATOM     29  C   UNL A   1      34.352  33.554  28.707  1.00  0.00     0.039 A 
ATOM     30  C   UNL A   1      35.567  34.238  28.627  1.00  0.00     0.014 A 
ATOM     31  C   UNL A   1      34.315  32.253  29.207  1.00  0.00     0.014 A 
ATOM     32  C   UNL A   1      36.722  33.657  29.157  1.00  0.00     0.010 A 
ATOM     33  C   UNL A   1      35.433  31.731  29.843  1.00  0.00     0.010 A 
ATOM     34  C   UNL A   1      36.650  32.427  29.829  1.00  0.00    -0.014 A 
BRANCH  34  35
ATOM     35  C   UNL A   1      37.819  31.842  30.535  1.00  0.00     0.031 A 
ATOM     36  C   UNL A   1      38.647  30.780  29.862  1.00  0.00     0.074 A 
ATOM     37  C   UNL A   1      38.062  32.178  31.818  1.00  0.00     0.049 A 
ATOM     38  N   UNL A   1      39.597  30.031  30.361  1.00  0.00    -0.248 NA
ATOM     39  C   UNL A   1      38.333  30.486  28.453  1.00  0.00     0.031 C 
ATOM     40  C   UNL A   1      37.289  33.135  32.611  1.00  0.00     0.029 A 
ATOM     41  N   UNL A   1      39.023  31.730  32.691  1.00  0.00    -0.354 N 
ATOM     42  C   UNL A   1      39.958  29.154  29.347  1.00  0.00     0.074 A 
ATOM     43  C   UNL A   1      39.097  29.430  28.219  1.00  0.00     0.031 C 
ATOM     44  C   UNL A   1      37.819  33.222  33.842  1.00  0.00     0.029 A 
ATOM     45  C   UNL A   1      38.941  32.296  33.940  1.00  0.00     0.049 A 
ATOM     46  H   UNL A   1      39.708  31.066  32.445  1.00  0.00     0.167 HD
ATOM     47  C   UNL A   1      40.937  28.220  29.345  1.00  0.00     0.037 A 
ATOM     48  C   UNL A   1      39.680  32.083  35.045  1.00  0.00     0.037 A 
ATOM     49  C   UNL A   1      41.842  27.999  30.441  1.00  0.00     0.049 A 
ATOM     50  C   UNL A   1      40.801  31.084  34.995  1.00  0.00     0.074 A 
ATOM     51  C   UNL A   1      42.931  27.148  30.499  1.00  0.00     0.029 A 
ATOM     52  N   UNL A   1      41.770  28.645  31.664  1.00  0.00    -0.354 N 
ATOM     53  N   UNL A   1      41.179  30.316  34.003  1.00  0.00    -0.248 NA
ATOM     54  C   UNL A   1      41.605  30.927  36.217  1.00  0.00     0.031 C 
ATOM     55  C   UNL A   1      43.503  27.259  31.770  1.00  0.00     0.029 A 
ATOM     56  C   UNL A   1      42.789  28.203  32.490  1.00  0.00     0.049 A 
ATOM     57  H   UNL A   1      41.093  29.318  31.910  1.00  0.00     0.167 HD
ATOM     58  C   UNL A   1      42.276  29.604  34.470  1.00  0.00     0.074 A 
ATOM     59  C   UNL A   1      42.514  30.043  35.829  1.00  0.00     0.031 C 
ATOM     60  C   UNL A   1      43.018  28.667  33.832  1.00  0.00     0.037 A 
BRANCH  47  61
ATOM     61  C   UNL A   1      41.099  27.381  28.112  1.00  0.00     0.057 A 
ATOM     62  C   UNL A   1      40.407  26.175  27.944  1.00  0.00     0.134 A 
ATOM     63  C   UNL A   1      41.920  27.808  27.061  1.00  0.00     0.134 A 
ATOM     64  F   UNL A   1      39.615  25.704  28.920  1.00  0.00    -0.206 F 
ATOM     65  C   UNL A   1      40.540  25.413  26.783  1.00  0.00     0.040 A 
ATOM     66  C   UNL A   1      42.042  27.067  25.885  1.00  0.00     0.040 A 
ATOM     67  F   UNL A   1      42.607  28.956  27.155  1.00  0.00    -0.206 F 
ATOM     68  C   UNL A   1      41.354  25.864  25.745  1.00  0.00     0.006 A 
ENDBRANCH  47  61
BRANCH  48  69
ATOM     69  C   UNL A   1      39.400  32.841  36.291  1.00  0.00     0.057 A 
ATOM     70  C   UNL A   1      40.059  34.047  36.561  1.00  0.00     0.134 A 
ATOM     71  C   UNL A   1      38.494  32.373  37.248  1.00  0.00     0.134 A 
ATOM     72  F   UNL A   1      40.952  34.538  35.690  1.00  0.00    -0.206 F 
ATOM     73  C   UNL A   1      39.846  34.746  37.750  1.00  0.00     0.040 A 
ATOM     74  C   UNL A   1      38.253  33.074  38.431  1.00  0.00     0.040 A 
ATOM     75  F   UNL A   1      37.824  31.229  37.044  1.00  0.00    -0.206 F 
ATOM     76  C   UNL A   1      38.937  34.261  38.688  1.00  0.00     0.006 A 
ENDBRANCH  48  69
BRANCH  60  77
ATOM     77  C   UNL A   1      44.177  28.084  34.582  1.00  0.00     0.057 A 
ATOM     78  C   UNL A   1      44.052  26.908  35.331  1.00  0.00     0.134 A 
ATOM     79  C   UNL A   1      45.441  28.682  34.516  1.00  0.00     0.134 A 
ATOM     80  F   UNL A   1      42.864  26.296  35.443  1.00  0.00    -0.206 F 
ATOM     81  C   UNL A   1      45.143  26.356  36.002  1.00  0.00     0.040 A 
ATOM     82  C   UNL A   1      46.544  28.127  35.164  1.00  0.00     0.040 A 
ATOM     83  F   UNL A   1      45.626  29.806  33.807  1.00  0.00    -0.206 F 
ATOM     84  C   UNL A   1      46.396  26.961  35.914  1.00  0.00     0.006 A 
ENDBRANCH  60  77
ENDBRANCH  34  35
ENDBRANCH  26  29
ENDBRANCH  24  25
ENDBRANCH   1  24
TORSDOF 14
ENDMDL
