MODEL 1
REMARK VINA RESULT:     -11.6      0.000      0.000
REMARK SMILES CC(=O)O[C@H]1C[C@@H](C(=O)NCCCNC(=O)c2ccc(-c3c4nc(c(-c5c(F)cccc5F)c5ccc([nH]5)c(-c5c(F)cccc5F)c5nc(c(-c6c(F)cccc6F)c6ccc3[nH]6)C=C5)C=C4)cc2)N(S(=O)(=O)c2ccc(F)cc2)C1
REMARK SMILES IDX 12 1 11 2 10 3 8 4 9 5 7 7 5 8 6 9 82 10 71 11 4 12 2 13
REMARK SMILES IDX 1 14 3 15 72 16 73 17 74 18 75 19 76 20 81 21 77 22 80 23
REMARK SMILES IDX 78 24 79 25 13 26 14 27 15 28 16 30 17 31 18 32 70 33 19 34
REMARK SMILES IDX 69 35 20 36 21 37 22 38 63 39 23 40 68 41 62 42 64 43 24 44
REMARK SMILES IDX 67 45 61 46 60 47 25 49 51 50 34 51 50 52 35 53 38 54 49 55
REMARK SMILES IDX 65 56 36 57 37 58 48 60 66 61 39 62 26 63 27 64 32 65 28 66
REMARK SMILES IDX 29 67 31 68 33 69 30 70 52 71 53 72 58 73 54 74 55 75 57 76
REMARK SMILES IDX 59 77 56 78 40 79 41 80 46 81 42 82 43 83 45 84 47 85 44 86
REMARK H PARENT 10 6 14 29 64 48 38 59
REMARK Flexibility Score: inf
ROOT
ATOM      1  C   UNL A   1      37.857  19.233  24.937  1.00  0.00     0.042 C 
ENDROOT
BRANCH   1   2
ATOM      2  C   UNL A   1      36.514  19.949  24.989  1.00  0.00     0.117 C 
BRANCH   2   3
ATOM      3  N   UNL A   1      36.630  21.395  25.115  1.00  0.00    -0.355 N 
ATOM      4  C   UNL A   1      35.878  22.447  24.689  1.00  0.00     0.238 C 
ATOM      5  O   UNL A   1      36.130  23.530  25.233  1.00  0.00    -0.273 OA
ATOM      6  H   UNL A   1      37.429  21.673  25.619  1.00  0.00     0.163 HD
BRANCH   4   7
ATOM      7  C   UNL A   1      34.779  22.385  23.638  1.00  0.00     0.166 C 
ATOM      8  C   UNL A   1      33.234  23.400  22.090  1.00  0.00     0.193 C 
ATOM      9  C   UNL A   1      34.424  23.683  22.967  1.00  0.00     0.077 C 
ATOM     10  C   UNL A   1      32.530  22.237  22.818  1.00  0.00     0.148 C 
ATOM     11  N   UNL A   1      33.449  21.767  23.938  1.00  0.00    -0.182 NA
BRANCH   8  12
ATOM     12  O   UNL A   1      32.363  24.557  22.024  1.00  0.00    -0.461 OA
BRANCH  12  13
ATOM     13  C   UNL A   1      32.712  25.778  21.544  1.00  0.00     0.302 C 
ATOM     14  C   UNL A   1      32.543  26.976  22.434  1.00  0.00     0.139 C 
ATOM     15  O   UNL A   1      33.136  25.904  20.400  1.00  0.00    -0.253 OA
ENDBRANCH  12  13
ENDBRANCH   8  12
BRANCH  11  16
ATOM     16  S   UNL A   1      32.735  21.979  25.477  1.00  0.00     0.243 S 
ATOM     17  O   UNL A   1      31.549  21.152  25.500  1.00  0.00    -0.207 OA
ATOM     18  O   UNL A   1      33.789  21.781  26.455  1.00  0.00    -0.207 OA
BRANCH  16  19
ATOM     19  C   UNL A   1      32.227  23.677  25.634  1.00  0.00     0.082 A 
ATOM     20  C   UNL A   1      33.137  24.651  26.060  1.00  0.00     0.025 A 
ATOM     21  C   UNL A   1      30.870  24.000  25.490  1.00  0.00     0.025 A 
ATOM     22  C   UNL A   1      32.697  25.964  26.265  1.00  0.00     0.040 A 
ATOM     23  C   UNL A   1      30.446  25.318  25.653  1.00  0.00     0.040 A 
ATOM     24  C   UNL A   1      31.363  26.289  26.036  1.00  0.00     0.123 A 
ATOM     25  F   UNL A   1      30.949  27.551  26.210  1.00  0.00    -0.207 F 
ENDBRANCH  16  19
ENDBRANCH  11  16
ENDBRANCH   4   7
ENDBRANCH   2   3
ENDBRANCH   1   2
BRANCH   1  26
ATOM     26  C   UNL A   1      38.949  19.984  25.688  1.00  0.00     0.118 C 
BRANCH  26  27
ATOM     27  N   UNL A   1      40.163  19.181  25.828  1.00  0.00    -0.352 N 
ATOM     28  C   UNL A   1      41.468  19.551  26.018  1.00  0.00     0.251 C 
ATOM     29  H   UNL A   1      40.018  18.209  25.775  1.00  0.00     0.163 HD
ATOM     30  O   UNL A   1      42.362  18.748  25.765  1.00  0.00    -0.269 OA
BRANCH  28  31
ATOM     31  C   UNL A   1      41.797  20.884  26.556  1.00  0.00     0.039 A 
ATOM     32  C   UNL A   1      41.729  21.103  27.934  1.00  0.00     0.014 A 
ATOM     33  C   UNL A   1      42.099  21.939  25.693  1.00  0.00     0.014 A 
ATOM     34  C   UNL A   1      41.998  22.374  28.442  1.00  0.00     0.010 A 
ATOM     35  C   UNL A   1      42.484  23.167  26.207  1.00  0.00     0.010 A 
ATOM     36  C   UNL A   1      42.400  23.409  27.583  1.00  0.00    -0.014 A 
BRANCH  36  37
ATOM     37  C   UNL A   1      42.689  24.771  28.088  1.00  0.00     0.031 A 
ATOM     38  C   UNL A   1      44.098  25.142  28.469  1.00  0.00     0.074 A 
ATOM     39  C   UNL A   1      41.679  25.642  28.264  1.00  0.00     0.049 A 
ATOM     40  N   UNL A   1      44.547  26.251  28.996  1.00  0.00    -0.248 NA
ATOM     41  C   UNL A   1      45.136  24.116  28.263  1.00  0.00     0.031 C 
ATOM     42  C   UNL A   1      40.267  25.371  27.984  1.00  0.00     0.029 A 
ATOM     43  N   UNL A   1      41.686  26.931  28.727  1.00  0.00    -0.354 N 
ATOM     44  C   UNL A   1      45.906  26.046  29.205  1.00  0.00     0.074 A 
ATOM     45  C   UNL A   1      46.196  24.686  28.816  1.00  0.00     0.031 C 
ATOM     46  C   UNL A   1      39.548  26.473  28.248  1.00  0.00     0.029 A 
ATOM     47  C   UNL A   1      40.440  27.511  28.755  1.00  0.00     0.049 A 
ATOM     48  H   UNL A   1      42.504  27.399  29.011  1.00  0.00     0.167 HD
ATOM     49  C   UNL A   1      46.835  26.924  29.649  1.00  0.00     0.037 A 
ATOM     50  C   UNL A   1      40.065  28.741  29.151  1.00  0.00     0.037 A 
ATOM     51  C   UNL A   1      46.540  28.285  30.007  1.00  0.00     0.049 A 
ATOM     52  C   UNL A   1      41.116  29.698  29.635  1.00  0.00     0.074 A 
ATOM     53  C   UNL A   1      47.412  29.278  30.418  1.00  0.00     0.029 A 
ATOM     54  N   UNL A   1      45.271  28.844  29.996  1.00  0.00    -0.354 N 
ATOM     55  N   UNL A   1      42.409  29.516  29.762  1.00  0.00    -0.248 NA
ATOM     56  C   UNL A   1      40.659  31.040  30.019  1.00  0.00     0.031 C 
ATOM     57  C   UNL A   1      46.663  30.424  30.703  1.00  0.00     0.029 A 
ATOM     58  C   UNL A   1      45.333  30.165  30.408  1.00  0.00     0.049 A 
ATOM     59  H   UNL A   1      44.448  28.373  29.733  1.00  0.00     0.167 HD
ATOM     60  C   UNL A   1      42.923  30.728  30.203  1.00  0.00     0.074 A 
ATOM     61  C   UNL A   1      41.803  31.641  30.307  1.00  0.00     0.031 C 
ATOM     62  C   UNL A   1      44.206  31.060  30.492  1.00  0.00     0.037 A 
BRANCH  49  63
ATOM     63  C   UNL A   1      48.252  26.436  29.766  1.00  0.00     0.057 A 
ATOM     64  C   UNL A   1      48.731  25.816  30.929  1.00  0.00     0.134 A 
ATOM     65  C   UNL A   1      49.144  26.565  28.694  1.00  0.00     0.134 A 
ATOM     66  F   UNL A   1      47.935  25.672  32.001  1.00  0.00    -0.206 F 
ATOM     67  C   UNL A   1      50.051  25.374  31.035  1.00  0.00     0.040 A 
ATOM     68  C   UNL A   1      50.458  26.098  28.775  1.00  0.00     0.040 A 
ATOM     69  F   UNL A   1      48.755  27.143  27.549  1.00  0.00    -0.206 F 
ATOM     70  C   UNL A   1      50.917  25.508  29.951  1.00  0.00     0.006 A 
ENDBRANCH  49  63
BRANCH  50  71
ATOM     71  C   UNL A   1      38.638  29.145  29.070  1.00  0.00     0.057 A 
ATOM     72  C   UNL A   1      38.091  29.631  27.877  1.00  0.00     0.134 A 
ATOM     73  C   UNL A   1      37.789  29.065  30.181  1.00  0.00     0.134 A 
ATOM     74  F   UNL A   1      38.856  29.743  26.781  1.00  0.00    -0.206 F 
ATOM     75  C   UNL A   1      36.762  30.049  27.797  1.00  0.00     0.040 A 
ATOM     76  C   UNL A   1      36.451  29.451  30.109  1.00  0.00     0.040 A 
ATOM     77  F   UNL A   1      38.248  28.596  31.352  1.00  0.00    -0.206 F 
ATOM     78  C   UNL A   1      35.936  29.955  28.915  1.00  0.00     0.006 A 
ENDBRANCH  50  71
BRANCH  62  79
ATOM     79  C   UNL A   1      44.473  32.482  30.891  1.00  0.00     0.057 A 
ATOM     80  C   UNL A   1      44.479  32.894  32.229  1.00  0.00     0.134 A 
ATOM     81  C   UNL A   1      44.755  33.448  29.916  1.00  0.00     0.134 A 
ATOM     82  F   UNL A   1      44.205  32.022  33.212  1.00  0.00    -0.206 F 
ATOM     83  C   UNL A   1      44.722  34.223  32.582  1.00  0.00     0.040 A 
ATOM     84  C   UNL A   1      45.033  34.772  30.257  1.00  0.00     0.040 A 
ATOM     85  F   UNL A   1      44.779  33.118  28.615  1.00  0.00    -0.206 F 
ATOM     86  C   UNL A   1      45.006  35.164  31.593  1.00  0.00     0.006 A 
ENDBRANCH  62  79
ENDBRANCH  36  37
ENDBRANCH  28  31
ENDBRANCH  26  27
ENDBRANCH   1  26
TORSDOF 14
ENDMDL
MODEL 2
REMARK VINA RESULT:     -11.6      4.573      9.215
REMARK SMILES CC(=O)O[C@H]1C[C@@H](C(=O)NCCCNC(=O)c2ccc(-c3c4nc(c(-c5c(F)cccc5F)c5ccc([nH]5)c(-c5c(F)cccc5F)c5nc(c(-c6c(F)cccc6F)c6ccc3[nH]6)C=C5)C=C4)cc2)N(S(=O)(=O)c2ccc(F)cc2)C1
REMARK SMILES IDX 12 1 11 2 10 3 8 4 9 5 7 7 5 8 6 9 82 10 71 11 4 12 2 13
REMARK SMILES IDX 1 14 3 15 72 16 73 17 74 18 75 19 76 20 81 21 77 22 80 23
REMARK SMILES IDX 78 24 79 25 13 26 14 27 15 28 16 30 17 31 18 32 70 33 19 34
REMARK SMILES IDX 69 35 20 36 21 37 22 38 63 39 23 40 68 41 62 42 64 43 24 44
REMARK SMILES IDX 67 45 61 46 60 47 25 49 51 50 34 51 50 52 35 53 38 54 49 55
REMARK SMILES IDX 65 56 36 57 37 58 48 60 66 61 39 62 26 63 27 64 32 65 28 66
REMARK SMILES IDX 29 67 31 68 33 69 30 70 52 71 53 72 58 73 54 74 55 75 57 76
REMARK SMILES IDX 59 77 56 78 40 79 41 80 46 81 42 82 43 83 45 84 47 85 44 86
REMARK H PARENT 10 6 14 29 64 48 38 59
REMARK Flexibility Score: inf
ROOT
ATOM      1  C   UNL A   1      31.170  32.316  26.363  1.00  0.00     0.042 C 
ENDROOT
BRANCH   1   2
ATOM      2  C   UNL A   1      31.201  30.988  25.617  1.00  0.00     0.117 C 
BRANCH   2   3
ATOM      3  N   UNL A   1      32.161  30.038  26.160  1.00  0.00    -0.355 N 
ATOM      4  C   UNL A   1      32.236  28.679  26.193  1.00  0.00     0.238 C 
ATOM      5  O   UNL A   1      33.347  28.218  26.486  1.00  0.00    -0.273 OA
ATOM      6  H   UNL A   1      32.925  30.475  26.602  1.00  0.00     0.163 HD
BRANCH   4   7
ATOM      7  C   UNL A   1      31.094  27.719  25.892  1.00  0.00     0.166 C 
ATOM      8  C   UNL A   1      30.082  25.531  25.870  1.00  0.00     0.193 C 
ATOM      9  C   UNL A   1      31.249  26.316  26.407  1.00  0.00     0.077 C 
ATOM     10  C   UNL A   1      29.751  26.255  24.550  1.00  0.00     0.148 C 
ATOM     11  N   UNL A   1      30.582  27.530  24.499  1.00  0.00    -0.182 NA
BRANCH   8  12
ATOM     12  O   UNL A   1      30.467  24.158  25.611  1.00  0.00    -0.461 OA
BRANCH  12  13
ATOM     13  C   UNL A   1      30.940  23.285  26.536  1.00  0.00     0.302 C 
ATOM     14  C   UNL A   1      32.246  22.590  26.272  1.00  0.00     0.139 C 
ATOM     15  O   UNL A   1      30.305  23.051  27.560  1.00  0.00    -0.253 OA
ENDBRANCH  12  13
ENDBRANCH   8  12
BRANCH  11  16
ATOM     16  S   UNL A   1      31.670  27.527  23.181  1.00  0.00     0.243 S 
ATOM     17  O   UNL A   1      30.866  27.508  21.979  1.00  0.00    -0.207 OA
ATOM     18  O   UNL A   1      32.613  28.605  23.418  1.00  0.00    -0.207 OA
BRANCH  16  19
ATOM     19  C   UNL A   1      32.617  26.021  23.235  1.00  0.00     0.082 A 
ATOM     20  C   UNL A   1      33.755  25.930  24.045  1.00  0.00     0.025 A 
ATOM     21  C   UNL A   1      32.312  24.990  22.336  1.00  0.00     0.025 A 
ATOM     22  C   UNL A   1      34.538  24.770  24.006  1.00  0.00     0.040 A 
ATOM     23  C   UNL A   1      33.070  23.820  22.333  1.00  0.00     0.040 A 
ATOM     24  C   UNL A   1      34.174  23.719  23.169  1.00  0.00     0.123 A 
ATOM     25  F   UNL A   1      34.911  22.601  23.151  1.00  0.00    -0.207 F 
ENDBRANCH  16  19
ENDBRANCH  11  16
ENDBRANCH   4   7
ENDBRANCH   2   3
ENDBRANCH   1   2
BRANCH   1  26
ATOM     26  C   UNL A   1      32.433  32.556  27.180  1.00  0.00     0.118 C 
BRANCH  26  27
ATOM     27  N   UNL A   1      32.570  33.959  27.568  1.00  0.00    -0.352 N 
ATOM     28  C   UNL A   1      33.314  34.550  28.553  1.00  0.00     0.251 C 
ATOM     29  H   UNL A   1      32.035  34.585  27.030  1.00  0.00     0.163 HD
ATOM     30  O   UNL A   1      33.024  35.683  28.928  1.00  0.00    -0.269 OA
BRANCH  28  31
ATOM     31  C   UNL A   1      34.476  33.851  29.135  1.00  0.00     0.039 A 
ATOM     32  C   UNL A   1      35.766  34.227  28.748  1.00  0.00     0.014 A 
ATOM     33  C   UNL A   1      34.291  32.775  30.004  1.00  0.00     0.014 A 
ATOM     34  C   UNL A   1      36.865  33.540  29.264  1.00  0.00     0.010 A 
ATOM     35  C   UNL A   1      35.384  32.174  30.607  1.00  0.00     0.010 A 
ATOM     36  C   UNL A   1      36.681  32.523  30.215  1.00  0.00    -0.014 A 
BRANCH  36  37
ATOM     37  C   UNL A   1      37.826  31.771  30.778  1.00  0.00     0.031 A 
ATOM     38  C   UNL A   1      38.312  32.083  32.170  1.00  0.00     0.074 A 
ATOM     39  C   UNL A   1      38.462  30.861  30.019  1.00  0.00     0.049 A 
ATOM     40  N   UNL A   1      39.337  31.593  32.817  1.00  0.00    -0.248 NA
ATOM     41  C   UNL A   1      37.567  33.110  32.920  1.00  0.00     0.031 C 
ATOM     42  C   UNL A   1      38.115  30.520  28.637  1.00  0.00     0.029 A 
ATOM     43  N   UNL A   1      39.539  30.062  30.299  1.00  0.00    -0.354 N 
ATOM     44  C   UNL A   1      39.372  32.267  34.032  1.00  0.00     0.074 A 
ATOM     45  C   UNL A   1      38.312  33.248  34.006  1.00  0.00     0.031 C 
ATOM     46  C   UNL A   1      38.941  29.555  28.203  1.00  0.00     0.029 A 
ATOM     47  C   UNL A   1      39.900  29.243  29.257  1.00  0.00     0.049 A 
ATOM     48  H   UNL A   1      40.008  30.074  31.165  1.00  0.00     0.167 HD
ATOM     49  C   UNL A   1      40.192  32.062  35.089  1.00  0.00     0.037 A 
ATOM     50  C   UNL A   1      40.897  28.344  29.167  1.00  0.00     0.037 A 
ATOM     51  C   UNL A   1      41.225  31.062  35.116  1.00  0.00     0.049 A 
ATOM     52  C   UNL A   1      41.791  28.132  30.356  1.00  0.00     0.074 A 
ATOM     53  C   UNL A   1      42.079  30.730  36.152  1.00  0.00     0.029 A 
ATOM     54  N   UNL A   1      41.543  30.231  34.051  1.00  0.00    -0.354 N 
ATOM     55  N   UNL A   1      41.771  28.725  31.526  1.00  0.00    -0.248 NA
ATOM     56  C   UNL A   1      42.840  27.113  30.219  1.00  0.00     0.031 C 
ATOM     57  C   UNL A   1      42.947  29.733  35.698  1.00  0.00     0.029 A 
ATOM     58  C   UNL A   1      42.592  29.397  34.401  1.00  0.00     0.049 A 
ATOM     59  H   UNL A   1      41.090  30.233  33.177  1.00  0.00     0.167 HD
ATOM     60  C   UNL A   1      42.776  28.127  32.275  1.00  0.00     0.074 A 
ATOM     61  C   UNL A   1      43.376  27.115  31.430  1.00  0.00     0.031 C 
ATOM     62  C   UNL A   1      43.165  28.387  33.547  1.00  0.00     0.037 A 
BRANCH  49  63
ATOM     63  C   UNL A   1      39.997  32.934  36.299  1.00  0.00     0.057 A 
ATOM     64  C   UNL A   1      40.738  34.107  36.495  1.00  0.00     0.134 A 
ATOM     65  C   UNL A   1      39.041  32.608  37.269  1.00  0.00     0.134 A 
ATOM     66  F   UNL A   1      41.682  34.472  35.613  1.00  0.00    -0.206 F 
ATOM     67  C   UNL A   1      40.559  34.907  37.626  1.00  0.00     0.040 A 
ATOM     68  C   UNL A   1      38.830  33.417  38.388  1.00  0.00     0.040 A 
ATOM     69  F   UNL A   1      38.292  31.502  37.144  1.00  0.00    -0.206 F 
ATOM     70  C   UNL A   1      39.596  34.565  38.573  1.00  0.00     0.006 A 
ENDBRANCH  49  63
BRANCH  50  71
ATOM     71  C   UNL A   1      41.079  27.556  27.922  1.00  0.00     0.057 A 
ATOM     72  C   UNL A   1      41.877  28.032  26.875  1.00  0.00     0.134 A 
ATOM     73  C   UNL A   1      40.456  26.314  27.743  1.00  0.00     0.134 A 
ATOM     74  F   UNL A   1      42.490  29.221  26.981  1.00  0.00    -0.206 F 
ATOM     75  C   UNL A   1      42.027  27.319  25.685  1.00  0.00     0.040 A 
ATOM     76  C   UNL A   1      40.621  25.575  26.571  1.00  0.00     0.040 A 
ATOM     77  F   UNL A   1      39.689  25.795  28.713  1.00  0.00    -0.206 F 
ATOM     78  C   UNL A   1      41.401  26.083  25.533  1.00  0.00     0.006 A 
ENDBRANCH  50  71
BRANCH  62  79
ATOM     79  C   UNL A   1      44.252  27.525  34.120  1.00  0.00     0.057 A 
ATOM     80  C   UNL A   1      45.601  27.898  34.082  1.00  0.00     0.134 A 
ATOM     81  C   UNL A   1      43.935  26.311  34.746  1.00  0.00     0.134 A 
ATOM     82  F   UNL A   1      45.974  29.042  33.487  1.00  0.00    -0.206 F 
ATOM     83  C   UNL A   1      46.600  27.080  34.613  1.00  0.00     0.040 A 
ATOM     84  C   UNL A   1      44.921  25.502  35.311  1.00  0.00     0.040 A 
ATOM     85  F   UNL A   1      42.661  25.900  34.830  1.00  0.00    -0.206 F 
ATOM     86  C   UNL A   1      46.258  25.881  35.236  1.00  0.00     0.006 A 
ENDBRANCH  62  79
ENDBRANCH  36  37
ENDBRANCH  28  31
ENDBRANCH  26  27
ENDBRANCH   1  26
TORSDOF 14
ENDMDL
MODEL 3
REMARK VINA RESULT:     -11.6      0.953      6.389
REMARK SMILES CC(=O)O[C@H]1C[C@@H](C(=O)NCCCNC(=O)c2ccc(-c3c4nc(c(-c5c(F)cccc5F)c5ccc([nH]5)c(-c5c(F)cccc5F)c5nc(c(-c6c(F)cccc6F)c6ccc3[nH]6)C=C5)C=C4)cc2)N(S(=O)(=O)c2ccc(F)cc2)C1
REMARK SMILES IDX 12 1 11 2 10 3 8 4 9 5 7 7 5 8 6 9 82 10 71 11 4 12 2 13
REMARK SMILES IDX 1 14 3 15 72 16 73 17 74 18 75 19 76 20 81 21 77 22 80 23
REMARK SMILES IDX 78 24 79 25 13 26 14 27 15 28 16 30 17 31 18 32 70 33 19 34
REMARK SMILES IDX 69 35 20 36 21 37 22 38 63 39 23 40 68 41 62 42 64 43 24 44
REMARK SMILES IDX 67 45 61 46 60 47 25 49 51 50 34 51 50 52 35 53 38 54 49 55
REMARK SMILES IDX 65 56 36 57 37 58 48 60 66 61 39 62 26 63 27 64 32 65 28 66
REMARK SMILES IDX 29 67 31 68 33 69 30 70 52 71 53 72 58 73 54 74 55 75 57 76
REMARK SMILES IDX 59 77 56 78 40 79 41 80 46 81 42 82 43 83 45 84 47 85 44 86
REMARK H PARENT 10 6 14 29 64 48 38 59
REMARK Flexibility Score: inf
ROOT
ATOM      1  C   UNL A   1      37.056  19.862  24.910  1.00  0.00     0.042 C 
ENDROOT
BRANCH   1   2
ATOM      2  C   UNL A   1      35.880  20.829  24.848  1.00  0.00     0.117 C 
BRANCH   2   3
ATOM      3  N   UNL A   1      34.665  20.305  25.453  1.00  0.00    -0.355 N 
ATOM      4  C   UNL A   1      33.336  20.464  25.203  1.00  0.00     0.238 C 
ATOM      5  O   UNL A   1      32.594  19.631  25.740  1.00  0.00    -0.273 OA
ATOM      6  H   UNL A   1      34.843  19.703  26.211  1.00  0.00     0.163 HD
BRANCH   4   7
ATOM      7  C   UNL A   1      32.720  21.547  24.329  1.00  0.00     0.166 C 
ATOM      8  C   UNL A   1      32.853  23.326  22.706  1.00  0.00     0.193 C 
ATOM      9  C   UNL A   1      33.639  22.210  23.341  1.00  0.00     0.077 C 
ATOM     10  C   UNL A   1      31.853  23.723  23.812  1.00  0.00     0.148 C 
ATOM     11  N   UNL A   1      31.960  22.690  24.926  1.00  0.00    -0.182 NA
BRANCH   8  12
ATOM     12  O   UNL A   1      33.720  24.442  22.385  1.00  0.00    -0.461 OA
BRANCH  12  13
ATOM     13  C   UNL A   1      33.352  25.550  21.694  1.00  0.00     0.302 C 
ATOM     14  C   UNL A   1      33.227  26.852  22.434  1.00  0.00     0.139 C 
ATOM     15  O   UNL A   1      33.106  25.488  20.493  1.00  0.00    -0.253 OA
ENDBRANCH  12  13
ENDBRANCH   8  12
BRANCH  11  16
ATOM     16  S   UNL A   1      32.483  23.392  26.394  1.00  0.00     0.243 S 
ATOM     17  O   UNL A   1      31.490  23.058  27.390  1.00  0.00    -0.207 OA
ATOM     18  O   UNL A   1      33.868  22.994  26.574  1.00  0.00    -0.207 OA
BRANCH  16  19
ATOM     19  C   UNL A   1      32.498  25.161  26.200  1.00  0.00     0.082 A 
ATOM     20  C   UNL A   1      33.705  25.840  25.996  1.00  0.00     0.025 A 
ATOM     21  C   UNL A   1      31.316  25.881  26.421  1.00  0.00     0.025 A 
ATOM     22  C   UNL A   1      33.707  27.239  25.936  1.00  0.00     0.040 A 
ATOM     23  C   UNL A   1      31.317  27.272  26.317  1.00  0.00     0.040 A 
ATOM     24  C   UNL A   1      32.512  27.938  26.073  1.00  0.00     0.123 A 
ATOM     25  F   UNL A   1      32.513  29.275  25.992  1.00  0.00    -0.207 F 
ENDBRANCH  16  19
ENDBRANCH  11  16
ENDBRANCH   4   7
ENDBRANCH   2   3
ENDBRANCH   1   2
BRANCH   1  26
ATOM     26  C   UNL A   1      38.343  20.538  25.364  1.00  0.00     0.118 C 
BRANCH  26  27
ATOM     27  N   UNL A   1      39.405  19.566  25.620  1.00  0.00    -0.352 N 
ATOM     28  C   UNL A   1      40.723  19.741  25.952  1.00  0.00     0.251 C 
ATOM     29  H   UNL A   1      39.127  18.626  25.540  1.00  0.00     0.163 HD
ATOM     30  O   UNL A   1      41.512  18.815  25.783  1.00  0.00    -0.269 OA
BRANCH  28  31
ATOM     31  C   UNL A   1      41.184  21.013  26.538  1.00  0.00     0.039 A 
ATOM     32  C   UNL A   1      41.080  21.208  27.918  1.00  0.00     0.014 A 
ATOM     33  C   UNL A   1      41.648  22.042  25.718  1.00  0.00     0.014 A 
ATOM     34  C   UNL A   1      41.476  22.427  28.472  1.00  0.00     0.010 A 
ATOM     35  C   UNL A   1      42.153  23.204  26.280  1.00  0.00     0.010 A 
ATOM     36  C   UNL A   1      42.037  23.424  27.658  1.00  0.00    -0.014 A 
BRANCH  36  37
ATOM     37  C   UNL A   1      42.463  24.730  28.211  1.00  0.00     0.031 A 
ATOM     38  C   UNL A   1      41.447  25.824  28.410  1.00  0.00     0.074 A 
ATOM     39  C   UNL A   1      43.765  24.948  28.471  1.00  0.00     0.049 A 
ATOM     40  N   UNL A   1      41.626  27.056  28.810  1.00  0.00    -0.248 NA
ATOM     41  C   UNL A   1      40.048  25.502  28.077  1.00  0.00     0.031 C 
ATOM     42  C   UNL A   1      44.845  23.981  28.261  1.00  0.00     0.029 A 
ATOM     43  N   UNL A   1      44.402  26.058  28.961  1.00  0.00    -0.354 N 
ATOM     44  C   UNL A   1      40.374  27.656  28.755  1.00  0.00     0.074 A 
ATOM     45  C   UNL A   1      39.457  26.678  28.215  1.00  0.00     0.031 C 
ATOM     46  C   UNL A   1      46.006  24.527  28.655  1.00  0.00     0.029 A 
ATOM     47  C   UNL A   1      45.759  25.895  29.100  1.00  0.00     0.049 A 
ATOM     48  H   UNL A   1      43.932  26.892  29.191  1.00  0.00     0.167 HD
ATOM     49  C   UNL A   1      40.013  28.898  29.151  1.00  0.00     0.037 A 
ATOM     50  C   UNL A   1      46.695  26.757  29.537  1.00  0.00     0.037 A 
ATOM     51  C   UNL A   1      40.929  29.854  29.715  1.00  0.00     0.049 A 
ATOM     52  C   UNL A   1      46.269  28.129  29.976  1.00  0.00     0.074 A 
ATOM     53  C   UNL A   1      40.663  31.122  30.200  1.00  0.00     0.029 A 
ATOM     54  N   UNL A   1      42.291  29.642  29.867  1.00  0.00    -0.354 N 
ATOM     55  N   UNL A   1      45.070  28.662  29.985  1.00  0.00    -0.248 NA
ATOM     56  C   UNL A   1      47.324  29.017  30.479  1.00  0.00     0.031 C 
ATOM     57  C   UNL A   1      41.873  31.697  30.600  1.00  0.00     0.029 A 
ATOM     58  C   UNL A   1      42.883  30.763  30.424  1.00  0.00     0.049 A 
ATOM     59  H   UNL A   1      42.767  28.817  29.617  1.00  0.00     0.167 HD
ATOM     60  C   UNL A   1      45.220  29.931  30.528  1.00  0.00     0.074 A 
ATOM     61  C   UNL A   1      46.625  30.080  30.849  1.00  0.00     0.031 C 
ATOM     62  C   UNL A   1      44.283  30.885  30.747  1.00  0.00     0.037 A 
BRANCH  49  63
ATOM     63  C   UNL A   1      38.569  29.287  28.991  1.00  0.00     0.057 A 
ATOM     64  C   UNL A   1      38.037  29.674  27.753  1.00  0.00     0.134 A 
ATOM     65  C   UNL A   1      37.694  29.252  30.084  1.00  0.00     0.134 A 
ATOM     66  F   UNL A   1      38.822  29.743  26.667  1.00  0.00    -0.206 F 
ATOM     67  C   UNL A   1      36.698  30.043  27.614  1.00  0.00     0.040 A 
ATOM     68  C   UNL A   1      36.345  29.588  29.951  1.00  0.00     0.040 A 
ATOM     69  F   UNL A   1      38.132  28.888  31.298  1.00  0.00    -0.206 F 
ATOM     70  C   UNL A   1      35.846  29.993  28.715  1.00  0.00     0.006 A 
ENDBRANCH  49  63
BRANCH  50  71
ATOM     71  C   UNL A   1      48.117  26.335  29.614  1.00  0.00     0.057 A 
ATOM     72  C   UNL A   1      48.638  25.758  30.778  1.00  0.00     0.134 A 
ATOM     73  C   UNL A   1      48.992  26.504  28.534  1.00  0.00     0.134 A 
ATOM     74  F   UNL A   1      47.853  25.581  31.853  1.00  0.00    -0.206 F 
ATOM     75  C   UNL A   1      49.980  25.391  30.878  1.00  0.00     0.040 A 
ATOM     76  C   UNL A   1      50.329  26.114  28.607  1.00  0.00     0.040 A 
ATOM     77  F   UNL A   1      48.553  27.039  27.384  1.00  0.00    -0.206 F 
ATOM     78  C   UNL A   1      50.830  25.564  29.787  1.00  0.00     0.006 A 
ENDBRANCH  50  71
BRANCH  62  79
ATOM     79  C   UNL A   1      44.736  32.150  31.415  1.00  0.00     0.057 A 
ATOM     80  C   UNL A   1      45.171  33.265  30.688  1.00  0.00     0.134 A 
ATOM     81  C   UNL A   1      44.710  32.261  32.812  1.00  0.00     0.134 A 
ATOM     82  F   UNL A   1      45.232  33.223  29.348  1.00  0.00    -0.206 F 
ATOM     83  C   UNL A   1      45.597  34.432  31.326  1.00  0.00     0.040 A 
ATOM     84  C   UNL A   1      45.100  33.433  33.460  1.00  0.00     0.040 A 
ATOM     85  F   UNL A   1      44.291  31.234  33.569  1.00  0.00    -0.206 F 
ATOM     86  C   UNL A   1      45.555  34.518  32.717  1.00  0.00     0.006 A 
ENDBRANCH  62  79
ENDBRANCH  36  37
ENDBRANCH  28  31
ENDBRANCH  26  27
ENDBRANCH   1  26
TORSDOF 14
ENDMDL
