MODEL 1
REMARK VINA RESULT:     -11.5      0.000      0.000
REMARK SMILES CC1=C(C)C(=O)N(C[C@H](CC(C)C)C(=O)NCCCNC(=O)c2ccc(-c3c4nc(c(-c5c(F)cccc5F)c5ccc([nH]5)c(-c5c(F)cccc5F)c5nc(c(-c6c(F)cccc6F)c6ccc3[nH]6)C=C5)C=C4)cc2)C1=O
REMARK SMILES IDX 18 1 17 2 16 3 14 4 15 5 9 7 8 8 7 9 1 10 2 11 3 12 77 13
REMARK SMILES IDX 4 14 5 15 78 16 6 17 10 18 11 19 12 20 13 21 19 22 20 23
REMARK SMILES IDX 21 24 22 26 23 27 24 28 76 29 25 30 75 31 26 32 27 33 28 34
REMARK SMILES IDX 69 35 29 36 74 37 68 38 70 39 30 40 73 41 67 42 66 43 31 45
REMARK SMILES IDX 57 46 40 47 56 48 41 49 44 50 55 51 71 52 42 53 43 54 54 56
REMARK SMILES IDX 72 57 45 58 32 59 33 60 38 61 34 62 35 63 37 64 39 65 36 66
REMARK SMILES IDX 58 67 59 68 64 69 60 70 61 71 63 72 65 73 62 74 46 75 47 76
REMARK SMILES IDX 52 77 48 78 49 79 51 80 53 81 50 82
REMARK H PARENT 16 6 20 25 70 44 44 55
REMARK Flexibility Score: inf
ROOT
ATOM      1  C   UNL A   1      37.837  19.868  24.793  1.00  0.00     0.042 C 
ENDROOT
BRANCH   1   2
ATOM      2  C   UNL A   1      36.562  20.650  25.040  1.00  0.00     0.117 C 
BRANCH   2   3
ATOM      3  N   UNL A   1      35.405  19.774  25.141  1.00  0.00    -0.356 N 
ATOM      4  C   UNL A   1      34.078  20.015  25.027  1.00  0.00     0.224 C 
ATOM      5  O   UNL A   1      33.324  19.041  24.959  1.00  0.00    -0.275 OA
ATOM      6  H   UNL A   1      35.628  18.833  25.324  1.00  0.00     0.163 HD
BRANCH   4   7
ATOM      7  C   UNL A   1      33.523  21.422  24.916  1.00  0.00     0.099 C 
BRANCH   7   8
ATOM      8  C   UNL A   1      33.490  22.074  26.333  1.00  0.00     0.142 C 
BRANCH   8   9
ATOM      9  N   UNL A   1      33.274  23.521  26.274  1.00  0.00    -0.274 N 
ATOM     10  C   UNL A   1      33.924  26.669  24.559  1.00  0.00     0.051 C 
ATOM     11  C   UNL A   1      33.416  25.657  25.512  1.00  0.00     0.023 C 
ATOM     12  C   UNL A   1      32.262  25.562  26.179  1.00  0.00     0.023 C 
ATOM     13  C   UNL A   1      34.157  24.424  25.780  1.00  0.00     0.256 C 
ATOM     14  C   UNL A   1      31.179  26.554  26.330  1.00  0.00     0.051 C 
ATOM     15  C   UNL A   1      32.161  24.177  26.691  1.00  0.00     0.256 C 
ATOM     16  O   UNL A   1      35.357  24.310  25.597  1.00  0.00    -0.269 OA
ATOM     17  O   UNL A   1      31.228  23.743  27.334  1.00  0.00    -0.269 OA
ENDBRANCH   8   9
ENDBRANCH   7   8
BRANCH   7  18
ATOM     18  C   UNL A   1      32.183  21.498  24.149  1.00  0.00     0.018 C 
BRANCH  18  19
ATOM     19  C   UNL A   1      32.054  22.512  22.973  1.00  0.00    -0.017 C 
ATOM     20  C   UNL A   1      31.162  23.735  23.197  1.00  0.00     0.007 C 
ATOM     21  C   UNL A   1      33.455  23.020  22.598  1.00  0.00     0.007 C 
ENDBRANCH  18  19
ENDBRANCH   7  18
ENDBRANCH   4   7
ENDBRANCH   2   3
ENDBRANCH   1   2
BRANCH   1  22
ATOM     22  C   UNL A   1      38.968  20.298  25.712  1.00  0.00     0.118 C 
BRANCH  22  23
ATOM     23  N   UNL A   1      40.053  19.323  25.765  1.00  0.00    -0.352 N 
ATOM     24  C   UNL A   1      41.373  19.524  26.074  1.00  0.00     0.251 C 
ATOM     25  H   UNL A   1      39.802  18.396  25.548  1.00  0.00     0.163 HD
ATOM     26  O   UNL A   1      42.204  18.641  25.903  1.00  0.00    -0.269 OA
BRANCH  24  27
ATOM     27  C   UNL A   1      41.780  20.838  26.599  1.00  0.00     0.039 A 
ATOM     28  C   UNL A   1      42.273  21.799  25.717  1.00  0.00     0.014 A 
ATOM     29  C   UNL A   1      41.617  21.126  27.957  1.00  0.00     0.014 A 
ATOM     30  C   UNL A   1      42.560  23.076  26.194  1.00  0.00     0.010 A 
ATOM     31  C   UNL A   1      41.806  22.424  28.407  1.00  0.00     0.010 A 
ATOM     32  C   UNL A   1      42.299  23.404  27.535  1.00  0.00    -0.014 A 
BRANCH  32  33
ATOM     33  C   UNL A   1      42.585  24.758  28.062  1.00  0.00     0.031 A 
ATOM     34  C   UNL A   1      43.991  25.121  28.449  1.00  0.00     0.074 A 
ATOM     35  C   UNL A   1      41.576  25.630  28.246  1.00  0.00     0.049 A 
ATOM     36  N   UNL A   1      44.442  26.227  28.979  1.00  0.00    -0.248 NA
ATOM     37  C   UNL A   1      45.022  24.088  28.248  1.00  0.00     0.031 C 
ATOM     38  C   UNL A   1      40.162  25.366  27.968  1.00  0.00     0.029 A 
ATOM     39  N   UNL A   1      41.588  26.917  28.718  1.00  0.00    -0.354 N 
ATOM     40  C   UNL A   1      45.797  26.014  29.194  1.00  0.00     0.074 A 
ATOM     41  C   UNL A   1      46.084  24.654  28.799  1.00  0.00     0.031 C 
ATOM     42  C   UNL A   1      39.448  26.470  28.243  1.00  0.00     0.029 A 
ATOM     43  C   UNL A   1      40.347  27.504  28.745  1.00  0.00     0.049 A 
ATOM     44  H   UNL A   1      42.409  27.376  29.010  1.00  0.00     0.167 HD
ATOM     45  C   UNL A   1      46.728  26.885  29.649  1.00  0.00     0.037 A 
ATOM     46  C   UNL A   1      39.982  28.742  29.126  1.00  0.00     0.037 A 
ATOM     47  C   UNL A   1      46.445  28.250  29.998  1.00  0.00     0.049 A 
ATOM     48  C   UNL A   1      41.039  29.703  29.597  1.00  0.00     0.074 A 
ATOM     49  C   UNL A   1      47.326  29.237  30.403  1.00  0.00     0.029 A 
ATOM     50  N   UNL A   1      45.182  28.821  29.976  1.00  0.00    -0.354 N 
ATOM     51  N   UNL A   1      42.330  29.513  29.725  1.00  0.00    -0.248 NA
ATOM     52  C   UNL A   1      40.591  31.053  29.962  1.00  0.00     0.031 C 
ATOM     53  C   UNL A   1      46.589  30.399  30.657  1.00  0.00     0.029 A 
ATOM     54  C   UNL A   1      45.256  30.145  30.372  1.00  0.00     0.049 A 
ATOM     55  H   UNL A   1      44.354  28.354  29.716  1.00  0.00     0.167 HD
ATOM     56  C   UNL A   1      42.851  30.724  30.161  1.00  0.00     0.074 A 
ATOM     57  C   UNL A   1      41.738  31.645  30.260  1.00  0.00     0.031 C 
ATOM     58  C   UNL A   1      44.135  31.045  30.454  1.00  0.00     0.037 A 
BRANCH  45  59
ATOM     59  C   UNL A   1      48.135  26.381  29.780  1.00  0.00     0.057 A 
ATOM     60  C   UNL A   1      48.590  25.757  30.951  1.00  0.00     0.134 A 
ATOM     61  C   UNL A   1      49.043  26.509  28.723  1.00  0.00     0.134 A 
ATOM     62  F   UNL A   1      47.776  25.620  32.008  1.00  0.00    -0.206 F 
ATOM     63  C   UNL A   1      49.905  25.307  31.074  1.00  0.00     0.040 A 
ATOM     64  C   UNL A   1      50.352  26.037  28.823  1.00  0.00     0.040 A 
ATOM     65  F   UNL A   1      48.671  27.094  27.573  1.00  0.00    -0.206 F 
ATOM     66  C   UNL A   1      50.788  25.440  30.005  1.00  0.00     0.006 A 
ENDBRANCH  45  59
BRANCH  46  67
ATOM     67  C   UNL A   1      38.561  29.157  29.038  1.00  0.00     0.057 A 
ATOM     68  C   UNL A   1      38.023  29.629  27.835  1.00  0.00     0.134 A 
ATOM     69  C   UNL A   1      37.708  29.094  30.145  1.00  0.00     0.134 A 
ATOM     70  F   UNL A   1      38.795  29.727  26.743  1.00  0.00    -0.206 F 
ATOM     71  C   UNL A   1      36.693  30.042  27.740  1.00  0.00     0.040 A 
ATOM     72  C   UNL A   1      36.370  29.483  30.060  1.00  0.00     0.040 A 
ATOM     73  F   UNL A   1      38.161  28.641  31.324  1.00  0.00    -0.206 F 
ATOM     74  C   UNL A   1      35.861  29.965  28.855  1.00  0.00     0.006 A 
ENDBRANCH  46  67
BRANCH  58  75
ATOM     75  C   UNL A   1      44.405  32.458  30.875  1.00  0.00     0.057 A 
ATOM     76  C   UNL A   1      44.417  32.838  32.222  1.00  0.00     0.134 A 
ATOM     77  C   UNL A   1      44.693  33.442  29.919  1.00  0.00     0.134 A 
ATOM     78  F   UNL A   1      44.136  31.944  33.183  1.00  0.00    -0.206 F 
ATOM     79  C   UNL A   1      44.684  34.153  32.605  1.00  0.00     0.040 A 
ATOM     80  C   UNL A   1      44.986  34.753  30.292  1.00  0.00     0.040 A 
ATOM     81  F   UNL A   1      44.706  33.140  28.613  1.00  0.00    -0.206 F 
ATOM     82  C   UNL A   1      44.977  35.113  31.638  1.00  0.00     0.006 A 
ENDBRANCH  58  75
ENDBRANCH  32  33
ENDBRANCH  24  27
ENDBRANCH  22  23
ENDBRANCH   1  22
TORSDOF 14
ENDMDL
MODEL 2
REMARK VINA RESULT:     -11.4      4.490      9.344
REMARK SMILES CC1=C(C)C(=O)N(C[C@H](CC(C)C)C(=O)NCCCNC(=O)c2ccc(-c3c4nc(c(-c5c(F)cccc5F)c5ccc([nH]5)c(-c5c(F)cccc5F)c5nc(c(-c6c(F)cccc6F)c6ccc3[nH]6)C=C5)C=C4)cc2)C1=O
REMARK SMILES IDX 18 1 17 2 16 3 14 4 15 5 9 7 8 8 7 9 1 10 2 11 3 12 77 13
REMARK SMILES IDX 4 14 5 15 78 16 6 17 10 18 11 19 12 20 13 21 19 22 20 23
REMARK SMILES IDX 21 24 22 26 23 27 24 28 76 29 25 30 75 31 26 32 27 33 28 34
REMARK SMILES IDX 69 35 29 36 74 37 68 38 70 39 30 40 73 41 67 42 66 43 31 45
REMARK SMILES IDX 57 46 40 47 56 48 41 49 44 50 55 51 71 52 42 53 43 54 54 56
REMARK SMILES IDX 72 57 45 58 32 59 33 60 38 61 34 62 35 63 37 64 39 65 36 66
REMARK SMILES IDX 58 67 59 68 64 69 60 70 61 71 63 72 65 73 62 74 46 75 47 76
REMARK SMILES IDX 52 77 48 78 49 79 51 80 53 81 50 82
REMARK H PARENT 16 6 20 25 70 44 44 55
REMARK Flexibility Score: inf
ROOT
ATOM      1  C   UNL A   1      31.378  31.793  26.595  1.00  0.00     0.042 C 
ENDROOT
BRANCH   1   2
ATOM      2  C   UNL A   1      31.612  30.504  25.835  1.00  0.00     0.117 C 
BRANCH   2   3
ATOM      3  N   UNL A   1      30.843  30.459  24.602  1.00  0.00    -0.356 N 
ATOM      4  C   UNL A   1      30.536  29.439  23.767  1.00  0.00     0.224 C 
ATOM      5  O   UNL A   1      29.692  29.650  22.892  1.00  0.00    -0.275 OA
ATOM      6  H   UNL A   1      30.476  31.329  24.324  1.00  0.00     0.163 HD
BRANCH   4   7
ATOM      7  C   UNL A   1      31.145  28.059  23.925  1.00  0.00     0.099 C 
BRANCH   7   8
ATOM      8  C   UNL A   1      32.629  28.094  23.441  1.00  0.00     0.142 C 
BRANCH   8   9
ATOM      9  N   UNL A   1      33.346  26.858  23.758  1.00  0.00    -0.274 N 
ATOM     10  C   UNL A   1      34.003  24.203  26.165  1.00  0.00     0.051 C 
ATOM     11  C   UNL A   1      34.016  25.039  24.943  1.00  0.00     0.023 C 
ATOM     12  C   UNL A   1      34.146  24.725  23.651  1.00  0.00     0.023 C 
ATOM     13  C   UNL A   1      33.732  26.473  24.999  1.00  0.00     0.256 C 
ATOM     14  C   UNL A   1      34.519  23.439  23.029  1.00  0.00     0.051 C 
ATOM     15  C   UNL A   1      33.722  25.906  22.865  1.00  0.00     0.256 C 
ATOM     16  O   UNL A   1      33.868  27.145  26.008  1.00  0.00    -0.269 OA
ATOM     17  O   UNL A   1      33.705  25.961  21.653  1.00  0.00    -0.269 OA
ENDBRANCH   8   9
ENDBRANCH   7   8
BRANCH   7  18
ATOM     18  C   UNL A   1      30.296  26.933  23.291  1.00  0.00     0.018 C 
BRANCH  18  19
ATOM     19  C   UNL A   1      29.925  25.698  24.165  1.00  0.00    -0.017 C 
ATOM     20  C   UNL A   1      30.551  24.355  23.782  1.00  0.00     0.007 C 
ATOM     21  C   UNL A   1      30.305  25.989  25.626  1.00  0.00     0.007 C 
ENDBRANCH  18  19
ENDBRANCH   7  18
ENDBRANCH   4   7
ENDBRANCH   2   3
ENDBRANCH   1   2
BRANCH   1  22
ATOM     22  C   UNL A   1      32.674  32.437  27.058  1.00  0.00     0.118 C 
BRANCH  22  23
ATOM     23  N   UNL A   1      32.499  33.829  27.464  1.00  0.00    -0.352 N 
ATOM     24  C   UNL A   1      33.149  34.524  28.449  1.00  0.00     0.251 C 
ATOM     25  H   UNL A   1      31.821  34.336  26.961  1.00  0.00     0.163 HD
ATOM     26  O   UNL A   1      32.770  35.636  28.795  1.00  0.00    -0.269 OA
BRANCH  24  27
ATOM     27  C   UNL A   1      34.306  33.894  29.107  1.00  0.00     0.039 A 
ATOM     28  C   UNL A   1      34.088  32.919  30.080  1.00  0.00     0.014 A 
ATOM     29  C   UNL A   1      35.603  34.238  28.714  1.00  0.00     0.014 A 
ATOM     30  C   UNL A   1      35.179  32.249  30.627  1.00  0.00     0.010 A 
ATOM     31  C   UNL A   1      36.678  33.501  29.185  1.00  0.00     0.010 A 
ATOM     32  C   UNL A   1      36.478  32.515  30.161  1.00  0.00    -0.014 A 
BRANCH  32  33
ATOM     33  C   UNL A   1      37.652  31.807  30.719  1.00  0.00     0.031 A 
ATOM     34  C   UNL A   1      38.133  32.145  32.102  1.00  0.00     0.074 A 
ATOM     35  C   UNL A   1      38.314  30.911  29.964  1.00  0.00     0.049 A 
ATOM     36  N   UNL A   1      39.169  31.685  32.753  1.00  0.00    -0.248 NA
ATOM     37  C   UNL A   1      37.368  33.166  32.839  1.00  0.00     0.031 C 
ATOM     38  C   UNL A   1      37.980  30.549  28.584  1.00  0.00     0.029 A 
ATOM     39  N   UNL A   1      39.415  30.145  30.251  1.00  0.00    -0.354 N 
ATOM     40  C   UNL A   1      39.191  32.373  33.958  1.00  0.00     0.074 A 
ATOM     41  C   UNL A   1      38.107  33.328  33.925  1.00  0.00     0.031 C 
ATOM     42  C   UNL A   1      38.837  29.607  28.158  1.00  0.00     0.029 A 
ATOM     43  C   UNL A   1      39.796  29.323  29.220  1.00  0.00     0.049 A 
ATOM     44  H   UNL A   1      39.886  30.182  31.114  1.00  0.00     0.167 HD
ATOM     45  C   UNL A   1      40.022  32.204  35.013  1.00  0.00     0.037 A 
ATOM     46  C   UNL A   1      40.805  28.434  29.147  1.00  0.00     0.037 A 
ATOM     47  C   UNL A   1      41.071  31.222  35.058  1.00  0.00     0.049 A 
ATOM     48  C   UNL A   1      41.693  28.239  30.344  1.00  0.00     0.074 A 
ATOM     49  C   UNL A   1      41.924  30.918  36.103  1.00  0.00     0.029 A 
ATOM     50  N   UNL A   1      41.403  30.379  34.007  1.00  0.00    -0.354 N 
ATOM     51  N   UNL A   1      41.658  28.844  31.507  1.00  0.00    -0.248 NA
ATOM     52  C   UNL A   1      42.752  27.229  30.224  1.00  0.00     0.031 C 
ATOM     53  C   UNL A   1      42.796  29.911  35.673  1.00  0.00     0.029 A 
ATOM     54  C   UNL A   1      42.458  29.562  34.375  1.00  0.00     0.049 A 
ATOM     55  H   UNL A   1      40.954  30.364  33.131  1.00  0.00     0.167 HD
ATOM     56  C   UNL A   1      42.671  28.272  32.265  1.00  0.00     0.074 A 
ATOM     57  C   UNL A   1      43.291  27.261  31.434  1.00  0.00     0.031 C 
ATOM     58  C   UNL A   1      43.054  28.557  33.534  1.00  0.00     0.037 A 
BRANCH  45  59
ATOM     59  C   UNL A   1      39.813  33.093  36.203  1.00  0.00     0.057 A 
ATOM     60  C   UNL A   1      38.926  32.753  37.233  1.00  0.00     0.134 A 
ATOM     61  C   UNL A   1      40.515  34.298  36.328  1.00  0.00     0.134 A 
ATOM     62  F   UNL A   1      38.209  31.620  37.166  1.00  0.00    -0.206 F 
ATOM     63  C   UNL A   1      38.722  33.592  38.329  1.00  0.00     0.040 A 
ATOM     64  C   UNL A   1      40.341  35.133  37.433  1.00  0.00     0.040 A 
ATOM     65  F   UNL A   1      41.382  34.683  35.378  1.00  0.00    -0.206 F 
ATOM     66  C   UNL A   1      39.437  34.783  38.434  1.00  0.00     0.006 A 
ENDBRANCH  45  59
BRANCH  46  67
ATOM     67  C   UNL A   1      41.001  27.633  27.914  1.00  0.00     0.057 A 
ATOM     68  C   UNL A   1      40.395  26.380  27.767  1.00  0.00     0.134 A 
ATOM     69  C   UNL A   1      41.793  28.095  26.858  1.00  0.00     0.134 A 
ATOM     70  F   UNL A   1      39.637  25.877  28.752  1.00  0.00    -0.206 F 
ATOM     71  C   UNL A   1      40.586  25.605  26.622  1.00  0.00     0.040 A 
ATOM     72  C   UNL A   1      41.976  27.341  25.697  1.00  0.00     0.040 A 
ATOM     73  F   UNL A   1      42.392  29.292  26.933  1.00  0.00    -0.206 F 
ATOM     74  C   UNL A   1      41.375  26.088  25.580  1.00  0.00     0.006 A 
ENDBRANCH  46  67
BRANCH  58  75
ATOM     75  C   UNL A   1      44.172  27.741  34.108  1.00  0.00     0.057 A 
ATOM     76  C   UNL A   1      45.501  28.178  34.066  1.00  0.00     0.134 A 
ATOM     77  C   UNL A   1      43.908  26.520  34.742  1.00  0.00     0.134 A 
ATOM     78  F   UNL A   1      45.819  29.332  33.461  1.00  0.00    -0.206 F 
ATOM     79  C   UNL A   1      46.534  27.418  34.617  1.00  0.00     0.040 A 
ATOM     80  C   UNL A   1      44.929  25.764  35.319  1.00  0.00     0.040 A 
ATOM     81  F   UNL A   1      42.655  26.050  34.824  1.00  0.00    -0.206 F 
ATOM     82  C   UNL A   1      46.248  26.210  35.251  1.00  0.00     0.006 A 
ENDBRANCH  58  75
ENDBRANCH  32  33
ENDBRANCH  24  27
ENDBRANCH  22  23
ENDBRANCH   1  22
TORSDOF 14
ENDMDL
MODEL 3
REMARK VINA RESULT:     -11.3      0.426      6.301
REMARK SMILES CC1=C(C)C(=O)N(C[C@H](CC(C)C)C(=O)NCCCNC(=O)c2ccc(-c3c4nc(c(-c5c(F)cccc5F)c5ccc([nH]5)c(-c5c(F)cccc5F)c5nc(c(-c6c(F)cccc6F)c6ccc3[nH]6)C=C5)C=C4)cc2)C1=O
REMARK SMILES IDX 18 1 17 2 16 3 14 4 15 5 9 7 8 8 7 9 1 10 2 11 3 12 77 13
REMARK SMILES IDX 4 14 5 15 78 16 6 17 10 18 11 19 12 20 13 21 19 22 20 23
REMARK SMILES IDX 21 24 22 26 23 27 24 28 76 29 25 30 75 31 26 32 27 33 28 34
REMARK SMILES IDX 69 35 29 36 74 37 68 38 70 39 30 40 73 41 67 42 66 43 31 45
REMARK SMILES IDX 57 46 40 47 56 48 41 49 44 50 55 51 71 52 42 53 43 54 54 56
REMARK SMILES IDX 72 57 45 58 32 59 33 60 38 61 34 62 35 63 37 64 39 65 36 66
REMARK SMILES IDX 58 67 59 68 64 69 60 70 61 71 63 72 65 73 62 74 46 75 47 76
REMARK SMILES IDX 52 77 48 78 49 79 51 80 53 81 50 82
REMARK H PARENT 16 6 20 25 70 44 44 55
REMARK Flexibility Score: inf
ROOT
ATOM      1  C   UNL A   1      37.799  20.279  24.739  1.00  0.00     0.042 C 
ENDROOT
BRANCH   1   2
ATOM      2  C   UNL A   1      36.493  20.964  25.087  1.00  0.00     0.117 C 
BRANCH   2   3
ATOM      3  N   UNL A   1      35.398  20.012  25.192  1.00  0.00    -0.356 N 
ATOM      4  C   UNL A   1      34.058  20.162  25.072  1.00  0.00     0.224 C 
ATOM      5  O   UNL A   1      33.371  19.138  25.010  1.00  0.00    -0.275 OA
ATOM      6  H   UNL A   1      35.683  19.089  25.383  1.00  0.00     0.163 HD
BRANCH   4   7
ATOM      7  C   UNL A   1      33.409  21.526  24.948  1.00  0.00     0.099 C 
BRANCH   7   8
ATOM      8  C   UNL A   1      33.317  22.181  26.362  1.00  0.00     0.142 C 
BRANCH   8   9
ATOM      9  N   UNL A   1      33.122  23.630  26.292  1.00  0.00    -0.274 N 
ATOM     10  C   UNL A   1      33.855  26.762  24.580  1.00  0.00     0.051 C 
ATOM     11  C   UNL A   1      33.310  25.760  25.525  1.00  0.00     0.023 C 
ATOM     12  C   UNL A   1      32.139  25.684  26.163  1.00  0.00     0.023 C 
ATOM     13  C   UNL A   1      34.028  24.520  25.816  1.00  0.00     0.256 C 
ATOM     14  C   UNL A   1      31.066  26.691  26.284  1.00  0.00     0.051 C 
ATOM     15  C   UNL A   1      32.007  24.302  26.678  1.00  0.00     0.256 C 
ATOM     16  O   UNL A   1      35.231  24.389  25.663  1.00  0.00    -0.269 OA
ATOM     17  O   UNL A   1      31.053  23.884  27.301  1.00  0.00    -0.269 OA
ENDBRANCH   8   9
ENDBRANCH   7   8
BRANCH   7  18
ATOM     18  C   UNL A   1      32.074  21.507  24.168  1.00  0.00     0.018 C 
BRANCH  18  19
ATOM     19  C   UNL A   1      31.878  22.522  23.002  1.00  0.00    -0.017 C 
ATOM     20  C   UNL A   1      30.957  23.716  23.260  1.00  0.00     0.007 C 
ATOM     21  C   UNL A   1      33.251  23.074  22.586  1.00  0.00     0.007 C 
ENDBRANCH  18  19
ENDBRANCH   7  18
ENDBRANCH   4   7
ENDBRANCH   2   3
ENDBRANCH   1   2
BRANCH   1  22
ATOM     22  C   UNL A   1      38.892  20.566  25.755  1.00  0.00     0.118 C 
BRANCH  22  23
ATOM     23  N   UNL A   1      39.898  19.509  25.815  1.00  0.00    -0.352 N 
ATOM     24  C   UNL A   1      41.229  19.607  26.123  1.00  0.00     0.251 C 
ATOM     25  H   UNL A   1      39.575  18.602  25.605  1.00  0.00     0.163 HD
ATOM     26  O   UNL A   1      41.989  18.661  25.958  1.00  0.00    -0.269 OA
BRANCH  24  27
ATOM     27  C   UNL A   1      41.738  20.890  26.637  1.00  0.00     0.039 A 
ATOM     28  C   UNL A   1      42.187  21.854  25.735  1.00  0.00     0.014 A 
ATOM     29  C   UNL A   1      41.717  21.146  28.011  1.00  0.00     0.014 A 
ATOM     30  C   UNL A   1      42.570  23.105  26.213  1.00  0.00     0.010 A 
ATOM     31  C   UNL A   1      42.002  22.422  28.472  1.00  0.00     0.010 A 
ATOM     32  C   UNL A   1      42.452  23.406  27.580  1.00  0.00    -0.014 A 
BRANCH  32  33
ATOM     33  C   UNL A   1      42.842  24.732  28.109  1.00  0.00     0.031 A 
ATOM     34  C   UNL A   1      41.788  25.780  28.333  1.00  0.00     0.074 A 
ATOM     35  C   UNL A   1      44.140  25.009  28.329  1.00  0.00     0.049 A 
ATOM     36  N   UNL A   1      41.923  27.016  28.735  1.00  0.00    -0.248 NA
ATOM     37  C   UNL A   1      40.397  25.399  28.027  1.00  0.00     0.031 C 
ATOM     38  C   UNL A   1      45.258  24.094  28.087  1.00  0.00     0.029 A 
ATOM     39  N   UNL A   1      44.740  26.148  28.803  1.00  0.00    -0.354 N 
ATOM     40  C   UNL A   1      40.647  27.562  28.708  1.00  0.00     0.074 A 
ATOM     41  C   UNL A   1      39.759  26.546  28.190  1.00  0.00     0.031 C 
ATOM     42  C   UNL A   1      46.404  24.696  28.445  1.00  0.00     0.029 A 
ATOM     43  C   UNL A   1      46.104  26.046  28.911  1.00  0.00     0.049 A 
ATOM     44  H   UNL A   1      44.238  26.961  29.042  1.00  0.00     0.167 HD
ATOM     45  C   UNL A   1      40.244  28.789  29.110  1.00  0.00     0.037 A 
ATOM     46  C   UNL A   1      47.009  26.943  29.346  1.00  0.00     0.037 A 
ATOM     47  C   UNL A   1      41.124  29.780  29.667  1.00  0.00     0.049 A 
ATOM     48  C   UNL A   1      46.533  28.288  29.820  1.00  0.00     0.074 A 
ATOM     49  C   UNL A   1      40.809  31.028  30.172  1.00  0.00     0.029 A 
ATOM     50  N   UNL A   1      42.496  29.626  29.797  1.00  0.00    -0.354 N 
ATOM     51  N   UNL A   1      45.313  28.766  29.859  1.00  0.00    -0.248 NA
ATOM     52  C   UNL A   1      47.557  29.213  30.322  1.00  0.00     0.031 C 
ATOM     53  C   UNL A   1      41.998  31.645  30.579  1.00  0.00     0.029 A 
ATOM     54  C   UNL A   1      43.046  30.764  30.364  1.00  0.00     0.049 A 
ATOM     55  H   UNL A   1      43.004  28.827  29.528  1.00  0.00     0.167 HD
ATOM     56  C   UNL A   1      45.419  30.036  30.412  1.00  0.00     0.074 A 
ATOM     57  C   UNL A   1      46.821  30.246  30.706  1.00  0.00     0.031 C 
ATOM     58  C   UNL A   1      44.444  30.946  30.655  1.00  0.00     0.037 A 
BRANCH  45  59
ATOM     59  C   UNL A   1      38.786  29.115  28.971  1.00  0.00     0.057 A 
ATOM     60  C   UNL A   1      38.235  29.529  27.750  1.00  0.00     0.134 A 
ATOM     61  C   UNL A   1      37.919  29.001  30.064  1.00  0.00     0.134 A 
ATOM     62  F   UNL A   1      39.015  29.676  26.668  1.00  0.00    -0.206 F 
ATOM     63  C   UNL A   1      36.882  29.848  27.630  1.00  0.00     0.040 A 
ATOM     64  C   UNL A   1      36.558  29.289  29.949  1.00  0.00     0.040 A 
ATOM     65  F   UNL A   1      38.380  28.606  31.261  1.00  0.00    -0.206 F 
ATOM     66  C   UNL A   1      36.038  29.721  28.731  1.00  0.00     0.006 A 
ENDBRANCH  45  59
BRANCH  46  67
ATOM     67  C   UNL A   1      48.447  26.583  29.395  1.00  0.00     0.057 A 
ATOM     68  C   UNL A   1      49.306  26.912  28.340  1.00  0.00     0.134 A 
ATOM     69  C   UNL A   1      48.997  25.905  30.488  1.00  0.00     0.134 A 
ATOM     70  F   UNL A   1      48.834  27.548  27.258  1.00  0.00    -0.206 F 
ATOM     71  C   UNL A   1      50.657  26.563  28.361  1.00  0.00     0.040 A 
ATOM     72  C   UNL A   1      50.351  25.569  30.534  1.00  0.00     0.040 A 
ATOM     73  F   UNL A   1      48.228  25.572  31.535  1.00  0.00    -0.206 F 
ATOM     74  C   UNL A   1      51.184  25.893  29.464  1.00  0.00     0.006 A 
ENDBRANCH  46  67
BRANCH  58  75
ATOM     75  C   UNL A   1      44.859  32.235  31.299  1.00  0.00     0.057 A 
ATOM     76  C   UNL A   1      44.912  32.381  32.690  1.00  0.00     0.134 A 
ATOM     77  C   UNL A   1      45.246  33.329  30.514  1.00  0.00     0.134 A 
ATOM     78  F   UNL A   1      44.542  31.372  33.494  1.00  0.00    -0.206 F 
ATOM     79  C   UNL A   1      45.314  33.580  33.280  1.00  0.00     0.040 A 
ATOM     80  C   UNL A   1      45.674  34.523  31.093  1.00  0.00     0.040 A 
ATOM     81  F   UNL A   1      45.226  33.250  29.176  1.00  0.00    -0.206 F 
ATOM     82  C   UNL A   1      45.703  34.653  32.481  1.00  0.00     0.006 A 
ENDBRANCH  58  75
ENDBRANCH  32  33
ENDBRANCH  24  27
ENDBRANCH  22  23
ENDBRANCH   1  22
TORSDOF 14
ENDMDL
