MODEL 1
REMARK VINA RESULT:     -11.6      0.000      0.000
REMARK SMILES NC(=O)C[C@H](NC(=O)c1cccc2[nH]ccc12)C(=O)NCCCNC(=O)c1ccc(-c2c3nc(c(-c4c(F)cccc4F)c4ccc([nH]4)c(-c4c(F)cccc4F)c4nc(c(-c5c(F)cccc5F)c5ccc2[nH]5)C=C4)C=C3)cc1
REMARK SMILES IDX 22 1 21 2 20 3 18 4 19 5 5 7 4 8 2 9 1 10 3 13 6 14 7 15
REMARK SMILES IDX 8 17 9 18 10 19 17 20 11 21 13 22 16 23 12 24 14 25 15 26
REMARK SMILES IDX 23 28 24 29 25 30 26 32 27 33 28 34 80 35 29 36 79 37 30 38
REMARK SMILES IDX 31 39 32 40 73 41 33 42 78 43 72 44 74 45 34 46 77 47 71 48
REMARK SMILES IDX 70 49 35 51 61 52 44 53 60 54 45 55 48 56 59 57 75 58 46 59
REMARK SMILES IDX 47 60 58 62 76 63 49 64 36 65 37 66 42 67 38 68 39 69 41 70
REMARK SMILES IDX 43 71 40 72 62 73 63 74 68 75 64 76 65 77 67 78 69 79 66 80
REMARK SMILES IDX 50 81 51 82 56 83 52 84 53 85 55 86 57 87 54 88
REMARK H PARENT 20 6 1 11 1 12 6 16 14 27 24 31 74 50 48 61
REMARK Flexibility Score: inf
ROOT
ATOM      1  C   UNL A   1      33.649  28.400  25.653  1.00  0.00     0.042 C 
ENDROOT
BRANCH   1   2
ATOM      2  C   UNL A   1      33.120  27.051  25.186  1.00  0.00     0.117 C 
BRANCH   2   3
ATOM      3  N   UNL A   1      33.600  25.969  26.023  1.00  0.00    -0.354 N 
ATOM      4  C   UNL A   1      33.191  24.671  26.089  1.00  0.00     0.243 C 
ATOM      5  O   UNL A   1      33.803  23.915  26.851  1.00  0.00    -0.273 OA
ATOM      6  H   UNL A   1      34.332  26.207  26.635  1.00  0.00     0.163 HD
BRANCH   4   7
ATOM      7  C   UNL A   1      32.119  24.107  25.133  1.00  0.00     0.180 C 
BRANCH   7   8
ATOM      8  C   UNL A   1      31.381  23.005  25.898  1.00  0.00     0.134 C 
BRANCH   8   9
ATOM      9  C   UNL A   1      30.171  23.469  26.682  1.00  0.00     0.220 C 
ATOM     10  N   UNL A   1      29.345  22.521  27.198  1.00  0.00    -0.370 N 
ATOM     11  H   UNL A   1      28.550  22.789  27.713  1.00  0.00     0.159 HD
ATOM     12  H   UNL A   1      29.542  21.567  27.057  1.00  0.00     0.159 HD
ATOM     13  O   UNL A   1      29.870  24.654  26.799  1.00  0.00    -0.275 OA
ENDBRANCH   8   9
ENDBRANCH   7   8
BRANCH   7  14
ATOM     14  N   UNL A   1      32.657  23.940  23.763  1.00  0.00    -0.340 N 
ATOM     15  C   UNL A   1      33.784  23.496  23.126  1.00  0.00     0.252 C 
ATOM     16  H   UNL A   1      31.993  24.243  23.102  1.00  0.00     0.164 HD
ATOM     17  O   UNL A   1      33.910  23.780  21.936  1.00  0.00    -0.269 OA
BRANCH  15  18
ATOM     18  C   UNL A   1      34.840  22.725  23.797  1.00  0.00     0.049 A 
ATOM     19  C   UNL A   1      36.083  23.306  24.063  1.00  0.00     0.014 A 
ATOM     20  C   UNL A   1      34.588  21.411  24.258  1.00  0.00     0.012 A 
ATOM     21  C   UNL A   1      37.131  22.542  24.572  1.00  0.00     0.003 A 
ATOM     22  C   UNL A   1      35.655  20.677  24.785  1.00  0.00     0.046 A 
ATOM     23  C   UNL A   1      33.438  20.570  24.345  1.00  0.00     0.029 A 
ATOM     24  C   UNL A   1      36.947  21.200  24.905  1.00  0.00     0.027 A 
ATOM     25  N   UNL A   1      35.171  19.433  25.127  1.00  0.00    -0.361 N 
ATOM     26  C   UNL A   1      33.824  19.372  24.898  1.00  0.00     0.083 A 
ATOM     27  H   UNL A   1      35.716  18.696  25.485  1.00  0.00     0.166 HD
ENDBRANCH  15  18
ENDBRANCH   7  14
ENDBRANCH   4   7
ENDBRANCH   2   3
ENDBRANCH   1   2
BRANCH   1  28
ATOM     28  C   UNL A   1      33.716  28.533  27.172  1.00  0.00     0.118 C 
BRANCH  28  29
ATOM     29  N   UNL A   1      33.701  29.924  27.610  1.00  0.00    -0.352 N 
ATOM     30  C   UNL A   1      34.644  30.650  28.290  1.00  0.00     0.251 C 
ATOM     31  H   UNL A   1      32.882  30.422  27.379  1.00  0.00     0.163 HD
ATOM     32  O   UNL A   1      34.348  31.757  28.739  1.00  0.00    -0.269 OA
BRANCH  30  33
ATOM     33  C   UNL A   1      36.004  30.115  28.499  1.00  0.00     0.039 A 
ATOM     34  C   UNL A   1      36.919  30.165  27.444  1.00  0.00     0.014 A 
ATOM     35  C   UNL A   1      36.375  29.535  29.716  1.00  0.00     0.014 A 
ATOM     36  C   UNL A   1      38.221  29.697  27.628  1.00  0.00     0.010 A 
ATOM     37  C   UNL A   1      37.694  29.141  29.924  1.00  0.00     0.010 A 
ATOM     38  C   UNL A   1      38.631  29.215  28.883  1.00  0.00    -0.014 A 
BRANCH  38  39
ATOM     39  C   UNL A   1      40.037  28.803  29.128  1.00  0.00     0.031 A 
ATOM     40  C   UNL A   1      41.020  29.771  29.729  1.00  0.00     0.074 A 
ATOM     41  C   UNL A   1      40.448  27.580  28.739  1.00  0.00     0.049 A 
ATOM     42  N   UNL A   1      42.303  29.622  29.940  1.00  0.00    -0.248 NA
ATOM     43  C   UNL A   1      40.498  31.089  30.122  1.00  0.00     0.031 C 
ATOM     44  C   UNL A   1      39.606  26.569  28.096  1.00  0.00     0.029 A 
ATOM     45  N   UNL A   1      41.684  26.985  28.808  1.00  0.00    -0.354 N 
ATOM     46  C   UNL A   1      42.744  30.830  30.465  1.00  0.00     0.074 A 
ATOM     47  C   UNL A   1      41.601  31.717  30.504  1.00  0.00     0.031 C 
ATOM     48  C   UNL A   1      40.345  25.477  27.841  1.00  0.00     0.029 A 
ATOM     49  C   UNL A   1      41.721  25.725  28.261  1.00  0.00     0.049 A 
ATOM     50  H   UNL A   1      42.470  27.421  29.211  1.00  0.00     0.167 HD
ATOM     51  C   UNL A   1      43.985  31.163  30.891  1.00  0.00     0.037 A 
ATOM     52  C   UNL A   1      42.749  24.871  28.098  1.00  0.00     0.037 A 
ATOM     53  C   UNL A   1      45.113  30.269  30.879  1.00  0.00     0.049 A 
ATOM     54  C   UNL A   1      44.116  25.268  28.582  1.00  0.00     0.074 A 
ATOM     55  C   UNL A   1      46.390  30.487  31.367  1.00  0.00     0.029 A 
ATOM     56  N   UNL A   1      45.103  28.990  30.345  1.00  0.00    -0.354 N 
ATOM     57  N   UNL A   1      44.499  26.381  29.158  1.00  0.00    -0.248 NA
ATOM     58  C   UNL A   1      45.196  24.288  28.400  1.00  0.00     0.031 C 
ATOM     59  C   UNL A   1      47.167  29.364  31.075  1.00  0.00     0.029 A 
ATOM     60  C   UNL A   1      46.360  28.420  30.462  1.00  0.00     0.049 A 
ATOM     61  H   UNL A   1      44.318  28.551  29.942  1.00  0.00     0.167 HD
ATOM     62  C   UNL A   1      45.851  26.224  29.433  1.00  0.00     0.074 A 
ATOM     63  C   UNL A   1      46.219  24.900  28.976  1.00  0.00     0.031 C 
ATOM     64  C   UNL A   1      46.711  27.097  30.012  1.00  0.00     0.037 A 
BRANCH  51  65
ATOM     65  C   UNL A   1      44.200  32.559  31.406  1.00  0.00     0.057 A 
ATOM     66  C   UNL A   1      44.547  33.618  30.558  1.00  0.00     0.134 A 
ATOM     67  C   UNL A   1      43.992  32.857  32.759  1.00  0.00     0.134 A 
ATOM     68  F   UNL A   1      44.770  33.400  29.253  1.00  0.00    -0.206 F 
ATOM     69  C   UNL A   1      44.701  34.920  31.041  1.00  0.00     0.040 A 
ATOM     70  C   UNL A   1      44.113  34.159  33.248  1.00  0.00     0.040 A 
ATOM     71  F   UNL A   1      43.649  31.892  33.625  1.00  0.00    -0.206 F 
ATOM     72  C   UNL A   1      44.474  35.194  32.387  1.00  0.00     0.006 A 
ENDBRANCH  51  65
BRANCH  52  73
ATOM     73  C   UNL A   1      42.531  23.555  27.442  1.00  0.00     0.057 A 
ATOM     74  C   UNL A   1      42.640  23.409  26.053  1.00  0.00     0.134 A 
ATOM     75  C   UNL A   1      42.183  22.420  28.183  1.00  0.00     0.134 A 
ATOM     76  F   UNL A   1      42.951  24.465  25.286  1.00  0.00    -0.206 F 
ATOM     77  C   UNL A   1      42.383  22.190  25.424  1.00  0.00     0.040 A 
ATOM     78  C   UNL A   1      41.954  21.187  27.569  1.00  0.00     0.040 A 
ATOM     79  F   UNL A   1      42.071  22.489  29.517  1.00  0.00    -0.206 F 
ATOM     80  C   UNL A   1      42.043  21.073  26.184  1.00  0.00     0.006 A 
ENDBRANCH  52  73
BRANCH  64  81
ATOM     81  C   UNL A   1      48.124  26.636  30.224  1.00  0.00     0.057 A 
ATOM     82  C   UNL A   1      48.511  25.924  31.367  1.00  0.00     0.134 A 
ATOM     83  C   UNL A   1      49.102  26.871  29.248  1.00  0.00     0.134 A 
ATOM     84  F   UNL A   1      47.626  25.677  32.346  1.00  0.00    -0.206 F 
ATOM     85  C   UNL A   1      49.823  25.483  31.541  1.00  0.00     0.040 A 
ATOM     86  C   UNL A   1      50.409  26.408  29.397  1.00  0.00     0.040 A 
ATOM     87  F   UNL A   1      48.797  27.538  28.124  1.00  0.00    -0.206 F 
ATOM     88  C   UNL A   1      50.775  25.718  30.550  1.00  0.00     0.006 A 
ENDBRANCH  64  81
ENDBRANCH  38  39
ENDBRANCH  30  33
ENDBRANCH  28  29
ENDBRANCH   1  28
TORSDOF 14
ENDMDL
MODEL 2
REMARK VINA RESULT:     -11.6      2.070      7.324
REMARK SMILES NC(=O)C[C@H](NC(=O)c1cccc2[nH]ccc12)C(=O)NCCCNC(=O)c1ccc(-c2c3nc(c(-c4c(F)cccc4F)c4ccc([nH]4)c(-c4c(F)cccc4F)c4nc(c(-c5c(F)cccc5F)c5ccc2[nH]5)C=C4)C=C3)cc1
REMARK SMILES IDX 22 1 21 2 20 3 18 4 19 5 5 7 4 8 2 9 1 10 3 13 6 14 7 15
REMARK SMILES IDX 8 17 9 18 10 19 17 20 11 21 13 22 16 23 12 24 14 25 15 26
REMARK SMILES IDX 23 28 24 29 25 30 26 32 27 33 28 34 80 35 29 36 79 37 30 38
REMARK SMILES IDX 31 39 32 40 73 41 33 42 78 43 72 44 74 45 34 46 77 47 71 48
REMARK SMILES IDX 70 49 35 51 61 52 44 53 60 54 45 55 48 56 59 57 75 58 46 59
REMARK SMILES IDX 47 60 58 62 76 63 49 64 36 65 37 66 42 67 38 68 39 69 41 70
REMARK SMILES IDX 43 71 40 72 62 73 63 74 68 75 64 76 65 77 67 78 69 79 66 80
REMARK SMILES IDX 50 81 51 82 56 83 52 84 53 85 55 86 57 87 54 88
REMARK H PARENT 20 6 1 11 1 12 6 16 14 27 24 31 74 50 48 61
REMARK Flexibility Score: inf
ROOT
ATOM      1  C   UNL A   1      38.090  19.802  24.912  1.00  0.00     0.042 C 
ENDROOT
BRANCH   1   2
ATOM      2  C   UNL A   1      37.173  20.989  24.646  1.00  0.00     0.117 C 
BRANCH   2   3
ATOM      3  N   UNL A   1      36.412  21.351  25.826  1.00  0.00    -0.354 N 
ATOM      4  C   UNL A   1      35.064  21.446  25.999  1.00  0.00     0.243 C 
ATOM      5  O   UNL A   1      34.649  21.720  27.130  1.00  0.00    -0.273 OA
ATOM      6  H   UNL A   1      36.951  21.560  26.622  1.00  0.00     0.163 HD
BRANCH   4   7
ATOM      7  C   UNL A   1      34.073  21.062  24.881  1.00  0.00     0.180 C 
BRANCH   7   8
ATOM      8  C   UNL A   1      34.112  19.536  24.763  1.00  0.00     0.134 C 
BRANCH   8   9
ATOM      9  C   UNL A   1      32.886  18.820  25.290  1.00  0.00     0.220 C 
ATOM     10  N   UNL A   1      32.823  18.561  26.623  1.00  0.00    -0.370 N 
ATOM     11  H   UNL A   1      32.040  18.097  26.998  1.00  0.00     0.159 HD
ATOM     12  H   UNL A   1      33.561  18.838  27.213  1.00  0.00     0.159 HD
ATOM     13  O   UNL A   1      31.996  18.399  24.556  1.00  0.00    -0.275 OA
ENDBRANCH   8   9
ENDBRANCH   7   8
BRANCH   7  14
ATOM     14  N   UNL A   1      34.184  21.981  23.726  1.00  0.00    -0.340 N 
ATOM     15  C   UNL A   1      33.867  23.264  23.373  1.00  0.00     0.252 C 
ATOM     16  H   UNL A   1      34.628  21.524  22.974  1.00  0.00     0.164 HD
ATOM     17  O   UNL A   1      33.918  23.551  22.177  1.00  0.00    -0.269 OA
BRANCH  15  18
ATOM     18  C   UNL A   1      33.457  24.290  24.341  1.00  0.00     0.049 A 
ATOM     19  C   UNL A   1      34.140  25.507  24.418  1.00  0.00     0.014 A 
ATOM     20  C   UNL A   1      32.314  24.096  25.154  1.00  0.00     0.012 A 
ATOM     21  C   UNL A   1      33.847  26.425  25.424  1.00  0.00     0.003 A 
ATOM     22  C   UNL A   1      32.033  25.047  26.140  1.00  0.00     0.046 A 
ATOM     23  C   UNL A   1      31.283  23.113  25.235  1.00  0.00     0.029 A 
ATOM     24  C   UNL A   1      32.811  26.193  26.330  1.00  0.00     0.027 A 
ATOM     25  N   UNL A   1      30.907  24.623  26.812  1.00  0.00    -0.361 N 
ATOM     26  C   UNL A   1      30.426  23.473  26.248  1.00  0.00     0.083 A 
ATOM     27  H   UNL A   1      30.507  25.082  27.586  1.00  0.00     0.166 HD
ENDBRANCH  15  18
ENDBRANCH   7  14
ENDBRANCH   4   7
ENDBRANCH   2   3
ENDBRANCH   1   2
BRANCH   1  28
ATOM     28  C   UNL A   1      39.109  20.059  26.019  1.00  0.00     0.118 C 
BRANCH  28  29
ATOM     29  N   UNL A   1      40.315  19.255  25.862  1.00  0.00    -0.352 N 
ATOM     30  C   UNL A   1      41.636  19.610  25.956  1.00  0.00     0.251 C 
ATOM     31  H   UNL A   1      40.155  18.304  25.658  1.00  0.00     0.163 HD
ATOM     32  O   UNL A   1      42.504  18.817  25.588  1.00  0.00    -0.269 OA
BRANCH  30  33
ATOM     33  C   UNL A   1      42.029  20.933  26.480  1.00  0.00     0.039 A 
ATOM     34  C   UNL A   1      42.405  21.931  25.577  1.00  0.00     0.014 A 
ATOM     35  C   UNL A   1      42.061  21.188  27.853  1.00  0.00     0.014 A 
ATOM     36  C   UNL A   1      42.748  23.201  26.045  1.00  0.00     0.010 A 
ATOM     37  C   UNL A   1      42.326  22.474  28.315  1.00  0.00     0.010 A 
ATOM     38  C   UNL A   1      42.674  23.494  27.417  1.00  0.00    -0.014 A 
BRANCH  38  39
ATOM     39  C   UNL A   1      42.940  24.864  27.927  1.00  0.00     0.031 A 
ATOM     40  C   UNL A   1      44.329  25.261  28.350  1.00  0.00     0.074 A 
ATOM     41  C   UNL A   1      41.917  25.727  28.080  1.00  0.00     0.049 A 
ATOM     42  N   UNL A   1      44.739  26.378  28.896  1.00  0.00    -0.248 NA
ATOM     43  C   UNL A   1      45.393  24.263  28.159  1.00  0.00     0.031 C 
ATOM     44  C   UNL A   1      40.516  25.444  27.757  1.00  0.00     0.029 A 
ATOM     45  N   UNL A   1      41.891  27.011  28.565  1.00  0.00    -0.354 N 
ATOM     46  C   UNL A   1      46.097  26.208  29.134  1.00  0.00     0.074 A 
ATOM     47  C   UNL A   1      46.435  24.866  28.712  1.00  0.00     0.031 C 
ATOM     48  C   UNL A   1      39.772  26.525  28.040  1.00  0.00     0.029 A 
ATOM     49  C   UNL A   1      40.632  27.560  28.606  1.00  0.00     0.049 A 
ATOM     50  H   UNL A   1      42.699  27.493  28.857  1.00  0.00     0.167 HD
ATOM     51  C   UNL A   1      46.983  27.097  29.643  1.00  0.00     0.037 A 
ATOM     52  C   UNL A   1      40.212  28.754  29.065  1.00  0.00     0.037 A 
ATOM     53  C   UNL A   1      46.648  28.441  30.033  1.00  0.00     0.049 A 
ATOM     54  C   UNL A   1      41.220  29.721  29.624  1.00  0.00     0.074 A 
ATOM     55  C   UNL A   1      47.492  29.443  30.481  1.00  0.00     0.029 A 
ATOM     56  N   UNL A   1      45.367  28.970  30.031  1.00  0.00    -0.354 N 
ATOM     57  N   UNL A   1      42.515  29.579  29.760  1.00  0.00    -0.248 NA
ATOM     58  C   UNL A   1      40.709  31.019  30.087  1.00  0.00     0.031 C 
ATOM     59  C   UNL A   1      46.715  30.557  30.806  1.00  0.00     0.029 A 
ATOM     60  C   UNL A   1      45.394  30.273  30.502  1.00  0.00     0.049 A 
ATOM     61  H   UNL A   1      44.557  28.491  29.739  1.00  0.00     0.167 HD
ATOM     62  C   UNL A   1      42.976  30.774  30.296  1.00  0.00     0.074 A 
ATOM     63  C   UNL A   1      41.824  31.638  30.443  1.00  0.00     0.031 C 
ATOM     64  C   UNL A   1      44.242  31.126  30.634  1.00  0.00     0.037 A 
BRANCH  51  65
ATOM     65  C   UNL A   1      48.407  26.648  29.814  1.00  0.00     0.057 A 
ATOM     66  C   UNL A   1      48.832  25.945  30.949  1.00  0.00     0.134 A 
ATOM     67  C   UNL A   1      49.348  26.866  28.800  1.00  0.00     0.134 A 
ATOM     68  F   UNL A   1      47.985  25.711  31.962  1.00  0.00    -0.206 F 
ATOM     69  C   UNL A   1      50.148  25.494  31.078  1.00  0.00     0.040 A 
ATOM     70  C   UNL A   1      50.658  26.395  28.904  1.00  0.00     0.040 A 
ATOM     71  F   UNL A   1      49.006  27.525  27.683  1.00  0.00    -0.206 F 
ATOM     72  C   UNL A   1      51.062  25.710  30.049  1.00  0.00     0.006 A 
ENDBRANCH  51  65
BRANCH  52  73
ATOM     73  C   UNL A   1      38.769  29.106  29.022  1.00  0.00     0.057 A 
ATOM     74  C   UNL A   1      38.173  29.587  27.849  1.00  0.00     0.134 A 
ATOM     75  C   UNL A   1      37.957  28.997  30.157  1.00  0.00     0.134 A 
ATOM     76  F   UNL A   1      38.903  29.732  26.733  1.00  0.00    -0.206 F 
ATOM     77  C   UNL A   1      36.832  29.972  27.815  1.00  0.00     0.040 A 
ATOM     78  C   UNL A   1      36.607  29.349  30.128  1.00  0.00     0.040 A 
ATOM     79  F   UNL A   1      38.463  28.536  31.310  1.00  0.00    -0.206 F 
ATOM     80  C   UNL A   1      36.043  29.849  28.957  1.00  0.00     0.006 A 
ENDBRANCH  52  73
BRANCH  64  81
ATOM     81  C   UNL A   1      44.454  32.517  31.158  1.00  0.00     0.057 A 
ATOM     82  C   UNL A   1      44.432  32.806  32.529  1.00  0.00     0.134 A 
ATOM     83  C   UNL A   1      44.729  33.573  30.280  1.00  0.00     0.134 A 
ATOM     84  F   UNL A   1      44.162  31.843  33.424  1.00  0.00    -0.206 F 
ATOM     85  C   UNL A   1      44.653  34.099  33.004  1.00  0.00     0.040 A 
ATOM     86  C   UNL A   1      44.981  34.863  30.745  1.00  0.00     0.040 A 
ATOM     87  F   UNL A   1      44.776  33.363  28.955  1.00  0.00    -0.206 F 
ATOM     88  C   UNL A   1      44.936  35.131  32.111  1.00  0.00     0.006 A 
ENDBRANCH  64  81
ENDBRANCH  38  39
ENDBRANCH  30  33
ENDBRANCH  28  29
ENDBRANCH   1  28
TORSDOF 14
ENDMDL
MODEL 3
REMARK VINA RESULT:     -11.6      4.194      8.288
REMARK SMILES NC(=O)C[C@H](NC(=O)c1cccc2[nH]ccc12)C(=O)NCCCNC(=O)c1ccc(-c2c3nc(c(-c4c(F)cccc4F)c4ccc([nH]4)c(-c4c(F)cccc4F)c4nc(c(-c5c(F)cccc5F)c5ccc2[nH]5)C=C4)C=C3)cc1
REMARK SMILES IDX 22 1 21 2 20 3 18 4 19 5 5 7 4 8 2 9 1 10 3 13 6 14 7 15
REMARK SMILES IDX 8 17 9 18 10 19 17 20 11 21 13 22 16 23 12 24 14 25 15 26
REMARK SMILES IDX 23 28 24 29 25 30 26 32 27 33 28 34 80 35 29 36 79 37 30 38
REMARK SMILES IDX 31 39 32 40 73 41 33 42 78 43 72 44 74 45 34 46 77 47 71 48
REMARK SMILES IDX 70 49 35 51 61 52 44 53 60 54 45 55 48 56 59 57 75 58 46 59
REMARK SMILES IDX 47 60 58 62 76 63 49 64 36 65 37 66 42 67 38 68 39 69 41 70
REMARK SMILES IDX 43 71 40 72 62 73 63 74 68 75 64 76 65 77 67 78 69 79 66 80
REMARK SMILES IDX 50 81 51 82 56 83 52 84 53 85 55 86 57 87 54 88
REMARK H PARENT 20 6 1 11 1 12 6 16 14 27 24 31 74 50 48 61
REMARK Flexibility Score: inf
ROOT
ATOM      1  C   UNL A   1      31.211  31.898  26.492  1.00  0.00     0.042 C 
ENDROOT
BRANCH   1   2
ATOM      2  C   UNL A   1      31.432  30.625  25.685  1.00  0.00     0.117 C 
BRANCH   2   3
ATOM      3  N   UNL A   1      32.469  29.797  26.267  1.00  0.00    -0.354 N 
ATOM      4  C   UNL A   1      32.578  28.440  26.314  1.00  0.00     0.243 C 
ATOM      5  O   UNL A   1      33.599  27.963  26.820  1.00  0.00    -0.273 OA
ATOM      6  H   UNL A   1      33.207  30.289  26.693  1.00  0.00     0.163 HD
BRANCH   4   7
ATOM      7  C   UNL A   1      31.557  27.519  25.613  1.00  0.00     0.180 C 
BRANCH   7   8
ATOM      8  C   UNL A   1      31.289  26.352  26.567  1.00  0.00     0.134 C 
BRANCH   8   9
ATOM      9  C   UNL A   1      30.689  25.120  25.922  1.00  0.00     0.220 C 
ATOM     10  N   UNL A   1      29.730  24.444  26.608  1.00  0.00    -0.370 N 
ATOM     11  H   UNL A   1      29.320  23.639  26.216  1.00  0.00     0.159 HD
ATOM     12  H   UNL A   1      29.446  24.760  27.496  1.00  0.00     0.159 HD
ATOM     13  O   UNL A   1      31.089  24.671  24.851  1.00  0.00    -0.275 OA
ENDBRANCH   8   9
ENDBRANCH   7   8
BRANCH   7  14
ATOM     14  N   UNL A   1      31.882  27.352  24.178  1.00  0.00    -0.340 N 
ATOM     15  C   UNL A   1      31.326  27.563  22.946  1.00  0.00     0.252 C 
ATOM     16  H   UNL A   1      32.783  26.967  24.080  1.00  0.00     0.164 HD
ATOM     17  O   UNL A   1      31.868  27.025  21.981  1.00  0.00    -0.269 OA
BRANCH  15  18
ATOM     18  C   UNL A   1      30.120  28.376  22.733  1.00  0.00     0.049 A 
ATOM     19  C   UNL A   1      30.190  29.575  22.019  1.00  0.00     0.014 A 
ATOM     20  C   UNL A   1      28.857  27.917  23.176  1.00  0.00     0.012 A 
ATOM     21  C   UNL A   1      29.083  30.416  21.932  1.00  0.00     0.003 A 
ATOM     22  C   UNL A   1      27.760  28.776  23.055  1.00  0.00     0.046 A 
ATOM     23  C   UNL A   1      28.362  26.709  23.752  1.00  0.00     0.029 A 
ATOM     24  C   UNL A   1      27.855  30.049  22.484  1.00  0.00     0.027 A 
ATOM     25  N   UNL A   1      26.665  28.124  23.580  1.00  0.00    -0.361 N 
ATOM     26  C   UNL A   1      27.012  26.859  23.971  1.00  0.00     0.083 A 
ATOM     27  H   UNL A   1      25.765  28.512  23.662  1.00  0.00     0.166 HD
ENDBRANCH  15  18
ENDBRANCH   7  14
ENDBRANCH   4   7
ENDBRANCH   2   3
ENDBRANCH   1   2
BRANCH   1  28
ATOM     28  C   UNL A   1      32.481  32.428  27.150  1.00  0.00     0.118 C 
BRANCH  28  29
ATOM     29  N   UNL A   1      32.386  33.845  27.483  1.00  0.00    -0.352 N 
ATOM     30  C   UNL A   1      33.076  34.587  28.406  1.00  0.00     0.251 C 
ATOM     31  H   UNL A   1      31.720  34.349  26.961  1.00  0.00     0.163 HD
ATOM     32  O   UNL A   1      32.699  35.729  28.669  1.00  0.00    -0.269 OA
BRANCH  30  33
ATOM     33  C   UNL A   1      34.256  34.029  29.097  1.00  0.00     0.039 A 
ATOM     34  C   UNL A   1      34.060  33.108  30.130  1.00  0.00     0.014 A 
ATOM     35  C   UNL A   1      35.550  34.430  28.757  1.00  0.00     0.014 A 
ATOM     36  C   UNL A   1      35.160  32.541  30.775  1.00  0.00     0.010 A 
ATOM     37  C   UNL A   1      36.648  33.807  29.345  1.00  0.00     0.010 A 
ATOM     38  C   UNL A   1      36.465  32.857  30.362  1.00  0.00    -0.014 A 
BRANCH  38  39
ATOM     39  C   UNL A   1      37.648  32.193  30.969  1.00  0.00     0.031 A 
ATOM     40  C   UNL A   1      38.369  31.100  30.228  1.00  0.00     0.074 A 
ATOM     41  C   UNL A   1      38.026  32.523  32.219  1.00  0.00     0.049 A 
ATOM     42  N   UNL A   1      39.364  30.349  30.627  1.00  0.00    -0.248 NA
ATOM     43  C   UNL A   1      37.894  30.792  28.870  1.00  0.00     0.031 C 
ATOM     44  C   UNL A   1      37.376  33.529  33.063  1.00  0.00     0.029 A 
ATOM     45  N   UNL A   1      39.037  32.033  33.009  1.00  0.00    -0.354 N 
ATOM     46  C   UNL A   1      39.617  29.468  29.583  1.00  0.00     0.074 A 
ATOM     47  C   UNL A   1      38.645  29.749  28.548  1.00  0.00     0.031 C 
ATOM     48  C   UNL A   1      38.011  33.590  34.244  1.00  0.00     0.029 A 
ATOM     49  C   UNL A   1      39.083  32.599  34.261  1.00  0.00     0.049 A 
ATOM     50  H   UNL A   1      39.670  31.341  32.707  1.00  0.00     0.167 HD
ATOM     51  C   UNL A   1      40.582  28.523  29.490  1.00  0.00     0.037 A 
ATOM     52  C   UNL A   1      39.884  32.338  35.311  1.00  0.00     0.037 A 
ATOM     53  C   UNL A   1      41.566  28.267  30.509  1.00  0.00     0.049 A 
ATOM     54  C   UNL A   1      40.947  31.283  35.177  1.00  0.00     0.074 A 
ATOM     55  C   UNL A   1      42.634  27.388  30.472  1.00  0.00     0.029 A 
ATOM     56  N   UNL A   1      41.598  28.882  31.750  1.00  0.00    -0.354 N 
ATOM     57  N   UNL A   1      41.231  30.519  34.151  1.00  0.00    -0.248 NA
ATOM     58  C   UNL A   1      41.809  31.057  36.347  1.00  0.00     0.031 C 
ATOM     59  C   UNL A   1      43.277  27.428  31.712  1.00  0.00     0.029 A 
ATOM     60  C   UNL A   1      42.648  28.378  32.500  1.00  0.00     0.049 A 
ATOM     61  H   UNL A   1      40.967  29.575  32.055  1.00  0.00     0.167 HD
ATOM     62  C   UNL A   1      42.317  29.746  34.539  1.00  0.00     0.074 A 
ATOM     63  C   UNL A   1      42.653  30.146  35.889  1.00  0.00     0.031 C 
ATOM     64  C   UNL A   1      42.978  28.791  33.839  1.00  0.00     0.037 A 
BRANCH  51  65
ATOM     65  C   UNL A   1      40.625  27.684  28.244  1.00  0.00     0.057 A 
ATOM     66  C   UNL A   1      41.357  28.070  27.114  1.00  0.00     0.134 A 
ATOM     67  C   UNL A   1      39.977  26.443  28.200  1.00  0.00     0.134 A 
ATOM     68  F   UNL A   1      41.993  29.251  27.086  1.00  0.00    -0.206 F 
ATOM     69  C   UNL A   1      41.427  27.261  25.977  1.00  0.00     0.040 A 
ATOM     70  C   UNL A   1      40.063  25.613  27.081  1.00  0.00     0.040 A 
ATOM     71  F   UNL A   1      39.266  26.007  29.250  1.00  0.00    -0.206 F 
ATOM     72  C   UNL A   1      40.786  26.024  25.963  1.00  0.00     0.006 A 
ENDBRANCH  51  65
BRANCH  52  73
ATOM     73  C   UNL A   1      39.712  33.083  36.586  1.00  0.00     0.057 A 
ATOM     74  C   UNL A   1      38.805  32.652  37.562  1.00  0.00     0.134 A 
ATOM     75  C   UNL A   1      40.430  34.255  36.847  1.00  0.00     0.134 A 
ATOM     76  F   UNL A   1      38.074  31.545  37.361  1.00  0.00    -0.206 F 
ATOM     77  C   UNL A   1      38.597  33.375  38.738  1.00  0.00     0.040 A 
ATOM     78  C   UNL A   1      40.254  34.971  38.033  1.00  0.00     0.040 A 
ATOM     79  F   UNL A   1      41.320  34.718  35.958  1.00  0.00    -0.206 F 
ATOM     80  C   UNL A   1      39.328  34.537  38.977  1.00  0.00     0.006 A 
ENDBRANCH  52  73
BRANCH  64  81
ATOM     81  C   UNL A   1      44.157  28.140  34.504  1.00  0.00     0.057 A 
ATOM     82  C   UNL A   1      45.452  28.664  34.398  1.00  0.00     0.134 A 
ATOM     83  C   UNL A   1      43.985  26.998  35.297  1.00  0.00     0.134 A 
ATOM     84  F   UNL A   1      45.688  29.749  33.644  1.00  0.00    -0.206 F 
ATOM     85  C   UNL A   1      46.536  28.061  35.039  1.00  0.00     0.040 A 
ATOM     86  C   UNL A   1      45.055  26.405  35.966  1.00  0.00     0.040 A 
ATOM     87  F   UNL A   1      42.769  26.451  35.449  1.00  0.00    -0.206 F 
ATOM     88  C   UNL A   1      46.337  26.933  35.832  1.00  0.00     0.006 A 
ENDBRANCH  64  81
ENDBRANCH  38  39
ENDBRANCH  30  33
ENDBRANCH  28  29
ENDBRANCH   1  28
TORSDOF 14
ENDMDL
