MODEL 1
REMARK VINA RESULT:     -11.4      0.000      0.000
REMARK SMILES CC(C)(C[NH2+]Cc1ccc2c(c1)OCO2)C(=O)NCCCNC(=O)c1ccc(-c2c3nc(c(-c4c(F)cccc4F)c4ccc([nH]4)c(-c4c(F)cccc4F)c4nc(c(-c5c(F)cccc5F)c5ccc2[nH]5)C=C4)C=C3)cc1
REMARK SMILES IDX 19 1 18 2 16 3 17 4 2 6 1 7 3 8 4 9 5 10 6 13 7 14 8 15
REMARK SMILES IDX 12 16 9 17 11 18 10 19 13 20 15 21 14 22 20 23 21 24 22 25
REMARK SMILES IDX 23 26 24 28 25 29 26 30 78 31 27 32 77 33 28 34 29 35 30 36
REMARK SMILES IDX 71 37 31 38 76 39 70 40 72 41 32 42 75 43 69 44 68 45 33 47
REMARK SMILES IDX 59 48 42 49 58 50 43 51 46 52 57 53 73 54 44 55 45 56 56 58
REMARK SMILES IDX 74 59 47 60 34 61 35 62 40 63 36 64 37 65 39 66 41 67 38 68
REMARK SMILES IDX 60 69 61 70 66 71 62 72 63 73 65 74 67 75 64 76 48 77 49 78
REMARK SMILES IDX 54 79 50 80 51 81 53 82 55 83 52 84
REMARK H PARENT 18 5 5 11 5 12 22 27 72 46 46 57
REMARK Flexibility Score: inf
ROOT
ATOM      1  C   UNL A   1      31.608  30.249  26.190  1.00  0.00     0.117 C 
ENDROOT
BRANCH   1   2
ATOM      2  N   UNL A   1      32.417  30.099  24.996  1.00  0.00    -0.355 N 
ATOM      3  C   UNL A   1      32.856  29.017  24.299  1.00  0.00     0.231 C 
ATOM      4  O   UNL A   1      33.539  29.276  23.300  1.00  0.00    -0.274 OA
ATOM      5  H   UNL A   1      32.708  30.957  24.611  1.00  0.00     0.163 HD
BRANCH   3   6
ATOM      6  C   UNL A   1      32.493  27.566  24.667  1.00  0.00     0.092 C 
ATOM      7  C   UNL A   1      32.681  27.380  26.195  1.00  0.00     0.027 C 
ATOM      8  C   UNL A   1      33.487  26.593  23.999  1.00  0.00     0.027 C 
BRANCH   6   9
ATOM      9  C   UNL A   1      31.038  27.197  24.286  1.00  0.00     0.277 C 
BRANCH   9  10
ATOM     10  N   UNL A   1      30.533  27.879  23.085  1.00  0.00    -0.342 N 
ATOM     11  H   UNL A   1      30.737  27.297  22.273  1.00  0.00     0.346 HD
ATOM     12  H   UNL A   1      30.997  28.786  23.037  1.00  0.00     0.346 HD
BRANCH  10  13
ATOM     13  C   UNL A   1      29.089  28.136  23.121  1.00  0.00     0.297 C 
BRANCH  13  14
ATOM     14  C   UNL A   1      28.723  29.564  22.787  1.00  0.00     0.010 A 
ATOM     15  C   UNL A   1      28.999  30.595  23.717  1.00  0.00     0.013 A 
ATOM     16  C   UNL A   1      28.193  29.888  21.527  1.00  0.00     0.060 A 
ATOM     17  C   UNL A   1      28.775  31.935  23.393  1.00  0.00     0.051 A 
ATOM     18  C   UNL A   1      27.986  31.219  21.236  1.00  0.00     0.166 A 
ATOM     19  C   UNL A   1      28.275  32.214  22.140  1.00  0.00     0.165 A 
ATOM     20  O   UNL A   1      27.512  31.710  20.060  1.00  0.00    -0.454 OA
ATOM     21  O   UNL A   1      28.023  33.455  21.647  1.00  0.00    -0.454 OA
ATOM     22  C   UNL A   1      27.549  33.128  20.324  1.00  0.00     0.468 C 
ENDBRANCH  13  14
ENDBRANCH  10  13
ENDBRANCH   9  10
ENDBRANCH   6   9
ENDBRANCH   3   6
ENDBRANCH   1   2
BRANCH   1  23
ATOM     23  C   UNL A   1      31.418  31.708  26.588  1.00  0.00     0.042 C 
BRANCH  23  24
ATOM     24  C   UNL A   1      32.709  32.420  26.979  1.00  0.00     0.118 C 
BRANCH  24  25
ATOM     25  N   UNL A   1      32.474  33.752  27.523  1.00  0.00    -0.352 N 
ATOM     26  C   UNL A   1      33.134  34.446  28.504  1.00  0.00     0.251 C 
ATOM     27  H   UNL A   1      31.717  34.233  27.118  1.00  0.00     0.163 HD
ATOM     28  O   UNL A   1      32.643  35.488  28.942  1.00  0.00    -0.269 OA
BRANCH  26  29
ATOM     29  C   UNL A   1      34.413  33.955  29.058  1.00  0.00     0.039 A 
ATOM     30  C   UNL A   1      34.384  33.059  30.132  1.00  0.00     0.014 A 
ATOM     31  C   UNL A   1      35.640  34.401  28.559  1.00  0.00     0.014 A 
ATOM     32  C   UNL A   1      35.579  32.558  30.655  1.00  0.00     0.010 A 
ATOM     33  C   UNL A   1      36.826  33.841  29.026  1.00  0.00     0.010 A 
ATOM     34  C   UNL A   1      36.808  32.917  30.081  1.00  0.00    -0.014 A 
BRANCH  34  35
ATOM     35  C   UNL A   1      38.087  32.342  30.571  1.00  0.00     0.031 A 
ATOM     36  C   UNL A   1      38.623  31.070  29.972  1.00  0.00     0.074 A 
ATOM     37  C   UNL A   1      38.727  32.922  31.604  1.00  0.00     0.049 A 
ATOM     38  N   UNL A   1      39.669  30.366  30.324  1.00  0.00    -0.248 NA
ATOM     39  C   UNL A   1      37.867  30.498  28.845  1.00  0.00     0.031 C 
ATOM     40  C   UNL A   1      38.285  34.131  32.303  1.00  0.00     0.029 A 
ATOM     41  N   UNL A   1      39.880  32.565  32.256  1.00  0.00    -0.354 N 
ATOM     42  C   UNL A   1      39.684  29.263  29.481  1.00  0.00     0.074 A 
ATOM     43  C   UNL A   1      38.518  29.365  28.631  1.00  0.00     0.031 C 
ATOM     44  C   UNL A   1      39.166  34.425  33.271  1.00  0.00     0.029 A 
ATOM     45  C   UNL A   1      40.213  33.408  33.288  1.00  0.00     0.049 A 
ATOM     46  H   UNL A   1      40.417  31.779  32.008  1.00  0.00     0.167 HD
ATOM     47  C   UNL A   1      40.598  28.266  29.406  1.00  0.00     0.037 A 
ATOM     48  C   UNL A   1      41.241  33.362  34.156  1.00  0.00     0.037 A 
ATOM     49  C   UNL A   1      41.776  28.184  30.230  1.00  0.00     0.049 A 
ATOM     50  C   UNL A   1      42.245  32.250  34.048  1.00  0.00     0.074 A 
ATOM     51  C   UNL A   1      42.795  27.249  30.187  1.00  0.00     0.029 A 
ATOM     52  N   UNL A   1      42.091  29.072  31.247  1.00  0.00    -0.354 N 
ATOM     53  N   UNL A   1      42.280  31.247  33.205  1.00  0.00    -0.248 NA
ATOM     54  C   UNL A   1      43.356  32.265  35.011  1.00  0.00     0.031 C 
ATOM     55  C   UNL A   1      43.709  27.550  31.203  1.00  0.00     0.029 A 
ATOM     56  C   UNL A   1      43.280  28.698  31.850  1.00  0.00     0.049 A 
ATOM     57  H   UNL A   1      41.549  29.854  31.502  1.00  0.00     0.167 HD
ATOM     58  C   UNL A   1      43.427  30.528  33.516  1.00  0.00     0.074 A 
ATOM     59  C   UNL A   1      44.067  31.217  34.618  1.00  0.00     0.031 C 
ATOM     60  C   UNL A   1      43.907  29.399  32.940  1.00  0.00     0.037 A 
BRANCH  47  61
ATOM     61  C   UNL A   1      40.363  27.186  28.390  1.00  0.00     0.057 A 
ATOM     62  C   UNL A   1      40.951  27.227  27.119  1.00  0.00     0.134 A 
ATOM     63  C   UNL A   1      39.564  26.078  28.697  1.00  0.00     0.134 A 
ATOM     64  F   UNL A   1      41.718  28.268  26.759  1.00  0.00    -0.206 F 
ATOM     65  C   UNL A   1      40.732  26.218  26.180  1.00  0.00     0.040 A 
ATOM     66  C   UNL A   1      39.359  25.049  27.776  1.00  0.00     0.040 A 
ATOM     67  F   UNL A   1      38.976  25.973  29.898  1.00  0.00    -0.206 F 
ATOM     68  C   UNL A   1      39.939  25.122  26.511  1.00  0.00     0.006 A 
ENDBRANCH  47  61
BRANCH  48  69
ATOM     69  C   UNL A   1      41.386  34.417  35.189  1.00  0.00     0.057 A 
ATOM     70  C   UNL A   1      40.803  34.271  36.454  1.00  0.00     0.134 A 
ATOM     71  C   UNL A   1      42.103  35.592  34.940  1.00  0.00     0.134 A 
ATOM     72  F   UNL A   1      40.089  33.174  36.745  1.00  0.00    -0.206 F 
ATOM     73  C   UNL A   1      40.912  35.265  37.428  1.00  0.00     0.040 A 
ATOM     74  C   UNL A   1      42.240  36.585  35.913  1.00  0.00     0.040 A 
ATOM     75  F   UNL A   1      42.692  35.789  33.751  1.00  0.00    -0.206 F 
ATOM     76  C   UNL A   1      41.636  36.424  37.159  1.00  0.00     0.006 A 
ENDBRANCH  48  69
BRANCH  60  77
ATOM     77  C   UNL A   1      45.203  28.859  33.469  1.00  0.00     0.057 A 
ATOM     78  C   UNL A   1      46.439  29.282  32.965  1.00  0.00     0.134 A 
ATOM     79  C   UNL A   1      45.213  27.935  34.522  1.00  0.00     0.134 A 
ATOM     80  F   UNL A   1      46.496  30.155  31.948  1.00  0.00    -0.206 F 
ATOM     81  C   UNL A   1      47.640  28.788  33.476  1.00  0.00     0.040 A 
ATOM     82  C   UNL A   1      46.407  27.453  35.057  1.00  0.00     0.040 A 
ATOM     83  F   UNL A   1      44.061  27.496  35.054  1.00  0.00    -0.206 F 
ATOM     84  C   UNL A   1      47.625  27.876  34.530  1.00  0.00     0.006 A 
ENDBRANCH  60  77
ENDBRANCH  34  35
ENDBRANCH  26  29
ENDBRANCH  24  25
ENDBRANCH  23  24
ENDBRANCH   1  23
TORSDOF 14
ENDMDL
MODEL 2
REMARK VINA RESULT:     -11.2      6.059     10.747
REMARK SMILES CC(C)(C[NH2+]Cc1ccc2c(c1)OCO2)C(=O)NCCCNC(=O)c1ccc(-c2c3nc(c(-c4c(F)cccc4F)c4ccc([nH]4)c(-c4c(F)cccc4F)c4nc(c(-c5c(F)cccc5F)c5ccc2[nH]5)C=C4)C=C3)cc1
REMARK SMILES IDX 19 1 18 2 16 3 17 4 2 6 1 7 3 8 4 9 5 10 6 13 7 14 8 15
REMARK SMILES IDX 12 16 9 17 11 18 10 19 13 20 15 21 14 22 20 23 21 24 22 25
REMARK SMILES IDX 23 26 24 28 25 29 26 30 78 31 27 32 77 33 28 34 29 35 30 36
REMARK SMILES IDX 71 37 31 38 76 39 70 40 72 41 32 42 75 43 69 44 68 45 33 47
REMARK SMILES IDX 59 48 42 49 58 50 43 51 46 52 57 53 73 54 44 55 45 56 56 58
REMARK SMILES IDX 74 59 47 60 34 61 35 62 40 63 36 64 37 65 39 66 41 67 38 68
REMARK SMILES IDX 60 69 61 70 66 71 62 72 63 73 65 74 67 75 64 76 48 77 49 78
REMARK SMILES IDX 54 79 50 80 51 81 53 82 55 83 52 84
REMARK H PARENT 18 5 5 11 5 12 22 27 72 46 46 57
REMARK Flexibility Score: inf
ROOT
ATOM      1  C   UNL A   1      36.844  20.694  24.846  1.00  0.00     0.117 C 
ENDROOT
BRANCH   1   2
ATOM      2  N   UNL A   1      37.189  21.958  25.470  1.00  0.00    -0.355 N 
ATOM      3  C   UNL A   1      36.575  23.170  25.515  1.00  0.00     0.231 C 
ATOM      4  O   UNL A   1      37.174  24.039  26.162  1.00  0.00    -0.274 OA
ATOM      5  H   UNL A   1      38.042  21.932  25.960  1.00  0.00     0.163 HD
BRANCH   3   6
ATOM      6  C   UNL A   1      35.205  23.454  24.873  1.00  0.00     0.092 C 
ATOM      7  C   UNL A   1      35.352  23.363  23.331  1.00  0.00     0.027 C 
ATOM      8  C   UNL A   1      34.778  24.907  25.169  1.00  0.00     0.027 C 
BRANCH   6   9
ATOM      9  C   UNL A   1      34.108  22.464  25.337  1.00  0.00     0.277 C 
BRANCH   9  10
ATOM     10  N   UNL A   1      33.142  22.093  24.292  1.00  0.00    -0.342 N 
ATOM     11  H   UNL A   1      33.648  21.643  23.530  1.00  0.00     0.346 HD
ATOM     12  H   UNL A   1      32.678  22.952  23.994  1.00  0.00     0.346 HD
BRANCH  10  13
ATOM     13  C   UNL A   1      32.096  21.178  24.761  1.00  0.00     0.297 C 
BRANCH  13  14
ATOM     14  C   UNL A   1      32.391  19.726  24.469  1.00  0.00     0.010 A 
ATOM     15  C   UNL A   1      32.407  19.268  23.129  1.00  0.00     0.013 A 
ATOM     16  C   UNL A   1      32.737  18.845  25.508  1.00  0.00     0.060 A 
ATOM     17  C   UNL A   1      32.786  17.959  22.820  1.00  0.00     0.051 A 
ATOM     18  C   UNL A   1      33.108  17.562  25.171  1.00  0.00     0.166 A 
ATOM     19  C   UNL A   1      33.138  17.133  23.864  1.00  0.00     0.165 A 
ATOM     20  O   UNL A   1      33.500  16.595  26.042  1.00  0.00    -0.454 OA
ATOM     21  O   UNL A   1      33.557  15.845  23.749  1.00  0.00    -0.454 OA
ATOM     22  C   UNL A   1      33.794  15.514  25.133  1.00  0.00     0.468 C 
ENDBRANCH  13  14
ENDBRANCH  10  13
ENDBRANCH   9  10
ENDBRANCH   6   9
ENDBRANCH   3   6
ENDBRANCH   1   2
BRANCH   1  23
ATOM     23  C   UNL A   1      37.949  19.655  24.983  1.00  0.00     0.042 C 
BRANCH  23  24
ATOM     24  C   UNL A   1      39.096  20.080  25.895  1.00  0.00     0.118 C 
BRANCH  24  25
ATOM     25  N   UNL A   1      40.199  19.128  25.893  1.00  0.00    -0.352 N 
ATOM     26  C   UNL A   1      41.548  19.322  26.046  1.00  0.00     0.251 C 
ATOM     27  H   UNL A   1      39.932  18.190  25.759  1.00  0.00     0.163 HD
ATOM     28  O   UNL A   1      42.322  18.393  25.815  1.00  0.00    -0.269 OA
BRANCH  26  29
ATOM     29  C   UNL A   1      42.087  20.633  26.466  1.00  0.00     0.039 A 
ATOM     30  C   UNL A   1      42.549  21.518  25.485  1.00  0.00     0.014 A 
ATOM     31  C   UNL A   1      42.183  20.981  27.815  1.00  0.00     0.014 A 
ATOM     32  C   UNL A   1      43.037  22.773  25.853  1.00  0.00     0.010 A 
ATOM     33  C   UNL A   1      42.593  22.262  28.176  1.00  0.00     0.010 A 
ATOM     34  C   UNL A   1      43.029  23.169  27.200  1.00  0.00    -0.014 A 
BRANCH  34  35
ATOM     35  C   UNL A   1      43.473  24.526  27.609  1.00  0.00     0.031 A 
ATOM     36  C   UNL A   1      42.461  25.570  27.997  1.00  0.00     0.074 A 
ATOM     37  C   UNL A   1      44.781  24.842  27.560  1.00  0.00     0.049 A 
ATOM     38  N   UNL A   1      42.645  26.831  28.294  1.00  0.00    -0.248 NA
ATOM     39  C   UNL A   1      41.051  25.146  28.028  1.00  0.00     0.031 C 
ATOM     40  C   UNL A   1      45.858  23.935  27.156  1.00  0.00     0.029 A 
ATOM     41  N   UNL A   1      45.428  26.019  27.841  1.00  0.00    -0.354 N 
ATOM     42  C   UNL A   1      41.379  27.354  28.525  1.00  0.00     0.074 A 
ATOM     43  C   UNL A   1      40.432  26.287  28.287  1.00  0.00     0.031 C 
ATOM     44  C   UNL A   1      47.030  24.583  27.233  1.00  0.00     0.029 A 
ATOM     45  C   UNL A   1      46.788  25.959  27.655  1.00  0.00     0.049 A 
ATOM     46  H   UNL A   1      44.962  26.830  28.146  1.00  0.00     0.167 HD
ATOM     47  C   UNL A   1      41.038  28.604  28.919  1.00  0.00     0.037 A 
ATOM     48  C   UNL A   1      47.732  26.908  27.800  1.00  0.00     0.037 A 
ATOM     49  C   UNL A   1      41.984  29.656  29.187  1.00  0.00     0.049 A 
ATOM     50  C   UNL A   1      47.329  28.284  28.245  1.00  0.00     0.074 A 
ATOM     51  C   UNL A   1      41.742  30.935  29.653  1.00  0.00     0.029 A 
ATOM     52  N   UNL A   1      43.356  29.546  29.012  1.00  0.00    -0.354 N 
ATOM     53  N   UNL A   1      46.133  28.747  28.519  1.00  0.00    -0.248 NA
ATOM     54  C   UNL A   1      48.407  29.270  28.405  1.00  0.00     0.031 C 
ATOM     55  C   UNL A   1      42.964  31.613  29.725  1.00  0.00     0.029 A 
ATOM     56  C   UNL A   1      43.971  30.741  29.345  1.00  0.00     0.049 A 
ATOM     57  H   UNL A   1      43.822  28.738  28.698  1.00  0.00     0.167 HD
ATOM     58  C   UNL A   1      46.317  30.067  28.910  1.00  0.00     0.074 A 
ATOM     59  C   UNL A   1      47.740  30.328  28.848  1.00  0.00     0.031 C 
ATOM     60  C   UNL A   1      45.389  30.981  29.285  1.00  0.00     0.037 A 
BRANCH  47  61
ATOM     61  C   UNL A   1      39.577  28.900  29.093  1.00  0.00     0.057 A 
ATOM     62  C   UNL A   1      38.779  29.331  28.025  1.00  0.00     0.134 A 
ATOM     63  C   UNL A   1      38.954  28.722  30.335  1.00  0.00     0.134 A 
ATOM     64  F   UNL A   1      39.318  29.532  26.812  1.00  0.00    -0.206 F 
ATOM     65  C   UNL A   1      37.419  29.601  28.191  1.00  0.00     0.040 A 
ATOM     66  C   UNL A   1      37.590  28.963  30.507  1.00  0.00     0.040 A 
ATOM     67  F   UNL A   1      39.658  28.306  31.397  1.00  0.00    -0.206 F 
ATOM     68  C   UNL A   1      36.820  29.410  29.434  1.00  0.00     0.006 A 
ENDBRANCH  47  61
BRANCH  48  69
ATOM     69  C   UNL A   1      49.157  26.580  27.545  1.00  0.00     0.057 A 
ATOM     70  C   UNL A   1      49.707  26.711  26.264  1.00  0.00     0.134 A 
ATOM     71  C   UNL A   1      49.999  26.126  28.566  1.00  0.00     0.134 A 
ATOM     72  F   UNL A   1      48.944  27.124  25.241  1.00  0.00    -0.206 F 
ATOM     73  C   UNL A   1      51.039  26.385  26.003  1.00  0.00     0.040 A 
ATOM     74  C   UNL A   1      51.339  25.819  28.325  1.00  0.00     0.040 A 
ATOM     75  F   UNL A   1      49.534  25.988  29.817  1.00  0.00    -0.206 F 
ATOM     76  C   UNL A   1      51.860  25.942  27.038  1.00  0.00     0.006 A 
ENDBRANCH  48  69
BRANCH  60  77
ATOM     77  C   UNL A   1      45.889  32.336  29.692  1.00  0.00     0.057 A 
ATOM     78  C   UNL A   1      46.271  32.617  31.009  1.00  0.00     0.134 A 
ATOM     79  C   UNL A   1      46.028  33.358  28.743  1.00  0.00     0.134 A 
ATOM     80  F   UNL A   1      46.149  31.685  31.966  1.00  0.00    -0.206 F 
ATOM     81  C   UNL A   1      46.752  33.875  31.374  1.00  0.00     0.040 A 
ATOM     82  C   UNL A   1      46.531  34.611  29.092  1.00  0.00     0.040 A 
ATOM     83  F   UNL A   1      45.687  33.150  27.462  1.00  0.00    -0.206 F 
ATOM     84  C   UNL A   1      46.890  34.874  30.412  1.00  0.00     0.006 A 
ENDBRANCH  60  77
ENDBRANCH  34  35
ENDBRANCH  26  29
ENDBRANCH  24  25
ENDBRANCH  23  24
ENDBRANCH   1  23
TORSDOF 14
ENDMDL
MODEL 3
REMARK VINA RESULT:     -11.2      1.160      6.382
REMARK SMILES CC(C)(C[NH2+]Cc1ccc2c(c1)OCO2)C(=O)NCCCNC(=O)c1ccc(-c2c3nc(c(-c4c(F)cccc4F)c4ccc([nH]4)c(-c4c(F)cccc4F)c4nc(c(-c5c(F)cccc5F)c5ccc2[nH]5)C=C4)C=C3)cc1
REMARK SMILES IDX 19 1 18 2 16 3 17 4 2 6 1 7 3 8 4 9 5 10 6 13 7 14 8 15
REMARK SMILES IDX 12 16 9 17 11 18 10 19 13 20 15 21 14 22 20 23 21 24 22 25
REMARK SMILES IDX 23 26 24 28 25 29 26 30 78 31 27 32 77 33 28 34 29 35 30 36
REMARK SMILES IDX 71 37 31 38 76 39 70 40 72 41 32 42 75 43 69 44 68 45 33 47
REMARK SMILES IDX 59 48 42 49 58 50 43 51 46 52 57 53 73 54 44 55 45 56 56 58
REMARK SMILES IDX 74 59 47 60 34 61 35 62 40 63 36 64 37 65 39 66 41 67 38 68
REMARK SMILES IDX 60 69 61 70 66 71 62 72 63 73 65 74 67 75 64 76 48 77 49 78
REMARK SMILES IDX 54 79 50 80 51 81 53 82 55 83 52 84
REMARK H PARENT 18 5 5 11 5 12 22 27 72 46 46 57
REMARK Flexibility Score: inf
ROOT
ATOM      1  C   UNL A   1      31.458  30.812  26.565  1.00  0.00     0.117 C 
ENDROOT
BRANCH   1   2
ATOM      2  N   UNL A   1      32.775  30.278  26.859  1.00  0.00    -0.355 N 
ATOM      3  C   UNL A   1      33.364  29.076  26.626  1.00  0.00     0.231 C 
ATOM      4  O   UNL A   1      34.533  28.977  27.021  1.00  0.00    -0.274 OA
ATOM      5  H   UNL A   1      33.362  30.920  27.321  1.00  0.00     0.163 HD
BRANCH   3   6
ATOM      6  C   UNL A   1      32.674  27.923  25.872  1.00  0.00     0.092 C 
ATOM      7  C   UNL A   1      31.517  27.379  26.749  1.00  0.00     0.027 C 
ATOM      8  C   UNL A   1      33.659  26.747  25.699  1.00  0.00     0.027 C 
BRANCH   6   9
ATOM      9  C   UNL A   1      32.108  28.359  24.498  1.00  0.00     0.277 C 
BRANCH   9  10
ATOM     10  N   UNL A   1      30.656  28.182  24.356  1.00  0.00    -0.342 N 
ATOM     11  H   UNL A   1      30.187  28.878  24.936  1.00  0.00     0.346 HD
ATOM     12  H   UNL A   1      30.439  27.228  24.645  1.00  0.00     0.346 HD
BRANCH  10  13
ATOM     13  C   UNL A   1      30.180  28.332  22.976  1.00  0.00     0.297 C 
BRANCH  13  14
ATOM     14  C   UNL A   1      29.474  29.643  22.722  1.00  0.00     0.010 A 
ATOM     15  C   UNL A   1      29.413  30.618  23.747  1.00  0.00     0.013 A 
ATOM     16  C   UNL A   1      28.955  29.939  21.450  1.00  0.00     0.060 A 
ATOM     17  C   UNL A   1      28.867  31.882  23.507  1.00  0.00     0.051 A 
ATOM     18  C   UNL A   1      28.425  31.194  21.245  1.00  0.00     0.166 A 
ATOM     19  C   UNL A   1      28.388  32.141  22.242  1.00  0.00     0.165 A 
ATOM     20  O   UNL A   1      27.911  31.657  20.073  1.00  0.00    -0.454 OA
ATOM     21  O   UNL A   1      27.850  33.317  21.824  1.00  0.00    -0.454 OA
ATOM     22  C   UNL A   1      27.560  33.006  20.446  1.00  0.00     0.468 C 
ENDBRANCH  13  14
ENDBRANCH  10  13
ENDBRANCH   9  10
ENDBRANCH   6   9
ENDBRANCH   3   6
ENDBRANCH   1   2
BRANCH   1  23
ATOM     23  C   UNL A   1      31.408  32.332  26.660  1.00  0.00     0.042 C 
BRANCH  23  24
ATOM     24  C   UNL A   1      32.737  32.975  27.044  1.00  0.00     0.118 C 
BRANCH  24  25
ATOM     25  N   UNL A   1      32.567  34.259  27.715  1.00  0.00    -0.352 N 
ATOM     26  C   UNL A   1      33.184  34.776  28.824  1.00  0.00     0.251 C 
ATOM     27  H   UNL A   1      31.899  34.852  27.302  1.00  0.00     0.163 HD
ATOM     28  O   UNL A   1      32.745  35.808  29.333  1.00  0.00    -0.269 OA
BRANCH  26  29
ATOM     29  C   UNL A   1      34.354  34.106  29.430  1.00  0.00     0.039 A 
ATOM     30  C   UNL A   1      34.144  33.175  30.453  1.00  0.00     0.014 A 
ATOM     31  C   UNL A   1      35.656  34.415  29.030  1.00  0.00     0.014 A 
ATOM     32  C   UNL A   1      35.230  32.507  31.022  1.00  0.00     0.010 A 
ATOM     33  C   UNL A   1      36.731  33.691  29.539  1.00  0.00     0.010 A 
ATOM     34  C   UNL A   1      36.530  32.733  30.544  1.00  0.00    -0.014 A 
BRANCH  34  35
ATOM     35  C   UNL A   1      37.694  31.982  31.080  1.00  0.00     0.031 A 
ATOM     36  C   UNL A   1      38.278  32.345  32.418  1.00  0.00     0.074 A 
ATOM     37  C   UNL A   1      38.271  31.023  30.331  1.00  0.00     0.049 A 
ATOM     38  N   UNL A   1      39.344  31.870  33.012  1.00  0.00    -0.248 NA
ATOM     39  C   UNL A   1      37.589  33.402  33.177  1.00  0.00     0.031 C 
ATOM     40  C   UNL A   1      37.829  30.609  28.997  1.00  0.00     0.029 A 
ATOM     41  N   UNL A   1      39.363  30.230  30.579  1.00  0.00    -0.354 N 
ATOM     42  C   UNL A   1      39.464  32.582  34.198  1.00  0.00     0.074 A 
ATOM     43  C   UNL A   1      38.392  33.554  34.219  1.00  0.00     0.031 C 
ATOM     44  C   UNL A   1      38.629  29.627  28.554  1.00  0.00     0.029 A 
ATOM     45  C   UNL A   1      39.662  29.367  29.553  1.00  0.00     0.049 A 
ATOM     46  H   UNL A   1      39.883  30.276  31.413  1.00  0.00     0.167 HD
ATOM     47  C   UNL A   1      40.373  32.428  35.191  1.00  0.00     0.037 A 
ATOM     48  C   UNL A   1      40.661  28.474  29.426  1.00  0.00     0.037 A 
ATOM     49  C   UNL A   1      41.419  31.439  35.184  1.00  0.00     0.049 A 
ATOM     50  C   UNL A   1      41.652  28.316  30.544  1.00  0.00     0.074 A 
ATOM     51  C   UNL A   1      42.348  31.160  36.170  1.00  0.00     0.029 A 
ATOM     52  N   UNL A   1      41.672  30.566  34.137  1.00  0.00    -0.354 N 
ATOM     53  N   UNL A   1      41.717  28.955  31.687  1.00  0.00    -0.248 NA
ATOM     54  C   UNL A   1      42.707  27.311  30.356  1.00  0.00     0.031 C 
ATOM     55  C   UNL A   1      43.189  30.142  35.704  1.00  0.00     0.029 A 
ATOM     56  C   UNL A   1      42.755  29.759  34.446  1.00  0.00     0.049 A 
ATOM     57  H   UNL A   1      41.159  30.525  33.298  1.00  0.00     0.167 HD
ATOM     58  C   UNL A   1      42.800  28.411  32.366  1.00  0.00     0.074 A 
ATOM     59  C   UNL A   1      43.356  27.382  31.511  1.00  0.00     0.031 C 
ATOM     60  C   UNL A   1      43.290  28.735  33.587  1.00  0.00     0.037 A 
BRANCH  47  61
ATOM     61  C   UNL A   1      40.269  33.346  36.373  1.00  0.00     0.057 A 
ATOM     62  C   UNL A   1      41.022  34.525  36.461  1.00  0.00     0.134 A 
ATOM     63  C   UNL A   1      39.384  33.066  37.422  1.00  0.00     0.134 A 
ATOM     64  F   UNL A   1      41.897  34.845  35.495  1.00  0.00    -0.206 F 
ATOM     65  C   UNL A   1      40.919  35.378  37.561  1.00  0.00     0.040 A 
ATOM     66  C   UNL A   1      39.252  33.924  38.514  1.00  0.00     0.040 A 
ATOM     67  F   UNL A   1      38.629  31.958  37.399  1.00  0.00    -0.206 F 
ATOM     68  C   UNL A   1      40.026  35.081  38.588  1.00  0.00     0.006 A 
ENDBRANCH  47  61
BRANCH  48  69
ATOM     69  C   UNL A   1      40.759  27.641  28.203  1.00  0.00     0.057 A 
ATOM     70  C   UNL A   1      41.507  28.068  27.099  1.00  0.00     0.134 A 
ATOM     71  C   UNL A   1      40.110  26.405  28.104  1.00  0.00     0.134 A 
ATOM     72  F   UNL A   1      42.137  29.252  27.128  1.00  0.00    -0.206 F 
ATOM     73  C   UNL A   1      41.590  27.306  25.933  1.00  0.00     0.040 A 
ATOM     74  C   UNL A   1      40.203  25.621  26.952  1.00  0.00     0.040 A 
ATOM     75  F   UNL A   1      39.385  25.936  29.130  1.00  0.00    -0.206 F 
ATOM     76  C   UNL A   1      40.940  26.076  25.860  1.00  0.00     0.006 A 
ENDBRANCH  48  69
BRANCH  60  77
ATOM     77  C   UNL A   1      44.465  27.945  34.084  1.00  0.00     0.057 A 
ATOM     78  C   UNL A   1      44.303  26.739  34.776  1.00  0.00     0.134 A 
ATOM     79  C   UNL A   1      45.773  28.379  33.832  1.00  0.00     0.134 A 
ATOM     80  F   UNL A   1      43.076  26.277  35.061  1.00  0.00    -0.206 F 
ATOM     81  C   UNL A   1      45.402  26.002  35.219  1.00  0.00     0.040 A 
ATOM     82  C   UNL A   1      46.878  27.638  34.248  1.00  0.00     0.040 A 
ATOM     83  F   UNL A   1      45.995  29.523  33.167  1.00  0.00    -0.206 F 
ATOM     84  C   UNL A   1      46.694  26.447  34.949  1.00  0.00     0.006 A 
ENDBRANCH  60  77
ENDBRANCH  34  35
ENDBRANCH  26  29
ENDBRANCH  24  25
ENDBRANCH  23  24
ENDBRANCH   1  23
TORSDOF 14
ENDMDL
