MODEL 1
REMARK VINA RESULT:     -11.3      0.000      0.000
REMARK SMILES C[C@@H](C(=O)NCCCNC(=O)c1ccc(-c2c3nc(c(-c4c(F)cccc4F)c4ccc([nH]4)c(-c4c(F)cccc4F)c4nc(c(-c5c(F)cccc5F)c5ccc2[nH]5)C=C4)C=C3)cc1)c1ccc(-c2ccccc2)cc1
REMARK SMILES IDX 7 1 6 2 5 3 3 4 4 5 2 7 1 8 66 9 67 10 77 11 68 12 76 13
REMARK SMILES IDX 69 14 70 15 71 16 75 17 72 18 74 19 73 20 8 21 9 22 10 23
REMARK SMILES IDX 11 25 12 26 13 27 65 28 14 29 64 30 15 31 16 32 17 33 58 34
REMARK SMILES IDX 18 35 63 36 57 37 59 38 19 39 62 40 56 41 55 42 20 44 46 45
REMARK SMILES IDX 29 46 45 47 30 48 33 49 44 50 60 51 31 52 32 53 43 55 61 56
REMARK SMILES IDX 34 57 21 58 22 59 27 60 23 61 24 62 26 63 28 64 25 65 47 66
REMARK SMILES IDX 48 67 53 68 49 69 50 70 52 71 54 72 51 73 35 74 36 75 41 76
REMARK SMILES IDX 37 77 38 78 40 79 42 80 39 81
REMARK H PARENT 5 6 9 24 59 43 33 54
REMARK Flexibility Score: inf
ROOT
ATOM      1  C   UNL A   1      33.590  28.888  24.547  1.00  0.00     0.042 C 
ENDROOT
BRANCH   1   2
ATOM      2  C   UNL A   1      32.107  28.799  24.180  1.00  0.00     0.117 C 
BRANCH   2   3
ATOM      3  N   UNL A   1      31.385  27.913  25.074  1.00  0.00    -0.356 N 
ATOM      4  C   UNL A   1      31.026  26.602  24.936  1.00  0.00     0.227 C 
ATOM      5  O   UNL A   1      30.261  26.153  25.792  1.00  0.00    -0.274 OA
ATOM      6  H   UNL A   1      31.106  28.326  25.923  1.00  0.00     0.163 HD
BRANCH   4   7
ATOM      7  C   UNL A   1      31.586  25.759  23.772  1.00  0.00     0.105 C 
ATOM      8  C   UNL A   1      30.518  24.757  23.319  1.00  0.00     0.023 C 
BRANCH   7   9
ATOM      9  C   UNL A   1      32.932  25.102  24.106  1.00  0.00    -0.036 A 
ATOM     10  C   UNL A   1      33.651  24.339  23.173  1.00  0.00     0.005 A 
ATOM     11  C   UNL A   1      33.505  25.273  25.378  1.00  0.00     0.005 A 
ATOM     12  C   UNL A   1      34.865  23.735  23.511  1.00  0.00     0.009 A 
ATOM     13  C   UNL A   1      34.715  24.654  25.721  1.00  0.00     0.009 A 
ATOM     14  C   UNL A   1      35.408  23.867  24.793  1.00  0.00    -0.018 A 
BRANCH  14  15
ATOM     15  C   UNL A   1      36.650  23.165  25.142  1.00  0.00    -0.018 A 
ATOM     16  C   UNL A   1      36.887  21.855  24.696  1.00  0.00     0.009 A 
ATOM     17  C   UNL A   1      37.604  23.764  25.980  1.00  0.00     0.009 A 
ATOM     18  C   UNL A   1      38.033  21.159  25.086  1.00  0.00     0.001 A 
ATOM     19  C   UNL A   1      38.750  23.069  26.373  1.00  0.00     0.001 A 
ATOM     20  C   UNL A   1      38.962  21.766  25.928  1.00  0.00     0.000 A 
ENDBRANCH  14  15
ENDBRANCH   7   9
ENDBRANCH   4   7
ENDBRANCH   2   3
ENDBRANCH   1   2
BRANCH   1  21
ATOM     21  C   UNL A   1      33.876  28.903  26.045  1.00  0.00     0.118 C 
BRANCH  21  22
ATOM     22  N   UNL A   1      33.742  30.226  26.628  1.00  0.00    -0.352 N 
ATOM     23  C   UNL A   1      34.508  30.848  27.578  1.00  0.00     0.251 C 
ATOM     24  H   UNL A   1      32.984  30.756  26.291  1.00  0.00     0.163 HD
ATOM     25  O   UNL A   1      34.119  31.916  28.055  1.00  0.00    -0.269 OA
BRANCH  23  26
ATOM     26  C   UNL A   1      35.785  30.263  28.051  1.00  0.00     0.039 A 
ATOM     27  C   UNL A   1      35.814  29.674  29.320  1.00  0.00     0.014 A 
ATOM     28  C   UNL A   1      36.964  30.349  27.302  1.00  0.00     0.014 A 
ATOM     29  C   UNL A   1      37.008  29.156  29.826  1.00  0.00     0.010 A 
ATOM     30  C   UNL A   1      38.141  29.773  27.779  1.00  0.00     0.010 A 
ATOM     31  C   UNL A   1      38.182  29.194  29.056  1.00  0.00    -0.014 A 
BRANCH  31  32
ATOM     32  C   UNL A   1      39.465  28.683  29.604  1.00  0.00     0.031 A 
ATOM     33  C   UNL A   1      40.069  29.320  30.826  1.00  0.00     0.074 A 
ATOM     34  C   UNL A   1      40.102  27.666  28.994  1.00  0.00     0.049 A 
ATOM     35  N   UNL A   1      41.189  29.034  31.442  1.00  0.00    -0.248 NA
ATOM     36  C   UNL A   1      39.329  30.445  31.420  1.00  0.00     0.031 C 
ATOM     37  C   UNL A   1      39.648  26.993  27.777  1.00  0.00     0.029 A 
ATOM     38  N   UNL A   1      41.271  27.025  29.315  1.00  0.00    -0.354 N 
ATOM     39  C   UNL A   1      41.294  29.950  32.482  1.00  0.00     0.074 A 
ATOM     40  C   UNL A   1      40.152  30.832  32.384  1.00  0.00     0.031 C 
ATOM     41  C   UNL A   1      40.520  26.020  27.464  1.00  0.00     0.029 A 
ATOM     42  C   UNL A   1      41.601  26.014  28.446  1.00  0.00     0.049 A 
ATOM     43  H   UNL A   1      41.822  27.266  30.095  1.00  0.00     0.167 HD
ATOM     44  C   UNL A   1      42.242  30.037  33.444  1.00  0.00     0.037 A 
ATOM     45  C   UNL A   1      42.653  25.174  28.446  1.00  0.00     0.037 A 
ATOM     46  C   UNL A   1      43.364  29.142  33.564  1.00  0.00     0.049 A 
ATOM     47  C   UNL A   1      43.668  25.258  29.550  1.00  0.00     0.074 A 
ATOM     48  C   UNL A   1      44.358  29.126  34.527  1.00  0.00     0.029 A 
ATOM     49  N   UNL A   1      43.633  28.099  32.692  1.00  0.00    -0.354 N 
ATOM     50  N   UNL A   1      43.727  26.098  30.555  1.00  0.00    -0.248 NA
ATOM     51  C   UNL A   1      44.753  24.267  29.530  1.00  0.00     0.031 C 
ATOM     52  C   UNL A   1      45.242  28.083  34.225  1.00  0.00     0.029 A 
ATOM     53  C   UNL A   1      44.778  27.431  33.093  1.00  0.00     0.049 A 
ATOM     54  H   UNL A   1      43.091  27.867  31.903  1.00  0.00     0.167 HD
ATOM     55  C   UNL A   1      44.838  25.723  31.300  1.00  0.00     0.074 A 
ATOM     56  C   UNL A   1      45.416  24.571  30.638  1.00  0.00     0.031 C 
ATOM     57  C   UNL A   1      45.334  26.282  32.429  1.00  0.00     0.037 A 
BRANCH  44  58
ATOM     58  C   UNL A   1      42.094  31.137  34.453  1.00  0.00     0.057 A 
ATOM     59  C   UNL A   1      42.681  32.395  34.260  1.00  0.00     0.134 A 
ATOM     60  C   UNL A   1      41.351  30.944  35.624  1.00  0.00     0.134 A 
ATOM     61  F   UNL A   1      43.418  32.640  33.166  1.00  0.00    -0.206 F 
ATOM     62  C   UNL A   1      42.559  33.412  35.209  1.00  0.00     0.040 A 
ATOM     63  C   UNL A   1      41.202  31.959  36.569  1.00  0.00     0.040 A 
ATOM     64  F   UNL A   1      40.760  29.764  35.869  1.00  0.00    -0.206 F 
ATOM     65  C   UNL A   1      41.813  33.195  36.367  1.00  0.00     0.006 A 
ENDBRANCH  44  58
BRANCH  45  66
ATOM     66  C   UNL A   1      42.774  24.147  27.382  1.00  0.00     0.057 A 
ATOM     67  C   UNL A   1      43.361  24.453  26.149  1.00  0.00     0.134 A 
ATOM     68  C   UNL A   1      42.315  22.839  27.574  1.00  0.00     0.134 A 
ATOM     69  F   UNL A   1      43.804  25.696  25.903  1.00  0.00    -0.206 F 
ATOM     70  C   UNL A   1      43.474  23.500  25.138  1.00  0.00     0.040 A 
ATOM     71  C   UNL A   1      42.440  21.870  26.578  1.00  0.00     0.040 A 
ATOM     72  F   UNL A   1      41.751  22.485  28.738  1.00  0.00    -0.206 F 
ATOM     73  C   UNL A   1      43.016  22.201  25.354  1.00  0.00     0.006 A 
ENDBRANCH  45  66
BRANCH  57  74
ATOM     74  C   UNL A   1      46.540  25.634  33.039  1.00  0.00     0.057 A 
ATOM     75  C   UNL A   1      47.840  26.015  32.685  1.00  0.00     0.134 A 
ATOM     76  C   UNL A   1      46.399  24.639  34.014  1.00  0.00     0.134 A 
ATOM     77  F   UNL A   1      48.042  26.954  31.748  1.00  0.00    -0.206 F 
ATOM     78  C   UNL A   1      48.958  25.413  33.265  1.00  0.00     0.040 A 
ATOM     79  C   UNL A   1      47.508  24.045  34.615  1.00  0.00     0.040 A 
ATOM     80  F   UNL A   1      45.180  24.234  34.402  1.00  0.00    -0.206 F 
ATOM     81  C   UNL A   1      48.793  24.428  34.236  1.00  0.00     0.006 A 
ENDBRANCH  57  74
ENDBRANCH  31  32
ENDBRANCH  23  26
ENDBRANCH  21  22
ENDBRANCH   1  21
TORSDOF 12
ENDMDL
MODEL 2
REMARK VINA RESULT:     -11.2      3.928      8.516
REMARK SMILES C[C@@H](C(=O)NCCCNC(=O)c1ccc(-c2c3nc(c(-c4c(F)cccc4F)c4ccc([nH]4)c(-c4c(F)cccc4F)c4nc(c(-c5c(F)cccc5F)c5ccc2[nH]5)C=C4)C=C3)cc1)c1ccc(-c2ccccc2)cc1
REMARK SMILES IDX 7 1 6 2 5 3 3 4 4 5 2 7 1 8 66 9 67 10 77 11 68 12 76 13
REMARK SMILES IDX 69 14 70 15 71 16 75 17 72 18 74 19 73 20 8 21 9 22 10 23
REMARK SMILES IDX 11 25 12 26 13 27 65 28 14 29 64 30 15 31 16 32 17 33 58 34
REMARK SMILES IDX 18 35 63 36 57 37 59 38 19 39 62 40 56 41 55 42 20 44 46 45
REMARK SMILES IDX 29 46 45 47 30 48 33 49 44 50 60 51 31 52 32 53 43 55 61 56
REMARK SMILES IDX 34 57 21 58 22 59 27 60 23 61 24 62 26 63 28 64 25 65 47 66
REMARK SMILES IDX 48 67 53 68 49 69 50 70 52 71 54 72 51 73 35 74 36 75 41 76
REMARK SMILES IDX 37 77 38 78 40 79 42 80 39 81
REMARK H PARENT 5 6 9 24 59 43 33 54
REMARK Flexibility Score: inf
ROOT
ATOM      1  C   UNL A   1      36.152  22.884  23.960  1.00  0.00     0.042 C 
ENDROOT
BRANCH   1   2
ATOM      2  C   UNL A   1      35.001  21.927  24.278  1.00  0.00     0.117 C 
BRANCH   2   3
ATOM      3  N   UNL A   1      33.789  22.290  23.565  1.00  0.00    -0.356 N 
ATOM      4  C   UNL A   1      32.571  22.706  24.027  1.00  0.00     0.227 C 
ATOM      5  O   UNL A   1      31.668  22.778  23.191  1.00  0.00    -0.274 OA
ATOM      6  H   UNL A   1      33.855  22.226  22.585  1.00  0.00     0.163 HD
BRANCH   4   7
ATOM      7  C   UNL A   1      32.386  23.074  25.512  1.00  0.00     0.105 C 
ATOM      8  C   UNL A   1      31.026  22.553  25.993  1.00  0.00     0.023 C 
BRANCH   7   9
ATOM      9  C   UNL A   1      32.593  24.570  25.786  1.00  0.00    -0.036 A 
ATOM     10  C   UNL A   1      33.799  25.229  25.502  1.00  0.00     0.005 A 
ATOM     11  C   UNL A   1      31.545  25.342  26.316  1.00  0.00     0.005 A 
ATOM     12  C   UNL A   1      33.966  26.588  25.780  1.00  0.00     0.009 A 
ATOM     13  C   UNL A   1      31.718  26.702  26.609  1.00  0.00     0.009 A 
ATOM     14  C   UNL A   1      32.937  27.343  26.354  1.00  0.00    -0.018 A 
BRANCH  14  15
ATOM     15  C   UNL A   1      33.163  28.752  26.700  1.00  0.00    -0.018 A 
ATOM     16  C   UNL A   1      34.387  29.174  27.241  1.00  0.00     0.009 A 
ATOM     17  C   UNL A   1      32.139  29.701  26.554  1.00  0.00     0.009 A 
ATOM     18  C   UNL A   1      34.579  30.499  27.638  1.00  0.00     0.001 A 
ATOM     19  C   UNL A   1      32.328  31.027  26.953  1.00  0.00     0.001 A 
ATOM     20  C   UNL A   1      33.547  31.424  27.498  1.00  0.00     0.000 A 
ENDBRANCH  14  15
ENDBRANCH   7   9
ENDBRANCH   4   7
ENDBRANCH   2   3
ENDBRANCH   1   2
BRANCH   1  21
ATOM     21  C   UNL A   1      36.927  23.376  25.178  1.00  0.00     0.118 C 
BRANCH  21  22
ATOM     22  N   UNL A   1      37.950  22.439  25.607  1.00  0.00    -0.352 N 
ATOM     23  C   UNL A   1      39.143  22.673  26.239  1.00  0.00     0.251 C 
ATOM     24  H   UNL A   1      37.759  21.494  25.413  1.00  0.00     0.163 HD
ATOM     25  O   UNL A   1      39.944  21.744  26.364  1.00  0.00    -0.269 OA
BRANCH  23  26
ATOM     26  C   UNL A   1      39.495  24.013  26.763  1.00  0.00     0.039 A 
ATOM     27  C   UNL A   1      40.078  24.935  25.888  1.00  0.00     0.014 A 
ATOM     28  C   UNL A   1      39.330  24.350  28.111  1.00  0.00     0.014 A 
ATOM     29  C   UNL A   1      40.472  26.192  26.352  1.00  0.00     0.010 A 
ATOM     30  C   UNL A   1      39.662  25.628  28.560  1.00  0.00     0.010 A 
ATOM     31  C   UNL A   1      40.260  26.553  27.692  1.00  0.00    -0.014 A 
BRANCH  31  32
ATOM     32  C   UNL A   1      40.715  27.871  28.204  1.00  0.00     0.031 A 
ATOM     33  C   UNL A   1      42.181  28.212  28.212  1.00  0.00     0.074 A 
ATOM     34  C   UNL A   1      39.819  28.754  28.684  1.00  0.00     0.049 A 
ATOM     35  N   UNL A   1      42.777  29.298  28.636  1.00  0.00    -0.248 NA
ATOM     36  C   UNL A   1      43.101  27.185  27.698  1.00  0.00     0.031 C 
ATOM     37  C   UNL A   1      38.376  28.529  28.777  1.00  0.00     0.029 A 
ATOM     38  N   UNL A   1      39.994  30.018  29.189  1.00  0.00    -0.354 N 
ATOM     39  C   UNL A   1      44.137  29.079  28.455  1.00  0.00     0.074 A 
ATOM     40  C   UNL A   1      44.282  27.739  27.930  1.00  0.00     0.031 C 
ATOM     41  C   UNL A   1      37.794  29.627  29.289  1.00  0.00     0.029 A 
ATOM     42  C   UNL A   1      38.824  30.622  29.577  1.00  0.00     0.049 A 
ATOM     43  H   UNL A   1      40.876  30.451  29.264  1.00  0.00     0.167 HD
ATOM     44  C   UNL A   1      45.171  29.923  28.684  1.00  0.00     0.037 A 
ATOM     45  C   UNL A   1      38.606  31.843  30.100  1.00  0.00     0.037 A 
ATOM     46  C   UNL A   1      45.029  31.267  29.177  1.00  0.00     0.049 A 
ATOM     47  C   UNL A   1      39.763  32.780  30.302  1.00  0.00     0.074 A 
ATOM     48  C   UNL A   1      46.014  32.213  29.407  1.00  0.00     0.029 A 
ATOM     49  N   UNL A   1      43.821  31.858  29.510  1.00  0.00    -0.354 N 
ATOM     50  N   UNL A   1      41.038  32.576  30.079  1.00  0.00    -0.248 NA
ATOM     51  C   UNL A   1      39.447  34.122  30.812  1.00  0.00     0.031 C 
ATOM     52  C   UNL A   1      45.401  33.371  29.898  1.00  0.00     0.029 A 
ATOM     53  C   UNL A   1      44.033  33.157  29.944  1.00  0.00     0.049 A 
ATOM     54  H   UNL A   1      42.941  31.421  29.449  1.00  0.00     0.167 HD
ATOM     55  C   UNL A   1      41.675  33.768  30.397  1.00  0.00     0.074 A 
ATOM     56  C   UNL A   1      40.644  34.695  30.816  1.00  0.00     0.031 C 
ATOM     57  C   UNL A   1      42.995  34.069  30.347  1.00  0.00     0.037 A 
BRANCH  44  58
ATOM     58  C   UNL A   1      46.550  29.411  28.388  1.00  0.00     0.057 A 
ATOM     59  C   UNL A   1      47.320  28.768  29.366  1.00  0.00     0.134 A 
ATOM     60  C   UNL A   1      47.111  29.552  27.113  1.00  0.00     0.134 A 
ATOM     61  F   UNL A   1      46.847  28.615  30.612  1.00  0.00    -0.206 F 
ATOM     62  C   UNL A   1      48.612  28.310  29.095  1.00  0.00     0.040 A 
ATOM     63  C   UNL A   1      48.390  29.078  26.822  1.00  0.00     0.040 A 
ATOM     64  F   UNL A   1      46.425  30.154  26.130  1.00  0.00    -0.206 F 
ATOM     65  C   UNL A   1      49.147  28.461  27.817  1.00  0.00     0.006 A 
ENDBRANCH  44  58
BRANCH  45  66
ATOM     66  C   UNL A   1      37.222  32.265  30.431  1.00  0.00     0.057 A 
ATOM     67  C   UNL A   1      36.472  33.038  29.539  1.00  0.00     0.134 A 
ATOM     68  C   UNL A   1      36.618  31.900  31.640  1.00  0.00     0.134 A 
ATOM     69  F   UNL A   1      37.006  33.431  28.373  1.00  0.00    -0.206 F 
ATOM     70  C   UNL A   1      35.174  33.448  29.842  1.00  0.00     0.040 A 
ATOM     71  C   UNL A   1      35.313  32.286  31.947  1.00  0.00     0.040 A 
ATOM     72  F   UNL A   1      37.285  31.152  32.531  1.00  0.00    -0.206 F 
ATOM     73  C   UNL A   1      34.589  33.066  31.048  1.00  0.00     0.006 A 
ENDBRANCH  45  66
BRANCH  57  74
ATOM     74  C   UNL A   1      43.393  35.465  30.719  1.00  0.00     0.057 A 
ATOM     75  C   UNL A   1      43.716  35.812  32.036  1.00  0.00     0.134 A 
ATOM     76  C   UNL A   1      43.483  36.465  29.743  1.00  0.00     0.134 A 
ATOM     77  F   UNL A   1      43.638  34.902  33.018  1.00  0.00    -0.206 F 
ATOM     78  C   UNL A   1      44.095  37.113  32.373  1.00  0.00     0.040 A 
ATOM     79  C   UNL A   1      43.879  37.763  30.064  1.00  0.00     0.040 A 
ATOM     80  F   UNL A   1      43.191  36.194  28.462  1.00  0.00    -0.206 F 
ATOM     81  C   UNL A   1      44.182  38.091  31.384  1.00  0.00     0.006 A 
ENDBRANCH  57  74
ENDBRANCH  31  32
ENDBRANCH  23  26
ENDBRANCH  21  22
ENDBRANCH   1  21
TORSDOF 12
ENDMDL
MODEL 3
REMARK VINA RESULT:     -11.1      3.299      8.076
REMARK SMILES C[C@@H](C(=O)NCCCNC(=O)c1ccc(-c2c3nc(c(-c4c(F)cccc4F)c4ccc([nH]4)c(-c4c(F)cccc4F)c4nc(c(-c5c(F)cccc5F)c5ccc2[nH]5)C=C4)C=C3)cc1)c1ccc(-c2ccccc2)cc1
REMARK SMILES IDX 7 1 6 2 5 3 3 4 4 5 2 7 1 8 66 9 67 10 77 11 68 12 76 13
REMARK SMILES IDX 69 14 70 15 71 16 75 17 72 18 74 19 73 20 8 21 9 22 10 23
REMARK SMILES IDX 11 25 12 26 13 27 65 28 14 29 64 30 15 31 16 32 17 33 58 34
REMARK SMILES IDX 18 35 63 36 57 37 59 38 19 39 62 40 56 41 55 42 20 44 46 45
REMARK SMILES IDX 29 46 45 47 30 48 33 49 44 50 60 51 31 52 32 53 43 55 61 56
REMARK SMILES IDX 34 57 21 58 22 59 27 60 23 61 24 62 26 63 28 64 25 65 47 66
REMARK SMILES IDX 48 67 53 68 49 69 50 70 52 71 54 72 51 73 35 74 36 75 41 76
REMARK SMILES IDX 37 77 38 78 40 79 42 80 39 81
REMARK H PARENT 5 6 9 24 59 43 33 54
REMARK Flexibility Score: inf
ROOT
ATOM      1  C   UNL A   1      37.483  19.587  24.986  1.00  0.00     0.042 C 
ENDROOT
BRANCH   1   2
ATOM      2  C   UNL A   1      36.215  20.444  24.996  1.00  0.00     0.117 C 
BRANCH   2   3
ATOM      3  N   UNL A   1      36.339  21.596  24.121  1.00  0.00    -0.356 N 
ATOM      4  C   UNL A   1      35.418  22.529  23.736  1.00  0.00     0.227 C 
ATOM      5  O   UNL A   1      35.766  23.301  22.841  1.00  0.00    -0.274 OA
ATOM      6  H   UNL A   1      37.238  21.727  23.741  1.00  0.00     0.163 HD
BRANCH   4   7
ATOM      7  C   UNL A   1      34.039  22.591  24.422  1.00  0.00     0.105 C 
ATOM      8  C   UNL A   1      33.007  21.876  23.542  1.00  0.00     0.023 C 
BRANCH   7   9
ATOM      9  C   UNL A   1      33.626  24.020  24.802  1.00  0.00    -0.036 A 
ATOM     10  C   UNL A   1      32.350  24.536  24.524  1.00  0.00     0.005 A 
ATOM     11  C   UNL A   1      34.528  24.859  25.477  1.00  0.00     0.005 A 
ATOM     12  C   UNL A   1      32.008  25.847  24.864  1.00  0.00     0.009 A 
ATOM     13  C   UNL A   1      34.190  26.180  25.804  1.00  0.00     0.009 A 
ATOM     14  C   UNL A   1      32.926  26.696  25.492  1.00  0.00    -0.018 A 
BRANCH  14  15
ATOM     15  C   UNL A   1      32.563  28.091  25.775  1.00  0.00    -0.018 A 
ATOM     16  C   UNL A   1      32.993  28.723  26.952  1.00  0.00     0.009 A 
ATOM     17  C   UNL A   1      31.726  28.806  24.904  1.00  0.00     0.009 A 
ATOM     18  C   UNL A   1      32.589  30.025  27.258  1.00  0.00     0.001 A 
ATOM     19  C   UNL A   1      31.320  30.108  25.209  1.00  0.00     0.001 A 
ATOM     20  C   UNL A   1      31.749  30.715  26.387  1.00  0.00     0.000 A 
ENDBRANCH  14  15
ENDBRANCH   7   9
ENDBRANCH   4   7
ENDBRANCH   2   3
ENDBRANCH   1   2
BRANCH   1  21
ATOM     21  C   UNL A   1      38.715  20.263  25.579  1.00  0.00     0.118 C 
BRANCH  21  22
ATOM     22  N   UNL A   1      39.848  19.363  25.692  1.00  0.00    -0.352 N 
ATOM     23  C   UNL A   1      41.143  19.625  26.053  1.00  0.00     0.251 C 
ATOM     24  H   UNL A   1      39.657  18.422  25.475  1.00  0.00     0.163 HD
ATOM     25  O   UNL A   1      41.991  18.739  25.922  1.00  0.00    -0.269 OA
BRANCH  23  26
ATOM     26  C   UNL A   1      41.550  20.947  26.584  1.00  0.00     0.039 A 
ATOM     27  C   UNL A   1      41.408  21.182  27.956  1.00  0.00     0.014 A 
ATOM     28  C   UNL A   1      41.996  21.977  25.749  1.00  0.00     0.014 A 
ATOM     29  C   UNL A   1      41.732  22.431  28.491  1.00  0.00     0.010 A 
ATOM     30  C   UNL A   1      42.382  23.203  26.293  1.00  0.00     0.010 A 
ATOM     31  C   UNL A   1      42.230  23.451  27.665  1.00  0.00    -0.014 A 
BRANCH  31  32
ATOM     32  C   UNL A   1      42.535  24.794  28.219  1.00  0.00     0.031 A 
ATOM     33  C   UNL A   1      43.942  25.140  28.628  1.00  0.00     0.074 A 
ATOM     34  C   UNL A   1      41.550  25.698  28.381  1.00  0.00     0.049 A 
ATOM     35  N   UNL A   1      44.405  26.248  29.151  1.00  0.00    -0.248 NA
ATOM     36  C   UNL A   1      44.959  24.091  28.448  1.00  0.00     0.031 C 
ATOM     37  C   UNL A   1      40.138  25.473  28.070  1.00  0.00     0.029 A 
ATOM     38  N   UNL A   1      41.588  26.985  28.852  1.00  0.00    -0.354 N 
ATOM     39  C   UNL A   1      45.757  26.024  29.375  1.00  0.00     0.074 A 
ATOM     40  C   UNL A   1      46.031  24.660  28.979  1.00  0.00     0.031 C 
ATOM     41  C   UNL A   1      39.446  26.593  28.341  1.00  0.00     0.029 A 
ATOM     42  C   UNL A   1      40.363  27.605  28.862  1.00  0.00     0.049 A 
ATOM     43  H   UNL A   1      42.417  27.424  29.154  1.00  0.00     0.167 HD
ATOM     44  C   UNL A   1      46.693  26.881  29.847  1.00  0.00     0.037 A 
ATOM     45  C   UNL A   1      40.018  28.849  29.241  1.00  0.00     0.037 A 
ATOM     46  C   UNL A   1      46.432  28.248  30.214  1.00  0.00     0.049 A 
ATOM     47  C   UNL A   1      41.081  29.799  29.718  1.00  0.00     0.074 A 
ATOM     48  C   UNL A   1      47.322  29.208  30.667  1.00  0.00     0.029 A 
ATOM     49  N   UNL A   1      45.186  28.851  30.160  1.00  0.00    -0.354 N 
ATOM     50  N   UNL A   1      42.365  29.588  29.878  1.00  0.00    -0.248 NA
ATOM     51  C   UNL A   1      40.649  31.164  30.051  1.00  0.00     0.031 C 
ATOM     52  C   UNL A   1      46.608  30.387  30.907  1.00  0.00     0.029 A 
ATOM     53  C   UNL A   1      45.281  30.171  30.571  1.00  0.00     0.049 A 
ATOM     54  H   UNL A   1      44.355  28.409  29.872  1.00  0.00     0.167 HD
ATOM     55  C   UNL A   1      42.898  30.797  30.304  1.00  0.00     0.074 A 
ATOM     56  C   UNL A   1      41.801  31.740  30.367  1.00  0.00     0.031 C 
ATOM     57  C   UNL A   1      44.181  31.099  30.618  1.00  0.00     0.037 A 
BRANCH  44  58
ATOM     58  C   UNL A   1      48.094  26.359  29.981  1.00  0.00     0.057 A 
ATOM     59  C   UNL A   1      49.011  26.436  28.925  1.00  0.00     0.134 A 
ATOM     60  C   UNL A   1      48.534  25.783  31.179  1.00  0.00     0.134 A 
ATOM     61  F   UNL A   1      48.646  26.963  27.746  1.00  0.00    -0.206 F 
ATOM     62  C   UNL A   1      50.307  25.931  29.044  1.00  0.00     0.040 A 
ATOM     63  C   UNL A   1      49.835  25.297  31.319  1.00  0.00     0.040 A 
ATOM     64  F   UNL A   1      47.708  25.683  32.231  1.00  0.00    -0.206 F 
ATOM     65  C   UNL A   1      50.723  25.364  30.247  1.00  0.00     0.006 A 
ENDBRANCH  44  58
BRANCH  45  66
ATOM     66  C   UNL A   1      38.603  29.283  29.144  1.00  0.00     0.057 A 
ATOM     67  C   UNL A   1      38.059  29.699  27.924  1.00  0.00     0.134 A 
ATOM     68  C   UNL A   1      37.762  29.285  30.262  1.00  0.00     0.134 A 
ATOM     69  F   UNL A   1      38.823  29.733  26.821  1.00  0.00    -0.206 F 
ATOM     70  C   UNL A   1      36.732  30.116  27.820  1.00  0.00     0.040 A 
ATOM     71  C   UNL A   1      36.428  29.682  30.169  1.00  0.00     0.040 A 
ATOM     72  F   UNL A   1      38.225  28.889  31.457  1.00  0.00    -0.206 F 
ATOM     73  C   UNL A   1      35.911  30.103  28.946  1.00  0.00     0.006 A 
ENDBRANCH  45  66
BRANCH  57  74
ATOM     74  C   UNL A   1      44.472  32.513  31.019  1.00  0.00     0.057 A 
ATOM     75  C   UNL A   1      44.789  33.496  30.076  1.00  0.00     0.134 A 
ATOM     76  C   UNL A   1      44.404  32.900  32.363  1.00  0.00     0.134 A 
ATOM     77  F   UNL A   1      44.882  33.186  28.774  1.00  0.00    -0.206 F 
ATOM     78  C   UNL A   1      45.050  34.814  30.457  1.00  0.00     0.040 A 
ATOM     79  C   UNL A   1      44.643  34.217  32.755  1.00  0.00     0.040 A 
ATOM     80  F   UNL A   1      44.099  32.005  33.315  1.00  0.00    -0.206 F 
ATOM     81  C   UNL A   1      44.973  35.178  31.801  1.00  0.00     0.006 A 
ENDBRANCH  57  74
ENDBRANCH  31  32
ENDBRANCH  23  26
ENDBRANCH  21  22
ENDBRANCH   1  21
TORSDOF 12
ENDMDL
