MODEL 1
REMARK VINA RESULT:     -11.6      0.000      0.000
REMARK SMILES C[C@@]([NH2+]CC(=O)NC1CCOCC1)(C(=O)NCCCNC(=O)c1ccc(-c2c3nc(c(-c4c(F)cccc4F)c4ccc([nH]4)c(-c4c(F)cccc4F)c4nc(c(-c5c(F)cccc5F)c5ccc2[nH]5)C=C4)C=C3)cc1)C(F)(F)F
REMARK SMILES IDX 17 1 16 2 14 3 15 4 2 6 1 7 3 8 4 11 5 12 6 13 7 14 8 16
REMARK SMILES IDX 9 17 13 18 10 19 12 20 11 21 77 22 78 23 79 24 80 25 18 26
REMARK SMILES IDX 19 27 20 28 21 29 22 31 23 32 24 33 76 34 25 35 75 36 26 37
REMARK SMILES IDX 27 38 28 39 69 40 29 41 74 42 68 43 70 44 30 45 73 46 67 47
REMARK SMILES IDX 66 48 31 50 57 51 40 52 56 53 41 54 44 55 55 56 71 57 42 58
REMARK SMILES IDX 43 59 54 61 72 62 45 63 32 64 33 65 38 66 34 67 35 68 37 69
REMARK SMILES IDX 39 70 36 71 58 72 59 73 64 74 60 75 61 76 63 77 65 78 62 79
REMARK SMILES IDX 46 80 47 81 52 82 48 83 49 84 51 85 53 86 50 87
REMARK H PARENT 16 5 3 9 3 10 7 15 20 30 70 49 44 60
REMARK Flexibility Score: inf
ROOT
ATOM      1  C   UNL A   1      36.114  20.729  25.053  1.00  0.00     0.118 C 
ENDROOT
BRANCH   1   2
ATOM      2  N   UNL A   1      34.887  19.953  25.000  1.00  0.00    -0.350 N 
ATOM      3  C   UNL A   1      33.663  20.177  25.564  1.00  0.00     0.290 C 
ATOM      4  O   UNL A   1      33.009  19.154  25.788  1.00  0.00    -0.267 OA
ATOM      5  H   UNL A   1      34.947  19.128  24.466  1.00  0.00     0.163 HD
BRANCH   3   6
ATOM      6  C   UNL A   1      33.126  21.587  25.874  1.00  0.00     0.268 C 
ATOM      7  C   UNL A   1      33.673  22.520  24.772  1.00  0.00     0.101 C 
BRANCH   6   8
ATOM      8  N   UNL A   1      31.616  21.665  25.837  1.00  0.00    -0.318 N 
ATOM      9  H   UNL A   1      31.281  21.435  26.773  1.00  0.00     0.347 HD
ATOM     10  H   UNL A   1      31.353  21.020  25.091  1.00  0.00     0.347 HD
BRANCH   8  11
ATOM     11  C   UNL A   1      30.976  22.943  25.446  1.00  0.00     0.362 C 
BRANCH  11  12
ATOM     12  C   UNL A   1      30.313  23.744  26.571  1.00  0.00     0.275 C 
ATOM     13  O   UNL A   1      29.712  23.169  27.482  1.00  0.00    -0.268 OA
ATOM     14  N   UNL A   1      30.417  25.111  26.604  1.00  0.00    -0.348 N 
ATOM     15  H   UNL A   1      30.290  25.534  27.484  1.00  0.00     0.163 HD
BRANCH  14  16
ATOM     16  C   UNL A   1      30.695  26.016  25.494  1.00  0.00     0.086 C 
ATOM     17  C   UNL A   1      31.294  27.363  25.894  1.00  0.00     0.053 C 
ATOM     18  C   UNL A   1      29.476  26.227  24.590  1.00  0.00     0.053 C 
ATOM     19  C   UNL A   1      31.569  28.193  24.643  1.00  0.00     0.162 C 
ATOM     20  C   UNL A   1      29.869  27.104  23.406  1.00  0.00     0.162 C 
ATOM     21  O   UNL A   1      30.385  28.354  23.868  1.00  0.00    -0.381 OA
ENDBRANCH  14  16
ENDBRANCH  11  12
ENDBRANCH   8  11
ENDBRANCH   6   8
BRANCH   6  22
ATOM     22  C   UNL A   1      33.775  22.089  27.200  1.00  0.00     0.453 C 
ATOM     23  F   UNL A   1      34.543  21.160  27.809  1.00  0.00    -0.164 F 
ATOM     24  F   UNL A   1      34.594  23.145  26.934  1.00  0.00    -0.164 F 
ATOM     25  F   UNL A   1      32.875  22.530  28.101  1.00  0.00    -0.164 F 
ENDBRANCH   6  22
ENDBRANCH   3   6
ENDBRANCH   1   2
BRANCH   1  26
ATOM     26  C   UNL A   1      37.297  19.765  24.955  1.00  0.00     0.042 C 
BRANCH  26  27
ATOM     27  C   UNL A   1      38.607  20.383  25.448  1.00  0.00     0.118 C 
BRANCH  27  28
ATOM     28  N   UNL A   1      39.653  19.386  25.615  1.00  0.00    -0.352 N 
ATOM     29  C   UNL A   1      40.960  19.553  26.000  1.00  0.00     0.251 C 
ATOM     30  H   UNL A   1      39.384  18.458  25.424  1.00  0.00     0.163 HD
ATOM     31  O   UNL A   1      41.757  18.631  25.872  1.00  0.00    -0.269 OA
BRANCH  29  32
ATOM     32  C   UNL A   1      41.414  20.850  26.550  1.00  0.00     0.039 A 
ATOM     33  C   UNL A   1      42.008  21.774  25.687  1.00  0.00     0.014 A 
ATOM     34  C   UNL A   1      41.271  21.149  27.908  1.00  0.00     0.014 A 
ATOM     35  C   UNL A   1      42.403  23.022  26.174  1.00  0.00     0.010 A 
ATOM     36  C   UNL A   1      41.597  22.421  28.376  1.00  0.00     0.010 A 
ATOM     37  C   UNL A   1      42.167  23.371  27.515  1.00  0.00    -0.014 A 
BRANCH  37  38
ATOM     38  C   UNL A   1      42.500  24.727  28.024  1.00  0.00     0.031 A 
ATOM     39  C   UNL A   1      43.909  25.066  28.432  1.00  0.00     0.074 A 
ATOM     40  C   UNL A   1      41.521  25.641  28.175  1.00  0.00     0.049 A 
ATOM     41  N   UNL A   1      44.375  26.173  28.951  1.00  0.00    -0.248 NA
ATOM     42  C   UNL A   1      44.920  24.013  28.254  1.00  0.00     0.031 C 
ATOM     43  C   UNL A   1      40.108  25.425  27.857  1.00  0.00     0.029 A 
ATOM     44  N   UNL A   1      41.562  26.931  28.643  1.00  0.00    -0.354 N 
ATOM     45  C   UNL A   1      45.729  25.948  29.170  1.00  0.00     0.074 A 
ATOM     46  C   UNL A   1      45.996  24.580  28.780  1.00  0.00     0.031 C 
ATOM     47  C   UNL A   1      39.423  26.550  28.117  1.00  0.00     0.029 A 
ATOM     48  C   UNL A   1      40.336  27.550  28.659  1.00  0.00     0.049 A 
ATOM     49  H   UNL A   1      42.392  27.370  28.939  1.00  0.00     0.167 HD
ATOM     50  C   UNL A   1      46.667  26.807  29.635  1.00  0.00     0.037 A 
ATOM     51  C   UNL A   1      39.984  28.782  29.075  1.00  0.00     0.037 A 
ATOM     52  C   UNL A   1      46.402  28.172  30.010  1.00  0.00     0.049 A 
ATOM     53  C   UNL A   1      41.040  29.709  29.610  1.00  0.00     0.074 A 
ATOM     54  C   UNL A   1      47.297  29.137  30.441  1.00  0.00     0.029 A 
ATOM     55  N   UNL A   1      45.148  28.764  30.008  1.00  0.00    -0.354 N 
ATOM     56  N   UNL A   1      42.328  29.505  29.747  1.00  0.00    -0.248 NA
ATOM     57  C   UNL A   1      40.596  31.041  30.043  1.00  0.00     0.031 C 
ATOM     58  C   UNL A   1      46.578  30.295  30.751  1.00  0.00     0.029 A 
ATOM     59  C   UNL A   1      45.242  30.072  30.455  1.00  0.00     0.049 A 
ATOM     60  H   UNL A   1      44.315  28.321  29.730  1.00  0.00     0.167 HD
ATOM     61  C   UNL A   1      42.850  30.689  30.251  1.00  0.00     0.074 A 
ATOM     62  C   UNL A   1      41.742  31.612  30.381  1.00  0.00     0.031 C 
ATOM     63  C   UNL A   1      44.133  30.985  30.576  1.00  0.00     0.037 A 
BRANCH  50  64
ATOM     64  C   UNL A   1      48.074  26.295  29.765  1.00  0.00     0.057 A 
ATOM     65  C   UNL A   1      49.002  26.405  28.721  1.00  0.00     0.134 A 
ATOM     66  C   UNL A   1      48.518  25.721  30.963  1.00  0.00     0.134 A 
ATOM     67  F   UNL A   1      48.641  26.936  27.543  1.00  0.00    -0.206 F 
ATOM     68  C   UNL A   1      50.311  25.938  28.853  1.00  0.00     0.040 A 
ATOM     69  C   UNL A   1      49.833  25.277  31.119  1.00  0.00     0.040 A 
ATOM     70  F   UNL A   1      47.685  25.592  32.008  1.00  0.00    -0.206 F 
ATOM     71  C   UNL A   1      50.732  25.378  30.059  1.00  0.00     0.006 A 
ENDBRANCH  50  64
BRANCH  51  72
ATOM     72  C   UNL A   1      38.567  29.220  28.990  1.00  0.00     0.057 A 
ATOM     73  C   UNL A   1      37.719  29.145  30.100  1.00  0.00     0.134 A 
ATOM     74  C   UNL A   1      38.023  29.709  27.796  1.00  0.00     0.134 A 
ATOM     75  F   UNL A   1      38.176  28.668  31.267  1.00  0.00    -0.206 F 
ATOM     76  C   UNL A   1      36.376  29.518  30.023  1.00  0.00     0.040 A 
ATOM     77  C   UNL A   1      36.689  30.113  27.711  1.00  0.00     0.040 A 
ATOM     78  F   UNL A   1      38.784  29.814  26.697  1.00  0.00    -0.206 F 
ATOM     79  C   UNL A   1      35.859  30.010  28.826  1.00  0.00     0.006 A 
ENDBRANCH  51  72
BRANCH  63  80
ATOM     80  C   UNL A   1      44.417  32.376  31.064  1.00  0.00     0.057 A 
ATOM     81  C   UNL A   1      44.710  33.427  30.186  1.00  0.00     0.134 A 
ATOM     82  C   UNL A   1      44.360  32.676  32.432  1.00  0.00     0.134 A 
ATOM     83  F   UNL A   1      44.793  33.206  28.865  1.00  0.00    -0.206 F 
ATOM     84  C   UNL A   1      44.960  34.719  30.651  1.00  0.00     0.040 A 
ATOM     85  C   UNL A   1      44.579  33.970  32.907  1.00  0.00     0.040 A 
ATOM     86  F   UNL A   1      44.076  31.719  33.328  1.00  0.00    -0.206 F 
ATOM     87  C   UNL A   1      44.886  34.995  32.015  1.00  0.00     0.006 A 
ENDBRANCH  63  80
ENDBRANCH  37  38
ENDBRANCH  29  32
ENDBRANCH  27  28
ENDBRANCH  26  27
ENDBRANCH   1  26
TORSDOF 15
ENDMDL
MODEL 2
REMARK VINA RESULT:     -11.5      0.341      6.275
REMARK SMILES C[C@@]([NH2+]CC(=O)NC1CCOCC1)(C(=O)NCCCNC(=O)c1ccc(-c2c3nc(c(-c4c(F)cccc4F)c4ccc([nH]4)c(-c4c(F)cccc4F)c4nc(c(-c5c(F)cccc5F)c5ccc2[nH]5)C=C4)C=C3)cc1)C(F)(F)F
REMARK SMILES IDX 17 1 16 2 14 3 15 4 2 6 1 7 3 8 4 11 5 12 6 13 7 14 8 16
REMARK SMILES IDX 9 17 13 18 10 19 12 20 11 21 77 22 78 23 79 24 80 25 18 26
REMARK SMILES IDX 19 27 20 28 21 29 22 31 23 32 24 33 76 34 25 35 75 36 26 37
REMARK SMILES IDX 27 38 28 39 69 40 29 41 74 42 68 43 70 44 30 45 73 46 67 47
REMARK SMILES IDX 66 48 31 50 57 51 40 52 56 53 41 54 44 55 55 56 71 57 42 58
REMARK SMILES IDX 43 59 54 61 72 62 45 63 32 64 33 65 38 66 34 67 35 68 37 69
REMARK SMILES IDX 39 70 36 71 58 72 59 73 64 74 60 75 61 76 63 77 65 78 62 79
REMARK SMILES IDX 46 80 47 81 52 82 48 83 49 84 51 85 53 86 50 87
REMARK H PARENT 16 5 3 9 3 10 7 15 20 30 70 49 44 60
REMARK Flexibility Score: inf
ROOT
ATOM      1  C   UNL A   1      36.173  20.881  25.261  1.00  0.00     0.118 C 
ENDROOT
BRANCH   1   2
ATOM      2  N   UNL A   1      34.967  20.087  25.100  1.00  0.00    -0.350 N 
ATOM      3  C   UNL A   1      33.704  20.270  25.586  1.00  0.00     0.290 C 
ATOM      4  O   UNL A   1      33.056  19.230  25.732  1.00  0.00    -0.267 OA
ATOM      5  H   UNL A   1      35.079  19.281  24.545  1.00  0.00     0.163 HD
BRANCH   3   6
ATOM      6  C   UNL A   1      33.121  21.660  25.905  1.00  0.00     0.268 C 
ATOM      7  C   UNL A   1      33.657  22.623  24.824  1.00  0.00     0.101 C 
BRANCH   6   8
ATOM      8  N   UNL A   1      31.609  21.693  25.845  1.00  0.00    -0.318 N 
ATOM      9  H   UNL A   1      31.267  21.444  26.773  1.00  0.00     0.347 HD
ATOM     10  H   UNL A   1      31.378  21.050  25.088  1.00  0.00     0.347 HD
BRANCH   8  11
ATOM     11  C   UNL A   1      30.938  22.956  25.458  1.00  0.00     0.362 C 
BRANCH  11  12
ATOM     12  C   UNL A   1      30.284  23.754  26.591  1.00  0.00     0.275 C 
ATOM     13  O   UNL A   1      29.667  23.178  27.489  1.00  0.00    -0.268 OA
ATOM     14  N   UNL A   1      30.414  25.119  26.643  1.00  0.00    -0.348 N 
ATOM     15  H   UNL A   1      30.289  25.532  27.528  1.00  0.00     0.163 HD
BRANCH  14  16
ATOM     16  C   UNL A   1      30.714  26.033  25.548  1.00  0.00     0.086 C 
ATOM     17  C   UNL A   1      31.380  27.343  25.965  1.00  0.00     0.053 C 
ATOM     18  C   UNL A   1      29.493  26.318  24.668  1.00  0.00     0.053 C 
ATOM     19  C   UNL A   1      31.673  28.187  24.726  1.00  0.00     0.162 C 
ATOM     20  C   UNL A   1      29.906  27.201  23.496  1.00  0.00     0.162 C 
ATOM     21  O   UNL A   1      30.485  28.416  23.974  1.00  0.00    -0.381 OA
ENDBRANCH  14  16
ENDBRANCH  11  12
ENDBRANCH   8  11
ENDBRANCH   6   8
BRANCH   6  22
ATOM     22  C   UNL A   1      33.734  22.164  27.248  1.00  0.00     0.453 C 
ATOM     23  F   UNL A   1      34.480  21.233  27.881  1.00  0.00    -0.164 F 
ATOM     24  F   UNL A   1      34.563  23.216  27.002  1.00  0.00    -0.164 F 
ATOM     25  F   UNL A   1      32.809  22.611  28.121  1.00  0.00    -0.164 F 
ENDBRANCH   6  22
ENDBRANCH   3   6
ENDBRANCH   1   2
BRANCH   1  26
ATOM     26  C   UNL A   1      37.379  19.990  24.965  1.00  0.00     0.042 C 
BRANCH  26  27
ATOM     27  C   UNL A   1      38.679  20.535  25.558  1.00  0.00     0.118 C 
BRANCH  27  28
ATOM     28  N   UNL A   1      39.699  19.505  25.682  1.00  0.00    -0.352 N 
ATOM     29  C   UNL A   1      41.018  19.625  26.045  1.00  0.00     0.251 C 
ATOM     30  H   UNL A   1      39.400  18.590  25.475  1.00  0.00     0.163 HD
ATOM     31  O   UNL A   1      41.785  18.684  25.880  1.00  0.00    -0.269 OA
BRANCH  29  32
ATOM     32  C   UNL A   1      41.519  20.896  26.616  1.00  0.00     0.039 A 
ATOM     33  C   UNL A   1      42.049  21.857  25.752  1.00  0.00     0.014 A 
ATOM     34  C   UNL A   1      41.483  21.133  27.993  1.00  0.00     0.014 A 
ATOM     35  C   UNL A   1      42.486  23.081  26.263  1.00  0.00     0.010 A 
ATOM     36  C   UNL A   1      41.851  22.382  28.491  1.00  0.00     0.010 A 
ATOM     37  C   UNL A   1      42.357  23.369  27.632  1.00  0.00    -0.014 A 
BRANCH  37  38
ATOM     38  C   UNL A   1      42.736  24.700  28.175  1.00  0.00     0.031 A 
ATOM     39  C   UNL A   1      41.693  25.765  28.383  1.00  0.00     0.074 A 
ATOM     40  C   UNL A   1      44.031  24.972  28.428  1.00  0.00     0.049 A 
ATOM     41  N   UNL A   1      41.843  27.000  28.791  1.00  0.00    -0.248 NA
ATOM     42  C   UNL A   1      40.303  25.400  28.070  1.00  0.00     0.031 C 
ATOM     43  C   UNL A   1      45.144  24.042  28.229  1.00  0.00     0.029 A 
ATOM     44  N   UNL A   1      44.633  26.113  28.898  1.00  0.00    -0.354 N 
ATOM     45  C   UNL A   1      40.571  27.561  28.774  1.00  0.00     0.074 A 
ATOM     46  C   UNL A   1      39.671  26.549  28.263  1.00  0.00     0.031 C 
ATOM     47  C   UNL A   1      46.288  24.641  28.595  1.00  0.00     0.029 A 
ATOM     48  C   UNL A   1      45.998  26.009  29.014  1.00  0.00     0.049 A 
ATOM     49  H   UNL A   1      44.133  26.929  29.130  1.00  0.00     0.167 HD
ATOM     50  C   UNL A   1      40.186  28.799  29.167  1.00  0.00     0.037 A 
ATOM     51  C   UNL A   1      46.914  26.915  29.402  1.00  0.00     0.037 A 
ATOM     52  C   UNL A   1      41.080  29.800  29.688  1.00  0.00     0.049 A 
ATOM     53  C   UNL A   1      46.463  28.290  29.811  1.00  0.00     0.074 A 
ATOM     54  C   UNL A   1      40.776  31.063  30.164  1.00  0.00     0.029 A 
ATOM     55  N   UNL A   1      42.456  29.653  29.795  1.00  0.00    -0.354 N 
ATOM     56  N   UNL A   1      45.249  28.784  29.855  1.00  0.00    -0.248 NA
ATOM     57  C   UNL A   1      47.510  29.234  30.230  1.00  0.00     0.031 C 
ATOM     58  C   UNL A   1      41.971  31.703  30.508  1.00  0.00     0.029 A 
ATOM     59  C   UNL A   1      43.016  30.815  30.304  1.00  0.00     0.049 A 
ATOM     60  H   UNL A   1      42.959  28.846  29.546  1.00  0.00     0.167 HD
ATOM     61  C   UNL A   1      45.383  30.081  30.334  1.00  0.00     0.074 A 
ATOM     62  C   UNL A   1      46.794  30.292  30.581  1.00  0.00     0.031 C 
ATOM     63  C   UNL A   1      44.422  31.013  30.551  1.00  0.00     0.037 A 
BRANCH  50  64
ATOM     64  C   UNL A   1      38.727  29.142  29.048  1.00  0.00     0.057 A 
ATOM     65  C   UNL A   1      37.857  29.068  30.143  1.00  0.00     0.134 A 
ATOM     66  C   UNL A   1      38.196  29.590  27.832  1.00  0.00     0.134 A 
ATOM     67  F   UNL A   1      38.298  28.637  31.335  1.00  0.00    -0.206 F 
ATOM     68  C   UNL A   1      36.506  29.400  30.028  1.00  0.00     0.040 A 
ATOM     69  C   UNL A   1      36.853  29.954  27.711  1.00  0.00     0.040 A 
ATOM     70  F   UNL A   1      38.974  29.694  26.744  1.00  0.00    -0.206 F 
ATOM     71  C   UNL A   1      36.002  29.852  28.809  1.00  0.00     0.006 A 
ENDBRANCH  50  64
BRANCH  51  72
ATOM     72  C   UNL A   1      48.354  26.550  29.439  1.00  0.00     0.057 A 
ATOM     73  C   UNL A   1      48.940  26.035  30.601  1.00  0.00     0.134 A 
ATOM     74  C   UNL A   1      49.181  26.719  28.322  1.00  0.00     0.134 A 
ATOM     75  F   UNL A   1      48.205  25.867  31.710  1.00  0.00    -0.206 F 
ATOM     76  C   UNL A   1      50.299  25.723  30.660  1.00  0.00     0.040 A 
ATOM     77  C   UNL A   1      50.536  26.385  28.357  1.00  0.00     0.040 A 
ATOM     78  F   UNL A   1      48.680  27.200  27.174  1.00  0.00    -0.206 F 
ATOM     79  C   UNL A   1      51.101  25.893  29.532  1.00  0.00     0.006 A 
ENDBRANCH  51  72
BRANCH  63  80
ATOM     80  C   UNL A   1      44.857  32.332  31.121  1.00  0.00     0.057 A 
ATOM     81  C   UNL A   1      44.952  32.550  32.502  1.00  0.00     0.134 A 
ATOM     82  C   UNL A   1      45.221  33.388  30.275  1.00  0.00     0.134 A 
ATOM     83  F   UNL A   1      44.606  31.585  33.368  1.00  0.00    -0.206 F 
ATOM     84  C   UNL A   1      45.369  33.777  33.019  1.00  0.00     0.040 A 
ATOM     85  C   UNL A   1      45.668  34.609  30.780  1.00  0.00     0.040 A 
ATOM     86  F   UNL A   1      45.163  33.244  28.942  1.00  0.00    -0.206 F 
ATOM     87  C   UNL A   1      45.737  34.808  32.157  1.00  0.00     0.006 A 
ENDBRANCH  63  80
ENDBRANCH  37  38
ENDBRANCH  29  32
ENDBRANCH  27  28
ENDBRANCH  26  27
ENDBRANCH   1  26
TORSDOF 15
ENDMDL
MODEL 3
REMARK VINA RESULT:     -11.5      5.014      9.167
REMARK SMILES C[C@@]([NH2+]CC(=O)NC1CCOCC1)(C(=O)NCCCNC(=O)c1ccc(-c2c3nc(c(-c4c(F)cccc4F)c4ccc([nH]4)c(-c4c(F)cccc4F)c4nc(c(-c5c(F)cccc5F)c5ccc2[nH]5)C=C4)C=C3)cc1)C(F)(F)F
REMARK SMILES IDX 17 1 16 2 14 3 15 4 2 6 1 7 3 8 4 11 5 12 6 13 7 14 8 16
REMARK SMILES IDX 9 17 13 18 10 19 12 20 11 21 77 22 78 23 79 24 80 25 18 26
REMARK SMILES IDX 19 27 20 28 21 29 22 31 23 32 24 33 76 34 25 35 75 36 26 37
REMARK SMILES IDX 27 38 28 39 69 40 29 41 74 42 68 43 70 44 30 45 73 46 67 47
REMARK SMILES IDX 66 48 31 50 57 51 40 52 56 53 41 54 44 55 55 56 71 57 42 58
REMARK SMILES IDX 43 59 54 61 72 62 45 63 32 64 33 65 38 66 34 67 35 68 37 69
REMARK SMILES IDX 39 70 36 71 58 72 59 73 64 74 60 75 61 76 63 77 65 78 62 79
REMARK SMILES IDX 46 80 47 81 52 82 48 83 49 84 51 85 53 86 50 87
REMARK H PARENT 16 5 3 9 3 10 7 15 20 30 70 49 44 60
REMARK Flexibility Score: inf
ROOT
ATOM      1  C   UNL A   1      31.632  30.936  26.052  1.00  0.00     0.118 C 
ENDROOT
BRANCH   1   2
ATOM      2  N   UNL A   1      31.840  29.822  26.962  1.00  0.00    -0.350 N 
ATOM      3  C   UNL A   1      31.686  28.478  26.779  1.00  0.00     0.290 C 
ATOM      4  O   UNL A   1      31.427  27.848  27.808  1.00  0.00    -0.267 OA
ATOM      5  H   UNL A   1      32.145  30.080  27.861  1.00  0.00     0.163 HD
BRANCH   3   6
ATOM      6  C   UNL A   1      31.846  27.793  25.408  1.00  0.00     0.268 C 
ATOM      7  C   UNL A   1      31.228  26.385  25.543  1.00  0.00     0.101 C 
BRANCH   6   8
ATOM      8  N   UNL A   1      31.113  28.515  24.299  1.00  0.00    -0.318 N 
ATOM      9  H   UNL A   1      31.800  29.087  23.808  1.00  0.00     0.347 HD
ATOM     10  H   UNL A   1      30.367  29.016  24.780  1.00  0.00     0.347 HD
BRANCH   8  11
ATOM     11  C   UNL A   1      30.402  27.714  23.274  1.00  0.00     0.362 C 
BRANCH  11  12
ATOM     12  C   UNL A   1      28.877  27.643  23.404  1.00  0.00     0.275 C 
ATOM     13  O   UNL A   1      28.311  26.561  23.577  1.00  0.00    -0.268 OA
ATOM     14  N   UNL A   1      28.124  28.789  23.372  1.00  0.00    -0.348 N 
ATOM     15  H   UNL A   1      27.235  28.734  23.793  1.00  0.00     0.163 HD
BRANCH  14  16
ATOM     16  C   UNL A   1      28.478  30.079  22.793  1.00  0.00     0.086 C 
ATOM     17  C   UNL A   1      28.199  31.286  23.686  1.00  0.00     0.053 C 
ATOM     18  C   UNL A   1      27.857  30.291  21.409  1.00  0.00     0.053 C 
ATOM     19  C   UNL A   1      28.649  32.562  22.978  1.00  0.00     0.162 C 
ATOM     20  C   UNL A   1      28.347  31.614  20.830  1.00  0.00     0.162 C 
ATOM     21  O   UNL A   1      28.016  32.690  21.709  1.00  0.00    -0.381 OA
ENDBRANCH  14  16
ENDBRANCH  11  12
ENDBRANCH   8  11
ENDBRANCH   6   8
BRANCH   6  22
ATOM     22  C   UNL A   1      33.364  27.554  25.142  1.00  0.00     0.453 C 
ATOM     23  F   UNL A   1      34.053  27.190  26.245  1.00  0.00    -0.164 F 
ATOM     24  F   UNL A   1      33.514  26.538  24.247  1.00  0.00    -0.164 F 
ATOM     25  F   UNL A   1      33.986  28.622  24.605  1.00  0.00    -0.164 F 
ENDBRANCH   6  22
ENDBRANCH   3   6
ENDBRANCH   1   2
BRANCH   1  26
ATOM     26  C   UNL A   1      31.388  32.196  26.882  1.00  0.00     0.042 C 
BRANCH  26  27
ATOM     27  C   UNL A   1      32.683  32.927  27.244  1.00  0.00     0.118 C 
BRANCH  27  28
ATOM     28  N   UNL A   1      32.439  34.303  27.649  1.00  0.00    -0.352 N 
ATOM     29  C   UNL A   1      33.024  35.029  28.657  1.00  0.00     0.251 C 
ATOM     30  H   UNL A   1      31.757  34.781  27.125  1.00  0.00     0.163 HD
ATOM     31  O   UNL A   1      32.538  36.101  28.998  1.00  0.00    -0.269 OA
BRANCH  29  32
ATOM     32  C   UNL A   1      34.226  34.510  29.347  1.00  0.00     0.039 A 
ATOM     33  C   UNL A   1      34.076  33.911  30.600  1.00  0.00     0.014 A 
ATOM     34  C   UNL A   1      35.496  34.627  28.773  1.00  0.00     0.014 A 
ATOM     35  C   UNL A   1      35.190  33.375  31.249  1.00  0.00     0.010 A 
ATOM     36  C   UNL A   1      36.593  34.026  29.388  1.00  0.00     0.010 A 
ATOM     37  C   UNL A   1      36.452  33.394  30.632  1.00  0.00    -0.014 A 
BRANCH  37  38
ATOM     38  C   UNL A   1      37.628  32.748  31.271  1.00  0.00     0.031 A 
ATOM     39  C   UNL A   1      38.265  31.533  30.650  1.00  0.00     0.074 A 
ATOM     40  C   UNL A   1      38.091  33.219  32.446  1.00  0.00     0.049 A 
ATOM     41  N   UNL A   1      39.258  30.804  31.091  1.00  0.00    -0.248 NA
ATOM     42  C   UNL A   1      37.696  31.067  29.376  1.00  0.00     0.031 C 
ATOM     43  C   UNL A   1      37.537  34.362  33.175  1.00  0.00     0.029 A 
ATOM     44  N   UNL A   1      39.125  32.790  33.240  1.00  0.00    -0.354 N 
ATOM     45  C   UNL A   1      39.425  29.788  30.158  1.00  0.00     0.074 A 
ATOM     46  C   UNL A   1      38.396  29.964  29.155  1.00  0.00     0.031 C 
ATOM     47  C   UNL A   1      38.251  34.558  34.294  1.00  0.00     0.029 A 
ATOM     48  C   UNL A   1      39.284  33.531  34.386  1.00  0.00     0.049 A 
ATOM     49  H   UNL A   1      39.700  32.025  33.009  1.00  0.00     0.167 HD
ATOM     50  C   UNL A   1      40.362  28.810  30.127  1.00  0.00     0.037 A 
ATOM     51  C   UNL A   1      40.155  33.393  35.403  1.00  0.00     0.037 A 
ATOM     52  C   UNL A   1      41.393  28.644  31.119  1.00  0.00     0.049 A 
ATOM     53  C   UNL A   1      41.171  32.285  35.358  1.00  0.00     0.074 A 
ATOM     54  C   UNL A   1      42.422  27.718  31.146  1.00  0.00     0.029 A 
ATOM     55  N   UNL A   1      41.523  29.418  32.263  1.00  0.00    -0.354 N 
ATOM     56  N   UNL A   1      41.360  31.373  34.434  1.00  0.00    -0.248 NA
ATOM     57  C   UNL A   1      42.098  32.187  36.495  1.00  0.00     0.031 C 
ATOM     58  C   UNL A   1      43.140  27.895  32.332  1.00  0.00     0.029 A 
ATOM     59  C   UNL A   1      42.598  28.972  33.015  1.00  0.00     0.049 A 
ATOM     60  H   UNL A   1      40.939  30.172  32.504  1.00  0.00     0.167 HD
ATOM     61  C   UNL A   1      42.444  30.617  34.862  1.00  0.00     0.074 A 
ATOM     62  C   UNL A   1      42.879  31.186  36.120  1.00  0.00     0.031 C 
ATOM     63  C   UNL A   1      43.027  29.549  34.265  1.00  0.00     0.037 A 
BRANCH  50  64
ATOM     64  C   UNL A   1      40.315  27.839  28.982  1.00  0.00     0.057 A 
ATOM     65  C   UNL A   1      41.065  28.034  27.814  1.00  0.00     0.134 A 
ATOM     66  C   UNL A   1      39.542  26.674  29.063  1.00  0.00     0.134 A 
ATOM     67  F   UNL A   1      41.820  29.133  27.666  1.00  0.00    -0.206 F 
ATOM     68  C   UNL A   1      41.025  27.121  26.759  1.00  0.00     0.040 A 
ATOM     69  C   UNL A   1      39.517  25.738  28.027  1.00  0.00     0.040 A 
ATOM     70  F   UNL A   1      38.806  26.418  30.156  1.00  0.00    -0.206 F 
ATOM     71  C   UNL A   1      40.255  25.965  26.867  1.00  0.00     0.006 A 
ENDBRANCH  50  64
BRANCH  51  72
ATOM     72  C   UNL A   1      40.119  34.338  36.549  1.00  0.00     0.057 A 
ATOM     73  C   UNL A   1      39.376  34.051  37.700  1.00  0.00     0.134 A 
ATOM     74  C   UNL A   1      40.812  35.555  36.516  1.00  0.00     0.134 A 
ATOM     75  F   UNL A   1      38.677  32.910  37.784  1.00  0.00    -0.206 F 
ATOM     76  C   UNL A   1      39.304  34.947  38.768  1.00  0.00     0.040 A 
ATOM     77  C   UNL A   1      40.772  36.448  37.588  1.00  0.00     0.040 A 
ATOM     78  F   UNL A   1      41.549  35.886  35.446  1.00  0.00    -0.206 F 
ATOM     79  C   UNL A   1      40.009  36.149  38.715  1.00  0.00     0.006 A 
ENDBRANCH  51  72
BRANCH  63  80
ATOM     80  C   UNL A   1      44.225  28.948  34.943  1.00  0.00     0.057 A 
ATOM     81  C   UNL A   1      45.528  29.389  34.676  1.00  0.00     0.134 A 
ATOM     82  C   UNL A   1      44.069  27.940  35.903  1.00  0.00     0.134 A 
ATOM     83  F   UNL A   1      45.749  30.342  33.758  1.00  0.00    -0.206 F 
ATOM     84  C   UNL A   1      46.633  28.831  35.321  1.00  0.00     0.040 A 
ATOM     85  C   UNL A   1      45.163  27.396  36.576  1.00  0.00     0.040 A 
ATOM     86  F   UNL A   1      42.848  27.478  36.213  1.00  0.00    -0.206 F 
ATOM     87  C   UNL A   1      46.451  27.837  36.281  1.00  0.00     0.006 A 
ENDBRANCH  63  80
ENDBRANCH  37  38
ENDBRANCH  29  32
ENDBRANCH  27  28
ENDBRANCH  26  27
ENDBRANCH   1  26
TORSDOF 15
ENDMDL
