MODEL 1
REMARK VINA RESULT:     -12.2      0.000      0.000
REMARK SMILES Cc1cc(Cl)c2c(c1)C=C(C(=O)NCCCNC(=O)c1ccc(-c3c4nc(c(-c5c(F)cccc5F)c5ccc([nH]5)c(-c5c(F)cccc5F)c5nc(c(-c6c(F)cccc6F)c6ccc3[nH]6)C=C5)C=C4)cc1)[C@@H](C(F)(F)F)O2
REMARK SMILES IDX 15 1 14 2 13 3 11 4 12 5 10 7 1 8 2 9 3 10 8 11 4 12 7 13
REMARK SMILES IDX 5 14 6 15 9 16 79 17 74 18 75 19 76 20 77 21 78 22 16 23
REMARK SMILES IDX 17 24 18 25 19 27 20 28 21 29 73 30 22 31 72 32 23 33 24 34
REMARK SMILES IDX 25 35 66 36 26 37 71 38 65 39 67 40 27 41 70 42 64 43 63 44
REMARK SMILES IDX 28 46 54 47 37 48 53 49 38 50 41 51 52 52 68 53 39 54 40 55
REMARK SMILES IDX 51 57 69 58 42 59 29 60 30 61 35 62 31 63 32 64 34 65 36 66
REMARK SMILES IDX 33 67 55 68 56 69 61 70 57 71 58 72 60 73 62 74 59 75 43 76
REMARK SMILES IDX 44 77 49 78 45 79 46 80 48 81 50 82 47 83
REMARK H PARENT 13 6 17 26 67 45 41 56
REMARK Flexibility Score: inf
ROOT
ATOM      1  C   UNL A   1      37.762  19.474  24.967  1.00  0.00     0.042 C 
ENDROOT
BRANCH   1   2
ATOM      2  C   UNL A   1      36.653  20.460  24.633  1.00  0.00     0.118 C 
BRANCH   2   3
ATOM      3  N   UNL A   1      35.755  20.665  25.760  1.00  0.00    -0.352 N 
ATOM      4  C   UNL A   1      34.801  21.554  26.118  1.00  0.00     0.251 C 
ATOM      5  O   UNL A   1      34.268  21.341  27.212  1.00  0.00    -0.270 OA
ATOM      6  H   UNL A   1      35.875  19.970  26.447  1.00  0.00     0.163 HD
BRANCH   4   7
ATOM      7  C   UNL A   1      34.372  22.724  25.300  1.00  0.00     0.067 C 
ATOM      8  C   UNL A   1      33.623  28.847  25.686  1.00  0.00     0.044 C 
ATOM      9  C   UNL A   1      33.694  27.511  25.008  1.00  0.00    -0.049 A 
ATOM     10  C   UNL A   1      33.364  27.379  23.654  1.00  0.00     0.028 A 
ATOM     11  C   UNL A   1      34.075  26.374  25.736  1.00  0.00     0.015 A 
ATOM     12  C   UNL A   1      33.424  26.131  23.034  1.00  0.00     0.084 A 
ATOM     13  C   UNL A   1      34.126  25.119  25.120  1.00  0.00     0.019 A 
ATOM     14  Cl  UNL A   1      33.014  26.018  21.360  1.00  0.00    -0.080 Cl
ATOM     15  C   UNL A   1      33.795  25.001  23.767  1.00  0.00     0.146 A 
ATOM     16  C   UNL A   1      34.552  23.936  25.860  1.00  0.00     0.025 C 
ATOM     17  O   UNL A   1      33.869  23.800  23.116  1.00  0.00    -0.474 OA
ATOM     18  C   UNL A   1      33.743  22.616  23.942  1.00  0.00     0.314 C 
BRANCH  18  19
ATOM     19  C   UNL A   1      32.263  22.182  24.008  1.00  0.00     0.429 C 
ATOM     20  F   UNL A   1      32.158  20.836  23.882  1.00  0.00    -0.167 F 
ATOM     21  F   UNL A   1      31.681  22.502  25.189  1.00  0.00    -0.167 F 
ATOM     22  F   UNL A   1      31.511  22.745  23.038  1.00  0.00    -0.167 F 
ENDBRANCH  18  19
ENDBRANCH   4   7
ENDBRANCH   2   3
ENDBRANCH   1   2
BRANCH   1  23
ATOM     23  C   UNL A   1      38.901  20.137  25.727  1.00  0.00     0.118 C 
BRANCH  23  24
ATOM     24  N   UNL A   1      40.069  19.263  25.822  1.00  0.00    -0.352 N 
ATOM     25  C   UNL A   1      41.387  19.571  26.039  1.00  0.00     0.251 C 
ATOM     26  H   UNL A   1      39.879  18.303  25.713  1.00  0.00     0.163 HD
ATOM     27  O   UNL A   1      42.259  18.737  25.799  1.00  0.00    -0.269 OA
BRANCH  25  28
ATOM     28  C   UNL A   1      41.756  20.898  26.559  1.00  0.00     0.039 A 
ATOM     29  C   UNL A   1      42.204  21.883  25.677  1.00  0.00     0.014 A 
ATOM     30  C   UNL A   1      41.679  21.159  27.928  1.00  0.00     0.014 A 
ATOM     31  C   UNL A   1      42.514  23.153  26.166  1.00  0.00     0.010 A 
ATOM     32  C   UNL A   1      41.883  22.448  28.397  1.00  0.00     0.010 A 
ATOM     33  C   UNL A   1      42.321  23.452  27.524  1.00  0.00    -0.014 A 
BRANCH  33  34
ATOM     34  C   UNL A   1      42.613  24.797  28.071  1.00  0.00     0.031 A 
ATOM     35  C   UNL A   1      44.023  25.153  28.452  1.00  0.00     0.074 A 
ATOM     36  C   UNL A   1      41.608  25.670  28.266  1.00  0.00     0.049 A 
ATOM     37  N   UNL A   1      44.477  26.245  29.010  1.00  0.00    -0.248 NA
ATOM     38  C   UNL A   1      45.059  24.135  28.201  1.00  0.00     0.031 C 
ATOM     39  C   UNL A   1      40.197  25.421  27.962  1.00  0.00     0.029 A 
ATOM     40  N   UNL A   1      41.618  26.948  28.766  1.00  0.00    -0.354 N 
ATOM     41  C   UNL A   1      45.841  26.045  29.172  1.00  0.00     0.074 A 
ATOM     42  C   UNL A   1      46.131  24.701  28.731  1.00  0.00     0.031 C 
ATOM     43  C   UNL A   1      39.485  26.526  28.238  1.00  0.00     0.029 A 
ATOM     44  C   UNL A   1      40.381  27.544  28.780  1.00  0.00     0.049 A 
ATOM     45  H   UNL A   1      42.436  27.395  29.083  1.00  0.00     0.167 HD
ATOM     46  C   UNL A   1      46.775  26.918  29.613  1.00  0.00     0.037 A 
ATOM     47  C   UNL A   1      40.014  28.775  29.184  1.00  0.00     0.037 A 
ATOM     48  C   UNL A   1      46.481  28.263  30.028  1.00  0.00     0.049 A 
ATOM     49  C   UNL A   1      41.065  29.709  29.715  1.00  0.00     0.074 A 
ATOM     50  C   UNL A   1      47.358  29.238  30.468  1.00  0.00     0.029 A 
ATOM     51  N   UNL A   1      45.213  28.822  30.047  1.00  0.00    -0.354 N 
ATOM     52  N   UNL A   1      42.359  29.521  29.826  1.00  0.00    -0.248 NA
ATOM     53  C   UNL A   1      40.608  31.026  30.178  1.00  0.00     0.031 C 
ATOM     54  C   UNL A   1      46.614  30.375  30.793  1.00  0.00     0.029 A 
ATOM     55  C   UNL A   1      45.281  30.126  30.509  1.00  0.00     0.049 A 
ATOM     56  H   UNL A   1      44.387  28.361  29.773  1.00  0.00     0.167 HD
ATOM     57  C   UNL A   1      42.872  30.704  30.342  1.00  0.00     0.074 A 
ATOM     58  C   UNL A   1      41.753  31.607  30.509  1.00  0.00     0.031 C 
ATOM     59  C   UNL A   1      44.155  31.012  30.655  1.00  0.00     0.037 A 
BRANCH  46  60
ATOM     60  C   UNL A   1      48.203  26.459  29.637  1.00  0.00     0.057 A 
ATOM     61  C   UNL A   1      49.066  26.698  28.559  1.00  0.00     0.134 A 
ATOM     62  C   UNL A   1      48.737  25.820  30.763  1.00  0.00     0.134 A 
ATOM     63  F   UNL A   1      48.613  27.291  27.443  1.00  0.00    -0.206 F 
ATOM     64  C   UNL A   1      50.406  26.307  28.594  1.00  0.00     0.040 A 
ATOM     65  C   UNL A   1      50.082  25.450  30.820  1.00  0.00     0.040 A 
ATOM     66  F   UNL A   1      47.966  25.561  31.829  1.00  0.00    -0.206 F 
ATOM     67  C   UNL A   1      50.920  25.691  29.733  1.00  0.00     0.006 A 
ENDBRANCH  46  60
BRANCH  47  68
ATOM     68  C   UNL A   1      38.599  29.209  29.059  1.00  0.00     0.057 A 
ATOM     69  C   UNL A   1      38.093  29.655  27.832  1.00  0.00     0.134 A 
ATOM     70  C   UNL A   1      37.719  29.186  30.148  1.00  0.00     0.134 A 
ATOM     71  F   UNL A   1      38.891  29.715  26.756  1.00  0.00    -0.206 F 
ATOM     72  C   UNL A   1      36.770  30.078  27.695  1.00  0.00     0.040 A 
ATOM     73  C   UNL A   1      36.386  29.581  30.019  1.00  0.00     0.040 A 
ATOM     74  F   UNL A   1      38.138  28.762  31.349  1.00  0.00    -0.206 F 
ATOM     75  C   UNL A   1      35.911  30.035  28.790  1.00  0.00     0.006 A 
ENDBRANCH  47  68
BRANCH  59  76
ATOM     76  C   UNL A   1      44.427  32.388  31.185  1.00  0.00     0.057 A 
ATOM     77  C   UNL A   1      44.451  32.656  32.558  1.00  0.00     0.134 A 
ATOM     78  C   UNL A   1      44.752  33.436  30.312  1.00  0.00     0.134 A 
ATOM     79  F   UNL A   1      44.140  31.697  33.443  1.00  0.00    -0.206 F 
ATOM     80  C   UNL A   1      44.776  33.922  33.047  1.00  0.00     0.040 A 
ATOM     81  C   UNL A   1      45.107  34.698  30.791  1.00  0.00     0.040 A 
ATOM     82  F   UNL A   1      44.761  33.242  28.985  1.00  0.00    -0.206 F 
ATOM     83  C   UNL A   1      45.117  34.944  32.162  1.00  0.00     0.006 A 
ENDBRANCH  59  76
ENDBRANCH  33  34
ENDBRANCH  25  28
ENDBRANCH  23  24
ENDBRANCH   1  23
TORSDOF 11
ENDMDL
MODEL 2
REMARK VINA RESULT:     -12.2      0.288      6.261
REMARK SMILES Cc1cc(Cl)c2c(c1)C=C(C(=O)NCCCNC(=O)c1ccc(-c3c4nc(c(-c5c(F)cccc5F)c5ccc([nH]5)c(-c5c(F)cccc5F)c5nc(c(-c6c(F)cccc6F)c6ccc3[nH]6)C=C5)C=C4)cc1)[C@@H](C(F)(F)F)O2
REMARK SMILES IDX 15 1 14 2 13 3 11 4 12 5 10 7 1 8 2 9 3 10 8 11 4 12 7 13
REMARK SMILES IDX 5 14 6 15 9 16 79 17 74 18 75 19 76 20 77 21 78 22 16 23
REMARK SMILES IDX 17 24 18 25 19 27 20 28 21 29 73 30 22 31 72 32 23 33 24 34
REMARK SMILES IDX 25 35 66 36 26 37 71 38 65 39 67 40 27 41 70 42 64 43 63 44
REMARK SMILES IDX 28 46 54 47 37 48 53 49 38 50 41 51 52 52 68 53 39 54 40 55
REMARK SMILES IDX 51 57 69 58 42 59 29 60 30 61 35 62 31 63 32 64 34 65 36 66
REMARK SMILES IDX 33 67 55 68 56 69 61 70 57 71 58 72 60 73 62 74 59 75 43 76
REMARK SMILES IDX 44 77 49 78 45 79 46 80 48 81 50 82 47 83
REMARK H PARENT 13 6 17 26 67 45 41 56
REMARK Flexibility Score: inf
ROOT
ATOM      1  C   UNL A   1      37.720  19.691  25.000  1.00  0.00     0.042 C 
ENDROOT
BRANCH   1   2
ATOM      2  C   UNL A   1      36.637  20.711  24.682  1.00  0.00     0.118 C 
BRANCH   2   3
ATOM      3  N   UNL A   1      35.661  20.815  25.756  1.00  0.00    -0.352 N 
ATOM      4  C   UNL A   1      34.655  21.648  26.104  1.00  0.00     0.251 C 
ATOM      5  O   UNL A   1      34.060  21.349  27.144  1.00  0.00    -0.270 OA
ATOM      6  H   UNL A   1      35.761  20.081  26.405  1.00  0.00     0.163 HD
BRANCH   4   7
ATOM      7  C   UNL A   1      34.239  22.855  25.334  1.00  0.00     0.067 C 
ATOM      8  C   UNL A   1      33.575  28.968  25.956  1.00  0.00     0.044 C 
ATOM      9  C   UNL A   1      33.625  27.658  25.227  1.00  0.00    -0.049 A 
ATOM     10  C   UNL A   1      33.288  27.582  23.871  1.00  0.00     0.028 A 
ATOM     11  C   UNL A   1      33.993  26.489  25.910  1.00  0.00     0.015 A 
ATOM     12  C   UNL A   1      33.328  26.359  23.203  1.00  0.00     0.084 A 
ATOM     13  C   UNL A   1      34.025  25.258  25.246  1.00  0.00     0.019 A 
ATOM     14  Cl  UNL A   1      32.911  26.315  21.528  1.00  0.00    -0.080 Cl
ATOM     15  C   UNL A   1      33.687  25.196  23.890  1.00  0.00     0.146 A 
ATOM     16  C   UNL A   1      34.437  24.041  25.938  1.00  0.00     0.025 C 
ATOM     17  O   UNL A   1      33.742  24.020  23.194  1.00  0.00    -0.474 OA
ATOM     18  C   UNL A   1      33.603  22.807  23.975  1.00  0.00     0.314 C 
BRANCH  18  19
ATOM     19  C   UNL A   1      32.118  22.391  24.030  1.00  0.00     0.429 C 
ATOM     20  F   UNL A   1      32.001  21.042  23.961  1.00  0.00    -0.167 F 
ATOM     21  F   UNL A   1      31.516  22.768  25.185  1.00  0.00    -0.167 F 
ATOM     22  F   UNL A   1      31.390  22.918  23.022  1.00  0.00    -0.167 F 
ENDBRANCH  18  19
ENDBRANCH   4   7
ENDBRANCH   2   3
ENDBRANCH   1   2
BRANCH   1  23
ATOM     23  C   UNL A   1      38.945  20.340  25.626  1.00  0.00     0.118 C 
BRANCH  23  24
ATOM     24  N   UNL A   1      40.031  19.380  25.813  1.00  0.00    -0.352 N 
ATOM     25  C   UNL A   1      41.355  19.588  26.099  1.00  0.00     0.251 C 
ATOM     26  H   UNL A   1      39.770  18.435  25.717  1.00  0.00     0.163 HD
ATOM     27  O   UNL A   1      42.169  18.680  25.933  1.00  0.00    -0.269 OA
BRANCH  25  28
ATOM     28  C   UNL A   1      41.800  20.897  26.605  1.00  0.00     0.039 A 
ATOM     29  C   UNL A   1      42.270  21.859  25.709  1.00  0.00     0.014 A 
ATOM     30  C   UNL A   1      41.774  21.163  27.976  1.00  0.00     0.014 A 
ATOM     31  C   UNL A   1      42.652  23.113  26.186  1.00  0.00     0.010 A 
ATOM     32  C   UNL A   1      42.051  22.441  28.436  1.00  0.00     0.010 A 
ATOM     33  C   UNL A   1      42.511  23.422  27.548  1.00  0.00    -0.014 A 
BRANCH  33  34
ATOM     34  C   UNL A   1      42.881  24.753  28.084  1.00  0.00     0.031 A 
ATOM     35  C   UNL A   1      41.818  25.799  28.272  1.00  0.00     0.074 A 
ATOM     36  C   UNL A   1      44.171  25.029  28.352  1.00  0.00     0.049 A 
ATOM     37  N   UNL A   1      41.942  27.042  28.659  1.00  0.00    -0.248 NA
ATOM     38  C   UNL A   1      40.433  25.407  27.954  1.00  0.00     0.031 C 
ATOM     39  C   UNL A   1      45.291  24.100  28.178  1.00  0.00     0.029 A 
ATOM     40  N   UNL A   1      44.760  26.171  28.831  1.00  0.00    -0.354 N 
ATOM     41  C   UNL A   1      40.660  27.573  28.633  1.00  0.00     0.074 A 
ATOM     42  C   UNL A   1      39.783  26.548  28.117  1.00  0.00     0.031 C 
ATOM     43  C   UNL A   1      46.423  24.695  28.587  1.00  0.00     0.029 A 
ATOM     44  C   UNL A   1      46.117  26.058  29.011  1.00  0.00     0.049 A 
ATOM     45  H   UNL A   1      44.256  26.994  29.028  1.00  0.00     0.167 HD
ATOM     46  C   UNL A   1      40.244  28.793  29.041  1.00  0.00     0.037 A 
ATOM     47  C   UNL A   1      47.010  26.956  29.467  1.00  0.00     0.037 A 
ATOM     48  C   UNL A   1      41.120  29.800  29.577  1.00  0.00     0.049 A 
ATOM     49  C   UNL A   1      46.528  28.323  29.869  1.00  0.00     0.074 A 
ATOM     50  C   UNL A   1      40.796  31.062  30.043  1.00  0.00     0.029 A 
ATOM     51  N   UNL A   1      42.491  29.655  29.723  1.00  0.00    -0.354 N 
ATOM     52  N   UNL A   1      45.306  28.799  29.876  1.00  0.00    -0.248 NA
ATOM     53  C   UNL A   1      47.548  29.278  30.323  1.00  0.00     0.031 C 
ATOM     54  C   UNL A   1      41.978  31.695  30.433  1.00  0.00     0.029 A 
ATOM     55  C   UNL A   1      43.031  30.812  30.257  1.00  0.00     0.049 A 
ATOM     56  H   UNL A   1      43.002  28.849  29.483  1.00  0.00     0.167 HD
ATOM     57  C   UNL A   1      45.406  30.096  30.363  1.00  0.00     0.074 A 
ATOM     58  C   UNL A   1      46.805  30.326  30.653  1.00  0.00     0.031 C 
ATOM     59  C   UNL A   1      44.427  31.015  30.549  1.00  0.00     0.037 A 
BRANCH  46  60
ATOM     60  C   UNL A   1      38.776  29.095  28.956  1.00  0.00     0.057 A 
ATOM     61  C   UNL A   1      37.941  28.986  30.075  1.00  0.00     0.134 A 
ATOM     62  C   UNL A   1      38.201  29.548  27.762  1.00  0.00     0.134 A 
ATOM     63  F   UNL A   1      38.426  28.541  31.245  1.00  0.00    -0.206 F 
ATOM     64  C   UNL A   1      36.584  29.303  30.009  1.00  0.00     0.040 A 
ATOM     65  C   UNL A   1      36.851  29.896  27.691  1.00  0.00     0.040 A 
ATOM     66  F   UNL A   1      38.944  29.677  26.653  1.00  0.00    -0.206 F 
ATOM     67  C   UNL A   1      36.038  29.771  28.816  1.00  0.00     0.006 A 
ENDBRANCH  46  60
BRANCH  47  68
ATOM     68  C   UNL A   1      48.439  26.578  29.612  1.00  0.00     0.057 A 
ATOM     69  C   UNL A   1      49.360  26.858  28.596  1.00  0.00     0.134 A 
ATOM     70  C   UNL A   1      48.923  25.939  30.760  1.00  0.00     0.134 A 
ATOM     71  F   UNL A   1      48.955  27.454  27.465  1.00  0.00    -0.206 F 
ATOM     72  C   UNL A   1      50.706  26.502  28.707  1.00  0.00     0.040 A 
ATOM     73  C   UNL A   1      50.271  25.602  30.897  1.00  0.00     0.040 A 
ATOM     74  F   UNL A   1      48.095  25.650  31.775  1.00  0.00    -0.206 F 
ATOM     75  C   UNL A   1      51.165  25.878  29.863  1.00  0.00     0.006 A 
ENDBRANCH  47  68
BRANCH  59  76
ATOM     76  C   UNL A   1      44.825  32.346  31.115  1.00  0.00     0.057 A 
ATOM     77  C   UNL A   1      44.899  32.565  32.495  1.00  0.00     0.134 A 
ATOM     78  C   UNL A   1      45.218  33.391  30.269  1.00  0.00     0.134 A 
ATOM     79  F   UNL A   1      44.527  31.607  33.358  1.00  0.00    -0.206 F 
ATOM     80  C   UNL A   1      45.337  33.783  33.016  1.00  0.00     0.040 A 
ATOM     81  C   UNL A   1      45.686  34.603  30.778  1.00  0.00     0.040 A 
ATOM     82  F   UNL A   1      45.183  33.241  28.937  1.00  0.00    -0.206 F 
ATOM     83  C   UNL A   1      45.744  34.802  32.156  1.00  0.00     0.006 A 
ENDBRANCH  59  76
ENDBRANCH  33  34
ENDBRANCH  25  28
ENDBRANCH  23  24
ENDBRANCH   1  23
TORSDOF 11
ENDMDL
MODEL 3
REMARK VINA RESULT:     -12.1      1.516      2.232
REMARK SMILES Cc1cc(Cl)c2c(c1)C=C(C(=O)NCCCNC(=O)c1ccc(-c3c4nc(c(-c5c(F)cccc5F)c5ccc([nH]5)c(-c5c(F)cccc5F)c5nc(c(-c6c(F)cccc6F)c6ccc3[nH]6)C=C5)C=C4)cc1)[C@@H](C(F)(F)F)O2
REMARK SMILES IDX 15 1 14 2 13 3 11 4 12 5 10 7 1 8 2 9 3 10 8 11 4 12 7 13
REMARK SMILES IDX 5 14 6 15 9 16 79 17 74 18 75 19 76 20 77 21 78 22 16 23
REMARK SMILES IDX 17 24 18 25 19 27 20 28 21 29 73 30 22 31 72 32 23 33 24 34
REMARK SMILES IDX 25 35 66 36 26 37 71 38 65 39 67 40 27 41 70 42 64 43 63 44
REMARK SMILES IDX 28 46 54 47 37 48 53 49 38 50 41 51 52 52 68 53 39 54 40 55
REMARK SMILES IDX 51 57 69 58 42 59 29 60 30 61 35 62 31 63 32 64 34 65 36 66
REMARK SMILES IDX 33 67 55 68 56 69 61 70 57 71 58 72 60 73 62 74 59 75 43 76
REMARK SMILES IDX 44 77 49 78 45 79 46 80 48 81 50 82 47 83
REMARK H PARENT 13 6 17 26 67 45 41 56
REMARK Flexibility Score: inf
ROOT
ATOM      1  C   UNL A   1      37.743  19.436  24.946  1.00  0.00     0.042 C 
ENDROOT
BRANCH   1   2
ATOM      2  C   UNL A   1      36.475  20.274  24.981  1.00  0.00     0.118 C 
BRANCH   2   3
ATOM      3  N   UNL A   1      35.278  19.446  24.945  1.00  0.00    -0.352 N 
ATOM      4  C   UNL A   1      33.941  19.638  24.904  1.00  0.00     0.251 C 
ATOM      5  O   UNL A   1      33.262  18.607  24.889  1.00  0.00    -0.270 OA
ATOM      6  H   UNL A   1      35.504  18.487  24.955  1.00  0.00     0.163 HD
BRANCH   4   7
ATOM      7  C   UNL A   1      33.268  20.968  24.875  1.00  0.00     0.067 C 
ATOM      8  C   UNL A   1      32.415  25.850  21.183  1.00  0.00     0.044 C 
ATOM      9  C   UNL A   1      32.204  24.987  22.391  1.00  0.00    -0.049 A 
ATOM     10  C   UNL A   1      31.403  25.428  23.452  1.00  0.00     0.028 A 
ATOM     11  C   UNL A   1      32.829  23.734  22.476  1.00  0.00     0.015 A 
ATOM     12  C   UNL A   1      31.219  24.623  24.575  1.00  0.00     0.084 A 
ATOM     13  C   UNL A   1      32.654  22.928  23.607  1.00  0.00     0.019 A 
ATOM     14  Cl  UNL A   1      30.217  25.205  25.856  1.00  0.00    -0.080 Cl
ATOM     15  C   UNL A   1      31.851  23.380  24.658  1.00  0.00     0.146 A 
ATOM     16  C   UNL A   1      33.273  21.609  23.692  1.00  0.00     0.025 C 
ATOM     17  O   UNL A   1      31.624  22.607  25.764  1.00  0.00    -0.474 OA
ATOM     18  C   UNL A   1      32.636  21.616  26.072  1.00  0.00     0.314 C 
BRANCH  18  19
ATOM     19  C   UNL A   1      33.676  22.218  27.040  1.00  0.00     0.429 C 
ATOM     20  F   UNL A   1      33.066  23.000  27.964  1.00  0.00    -0.167 F 
ATOM     21  F   UNL A   1      34.353  21.268  27.730  1.00  0.00    -0.167 F 
ATOM     22  F   UNL A   1      34.600  22.974  26.408  1.00  0.00    -0.167 F 
ENDBRANCH  18  19
ENDBRANCH   4   7
ENDBRANCH   2   3
ENDBRANCH   1   2
BRANCH   1  23
ATOM     23  C   UNL A   1      38.893  20.115  25.674  1.00  0.00     0.118 C 
BRANCH  23  24
ATOM     24  N   UNL A   1      40.046  19.228  25.813  1.00  0.00    -0.352 N 
ATOM     25  C   UNL A   1      41.363  19.521  26.056  1.00  0.00     0.251 C 
ATOM     26  H   UNL A   1      39.845  18.268  25.716  1.00  0.00     0.163 HD
ATOM     27  O   UNL A   1      42.229  18.671  25.852  1.00  0.00    -0.269 OA
BRANCH  25  28
ATOM     28  C   UNL A   1      41.738  20.852  26.562  1.00  0.00     0.039 A 
ATOM     29  C   UNL A   1      42.197  21.823  25.670  1.00  0.00     0.014 A 
ATOM     30  C   UNL A   1      41.656  21.131  27.928  1.00  0.00     0.014 A 
ATOM     31  C   UNL A   1      42.512  23.097  26.145  1.00  0.00     0.010 A 
ATOM     32  C   UNL A   1      41.865  22.424  28.382  1.00  0.00     0.010 A 
ATOM     33  C   UNL A   1      42.314  23.414  27.498  1.00  0.00    -0.014 A 
BRANCH  33  34
ATOM     34  C   UNL A   1      42.612  24.764  28.030  1.00  0.00     0.031 A 
ATOM     35  C   UNL A   1      44.028  25.126  28.385  1.00  0.00     0.074 A 
ATOM     36  C   UNL A   1      41.608  25.636  28.237  1.00  0.00     0.049 A 
ATOM     37  N   UNL A   1      44.489  26.223  28.926  1.00  0.00    -0.248 NA
ATOM     38  C   UNL A   1      45.062  24.108  28.123  1.00  0.00     0.031 C 
ATOM     39  C   UNL A   1      40.193  25.381  27.959  1.00  0.00     0.029 A 
ATOM     40  N   UNL A   1      41.624  26.917  28.727  1.00  0.00    -0.354 N 
ATOM     41  C   UNL A   1      45.856  26.028  29.066  1.00  0.00     0.074 A 
ATOM     42  C   UNL A   1      46.142  24.681  28.629  1.00  0.00     0.031 C 
ATOM     43  C   UNL A   1      39.484  26.485  28.240  1.00  0.00     0.029 A 
ATOM     44  C   UNL A   1      40.386  27.510  28.759  1.00  0.00     0.049 A 
ATOM     45  H   UNL A   1      42.446  27.368  29.027  1.00  0.00     0.167 HD
ATOM     46  C   UNL A   1      46.795  26.906  29.484  1.00  0.00     0.037 A 
ATOM     47  C   UNL A   1      40.023  28.743  29.160  1.00  0.00     0.037 A 
ATOM     48  C   UNL A   1      46.505  28.254  29.894  1.00  0.00     0.049 A 
ATOM     49  C   UNL A   1      41.081  29.684  29.666  1.00  0.00     0.074 A 
ATOM     50  C   UNL A   1      47.387  29.234  30.312  1.00  0.00     0.029 A 
ATOM     51  N   UNL A   1      45.236  28.810  29.932  1.00  0.00    -0.354 N 
ATOM     52  N   UNL A   1      42.377  29.499  29.755  1.00  0.00    -0.248 NA
ATOM     53  C   UNL A   1      40.628  31.003  30.127  1.00  0.00     0.031 C 
ATOM     54  C   UNL A   1      46.646  30.371  30.641  1.00  0.00     0.029 A 
ATOM     55  C   UNL A   1      45.309  30.117  30.382  1.00  0.00     0.049 A 
ATOM     56  H   UNL A   1      44.407  28.345  29.675  1.00  0.00     0.167 HD
ATOM     57  C   UNL A   1      42.896  30.687  30.254  1.00  0.00     0.074 A 
ATOM     58  C   UNL A   1      41.778  31.589  30.434  1.00  0.00     0.031 C 
ATOM     59  C   UNL A   1      44.183  31.001  30.542  1.00  0.00     0.037 A 
BRANCH  46  60
ATOM     60  C   UNL A   1      48.225  26.451  29.486  1.00  0.00     0.057 A 
ATOM     61  C   UNL A   1      48.780  25.789  30.589  1.00  0.00     0.134 A 
ATOM     62  C   UNL A   1      49.039  26.625  28.360  1.00  0.00     0.134 A 
ATOM     63  F   UNL A   1      48.058  25.605  31.706  1.00  0.00    -0.206 F 
ATOM     64  C   UNL A   1      50.098  25.330  30.579  1.00  0.00     0.040 A 
ATOM     65  C   UNL A   1      50.349  26.143  28.328  1.00  0.00     0.040 A 
ATOM     66  F   UNL A   1      48.570  27.248  27.269  1.00  0.00    -0.206 F 
ATOM     67  C   UNL A   1      50.883  25.496  29.441  1.00  0.00     0.006 A 
ENDBRANCH  46  60
BRANCH  47  68
ATOM     68  C   UNL A   1      38.605  29.173  29.057  1.00  0.00     0.057 A 
ATOM     69  C   UNL A   1      38.091  29.660  27.849  1.00  0.00     0.134 A 
ATOM     70  C   UNL A   1      37.730  29.104  30.148  1.00  0.00     0.134 A 
ATOM     71  F   UNL A   1      38.883  29.764  26.773  1.00  0.00    -0.206 F 
ATOM     72  C   UNL A   1      36.764  30.080  27.733  1.00  0.00     0.040 A 
ATOM     73  C   UNL A   1      36.393  29.495  30.039  1.00  0.00     0.040 A 
ATOM     74  F   UNL A   1      38.156  28.639  31.331  1.00  0.00    -0.206 F 
ATOM     75  C   UNL A   1      35.910  29.991  28.829  1.00  0.00     0.006 A 
ENDBRANCH  47  68
BRANCH  59  76
ATOM     76  C   UNL A   1      44.461  32.382  31.057  1.00  0.00     0.057 A 
ATOM     77  C   UNL A   1      44.680  33.459  30.191  1.00  0.00     0.134 A 
ATOM     78  C   UNL A   1      44.426  32.650  32.432  1.00  0.00     0.134 A 
ATOM     79  F   UNL A   1      44.735  33.265  28.864  1.00  0.00    -0.206 F 
ATOM     80  C   UNL A   1      44.868  34.754  30.673  1.00  0.00     0.040 A 
ATOM     81  C   UNL A   1      44.582  33.947  32.924  1.00  0.00     0.040 A 
ATOM     82  F   UNL A   1      44.207  31.665  33.314  1.00  0.00    -0.206 F 
ATOM     83  C   UNL A   1      44.807  35.002  32.044  1.00  0.00     0.006 A 
ENDBRANCH  59  76
ENDBRANCH  33  34
ENDBRANCH  25  28
ENDBRANCH  23  24
ENDBRANCH   1  23
TORSDOF 11
ENDMDL
