MODEL 1
REMARK VINA RESULT:     -12.9      0.000      0.000
REMARK SMILES COc1ccc(S(=O)(=O)N2CCC[C@H](C(=O)N3CCC[C@H](C(=O)NCCCNC(=O)c4ccc(-c5c6nc(c(-c7c(F)cccc7F)c7ccc([nH]7)c(-c7c(F)cccc7F)c7nc(c(-c8c(F)cccc8F)c8ccc5[nH]8)C=C7)C=C6)cc4)C3)C2)cc1
REMARK SMILES IDX 22 1 23 2 24 3 21 5 17 6 18 7 85 8 19 9 20 10 15 11 16 12
REMARK SMILES IDX 14 13 10 14 11 15 86 16 12 17 13 18 7 19 8 20 9 21 6 22 3 23
REMARK SMILES IDX 4 24 88 25 5 26 87 27 2 28 1 29 25 30 26 31 27 32 28 33
REMARK SMILES IDX 29 34 30 36 31 37 32 38 84 39 33 40 83 41 34 42 35 43 36 44
REMARK SMILES IDX 77 45 37 46 82 47 76 48 78 49 38 50 81 51 75 52 74 53 39 55
REMARK SMILES IDX 65 56 48 57 64 58 49 59 52 60 63 61 79 62 50 63 51 64 62 66
REMARK SMILES IDX 80 67 53 68 40 69 41 70 46 71 42 72 43 73 45 74 47 75 44 76
REMARK SMILES IDX 66 77 67 78 72 79 68 80 69 81 71 82 73 83 70 84 54 85 55 86
REMARK SMILES IDX 60 87 56 88 57 89 59 90 61 91 58 92
REMARK H PARENT 24 4 28 35 78 54 52 65
REMARK Flexibility Score: inf
ROOT
ATOM      1  C   UNL A   1      34.976  21.801  25.987  1.00  0.00     0.224 C 
ATOM      2  O   UNL A   1      34.399  21.783  27.080  1.00  0.00    -0.275 OA
ATOM      3  N   UNL A   1      36.160  21.141  25.916  1.00  0.00    -0.356 N 
ATOM      4  H   UNL A   1      36.525  20.833  26.778  1.00  0.00     0.163 HD
ENDROOT
BRANCH   1   5
ATOM      5  C   UNL A   1      34.342  22.556  24.808  1.00  0.00     0.098 C 
ATOM      6  N   UNL A   1      32.572  24.288  25.317  1.00  0.00    -0.342 N 
ATOM      7  C   UNL A   1      31.629  23.650  24.404  1.00  0.00     0.119 C 
ATOM      8  C   UNL A   1      33.987  24.025  25.079  1.00  0.00     0.133 C 
ATOM      9  C   UNL A   1      31.837  22.145  24.299  1.00  0.00     0.022 C 
ATOM     10  C   UNL A   1      33.288  21.764  24.026  1.00  0.00     0.017 C 
BRANCH   6  11
ATOM     11  C   UNL A   1      32.072  24.891  26.456  1.00  0.00     0.227 C 
ATOM     12  O   UNL A   1      31.403  24.240  27.269  1.00  0.00    -0.275 OA
BRANCH  11  13
ATOM     13  C   UNL A   1      32.124  26.406  26.628  1.00  0.00     0.094 C 
ATOM     14  N   UNL A   1      31.341  26.877  24.347  1.00  0.00    -0.197 NA
ATOM     15  C   UNL A   1      32.675  27.290  23.877  1.00  0.00     0.102 C 
ATOM     16  C   UNL A   1      30.997  26.971  25.776  1.00  0.00     0.116 C 
ATOM     17  C   UNL A   1      33.732  27.524  24.953  1.00  0.00     0.018 C 
ATOM     18  C   UNL A   1      33.380  27.225  26.404  1.00  0.00     0.016 C 
BRANCH  14  19
ATOM     19  S   UNL A   1      30.075  26.924  23.218  1.00  0.00     0.243 S 
ATOM     20  O   UNL A   1      29.020  26.057  23.675  1.00  0.00    -0.207 OA
ATOM     21  O   UNL A   1      30.672  26.766  21.902  1.00  0.00    -0.207 OA
BRANCH  19  22
ATOM     22  C   UNL A   1      29.439  28.585  23.280  1.00  0.00     0.082 A 
ATOM     23  C   UNL A   1      28.379  31.172  23.228  1.00  0.00     0.118 A 
ATOM     24  C   UNL A   1      27.593  30.081  22.848  1.00  0.00     0.048 A 
ATOM     25  C   UNL A   1      29.681  30.960  23.673  1.00  0.00     0.048 A 
ATOM     26  C   UNL A   1      28.120  28.787  22.865  1.00  0.00     0.025 A 
ATOM     27  C   UNL A   1      30.214  29.671  23.692  1.00  0.00     0.025 A 
BRANCH  23  28
ATOM     28  O   UNL A   1      27.773  32.395  23.139  1.00  0.00    -0.497 OA
ATOM     29  C   UNL A   1      28.654  33.510  23.040  1.00  0.00     0.278 C 
ENDBRANCH  23  28
ENDBRANCH  19  22
ENDBRANCH  14  19
ENDBRANCH  11  13
ENDBRANCH   6  11
ENDBRANCH   1   5
BRANCH   3  30
ATOM     30  C   UNL A   1      36.958  20.827  24.759  1.00  0.00     0.117 C 
BRANCH  30  31
ATOM     31  C   UNL A   1      37.969  19.722  24.972  1.00  0.00     0.042 C 
BRANCH  31  32
ATOM     32  C   UNL A   1      39.103  20.135  25.883  1.00  0.00     0.118 C 
BRANCH  32  33
ATOM     33  N   UNL A   1      40.259  19.243  25.809  1.00  0.00    -0.352 N 
ATOM     34  C   UNL A   1      41.582  19.470  26.107  1.00  0.00     0.251 C 
ATOM     35  H   UNL A   1      40.057  18.333  25.494  1.00  0.00     0.163 HD
ATOM     36  O   UNL A   1      42.418  18.594  25.909  1.00  0.00    -0.269 OA
BRANCH  34  37
ATOM     37  C   UNL A   1      42.008  20.786  26.627  1.00  0.00     0.039 A 
ATOM     38  C   UNL A   1      42.532  21.730  25.739  1.00  0.00     0.014 A 
ATOM     39  C   UNL A   1      41.855  21.107  27.974  1.00  0.00     0.014 A 
ATOM     40  C   UNL A   1      42.819  23.020  26.192  1.00  0.00     0.010 A 
ATOM     41  C   UNL A   1      42.008  22.420  28.390  1.00  0.00     0.010 A 
ATOM     42  C   UNL A   1      42.514  23.388  27.511  1.00  0.00    -0.014 A 
BRANCH  42  43
ATOM     43  C   UNL A   1      42.761  24.758  28.026  1.00  0.00     0.031 A 
ATOM     44  C   UNL A   1      44.154  25.150  28.441  1.00  0.00     0.074 A 
ATOM     45  C   UNL A   1      41.734  25.610  28.206  1.00  0.00     0.049 A 
ATOM     46  N   UNL A   1      44.565  26.234  29.047  1.00  0.00    -0.248 NA
ATOM     47  C   UNL A   1      45.220  24.166  28.189  1.00  0.00     0.031 C 
ATOM     48  C   UNL A   1      40.327  25.327  27.908  1.00  0.00     0.029 A 
ATOM     49  N   UNL A   1      41.715  26.891  28.696  1.00  0.00    -0.354 N 
ATOM     50  C   UNL A   1      45.919  26.036  29.289  1.00  0.00     0.074 A 
ATOM     51  C   UNL A   1      46.246  24.708  28.824  1.00  0.00     0.031 C 
ATOM     52  C   UNL A   1      39.591  26.415  28.186  1.00  0.00     0.029 A 
ATOM     53  C   UNL A   1      40.463  27.457  28.716  1.00  0.00     0.049 A 
ATOM     54  H   UNL A   1      42.524  27.362  29.003  1.00  0.00     0.167 HD
ATOM     55  C   UNL A   1      46.819  26.897  29.819  1.00  0.00     0.037 A 
ATOM     56  C   UNL A   1      40.069  28.681  29.116  1.00  0.00     0.037 A 
ATOM     57  C   UNL A   1      46.506  28.245  30.203  1.00  0.00     0.049 A 
ATOM     58  C   UNL A   1      41.098  29.645  29.636  1.00  0.00     0.074 A 
ATOM     59  C   UNL A   1      47.358  29.231  30.666  1.00  0.00     0.029 A 
ATOM     60  N   UNL A   1      45.237  28.800  30.148  1.00  0.00    -0.354 N 
ATOM     61  N   UNL A   1      42.387  29.467  29.806  1.00  0.00    -0.248 NA
ATOM     62  C   UNL A   1      40.622  30.983  30.015  1.00  0.00     0.031 C 
ATOM     63  C   UNL A   1      46.599  30.380  30.911  1.00  0.00     0.029 A 
ATOM     64  C   UNL A   1      45.281  30.118  30.571  1.00  0.00     0.049 A 
ATOM     65  H   UNL A   1      44.425  28.329  29.851  1.00  0.00     0.167 HD
ATOM     66  C   UNL A   1      42.878  30.673  30.286  1.00  0.00     0.074 A 
ATOM     67  C   UNL A   1      41.752  31.580  30.368  1.00  0.00     0.031 C 
ATOM     68  C   UNL A   1      44.147  31.002  30.630  1.00  0.00     0.037 A 
BRANCH  55  69
ATOM     69  C   UNL A   1      48.227  26.406  29.984  1.00  0.00     0.057 A 
ATOM     70  C   UNL A   1      49.182  26.543  28.967  1.00  0.00     0.134 A 
ATOM     71  C   UNL A   1      48.635  25.791  31.174  1.00  0.00     0.134 A 
ATOM     72  F   UNL A   1      48.851  27.107  27.796  1.00  0.00    -0.206 F 
ATOM     73  C   UNL A   1      50.481  26.054  29.113  1.00  0.00     0.040 A 
ATOM     74  C   UNL A   1      49.941  25.324  31.343  1.00  0.00     0.040 A 
ATOM     75  F   UNL A   1      47.774  25.631  32.189  1.00  0.00    -0.206 F 
ATOM     76  C   UNL A   1      50.865  25.448  30.307  1.00  0.00     0.006 A 
ENDBRANCH  55  69
BRANCH  56  77
ATOM     77  C   UNL A   1      38.645  29.081  28.996  1.00  0.00     0.057 A 
ATOM     78  C   UNL A   1      38.136  29.557  27.781  1.00  0.00     0.134 A 
ATOM     79  C   UNL A   1      37.764  28.998  30.078  1.00  0.00     0.134 A 
ATOM     80  F   UNL A   1      38.938  29.675  26.713  1.00  0.00    -0.206 F 
ATOM     81  C   UNL A   1      36.804  29.955  27.653  1.00  0.00     0.040 A 
ATOM     82  C   UNL A   1      36.423  29.373  29.958  1.00  0.00     0.040 A 
ATOM     83  F   UNL A   1      38.188  28.542  31.265  1.00  0.00    -0.206 F 
ATOM     84  C   UNL A   1      35.943  29.859  28.743  1.00  0.00     0.006 A 
ENDBRANCH  56  77
BRANCH  68  85
ATOM     85  C   UNL A   1      44.387  32.406  31.094  1.00  0.00     0.057 A 
ATOM     86  C   UNL A   1      44.349  32.748  32.450  1.00  0.00     0.134 A 
ATOM     87  C   UNL A   1      44.712  33.412  30.177  1.00  0.00     0.134 A 
ATOM     88  F   UNL A   1      44.033  31.829  33.375  1.00  0.00    -0.206 F 
ATOM     89  C   UNL A   1      44.610  34.050  32.879  1.00  0.00     0.040 A 
ATOM     90  C   UNL A   1      44.996  34.712  30.594  1.00  0.00     0.040 A 
ATOM     91  F   UNL A   1      44.772  33.144  28.864  1.00  0.00    -0.206 F 
ATOM     92  C   UNL A   1      44.942  35.034  31.948  1.00  0.00     0.006 A 
ENDBRANCH  68  85
ENDBRANCH  42  43
ENDBRANCH  34  37
ENDBRANCH  32  33
ENDBRANCH  31  32
ENDBRANCH  30  31
ENDBRANCH   3  30
TORSDOF 15
ENDMDL
MODEL 2
REMARK VINA RESULT:     -12.8      4.072      9.953
REMARK SMILES COc1ccc(S(=O)(=O)N2CCC[C@H](C(=O)N3CCC[C@H](C(=O)NCCCNC(=O)c4ccc(-c5c6nc(c(-c7c(F)cccc7F)c7ccc([nH]7)c(-c7c(F)cccc7F)c7nc(c(-c8c(F)cccc8F)c8ccc5[nH]8)C=C7)C=C6)cc4)C3)C2)cc1
REMARK SMILES IDX 22 1 23 2 24 3 21 5 17 6 18 7 85 8 19 9 20 10 15 11 16 12
REMARK SMILES IDX 14 13 10 14 11 15 86 16 12 17 13 18 7 19 8 20 9 21 6 22 3 23
REMARK SMILES IDX 4 24 88 25 5 26 87 27 2 28 1 29 25 30 26 31 27 32 28 33
REMARK SMILES IDX 29 34 30 36 31 37 32 38 84 39 33 40 83 41 34 42 35 43 36 44
REMARK SMILES IDX 77 45 37 46 82 47 76 48 78 49 38 50 81 51 75 52 74 53 39 55
REMARK SMILES IDX 65 56 48 57 64 58 49 59 52 60 63 61 79 62 50 63 51 64 62 66
REMARK SMILES IDX 80 67 53 68 40 69 41 70 46 71 42 72 43 73 45 74 47 75 44 76
REMARK SMILES IDX 66 77 67 78 72 79 68 80 69 81 71 82 73 83 70 84 54 85 55 86
REMARK SMILES IDX 60 87 56 88 57 89 59 90 61 91 58 92
REMARK H PARENT 24 4 28 35 78 54 52 65
REMARK Flexibility Score: inf
ROOT
ATOM      1  C   UNL A   1      32.531  29.225  24.955  1.00  0.00     0.224 C 
ATOM      2  O   UNL A   1      32.856  28.982  23.787  1.00  0.00    -0.275 OA
ATOM      3  N   UNL A   1      32.037  30.466  25.201  1.00  0.00    -0.356 N 
ATOM      4  H   UNL A   1      32.120  31.109  24.460  1.00  0.00     0.163 HD
ENDROOT
BRANCH   1   5
ATOM      5  C   UNL A   1      32.709  28.142  26.031  1.00  0.00     0.098 C 
ATOM      6  N   UNL A   1      33.436  25.837  25.292  1.00  0.00    -0.342 N 
ATOM      7  C   UNL A   1      32.299  25.219  25.966  1.00  0.00     0.119 C 
ATOM      8  C   UNL A   1      33.851  27.147  25.784  1.00  0.00     0.133 C 
ATOM      9  C   UNL A   1      31.081  26.130  26.020  1.00  0.00     0.022 C 
ATOM     10  C   UNL A   1      31.404  27.524  26.546  1.00  0.00     0.017 C 
BRANCH   6  11
ATOM     11  C   UNL A   1      33.887  25.268  24.116  1.00  0.00     0.227 C 
ATOM     12  O   UNL A   1      33.262  25.432  23.060  1.00  0.00    -0.275 OA
BRANCH  11  13
ATOM     13  C   UNL A   1      35.016  24.241  24.124  1.00  0.00     0.094 C 
ATOM     14  N   UNL A   1      33.550  22.361  24.719  1.00  0.00    -0.197 NA
ATOM     15  C   UNL A   1      34.034  22.306  26.109  1.00  0.00     0.102 C 
ATOM     16  C   UNL A   1      34.401  22.929  23.660  1.00  0.00     0.116 C 
ATOM     17  C   UNL A   1      35.293  23.111  26.423  1.00  0.00     0.018 C 
ATOM     18  C   UNL A   1      35.897  23.983  25.330  1.00  0.00     0.016 C 
BRANCH  14  19
ATOM     19  S   UNL A   1      32.361  21.236  24.269  1.00  0.00     0.243 S 
ATOM     20  O   UNL A   1      31.948  21.520  22.919  1.00  0.00    -0.207 OA
ATOM     21  O   UNL A   1      31.403  21.170  25.360  1.00  0.00    -0.207 OA
BRANCH  19  22
ATOM     22  C   UNL A   1      33.184  19.658  24.234  1.00  0.00     0.082 A 
ATOM     23  C   UNL A   1      34.346  17.115  24.252  1.00  0.00     0.118 A 
ATOM     24  C   UNL A   1      33.025  17.284  23.829  1.00  0.00     0.048 A 
ATOM     25  C   UNL A   1      35.095  18.228  24.626  1.00  0.00     0.048 A 
ATOM     26  C   UNL A   1      32.437  18.550  23.824  1.00  0.00     0.025 A 
ATOM     27  C   UNL A   1      34.514  19.496  24.625  1.00  0.00     0.025 A 
BRANCH  23  28
ATOM     28  O   UNL A   1      34.807  15.828  24.250  1.00  0.00    -0.497 OA
ATOM     29  C   UNL A   1      35.591  15.455  25.380  1.00  0.00     0.278 C 
ENDBRANCH  23  28
ENDBRANCH  19  22
ENDBRANCH  14  19
ENDBRANCH  11  13
ENDBRANCH   6  11
ENDBRANCH   1   5
BRANCH   3  30
ATOM     30  C   UNL A   1      31.409  30.973  26.394  1.00  0.00     0.117 C 
BRANCH  30  31
ATOM     31  C   UNL A   1      31.389  32.482  26.501  1.00  0.00     0.042 C 
BRANCH  31  32
ATOM     32  C   UNL A   1      32.571  33.029  27.269  1.00  0.00     0.118 C 
BRANCH  32  33
ATOM     33  N   UNL A   1      32.357  34.386  27.770  1.00  0.00    -0.352 N 
ATOM     34  C   UNL A   1      33.034  35.099  28.732  1.00  0.00     0.251 C 
ATOM     35  H   UNL A   1      31.608  34.867  27.352  1.00  0.00     0.163 HD
ATOM     36  O   UNL A   1      32.648  36.217  29.057  1.00  0.00    -0.269 OA
BRANCH  34  37
ATOM     37  C   UNL A   1      34.205  34.502  29.409  1.00  0.00     0.039 A 
ATOM     38  C   UNL A   1      34.012  33.781  30.591  1.00  0.00     0.014 A 
ATOM     39  C   UNL A   1      35.482  34.615  28.862  1.00  0.00     0.014 A 
ATOM     40  C   UNL A   1      35.088  33.105  31.172  1.00  0.00     0.010 A 
ATOM     41  C   UNL A   1      36.514  33.834  29.359  1.00  0.00     0.010 A 
ATOM     42  C   UNL A   1      36.338  33.088  30.532  1.00  0.00    -0.014 A 
BRANCH  42  43
ATOM     43  C   UNL A   1      37.499  32.349  31.088  1.00  0.00     0.031 A 
ATOM     44  C   UNL A   1      38.124  32.819  32.373  1.00  0.00     0.074 A 
ATOM     45  C   UNL A   1      38.043  31.326  30.401  1.00  0.00     0.049 A 
ATOM     46  N   UNL A   1      39.224  32.416  32.958  1.00  0.00    -0.248 NA
ATOM     47  C   UNL A   1      37.453  33.930  33.069  1.00  0.00     0.031 C 
ATOM     48  C   UNL A   1      37.572  30.819  29.110  1.00  0.00     0.029 A 
ATOM     49  N   UNL A   1      39.123  30.533  30.693  1.00  0.00    -0.354 N 
ATOM     50  C   UNL A   1      39.395  33.253  34.053  1.00  0.00     0.074 A 
ATOM     51  C   UNL A   1      38.326  34.225  34.018  1.00  0.00     0.031 C 
ATOM     52  C   UNL A   1      38.337  29.778  28.741  1.00  0.00     0.029 A 
ATOM     53  C   UNL A   1      39.372  29.568  29.748  1.00  0.00     0.049 A 
ATOM     54  H   UNL A   1      39.670  30.645  31.505  1.00  0.00     0.167 HD
ATOM     55  C   UNL A   1      40.338  33.198  35.022  1.00  0.00     0.037 A 
ATOM     56  C   UNL A   1      40.327  28.621  29.704  1.00  0.00     0.037 A 
ATOM     57  C   UNL A   1      41.349  32.179  35.097  1.00  0.00     0.049 A 
ATOM     58  C   UNL A   1      41.322  28.534  30.827  1.00  0.00     0.074 A 
ATOM     59  C   UNL A   1      42.297  31.975  36.083  1.00  0.00     0.029 A 
ATOM     60  N   UNL A   1      41.526  31.181  34.152  1.00  0.00    -0.354 N 
ATOM     61  N   UNL A   1      41.438  29.296  31.889  1.00  0.00    -0.248 NA
ATOM     62  C   UNL A   1      42.315  27.453  30.752  1.00  0.00     0.031 C 
ATOM     63  C   UNL A   1      43.063  30.862  35.724  1.00  0.00     0.029 A 
ATOM     64  C   UNL A   1      42.572  30.357  34.530  1.00  0.00     0.049 A 
ATOM     65  H   UNL A   1      40.988  31.073  33.334  1.00  0.00     0.167 HD
ATOM     66  C   UNL A   1      42.497  28.774  32.618  1.00  0.00     0.074 A 
ATOM     67  C   UNL A   1      42.981  27.622  31.886  1.00  0.00     0.031 C 
ATOM     68  C   UNL A   1      43.024  29.209  33.789  1.00  0.00     0.037 A 
BRANCH  55  69
ATOM     69  C   UNL A   1      40.294  34.254  36.086  1.00  0.00     0.057 A 
ATOM     70  C   UNL A   1      39.556  34.085  37.266  1.00  0.00     0.134 A 
ATOM     71  C   UNL A   1      40.999  35.454  35.932  1.00  0.00     0.134 A 
ATOM     72  F   UNL A   1      38.845  32.966  37.468  1.00  0.00    -0.206 F 
ATOM     73  C   UNL A   1      39.492  35.085  38.238  1.00  0.00     0.040 A 
ATOM     74  C   UNL A   1      40.967  36.450  36.911  1.00  0.00     0.040 A 
ATOM     75  F   UNL A   1      41.728  35.680  34.830  1.00  0.00    -0.206 F 
ATOM     76  C   UNL A   1      40.204  36.269  38.064  1.00  0.00     0.006 A 
ENDBRANCH  55  69
BRANCH  56  77
ATOM     77  C   UNL A   1      40.362  27.649  28.582  1.00  0.00     0.057 A 
ATOM     78  C   UNL A   1      39.650  26.446  28.656  1.00  0.00     0.134 A 
ATOM     79  C   UNL A   1      41.096  27.894  27.418  1.00  0.00     0.134 A 
ATOM     80  F   UNL A   1      38.942  26.147  29.755  1.00  0.00    -0.206 F 
ATOM     81  C   UNL A   1      39.684  25.511  27.620  1.00  0.00     0.040 A 
ATOM     82  C   UNL A   1      41.122  26.978  26.364  1.00  0.00     0.040 A 
ATOM     83  F   UNL A   1      41.792  29.033  27.282  1.00  0.00    -0.206 F 
ATOM     84  C   UNL A   1      40.418  25.779  26.468  1.00  0.00     0.006 A 
ENDBRANCH  56  77
BRANCH  68  85
ATOM     85  C   UNL A   1      44.158  28.417  34.363  1.00  0.00     0.057 A 
ATOM     86  C   UNL A   1      43.937  27.319  35.202  1.00  0.00     0.134 A 
ATOM     87  C   UNL A   1      45.482  28.727  34.030  1.00  0.00     0.134 A 
ATOM     88  F   UNL A   1      42.691  26.981  35.565  1.00  0.00    -0.206 F 
ATOM     89  C   UNL A   1      44.997  26.563  35.704  1.00  0.00     0.040 A 
ATOM     90  C   UNL A   1      46.549  27.966  34.508  1.00  0.00     0.040 A 
ATOM     91  F   UNL A   1      45.757  29.763  33.223  1.00  0.00    -0.206 F 
ATOM     92  C   UNL A   1      46.307  26.883  35.350  1.00  0.00     0.006 A 
ENDBRANCH  68  85
ENDBRANCH  42  43
ENDBRANCH  34  37
ENDBRANCH  32  33
ENDBRANCH  31  32
ENDBRANCH  30  31
ENDBRANCH   3  30
TORSDOF 15
ENDMDL
MODEL 3
REMARK VINA RESULT:     -12.7      1.662      6.158
REMARK SMILES COc1ccc(S(=O)(=O)N2CCC[C@H](C(=O)N3CCC[C@H](C(=O)NCCCNC(=O)c4ccc(-c5c6nc(c(-c7c(F)cccc7F)c7ccc([nH]7)c(-c7c(F)cccc7F)c7nc(c(-c8c(F)cccc8F)c8ccc5[nH]8)C=C7)C=C6)cc4)C3)C2)cc1
REMARK SMILES IDX 22 1 23 2 24 3 21 5 17 6 18 7 85 8 19 9 20 10 15 11 16 12
REMARK SMILES IDX 14 13 10 14 11 15 86 16 12 17 13 18 7 19 8 20 9 21 6 22 3 23
REMARK SMILES IDX 4 24 88 25 5 26 87 27 2 28 1 29 25 30 26 31 27 32 28 33
REMARK SMILES IDX 29 34 30 36 31 37 32 38 84 39 33 40 83 41 34 42 35 43 36 44
REMARK SMILES IDX 77 45 37 46 82 47 76 48 78 49 38 50 81 51 75 52 74 53 39 55
REMARK SMILES IDX 65 56 48 57 64 58 49 59 52 60 63 61 79 62 50 63 51 64 62 66
REMARK SMILES IDX 80 67 53 68 40 69 41 70 46 71 42 72 43 73 45 74 47 75 44 76
REMARK SMILES IDX 66 77 67 78 72 79 68 80 69 81 71 82 73 83 70 84 54 85 55 86
REMARK SMILES IDX 60 87 56 88 57 89 59 90 61 91 58 92
REMARK H PARENT 24 4 28 35 78 54 52 65
REMARK Flexibility Score: inf
ROOT
ATOM      1  C   UNL A   1      35.016  21.862  26.040  1.00  0.00     0.224 C 
ATOM      2  O   UNL A   1      34.382  21.731  27.094  1.00  0.00    -0.275 OA
ATOM      3  N   UNL A   1      36.281  21.369  26.029  1.00  0.00    -0.356 N 
ATOM      4  H   UNL A   1      36.632  21.086  26.905  1.00  0.00     0.163 HD
ENDROOT
BRANCH   1   5
ATOM      5  C   UNL A   1      34.357  22.563  24.842  1.00  0.00     0.098 C 
ATOM      6  N   UNL A   1      32.576  24.295  25.308  1.00  0.00    -0.342 N 
ATOM      7  C   UNL A   1      31.627  23.612  24.435  1.00  0.00     0.119 C 
ATOM      8  C   UNL A   1      33.991  24.037  25.060  1.00  0.00     0.133 C 
ATOM      9  C   UNL A   1      31.849  22.107  24.387  1.00  0.00     0.022 C 
ATOM     10  C   UNL A   1      33.300  21.729  24.108  1.00  0.00     0.017 C 
BRANCH   6  11
ATOM     11  C   UNL A   1      32.086  24.938  26.429  1.00  0.00     0.227 C 
ATOM     12  O   UNL A   1      31.394  24.325  27.252  1.00  0.00    -0.275 OA
BRANCH  11  13
ATOM     13  C   UNL A   1      32.180  26.455  26.567  1.00  0.00     0.094 C 
ATOM     14  N   UNL A   1      31.432  26.894  24.268  1.00  0.00    -0.197 NA
ATOM     15  C   UNL A   1      32.781  27.258  23.802  1.00  0.00     0.102 C 
ATOM     16  C   UNL A   1      31.077  27.031  25.691  1.00  0.00     0.116 C 
ATOM     17  C   UNL A   1      33.834  27.488  24.883  1.00  0.00     0.018 C 
ATOM     18  C   UNL A   1      33.460  27.233  26.337  1.00  0.00     0.016 C 
BRANCH  14  19
ATOM     19  S   UNL A   1      30.178  26.950  23.125  1.00  0.00     0.243 S 
ATOM     20  O   UNL A   1      29.156  26.015  23.519  1.00  0.00    -0.207 OA
ATOM     21  O   UNL A   1      30.797  26.891  21.811  1.00  0.00    -0.207 OA
BRANCH  19  22
ATOM     22  C   UNL A   1      29.470  28.577  23.269  1.00  0.00     0.082 A 
ATOM     23  C   UNL A   1      28.313  31.121  23.340  1.00  0.00     0.118 A 
ATOM     24  C   UNL A   1      27.614  30.043  22.791  1.00  0.00     0.048 A 
ATOM     25  C   UNL A   1      29.576  30.912  23.890  1.00  0.00     0.048 A 
ATOM     26  C   UNL A   1      28.189  28.772  22.747  1.00  0.00     0.025 A 
ATOM     27  C   UNL A   1      30.157  29.646  23.848  1.00  0.00     0.025 A 
BRANCH  23  28
ATOM     28  O   UNL A   1      27.668  32.326  23.299  1.00  0.00    -0.497 OA
ATOM     29  C   UNL A   1      28.403  33.396  22.710  1.00  0.00     0.278 C 
ENDBRANCH  23  28
ENDBRANCH  19  22
ENDBRANCH  14  19
ENDBRANCH  11  13
ENDBRANCH   6  11
ENDBRANCH   1   5
BRANCH   3  30
ATOM     30  C   UNL A   1      37.182  21.204  24.918  1.00  0.00     0.117 C 
BRANCH  30  31
ATOM     31  C   UNL A   1      38.096  20.003  25.022  1.00  0.00     0.042 C 
BRANCH  31  32
ATOM     32  C   UNL A   1      39.242  20.221  25.984  1.00  0.00     0.118 C 
BRANCH  32  33
ATOM     33  N   UNL A   1      40.236  19.150  25.952  1.00  0.00    -0.352 N 
ATOM     34  C   UNL A   1      41.600  19.192  26.124  1.00  0.00     0.251 C 
ATOM     35  H   UNL A   1      39.870  18.253  25.781  1.00  0.00     0.163 HD
ATOM     36  O   UNL A   1      42.270  18.173  25.991  1.00  0.00    -0.269 OA
BRANCH  34  37
ATOM     37  C   UNL A   1      42.268  20.476  26.426  1.00  0.00     0.039 A 
ATOM     38  C   UNL A   1      42.810  21.223  25.377  1.00  0.00     0.014 A 
ATOM     39  C   UNL A   1      42.325  20.962  27.731  1.00  0.00     0.014 A 
ATOM     40  C   UNL A   1      43.331  22.495  25.631  1.00  0.00     0.010 A 
ATOM     41  C   UNL A   1      42.712  22.274  27.959  1.00  0.00     0.010 A 
ATOM     42  C   UNL A   1      43.241  23.049  26.917  1.00  0.00    -0.014 A 
BRANCH  42  43
ATOM     43  C   UNL A   1      43.740  24.412  27.226  1.00  0.00     0.031 A 
ATOM     44  C   UNL A   1      42.768  25.466  27.683  1.00  0.00     0.074 A 
ATOM     45  C   UNL A   1      45.032  24.726  27.011  1.00  0.00     0.049 A 
ATOM     46  N   UNL A   1      42.959  26.748  27.866  1.00  0.00    -0.248 NA
ATOM     47  C   UNL A   1      41.380  25.032  27.912  1.00  0.00     0.031 C 
ATOM     48  C   UNL A   1      46.060  23.813  26.505  1.00  0.00     0.029 A 
ATOM     49  N   UNL A   1      45.701  25.911  27.184  1.00  0.00    -0.354 N 
ATOM     50  C   UNL A   1      41.712  27.271  28.182  1.00  0.00     0.074 A 
ATOM     51  C   UNL A   1      40.761  26.185  28.103  1.00  0.00     0.031 C 
ATOM     52  C   UNL A   1      47.234  24.462  26.444  1.00  0.00     0.029 A 
ATOM     53  C   UNL A   1      47.037  25.843  26.871  1.00  0.00     0.049 A 
ATOM     54  H   UNL A   1      45.264  26.734  27.504  1.00  0.00     0.167 HD
ATOM     55  C   UNL A   1      41.389  28.536  28.539  1.00  0.00     0.037 A 
ATOM     56  C   UNL A   1      47.991  26.790  26.924  1.00  0.00     0.037 A 
ATOM     57  C   UNL A   1      42.351  29.592  28.696  1.00  0.00     0.049 A 
ATOM     58  C   UNL A   1      47.623  28.171  27.392  1.00  0.00     0.074 A 
ATOM     59  C   UNL A   1      42.148  30.886  29.141  1.00  0.00     0.029 A 
ATOM     60  N   UNL A   1      43.705  29.464  28.429  1.00  0.00    -0.354 N 
ATOM     61  N   UNL A   1      46.450  28.639  27.744  1.00  0.00    -0.248 NA
ATOM     62  C   UNL A   1      48.713  29.154  27.476  1.00  0.00     0.031 C 
ATOM     63  C   UNL A   1      43.379  31.548  29.124  1.00  0.00     0.029 A 
ATOM     64  C   UNL A   1      44.352  30.658  28.697  1.00  0.00     0.049 A 
ATOM     65  H   UNL A   1      44.142  28.646  28.099  1.00  0.00     0.167 HD
ATOM     66  C   UNL A   1      46.662  29.959  28.114  1.00  0.00     0.074 A 
ATOM     67  C   UNL A   1      48.079  30.215  27.957  1.00  0.00     0.031 C 
ATOM     68  C   UNL A   1      45.766  30.881  28.545  1.00  0.00     0.037 A 
BRANCH  55  69
ATOM     69  C   UNL A   1      39.943  28.828  28.809  1.00  0.00     0.057 A 
ATOM     70  C   UNL A   1      39.397  28.731  30.097  1.00  0.00     0.134 A 
ATOM     71  C   UNL A   1      39.085  29.213  27.772  1.00  0.00     0.134 A 
ATOM     72  F   UNL A   1      40.160  28.350  31.132  1.00  0.00    -0.206 F 
ATOM     73  C   UNL A   1      38.043  28.972  30.337  1.00  0.00     0.040 A 
ATOM     74  C   UNL A   1      37.735  29.485  28.004  1.00  0.00     0.040 A 
ATOM     75  F   UNL A   1      39.542  29.329  26.517  1.00  0.00    -0.206 F 
ATOM     76  C   UNL A   1      37.210  29.355  29.289  1.00  0.00     0.006 A 
ENDBRANCH  55  69
BRANCH  56  77
ATOM     77  C   UNL A   1      49.393  26.456  26.572  1.00  0.00     0.057 A 
ATOM     78  C   UNL A   1      50.252  25.883  27.518  1.00  0.00     0.134 A 
ATOM     79  C   UNL A   1      49.908  26.694  25.294  1.00  0.00     0.134 A 
ATOM     80  F   UNL A   1      49.820  25.648  28.766  1.00  0.00    -0.206 F 
ATOM     81  C   UNL A   1      51.579  25.578  27.212  1.00  0.00     0.040 A 
ATOM     82  C   UNL A   1      51.228  26.375  24.966  1.00  0.00     0.040 A 
ATOM     83  F   UNL A   1      49.134  27.233  24.340  1.00  0.00    -0.206 F 
ATOM     84  C   UNL A   1      52.068  25.820  25.930  1.00  0.00     0.006 A 
ENDBRANCH  56  77
BRANCH  68  85
ATOM     85  C   UNL A   1      46.296  32.234  28.906  1.00  0.00     0.057 A 
ATOM     86  C   UNL A   1      46.791  32.512  30.185  1.00  0.00     0.134 A 
ATOM     87  C   UNL A   1      46.359  33.252  27.947  1.00  0.00     0.134 A 
ATOM     88  F   UNL A   1      46.747  31.579  31.148  1.00  0.00    -0.206 F 
ATOM     89  C   UNL A   1      47.319  33.763  30.504  1.00  0.00     0.040 A 
ATOM     90  C   UNL A   1      46.903  34.501  28.248  1.00  0.00     0.040 A 
ATOM     91  F   UNL A   1      45.907  33.044  26.701  1.00  0.00    -0.206 F 
ATOM     92  C   UNL A   1      47.381  34.759  29.530  1.00  0.00     0.006 A 
ENDBRANCH  68  85
ENDBRANCH  42  43
ENDBRANCH  34  37
ENDBRANCH  32  33
ENDBRANCH  31  32
ENDBRANCH  30  31
ENDBRANCH   3  30
TORSDOF 15
ENDMDL
