MODEL 1
REMARK VINA RESULT:     -11.8      0.000      0.000
REMARK SMILES Cc1nsc(NC(=O)[C@@H]2C=C[C@@H]([NH3+])C2)c1C(=O)NCCCNC(=O)c1ccc(-c2c3nc(c(-c4c(F)cccc4F)c4ccc([nH]4)c(-c4c(F)cccc4F)c4nc(c(-c5c(F)cccc5F)c5ccc2[nH]5)C=C4)C=C3)cc1
REMARK SMILES IDX 19 1 18 2 16 3 17 4 15 6 1 7 2 8 3 9 4 10 5 11 6 12 7 13
REMARK SMILES IDX 8 15 9 16 10 17 14 18 11 19 12 20 13 21 20 25 21 26 22 27
REMARK SMILES IDX 23 28 24 30 25 31 26 32 78 33 27 34 77 35 28 36 29 37 30 38
REMARK SMILES IDX 71 39 31 40 76 41 70 42 72 43 32 44 75 45 69 46 68 47 33 49
REMARK SMILES IDX 59 50 42 51 58 52 43 53 46 54 57 55 73 56 44 57 45 58 56 60
REMARK SMILES IDX 74 61 47 62 34 63 35 64 40 65 36 66 37 67 39 68 41 69 38 70
REMARK SMILES IDX 60 71 61 72 66 73 62 74 63 75 65 76 67 77 64 78 48 79 49 80
REMARK SMILES IDX 54 81 50 82 51 83 53 84 55 85 52 86
REMARK H PARENT 18 5 6 14 13 22 13 23 13 24 22 29 72 48 46 59
REMARK Flexibility Score: inf
ROOT
ATOM      1  C   UNL A   1      33.239  29.719  25.730  1.00  0.00     0.118 C 
ENDROOT
BRANCH   1   2
ATOM      2  N   UNL A   1      33.741  29.166  24.495  1.00  0.00    -0.352 N 
ATOM      3  C   UNL A   1      33.196  28.491  23.441  1.00  0.00     0.256 C 
ATOM      4  O   UNL A   1      33.981  28.382  22.489  1.00  0.00    -0.269 OA
ATOM      5  H   UNL A   1      34.709  29.310  24.388  1.00  0.00     0.163 HD
BRANCH   3   6
ATOM      6  C   UNL A   1      31.860  27.867  23.362  1.00  0.00     0.097 A 
ATOM      7  C   UNL A   1      29.875  29.696  23.512  1.00  0.00     0.069 C 
ATOM      8  C   UNL A   1      30.476  28.340  23.457  1.00  0.00     0.066 A 
ATOM      9  N   UNL A   1      29.538  27.392  23.514  1.00  0.00    -0.195 NA
ATOM     10  S   UNL A   1      30.228  25.928  23.400  1.00  0.00    -0.017 S 
ATOM     11  C   UNL A   1      31.798  26.480  23.112  1.00  0.00     0.129 A 
BRANCH  11  12
ATOM     12  N   UNL A   1      32.837  25.615  22.794  1.00  0.00    -0.315 N 
ATOM     13  C   UNL A   1      33.757  24.940  23.553  1.00  0.00     0.232 C 
ATOM     14  H   UNL A   1      32.931  25.455  21.827  1.00  0.00     0.170 HD
ATOM     15  O   UNL A   1      34.630  24.307  22.945  1.00  0.00    -0.274 OA
BRANCH  13  16
ATOM     16  C   UNL A   1      33.700  24.928  25.088  1.00  0.00     0.107 C 
ATOM     17  C   UNL A   1      34.951  24.432  25.757  1.00  0.00    -0.012 C 
ATOM     18  C   UNL A   1      32.641  23.951  25.629  1.00  0.00     0.087 C 
ATOM     19  C   UNL A   1      34.773  23.256  26.371  1.00  0.00     0.033 C 
ATOM     20  C   UNL A   1      33.400  22.726  26.150  1.00  0.00     0.205 C 
BRANCH  20  21
ATOM     21  N   UNL A   1      32.786  22.210  27.359  1.00  0.00    -0.352 N 
ATOM     22  H   UNL A   1      33.164  21.285  27.563  1.00  0.00     0.345 HD
ATOM     23  H   UNL A   1      31.777  22.145  27.227  1.00  0.00     0.345 HD
ATOM     24  H   UNL A   1      32.988  22.838  28.137  1.00  0.00     0.345 HD
ENDBRANCH  20  21
ENDBRANCH  13  16
ENDBRANCH  11  12
ENDBRANCH   3   6
ENDBRANCH   1   2
BRANCH   1  25
ATOM     25  C   UNL A   1      33.669  28.926  26.966  1.00  0.00     0.042 C 
BRANCH  25  26
ATOM     26  C   UNL A   1      35.149  29.068  27.267  1.00  0.00     0.118 C 
BRANCH  26  27
ATOM     27  N   UNL A   1      35.375  29.805  28.511  1.00  0.00    -0.352 N 
ATOM     28  C   UNL A   1      36.439  29.724  29.388  1.00  0.00     0.251 C 
ATOM     29  H   UNL A   1      34.671  30.449  28.757  1.00  0.00     0.163 HD
ATOM     30  O   UNL A   1      36.343  30.139  30.528  1.00  0.00    -0.269 OA
BRANCH  28  31
ATOM     31  C   UNL A   1      37.683  29.092  28.918  1.00  0.00     0.039 A 
ATOM     32  C   UNL A   1      38.363  29.608  27.818  1.00  0.00     0.014 A 
ATOM     33  C   UNL A   1      38.204  28.027  29.649  1.00  0.00     0.014 A 
ATOM     34  C   UNL A   1      39.631  29.114  27.533  1.00  0.00     0.010 A 
ATOM     35  C   UNL A   1      39.518  27.666  29.473  1.00  0.00     0.010 A 
ATOM     36  C   UNL A   1      40.231  28.178  28.399  1.00  0.00    -0.014 A 
BRANCH  36  37
ATOM     37  C   UNL A   1      41.652  27.865  28.256  1.00  0.00     0.031 A 
ATOM     38  C   UNL A   1      41.914  26.622  27.484  1.00  0.00     0.074 A 
ATOM     39  C   UNL A   1      42.674  28.665  28.636  1.00  0.00     0.049 A 
ATOM     40  N   UNL A   1      42.287  25.486  27.968  1.00  0.00    -0.248 NA
ATOM     41  C   UNL A   1      41.557  26.574  26.057  1.00  0.00     0.031 C 
ATOM     42  C   UNL A   1      42.622  30.039  29.144  1.00  0.00     0.029 A 
ATOM     43  N   UNL A   1      44.016  28.428  28.567  1.00  0.00    -0.354 N 
ATOM     44  C   UNL A   1      42.455  24.643  26.877  1.00  0.00     0.074 A 
ATOM     45  C   UNL A   1      41.803  25.291  25.769  1.00  0.00     0.031 C 
ATOM     46  C   UNL A   1      43.857  30.586  29.112  1.00  0.00     0.029 A 
ATOM     47  C   UNL A   1      44.813  29.553  28.759  1.00  0.00     0.049 A 
ATOM     48  H   UNL A   1      44.390  27.534  28.395  1.00  0.00     0.167 HD
ATOM     49  C   UNL A   1      43.371  23.638  26.930  1.00  0.00     0.037 A 
ATOM     50  C   UNL A   1      46.162  29.635  28.641  1.00  0.00     0.037 A 
ATOM     51  C   UNL A   1      43.746  23.355  28.299  1.00  0.00     0.049 A 
ATOM     52  C   UNL A   1      46.702  28.263  28.778  1.00  0.00     0.074 A 
ATOM     53  C   UNL A   1      43.061  23.035  29.457  1.00  0.00     0.029 A 
ATOM     54  N   UNL A   1      44.987  23.774  28.716  1.00  0.00    -0.354 N 
ATOM     55  N   UNL A   1      46.703  27.593  29.894  1.00  0.00    -0.248 NA
ATOM     56  C   UNL A   1      46.847  27.468  27.570  1.00  0.00     0.031 C 
ATOM     57  C   UNL A   1      43.734  23.748  30.496  1.00  0.00     0.029 A 
ATOM     58  C   UNL A   1      44.835  24.389  29.929  1.00  0.00     0.049 A 
ATOM     59  H   UNL A   1      45.834  23.655  28.227  1.00  0.00     0.167 HD
ATOM     60  C   UNL A   1      46.358  26.305  29.519  1.00  0.00     0.074 A 
ATOM     61  C   UNL A   1      46.573  26.262  28.074  1.00  0.00     0.031 C 
ATOM     62  C   UNL A   1      45.656  25.495  30.366  1.00  0.00     0.037 A 
BRANCH  49  63
ATOM     63  C   UNL A   1      44.261  23.252  25.769  1.00  0.00     0.057 A 
ATOM     64  C   UNL A   1      44.463  21.885  25.499  1.00  0.00     0.134 A 
ATOM     65  C   UNL A   1      45.177  24.123  25.141  1.00  0.00     0.134 A 
ATOM     66  F   UNL A   1      43.659  20.954  26.036  1.00  0.00    -0.206 F 
ATOM     67  C   UNL A   1      45.559  21.416  24.767  1.00  0.00     0.040 A 
ATOM     68  C   UNL A   1      46.245  23.668  24.364  1.00  0.00     0.040 A 
ATOM     69  F   UNL A   1      45.161  25.447  25.321  1.00  0.00    -0.206 F 
ATOM     70  C   UNL A   1      46.464  22.309  24.209  1.00  0.00     0.006 A 
ENDBRANCH  49  63
BRANCH  50  71
ATOM     71  C   UNL A   1      47.011  30.762  28.192  1.00  0.00     0.057 A 
ATOM     72  C   UNL A   1      46.818  31.354  26.933  1.00  0.00     0.134 A 
ATOM     73  C   UNL A   1      47.815  31.480  29.092  1.00  0.00     0.134 A 
ATOM     74  F   UNL A   1      46.042  30.764  26.012  1.00  0.00    -0.206 F 
ATOM     75  C   UNL A   1      47.351  32.609  26.608  1.00  0.00     0.040 A 
ATOM     76  C   UNL A   1      48.359  32.730  28.777  1.00  0.00     0.040 A 
ATOM     77  F   UNL A   1      48.019  31.038  30.341  1.00  0.00    -0.206 F 
ATOM     78  C   UNL A   1      48.111  33.309  27.538  1.00  0.00     0.006 A 
ENDBRANCH  50  71
BRANCH  62  79
ATOM     79  C   UNL A   1      45.560  25.899  31.812  1.00  0.00     0.057 A 
ATOM     80  C   UNL A   1      46.551  25.677  32.781  1.00  0.00     0.134 A 
ATOM     81  C   UNL A   1      44.438  26.633  32.216  1.00  0.00     0.134 A 
ATOM     82  F   UNL A   1      47.708  25.077  32.471  1.00  0.00    -0.206 F 
ATOM     83  C   UNL A   1      46.401  26.112  34.102  1.00  0.00     0.040 A 
ATOM     84  C   UNL A   1      44.294  27.107  33.522  1.00  0.00     0.040 A 
ATOM     85  F   UNL A   1      43.470  26.932  31.335  1.00  0.00    -0.206 F 
ATOM     86  C   UNL A   1      45.270  26.832  34.475  1.00  0.00     0.006 A 
ENDBRANCH  62  79
ENDBRANCH  36  37
ENDBRANCH  28  31
ENDBRANCH  26  27
ENDBRANCH  25  26
ENDBRANCH   1  25
TORSDOF 13
ENDMDL
MODEL 2
REMARK VINA RESULT:     -11.7      1.391      3.067
REMARK SMILES Cc1nsc(NC(=O)[C@@H]2C=C[C@@H]([NH3+])C2)c1C(=O)NCCCNC(=O)c1ccc(-c2c3nc(c(-c4c(F)cccc4F)c4ccc([nH]4)c(-c4c(F)cccc4F)c4nc(c(-c5c(F)cccc5F)c5ccc2[nH]5)C=C4)C=C3)cc1
REMARK SMILES IDX 19 1 18 2 16 3 17 4 15 6 1 7 2 8 3 9 4 10 5 11 6 12 7 13
REMARK SMILES IDX 8 15 9 16 10 17 14 18 11 19 12 20 13 21 20 25 21 26 22 27
REMARK SMILES IDX 23 28 24 30 25 31 26 32 78 33 27 34 77 35 28 36 29 37 30 38
REMARK SMILES IDX 71 39 31 40 76 41 70 42 72 43 32 44 75 45 69 46 68 47 33 49
REMARK SMILES IDX 59 50 42 51 58 52 43 53 46 54 57 55 73 56 44 57 45 58 56 60
REMARK SMILES IDX 74 61 47 62 34 63 35 64 40 65 36 66 37 67 39 68 41 69 38 70
REMARK SMILES IDX 60 71 61 72 66 73 62 74 63 75 65 76 67 77 64 78 48 79 49 80
REMARK SMILES IDX 54 81 50 82 51 83 53 84 55 85 52 86
REMARK H PARENT 18 5 6 14 13 22 13 23 13 24 22 29 72 48 46 59
REMARK Flexibility Score: inf
ROOT
ATOM      1  C   UNL A   1      33.378  27.229  26.241  1.00  0.00     0.118 C 
ENDROOT
BRANCH   1   2
ATOM      2  N   UNL A   1      32.375  26.314  26.731  1.00  0.00    -0.352 N 
ATOM      3  C   UNL A   1      31.985  25.044  26.420  1.00  0.00     0.256 C 
ATOM      4  O   UNL A   1      31.194  24.573  27.249  1.00  0.00    -0.269 OA
ATOM      5  H   UNL A   1      31.845  26.700  27.466  1.00  0.00     0.163 HD
BRANCH   3   6
ATOM      6  C   UNL A   1      32.349  24.253  25.227  1.00  0.00     0.097 A 
ATOM      7  C   UNL A   1      34.558  22.750  25.643  1.00  0.00     0.069 C 
ATOM      8  C   UNL A   1      33.447  23.351  24.864  1.00  0.00     0.066 A 
ATOM      9  N   UNL A   1      33.495  22.978  23.584  1.00  0.00    -0.195 NA
ATOM     10  S   UNL A   1      32.238  23.612  22.777  1.00  0.00    -0.017 S 
ATOM     11  C   UNL A   1      31.474  24.292  24.121  1.00  0.00     0.129 A 
BRANCH  11  12
ATOM     12  N   UNL A   1      30.220  24.882  24.036  1.00  0.00    -0.315 N 
ATOM     13  C   UNL A   1      29.805  26.179  23.875  1.00  0.00     0.232 C 
ATOM     14  H   UNL A   1      29.479  24.239  24.106  1.00  0.00     0.170 HD
ATOM     15  O   UNL A   1      28.587  26.390  23.933  1.00  0.00    -0.274 OA
BRANCH  13  16
ATOM     16  C   UNL A   1      30.791  27.324  23.597  1.00  0.00     0.107 C 
ATOM     17  C   UNL A   1      30.575  28.553  24.434  1.00  0.00    -0.012 C 
ATOM     18  C   UNL A   1      30.655  27.883  22.169  1.00  0.00     0.087 C 
ATOM     19  C   UNL A   1      30.143  29.595  23.713  1.00  0.00     0.033 C 
ATOM     20  C   UNL A   1      29.918  29.221  22.291  1.00  0.00     0.205 C 
BRANCH  20  21
ATOM     21  N   UNL A   1      30.449  30.193  21.354  1.00  0.00    -0.352 N 
ATOM     22  H   UNL A   1      29.907  31.055  21.417  1.00  0.00     0.345 HD
ATOM     23  H   UNL A   1      30.389  29.821  20.407  1.00  0.00     0.345 HD
ATOM     24  H   UNL A   1      31.424  30.388  21.583  1.00  0.00     0.345 HD
ENDBRANCH  20  21
ENDBRANCH  13  16
ENDBRANCH  11  12
ENDBRANCH   3   6
ENDBRANCH   1   2
BRANCH   1  25
ATOM     25  C   UNL A   1      33.578  28.447  27.143  1.00  0.00     0.042 C 
BRANCH  25  26
ATOM     26  C   UNL A   1      35.032  28.866  27.249  1.00  0.00     0.118 C 
BRANCH  26  27
ATOM     27  N   UNL A   1      35.259  29.729  28.408  1.00  0.00    -0.352 N 
ATOM     28  C   UNL A   1      36.352  29.783  29.251  1.00  0.00     0.251 C 
ATOM     29  H   UNL A   1      34.531  30.359  28.617  1.00  0.00     0.163 HD
ATOM     30  O   UNL A   1      36.270  30.301  30.349  1.00  0.00    -0.269 OA
BRANCH  28  31
ATOM     31  C   UNL A   1      37.611  29.170  28.799  1.00  0.00     0.039 A 
ATOM     32  C   UNL A   1      38.312  29.710  27.723  1.00  0.00     0.014 A 
ATOM     33  C   UNL A   1      38.124  28.097  29.523  1.00  0.00     0.014 A 
ATOM     34  C   UNL A   1      39.591  29.231  27.460  1.00  0.00     0.010 A 
ATOM     35  C   UNL A   1      39.444  27.748  29.372  1.00  0.00     0.010 A 
ATOM     36  C   UNL A   1      40.178  28.285  28.323  1.00  0.00    -0.014 A 
BRANCH  36  37
ATOM     37  C   UNL A   1      41.605  27.986  28.207  1.00  0.00     0.031 A 
ATOM     38  C   UNL A   1      41.892  26.736  27.453  1.00  0.00     0.074 A 
ATOM     39  C   UNL A   1      42.611  28.801  28.595  1.00  0.00     0.049 A 
ATOM     40  N   UNL A   1      42.269  25.610  27.957  1.00  0.00    -0.248 NA
ATOM     41  C   UNL A   1      41.560  26.668  26.022  1.00  0.00     0.031 C 
ATOM     42  C   UNL A   1      42.536  30.180  29.087  1.00  0.00     0.029 A 
ATOM     43  N   UNL A   1      43.957  28.577  28.551  1.00  0.00    -0.354 N 
ATOM     44  C   UNL A   1      42.464  24.756  26.879  1.00  0.00     0.074 A 
ATOM     45  C   UNL A   1      41.824  25.385  25.753  1.00  0.00     0.031 C 
ATOM     46  C   UNL A   1      43.766  30.739  29.068  1.00  0.00     0.029 A 
ATOM     47  C   UNL A   1      44.738  29.712  28.743  1.00  0.00     0.049 A 
ATOM     48  H   UNL A   1      44.343  27.685  28.395  1.00  0.00     0.167 HD
ATOM     49  C   UNL A   1      43.389  23.762  26.958  1.00  0.00     0.037 A 
ATOM     50  C   UNL A   1      46.088  29.808  28.646  1.00  0.00     0.037 A 
ATOM     51  C   UNL A   1      43.745  23.499  28.336  1.00  0.00     0.049 A 
ATOM     52  C   UNL A   1      46.641  28.443  28.808  1.00  0.00     0.074 A 
ATOM     53  C   UNL A   1      43.043  23.184  29.486  1.00  0.00     0.029 A 
ATOM     54  N   UNL A   1      44.974  23.936  28.769  1.00  0.00    -0.354 N 
ATOM     55  N   UNL A   1      46.630  27.785  29.932  1.00  0.00    -0.248 NA
ATOM     56  C   UNL A   1      46.814  27.635  27.612  1.00  0.00     0.031 C 
ATOM     57  C   UNL A   1      43.692  23.916  30.528  1.00  0.00     0.029 A 
ATOM     58  C   UNL A   1      44.795  24.563  29.973  1.00  0.00     0.049 A 
ATOM     59  H   UNL A   1      45.829  23.819  28.296  1.00  0.00     0.167 HD
ATOM     60  C   UNL A   1      46.304  26.490  29.566  1.00  0.00     0.074 A 
ATOM     61  C   UNL A   1      46.545  26.432  28.125  1.00  0.00     0.031 C 
ATOM     62  C   UNL A   1      45.597  25.682  30.410  1.00  0.00     0.037 A 
BRANCH  49  63
ATOM     63  C   UNL A   1      44.303  23.372  25.816  1.00  0.00     0.057 A 
ATOM     64  C   UNL A   1      44.513  22.005  25.557  1.00  0.00     0.134 A 
ATOM     65  C   UNL A   1      45.228  24.243  25.202  1.00  0.00     0.134 A 
ATOM     66  F   UNL A   1      43.701  21.074  26.083  1.00  0.00    -0.206 F 
ATOM     67  C   UNL A   1      45.624  21.535  24.849  1.00  0.00     0.040 A 
ATOM     68  C   UNL A   1      46.312  23.786  24.448  1.00  0.00     0.040 A 
ATOM     69  F   UNL A   1      45.206  25.567  25.375  1.00  0.00    -0.206 F 
ATOM     70  C   UNL A   1      46.538  22.427  24.304  1.00  0.00     0.006 A 
ENDBRANCH  49  63
BRANCH  50  71
ATOM     71  C   UNL A   1      46.933  30.938  28.199  1.00  0.00     0.057 A 
ATOM     72  C   UNL A   1      46.784  31.486  26.914  1.00  0.00     0.134 A 
ATOM     73  C   UNL A   1      47.681  31.702  29.110  1.00  0.00     0.134 A 
ATOM     74  F   UNL A   1      46.062  30.850  25.980  1.00  0.00    -0.206 F 
ATOM     75  C   UNL A   1      47.305  32.741  26.572  1.00  0.00     0.040 A 
ATOM     76  C   UNL A   1      48.213  32.953  28.778  1.00  0.00     0.040 A 
ATOM     77  F   UNL A   1      47.839  31.304  30.380  1.00  0.00    -0.206 F 
ATOM     78  C   UNL A   1      48.008  33.487  27.511  1.00  0.00     0.006 A 
ENDBRANCH  50  71
BRANCH  62  79
ATOM     79  C   UNL A   1      45.472  26.101  31.849  1.00  0.00     0.057 A 
ATOM     80  C   UNL A   1      44.364  26.757  32.408  1.00  0.00     0.134 A 
ATOM     81  C   UNL A   1      46.496  25.734  32.732  1.00  0.00     0.134 A 
ATOM     82  F   UNL A   1      43.287  27.058  31.670  1.00  0.00    -0.206 F 
ATOM     83  C   UNL A   1      44.309  27.086  33.766  1.00  0.00     0.040 A 
ATOM     84  C   UNL A   1      46.436  26.021  34.097  1.00  0.00     0.040 A 
ATOM     85  F   UNL A   1      47.566  25.057  32.285  1.00  0.00    -0.206 F 
ATOM     86  C   UNL A   1      45.347  26.715  34.616  1.00  0.00     0.006 A 
ENDBRANCH  62  79
ENDBRANCH  36  37
ENDBRANCH  28  31
ENDBRANCH  26  27
ENDBRANCH  25  26
ENDBRANCH   1  25
TORSDOF 13
ENDMDL
MODEL 3
REMARK VINA RESULT:     -11.5      4.389      8.889
REMARK SMILES Cc1nsc(NC(=O)[C@@H]2C=C[C@@H]([NH3+])C2)c1C(=O)NCCCNC(=O)c1ccc(-c2c3nc(c(-c4c(F)cccc4F)c4ccc([nH]4)c(-c4c(F)cccc4F)c4nc(c(-c5c(F)cccc5F)c5ccc2[nH]5)C=C4)C=C3)cc1
REMARK SMILES IDX 19 1 18 2 16 3 17 4 15 6 1 7 2 8 3 9 4 10 5 11 6 12 7 13
REMARK SMILES IDX 8 15 9 16 10 17 14 18 11 19 12 20 13 21 20 25 21 26 22 27
REMARK SMILES IDX 23 28 24 30 25 31 26 32 78 33 27 34 77 35 28 36 29 37 30 38
REMARK SMILES IDX 71 39 31 40 76 41 70 42 72 43 32 44 75 45 69 46 68 47 33 49
REMARK SMILES IDX 59 50 42 51 58 52 43 53 46 54 57 55 73 56 44 57 45 58 56 60
REMARK SMILES IDX 74 61 47 62 34 63 35 64 40 65 36 66 37 67 39 68 41 69 38 70
REMARK SMILES IDX 60 71 61 72 66 73 62 74 63 75 65 76 67 77 64 78 48 79 49 80
REMARK SMILES IDX 54 81 50 82 51 83 53 84 55 85 52 86
REMARK H PARENT 18 5 6 14 13 22 13 23 13 24 22 29 72 48 46 59
REMARK Flexibility Score: inf
ROOT
ATOM      1  C   UNL A   1      36.182  24.097  25.758  1.00  0.00     0.118 C 
ENDROOT
BRANCH   1   2
ATOM      2  N   UNL A   1      35.524  24.126  24.474  1.00  0.00    -0.352 N 
ATOM      3  C   UNL A   1      34.277  24.457  24.029  1.00  0.00     0.256 C 
ATOM      4  O   UNL A   1      34.213  24.519  22.793  1.00  0.00    -0.269 OA
ATOM      5  H   UNL A   1      36.118  23.837  23.743  1.00  0.00     0.163 HD
BRANCH   3   6
ATOM      6  C   UNL A   1      33.059  24.673  24.835  1.00  0.00     0.097 A 
ATOM      7  C   UNL A   1      33.202  26.940  26.302  1.00  0.00     0.069 C 
ATOM      8  C   UNL A   1      32.623  25.657  25.831  1.00  0.00     0.066 A 
ATOM      9  N   UNL A   1      31.485  25.376  26.469  1.00  0.00    -0.195 NA
ATOM     10  S   UNL A   1      30.857  23.995  25.893  1.00  0.00    -0.017 S 
ATOM     11  C   UNL A   1      31.984  23.776  24.655  1.00  0.00     0.129 A 
BRANCH  11  12
ATOM     12  N   UNL A   1      31.855  22.767  23.710  1.00  0.00    -0.315 N 
ATOM     13  C   UNL A   1      32.242  21.452  23.687  1.00  0.00     0.232 C 
ATOM     14  H   UNL A   1      31.392  23.054  22.890  1.00  0.00     0.170 HD
ATOM     15  O   UNL A   1      32.055  20.830  22.633  1.00  0.00    -0.274 OA
BRANCH  13  16
ATOM     16  C   UNL A   1      32.846  20.756  24.916  1.00  0.00     0.107 C 
ATOM     17  C   UNL A   1      34.347  20.810  24.991  1.00  0.00    -0.012 C 
ATOM     18  C   UNL A   1      32.582  19.240  24.923  1.00  0.00     0.087 C 
ATOM     19  C   UNL A   1      34.913  19.609  24.820  1.00  0.00     0.033 C 
ATOM     20  C   UNL A   1      33.897  18.563  24.521  1.00  0.00     0.205 C 
BRANCH  20  21
ATOM     21  N   UNL A   1      34.101  17.338  25.271  1.00  0.00    -0.352 N 
ATOM     22  H   UNL A   1      33.750  16.548  24.730  1.00  0.00     0.345 HD
ATOM     23  H   UNL A   1      33.601  17.395  26.157  1.00  0.00     0.345 HD
ATOM     24  H   UNL A   1      35.097  17.212  25.449  1.00  0.00     0.345 HD
ENDBRANCH  20  21
ENDBRANCH  13  16
ENDBRANCH  11  12
ENDBRANCH   3   6
ENDBRANCH   1   2
BRANCH   1  25
ATOM     25  C   UNL A   1      37.584  23.488  25.705  1.00  0.00     0.042 C 
BRANCH  25  26
ATOM     26  C   UNL A   1      38.537  24.122  26.701  1.00  0.00     0.118 C 
BRANCH  26  27
ATOM     27  N   UNL A   1      39.813  24.471  26.075  1.00  0.00    -0.352 N 
ATOM     28  C   UNL A   1      40.502  25.667  26.115  1.00  0.00     0.251 C 
ATOM     29  H   UNL A   1      40.239  23.753  25.552  1.00  0.00     0.163 HD
ATOM     30  O   UNL A   1      41.364  25.920  25.295  1.00  0.00    -0.269 OA
BRANCH  28  31
ATOM     31  C   UNL A   1      40.144  26.642  27.158  1.00  0.00     0.039 A 
ATOM     32  C   UNL A   1      39.865  26.216  28.455  1.00  0.00     0.014 A 
ATOM     33  C   UNL A   1      40.177  27.997  26.840  1.00  0.00     0.014 A 
ATOM     34  C   UNL A   1      39.735  27.176  29.453  1.00  0.00     0.010 A 
ATOM     35  C   UNL A   1      40.222  28.928  27.850  1.00  0.00     0.010 A 
ATOM     36  C   UNL A   1      39.969  28.534  29.156  1.00  0.00    -0.014 A 
BRANCH  36  37
ATOM     37  C   UNL A   1      40.100  29.501  30.245  1.00  0.00     0.031 A 
ATOM     38  C   UNL A   1      38.845  30.244  30.535  1.00  0.00     0.074 A 
ATOM     39  C   UNL A   1      41.182  29.644  31.042  1.00  0.00     0.049 A 
ATOM     40  N   UNL A   1      38.594  31.471  30.224  1.00  0.00    -0.248 NA
ATOM     41  C   UNL A   1      37.681  29.513  31.060  1.00  0.00     0.031 C 
ATOM     42  C   UNL A   1      42.392  28.819  31.101  1.00  0.00     0.029 A 
ATOM     43  N   UNL A   1      41.389  30.542  32.048  1.00  0.00    -0.354 N 
ATOM     44  C   UNL A   1      37.332  31.744  30.737  1.00  0.00     0.074 A 
ATOM     45  C   UNL A   1      36.745  30.468  31.050  1.00  0.00     0.031 C 
ATOM     46  C   UNL A   1      43.084  29.102  32.227  1.00  0.00     0.029 A 
ATOM     47  C   UNL A   1      42.472  30.249  32.872  1.00  0.00     0.049 A 
ATOM     48  H   UNL A   1      40.818  31.333  32.182  1.00  0.00     0.167 HD
ATOM     49  C   UNL A   1      37.018  33.009  31.127  1.00  0.00     0.037 A 
ATOM     50  C   UNL A   1      42.846  30.898  34.003  1.00  0.00     0.037 A 
ATOM     51  C   UNL A   1      37.938  33.969  30.556  1.00  0.00     0.049 A 
ATOM     52  C   UNL A   1      42.248  32.253  33.952  1.00  0.00     0.074 A 
ATOM     53  C   UNL A   1      38.363  34.277  29.276  1.00  0.00     0.029 A 
ATOM     54  N   UNL A   1      38.875  34.526  31.393  1.00  0.00    -0.354 N 
ATOM     55  N   UNL A   1      42.631  33.184  33.126  1.00  0.00    -0.248 NA
ATOM     56  C   UNL A   1      40.925  32.432  34.527  1.00  0.00     0.031 C 
ATOM     57  C   UNL A   1      39.759  34.549  29.405  1.00  0.00     0.029 A 
ATOM     58  C   UNL A   1      40.087  34.476  30.758  1.00  0.00     0.049 A 
ATOM     59  H   UNL A   1      38.704  34.894  32.290  1.00  0.00     0.167 HD
ATOM     60  C   UNL A   1      41.451  33.776  32.709  1.00  0.00     0.074 A 
ATOM     61  C   UNL A   1      40.449  33.354  33.687  1.00  0.00     0.031 C 
ATOM     62  C   UNL A   1      41.340  34.307  31.455  1.00  0.00     0.037 A 
BRANCH  49  63
ATOM     63  C   UNL A   1      36.210  33.328  32.367  1.00  0.00     0.057 A 
ATOM     64  C   UNL A   1      35.226  34.332  32.291  1.00  0.00     0.134 A 
ATOM     65  C   UNL A   1      36.577  32.953  33.677  1.00  0.00     0.134 A 
ATOM     66  F   UNL A   1      34.790  34.777  31.102  1.00  0.00    -0.206 F 
ATOM     67  C   UNL A   1      34.739  34.995  33.423  1.00  0.00     0.040 A 
ATOM     68  C   UNL A   1      36.057  33.573  34.816  1.00  0.00     0.040 A 
ATOM     69  F   UNL A   1      37.526  32.049  33.936  1.00  0.00    -0.206 F 
ATOM     70  C   UNL A   1      35.167  34.627  34.691  1.00  0.00     0.006 A 
ENDBRANCH  49  63
BRANCH  50  71
ATOM     71  C   UNL A   1      43.485  30.378  35.233  1.00  0.00     0.057 A 
ATOM     72  C   UNL A   1      42.925  29.299  35.936  1.00  0.00     0.134 A 
ATOM     73  C   UNL A   1      44.805  30.715  35.573  1.00  0.00     0.134 A 
ATOM     74  F   UNL A   1      41.680  28.879  35.664  1.00  0.00    -0.206 F 
ATOM     75  C   UNL A   1      43.651  28.568  36.885  1.00  0.00     0.040 A 
ATOM     76  C   UNL A   1      45.539  29.997  36.524  1.00  0.00     0.040 A 
ATOM     77  F   UNL A   1      45.459  31.690  34.926  1.00  0.00    -0.206 F 
ATOM     78  C   UNL A   1      44.969  28.905  37.169  1.00  0.00     0.006 A 
ENDBRANCH  50  71
BRANCH  62  79
ATOM     79  C   UNL A   1      42.603  34.534  30.670  1.00  0.00     0.057 A 
ATOM     80  C   UNL A   1      43.452  35.644  30.807  1.00  0.00     0.134 A 
ATOM     81  C   UNL A   1      43.025  33.524  29.796  1.00  0.00     0.134 A 
ATOM     82  F   UNL A   1      43.193  36.615  31.693  1.00  0.00    -0.206 F 
ATOM     83  C   UNL A   1      44.629  35.768  30.062  1.00  0.00     0.040 A 
ATOM     84  C   UNL A   1      44.218  33.618  29.076  1.00  0.00     0.040 A 
ATOM     85  F   UNL A   1      42.296  32.407  29.649  1.00  0.00    -0.206 F 
ATOM     86  C   UNL A   1      45.017  34.751  29.195  1.00  0.00     0.006 A 
ENDBRANCH  62  79
ENDBRANCH  36  37
ENDBRANCH  28  31
ENDBRANCH  26  27
ENDBRANCH  25  26
ENDBRANCH   1  25
TORSDOF 13
ENDMDL
