MODEL 1
REMARK VINA RESULT:     -11.6      0.000      0.000
REMARK SMILES CC[NH2+][C@@]1(C(=O)NCCCNC(=O)c2ccc(-c3c4nc(c(-c5c(F)cccc5F)c5ccc([nH]5)c(-c5c(F)cccc5F)c5nc(c(-c6c(F)cccc6F)c6ccc3[nH]6)C=C5)C=C4)cc2)CCC[C@@H](Sc2ncc(C)cn2)C1
REMARK SMILES IDX 9 1 8 2 7 3 5 4 6 5 4 7 68 8 80 9 69 10 71 11 70 12 3 13
REMARK SMILES IDX 2 16 1 17 72 18 73 19 74 20 79 21 75 22 78 23 76 24 77 25
REMARK SMILES IDX 10 26 11 27 12 28 13 30 14 31 15 32 67 33 16 34 66 35 17 36
REMARK SMILES IDX 18 37 19 38 60 39 20 40 65 41 59 42 61 43 21 44 64 45 58 46
REMARK SMILES IDX 57 47 22 49 48 50 31 51 47 52 32 53 35 54 46 55 62 56 33 57
REMARK SMILES IDX 34 58 45 60 63 61 36 62 23 63 24 64 29 65 25 66 26 67 28 68
REMARK SMILES IDX 30 69 27 70 49 71 50 72 55 73 51 74 52 75 54 76 56 77 53 78
REMARK SMILES IDX 37 79 38 80 43 81 39 82 40 83 42 84 44 85 41 86
REMARK H PARENT 7 6 3 14 3 15 11 29 61 48 35 59
REMARK Flexibility Score: inf
ROOT
ATOM      1  C   UNL A   1      31.044  31.862  26.529  1.00  0.00     0.042 C 
ENDROOT
BRANCH   1   2
ATOM      2  C   UNL A   1      30.977  31.003  25.275  1.00  0.00     0.118 C 
BRANCH   2   3
ATOM      3  N   UNL A   1      31.973  29.957  25.249  1.00  0.00    -0.351 N 
ATOM      4  C   UNL A   1      32.341  29.064  24.299  1.00  0.00     0.281 C 
ATOM      5  O   UNL A   1      33.560  28.818  24.318  1.00  0.00    -0.268 OA
ATOM      6  H   UNL A   1      32.486  29.877  26.086  1.00  0.00     0.163 HD
BRANCH   4   7
ATOM      7  C   UNL A   1      31.404  28.352  23.222  1.00  0.00     0.176 C 
ATOM      8  C   UNL A   1      30.048  27.918  23.829  1.00  0.00     0.079 C 
ATOM      9  C   UNL A   1      32.026  27.213  22.384  1.00  0.00     0.094 C 
ATOM     10  C   UNL A   1      29.964  26.522  24.440  1.00  0.00     0.008 C 
ATOM     11  C   UNL A   1      32.036  25.857  23.080  1.00  0.00     0.061 C 
ATOM     12  C   UNL A   1      30.678  25.430  23.642  1.00  0.00     0.015 C 
BRANCH   7  13
ATOM     13  N   UNL A   1      30.995  29.454  22.258  1.00  0.00    -0.334 N 
ATOM     14  H   UNL A   1      31.322  30.341  22.641  1.00  0.00     0.347 HD
ATOM     15  H   UNL A   1      31.416  29.206  21.362  1.00  0.00     0.347 HD
BRANCH  13  16
ATOM     16  C   UNL A   1      29.555  29.583  21.997  1.00  0.00     0.257 C 
ATOM     17  C   UNL A   1      29.196  31.061  21.917  1.00  0.00     0.071 C 
ENDBRANCH  13  16
ENDBRANCH   7  13
BRANCH  11  18
ATOM     18  S   UNL A   1      32.950  24.572  22.142  1.00  0.00    -0.083 SA
BRANCH  18  19
ATOM     19  C   UNL A   1      34.256  24.207  23.265  1.00  0.00     0.187 A 
ATOM     20  N   UNL A   1      34.209  24.770  24.482  1.00  0.00    -0.231 NA
ATOM     21  N   UNL A   1      35.239  23.414  22.814  1.00  0.00    -0.231 NA
ATOM     22  C   UNL A   1      35.246  24.504  25.295  1.00  0.00     0.119 A 
ATOM     23  C   UNL A   1      36.250  23.179  23.668  1.00  0.00     0.119 A 
ATOM     24  C   UNL A   1      36.314  23.708  24.939  1.00  0.00    -0.014 A 
ATOM     25  C   UNL A   1      37.455  23.430  25.852  1.00  0.00     0.048 C 
ENDBRANCH  18  19
ENDBRANCH  11  18
ENDBRANCH   4   7
ENDBRANCH   2   3
ENDBRANCH   1   2
BRANCH   1  26
ATOM     26  C   UNL A   1      32.420  32.439  26.779  1.00  0.00     0.118 C 
BRANCH  26  27
ATOM     27  N   UNL A   1      32.354  33.804  27.291  1.00  0.00    -0.352 N 
ATOM     28  C   UNL A   1      33.043  34.405  28.312  1.00  0.00     0.251 C 
ATOM     29  H   UNL A   1      31.710  34.388  26.828  1.00  0.00     0.163 HD
ATOM     30  O   UNL A   1      32.654  35.489  28.751  1.00  0.00    -0.269 OA
BRANCH  28  31
ATOM     31  C   UNL A   1      34.236  33.760  28.896  1.00  0.00     0.039 A 
ATOM     32  C   UNL A   1      35.492  34.349  28.724  1.00  0.00     0.014 A 
ATOM     33  C   UNL A   1      34.124  32.557  29.595  1.00  0.00     0.014 A 
ATOM     34  C   UNL A   1      36.617  33.762  29.306  1.00  0.00     0.010 A 
ATOM     35  C   UNL A   1      35.216  32.051  30.285  1.00  0.00     0.010 A 
ATOM     36  C   UNL A   1      36.481  32.628  30.123  1.00  0.00    -0.014 A 
BRANCH  36  37
ATOM     37  C   UNL A   1      37.649  31.994  30.782  1.00  0.00     0.031 A 
ATOM     38  C   UNL A   1      38.423  30.924  30.056  1.00  0.00     0.074 A 
ATOM     39  C   UNL A   1      37.965  32.326  32.048  1.00  0.00     0.049 A 
ATOM     40  N   UNL A   1      39.411  30.181  30.487  1.00  0.00    -0.248 NA
ATOM     41  C   UNL A   1      38.008  30.619  28.675  1.00  0.00     0.031 C 
ATOM     42  C   UNL A   1      37.251  33.302  32.876  1.00  0.00     0.029 A 
ATOM     43  N   UNL A   1      38.966  31.869  32.869  1.00  0.00    -0.354 N 
ATOM     44  C   UNL A   1      39.710  29.312  29.444  1.00  0.00     0.074 A 
ATOM     45  C   UNL A   1      38.762  29.571  28.386  1.00  0.00     0.031 C 
ATOM     46  C   UNL A   1      37.855  33.395  34.070  1.00  0.00     0.029 A 
ATOM     47  C   UNL A   1      38.970  32.454  34.113  1.00  0.00     0.049 A 
ATOM     48  H   UNL A   1      39.619  31.188  32.592  1.00  0.00     0.167 HD
ATOM     49  C   UNL A   1      40.708  28.401  29.364  1.00  0.00     0.037 A 
ATOM     50  C   UNL A   1      39.778  32.245  35.168  1.00  0.00     0.037 A 
ATOM     51  C   UNL A   1      41.677  28.183  30.403  1.00  0.00     0.049 A 
ATOM     52  C   UNL A   1      40.885  31.235  35.047  1.00  0.00     0.074 A 
ATOM     53  C   UNL A   1      42.773  27.340  30.394  1.00  0.00     0.029 A 
ATOM     54  N   UNL A   1      41.668  28.820  31.634  1.00  0.00    -0.354 N 
ATOM     55  N   UNL A   1      41.205  30.475  34.025  1.00  0.00    -0.248 NA
ATOM     56  C   UNL A   1      41.750  31.056  36.220  1.00  0.00     0.031 C 
ATOM     57  C   UNL A   1      43.400  27.430  31.640  1.00  0.00     0.029 A 
ATOM     58  C   UNL A   1      42.727  28.371  32.403  1.00  0.00     0.049 A 
ATOM     59  H   UNL A   1      41.006  29.492  31.919  1.00  0.00     0.167 HD
ATOM     60  C   UNL A   1      42.325  29.756  34.423  1.00  0.00     0.074 A 
ATOM     61  C   UNL A   1      42.639  30.183  35.770  1.00  0.00     0.031 C 
ATOM     62  C   UNL A   1      43.030  28.824  33.736  1.00  0.00     0.037 A 
BRANCH  49  63
ATOM     63  C   UNL A   1      40.813  27.586  28.108  1.00  0.00     0.057 A 
ATOM     64  C   UNL A   1      41.564  28.015  27.005  1.00  0.00     0.134 A 
ATOM     65  C   UNL A   1      40.196  26.332  28.018  1.00  0.00     0.134 A 
ATOM     66  F   UNL A   1      42.169  29.213  27.020  1.00  0.00    -0.206 F 
ATOM     67  C   UNL A   1      41.682  27.236  25.853  1.00  0.00     0.040 A 
ATOM     68  C   UNL A   1      40.330  25.531  26.882  1.00  0.00     0.040 A 
ATOM     69  F   UNL A   1      39.463  25.857  29.036  1.00  0.00    -0.206 F 
ATOM     70  C   UNL A   1      41.071  25.985  25.792  1.00  0.00     0.006 A 
ENDBRANCH  49  63
BRANCH  50  71
ATOM     71  C   UNL A   1      39.585  33.012  36.427  1.00  0.00     0.057 A 
ATOM     72  C   UNL A   1      38.677  32.583  37.404  1.00  0.00     0.134 A 
ATOM     73  C   UNL A   1      40.276  34.205  36.671  1.00  0.00     0.134 A 
ATOM     74  F   UNL A   1      37.973  31.456  37.222  1.00  0.00    -0.206 F 
ATOM     75  C   UNL A   1      38.438  33.327  38.560  1.00  0.00     0.040 A 
ATOM     76  C   UNL A   1      40.070  34.943  37.838  1.00  0.00     0.040 A 
ATOM     77  F   UNL A   1      41.166  34.667  35.781  1.00  0.00    -0.206 F 
ATOM     78  C   UNL A   1      39.139  34.511  38.781  1.00  0.00     0.006 A 
ENDBRANCH  50  71
BRANCH  62  79
ATOM     79  C   UNL A   1      44.235  28.240  34.412  1.00  0.00     0.057 A 
ATOM     80  C   UNL A   1      44.167  27.056  35.155  1.00  0.00     0.134 A 
ATOM     81  C   UNL A   1      45.489  28.851  34.278  1.00  0.00     0.134 A 
ATOM     82  F   UNL A   1      42.994  26.429  35.330  1.00  0.00    -0.206 F 
ATOM     83  C   UNL A   1      45.299  26.512  35.765  1.00  0.00     0.040 A 
ATOM     84  C   UNL A   1      46.634  28.301  34.856  1.00  0.00     0.040 A 
ATOM     85  F   UNL A   1      45.625  29.981  33.568  1.00  0.00    -0.206 F 
ATOM     86  C   UNL A   1      46.539  27.132  35.608  1.00  0.00     0.006 A 
ENDBRANCH  62  79
ENDBRANCH  36  37
ENDBRANCH  28  31
ENDBRANCH  26  27
ENDBRANCH   1  26
TORSDOF 14
ENDMDL
MODEL 2
REMARK VINA RESULT:     -11.5      4.983     10.115
REMARK SMILES CC[NH2+][C@@]1(C(=O)NCCCNC(=O)c2ccc(-c3c4nc(c(-c5c(F)cccc5F)c5ccc([nH]5)c(-c5c(F)cccc5F)c5nc(c(-c6c(F)cccc6F)c6ccc3[nH]6)C=C5)C=C4)cc2)CCC[C@@H](Sc2ncc(C)cn2)C1
REMARK SMILES IDX 9 1 8 2 7 3 5 4 6 5 4 7 68 8 80 9 69 10 71 11 70 12 3 13
REMARK SMILES IDX 2 16 1 17 72 18 73 19 74 20 79 21 75 22 78 23 76 24 77 25
REMARK SMILES IDX 10 26 11 27 12 28 13 30 14 31 15 32 67 33 16 34 66 35 17 36
REMARK SMILES IDX 18 37 19 38 60 39 20 40 65 41 59 42 61 43 21 44 64 45 58 46
REMARK SMILES IDX 57 47 22 49 48 50 31 51 47 52 32 53 35 54 46 55 62 56 33 57
REMARK SMILES IDX 34 58 45 60 63 61 36 62 23 63 24 64 29 65 25 66 26 67 28 68
REMARK SMILES IDX 30 69 27 70 49 71 50 72 55 73 51 74 52 75 54 76 56 77 53 78
REMARK SMILES IDX 37 79 38 80 43 81 39 82 40 83 42 84 44 85 41 86
REMARK H PARENT 7 6 3 14 3 15 11 29 61 48 35 59
REMARK Flexibility Score: inf
ROOT
ATOM      1  C   UNL A   1      37.791  19.879  24.597  1.00  0.00     0.042 C 
ENDROOT
BRANCH   1   2
ATOM      2  C   UNL A   1      36.325  19.868  25.001  1.00  0.00     0.118 C 
BRANCH   2   3
ATOM      3  N   UNL A   1      35.897  21.102  25.620  1.00  0.00    -0.351 N 
ATOM      4  C   UNL A   1      34.706  21.515  26.116  1.00  0.00     0.281 C 
ATOM      5  O   UNL A   1      34.830  22.252  27.110  1.00  0.00    -0.268 OA
ATOM      6  H   UNL A   1      36.612  21.776  25.696  1.00  0.00     0.163 HD
BRANCH   4   7
ATOM      7  C   UNL A   1      33.250  21.154  25.571  1.00  0.00     0.176 C 
ATOM      8  C   UNL A   1      33.236  20.963  24.035  1.00  0.00     0.079 C 
ATOM      9  C   UNL A   1      32.080  22.052  26.030  1.00  0.00     0.094 C 
ATOM     10  C   UNL A   1      32.968  22.194  23.175  1.00  0.00     0.008 C 
ATOM     11  C   UNL A   1      31.921  23.334  25.222  1.00  0.00     0.061 C 
ATOM     12  C   UNL A   1      31.874  23.121  23.708  1.00  0.00     0.015 C 
BRANCH   7  13
ATOM     13  N   UNL A   1      32.972  19.748  26.081  1.00  0.00    -0.334 N 
ATOM     14  H   UNL A   1      33.759  19.466  26.665  1.00  0.00     0.347 HD
ATOM     15  H   UNL A   1      32.083  19.807  26.577  1.00  0.00     0.347 HD
BRANCH  13  16
ATOM     16  C   UNL A   1      32.784  18.715  25.053  1.00  0.00     0.257 C 
ATOM     17  C   UNL A   1      32.528  17.378  25.737  1.00  0.00     0.071 C 
ENDBRANCH  13  16
ENDBRANCH   7  13
BRANCH  11  18
ATOM     18  S   UNL A   1      30.649  24.465  25.908  1.00  0.00    -0.083 SA
BRANCH  18  19
ATOM     19  C   UNL A   1      31.627  25.885  26.268  1.00  0.00     0.187 A 
ATOM     20  N   UNL A   1      31.028  26.919  26.877  1.00  0.00    -0.231 NA
ATOM     21  N   UNL A   1      32.909  25.853  25.873  1.00  0.00    -0.231 NA
ATOM     22  C   UNL A   1      31.795  28.001  27.094  1.00  0.00     0.119 A 
ATOM     23  C   UNL A   1      33.631  26.960  26.117  1.00  0.00     0.119 A 
ATOM     24  C   UNL A   1      33.121  28.086  26.727  1.00  0.00    -0.014 A 
ATOM     25  C   UNL A   1      33.952  29.295  26.972  1.00  0.00     0.048 C 
ENDBRANCH  18  19
ENDBRANCH  11  18
ENDBRANCH   4   7
ENDBRANCH   2   3
ENDBRANCH   1   2
BRANCH   1  26
ATOM     26  C   UNL A   1      38.721  20.189  25.750  1.00  0.00     0.118 C 
BRANCH  26  27
ATOM     27  N   UNL A   1      39.784  19.196  25.875  1.00  0.00    -0.352 N 
ATOM     28  C   UNL A   1      41.136  19.357  26.034  1.00  0.00     0.251 C 
ATOM     29  H   UNL A   1      39.481  18.259  25.840  1.00  0.00     0.163 HD
ATOM     30  O   UNL A   1      41.886  18.394  25.859  1.00  0.00    -0.269 OA
BRANCH  28  31
ATOM     31  C   UNL A   1      41.699  20.672  26.400  1.00  0.00     0.039 A 
ATOM     32  C   UNL A   1      41.991  21.600  25.397  1.00  0.00     0.014 A 
ATOM     33  C   UNL A   1      41.963  20.985  27.734  1.00  0.00     0.014 A 
ATOM     34  C   UNL A   1      42.488  22.858  25.743  1.00  0.00     0.010 A 
ATOM     35  C   UNL A   1      42.326  22.278  28.084  1.00  0.00     0.010 A 
ATOM     36  C   UNL A   1      42.624  23.220  27.092  1.00  0.00    -0.014 A 
BRANCH  36  37
ATOM     37  C   UNL A   1      43.120  24.557  27.499  1.00  0.00     0.031 A 
ATOM     38  C   UNL A   1      42.140  25.612  27.944  1.00  0.00     0.074 A 
ATOM     39  C   UNL A   1      44.433  24.843  27.399  1.00  0.00     0.049 A 
ATOM     40  N   UNL A   1      42.355  26.866  28.247  1.00  0.00    -0.248 NA
ATOM     41  C   UNL A   1      40.722  25.216  28.020  1.00  0.00     0.031 C 
ATOM     42  C   UNL A   1      45.469  23.924  26.921  1.00  0.00     0.029 A 
ATOM     43  N   UNL A   1      45.120  25.995  27.684  1.00  0.00    -0.354 N 
ATOM     44  C   UNL A   1      41.105  27.408  28.522  1.00  0.00     0.074 A 
ATOM     45  C   UNL A   1      40.129  26.369  28.286  1.00  0.00     0.031 C 
ATOM     46  C   UNL A   1      46.662  24.536  26.979  1.00  0.00     0.029 A 
ATOM     47  C   UNL A   1      46.472  25.903  27.452  1.00  0.00     0.049 A 
ATOM     48  H   UNL A   1      44.687  26.810  28.024  1.00  0.00     0.167 HD
ATOM     49  C   UNL A   1      40.800  28.651  28.962  1.00  0.00     0.037 A 
ATOM     50  C   UNL A   1      47.443  26.824  27.596  1.00  0.00     0.037 A 
ATOM     51  C   UNL A   1      41.782  29.663  29.240  1.00  0.00     0.049 A 
ATOM     52  C   UNL A   1      47.077  28.193  28.098  1.00  0.00     0.074 A 
ATOM     53  C   UNL A   1      41.588  30.929  29.761  1.00  0.00     0.029 A 
ATOM     54  N   UNL A   1      43.143  29.520  29.024  1.00  0.00    -0.354 N 
ATOM     55  N   UNL A   1      45.898  28.667  28.428  1.00  0.00    -0.248 NA
ATOM     56  C   UNL A   1      48.175  29.156  28.256  1.00  0.00     0.031 C 
ATOM     57  C   UNL A   1      42.828  31.571  29.814  1.00  0.00     0.029 A 
ATOM     58  C   UNL A   1      43.800  30.684  29.380  1.00  0.00     0.049 A 
ATOM     59  H   UNL A   1      43.578  28.710  28.670  1.00  0.00     0.167 HD
ATOM     60  C   UNL A   1      46.119  29.967  28.862  1.00  0.00     0.074 A 
ATOM     61  C   UNL A   1      47.545  30.202  28.770  1.00  0.00     0.031 C 
ATOM     62  C   UNL A   1      45.223  30.887  29.297  1.00  0.00     0.037 A 
BRANCH  49  63
ATOM     63  C   UNL A   1      39.353  28.979  29.187  1.00  0.00     0.057 A 
ATOM     64  C   UNL A   1      38.740  28.813  30.436  1.00  0.00     0.134 A 
ATOM     65  C   UNL A   1      38.574  29.515  28.153  1.00  0.00     0.134 A 
ATOM     66  F   UNL A   1      39.425  28.291  31.466  1.00  0.00    -0.206 F 
ATOM     67  C   UNL A   1      37.401  29.151  30.645  1.00  0.00     0.040 A 
ATOM     68  C   UNL A   1      37.243  29.883  28.357  1.00  0.00     0.040 A 
ATOM     69  F   UNL A   1      39.096  29.702  26.932  1.00  0.00    -0.206 F 
ATOM     70  C   UNL A   1      36.651  29.696  29.605  1.00  0.00     0.006 A 
ENDBRANCH  49  63
BRANCH  50  71
ATOM     71  C   UNL A   1      48.855  26.484  27.279  1.00  0.00     0.057 A 
ATOM     72  C   UNL A   1      49.374  26.679  25.992  1.00  0.00     0.134 A 
ATOM     73  C   UNL A   1      49.709  25.929  28.238  1.00  0.00     0.134 A 
ATOM     74  F   UNL A   1      48.601  27.193  25.024  1.00  0.00    -0.206 F 
ATOM     75  C   UNL A   1      50.677  26.305  25.663  1.00  0.00     0.040 A 
ATOM     76  C   UNL A   1      51.025  25.579  27.931  1.00  0.00     0.040 A 
ATOM     77  F   UNL A   1      49.278  25.725  29.491  1.00  0.00    -0.206 F 
ATOM     78  C   UNL A   1      51.509  25.755  26.636  1.00  0.00     0.006 A 
ENDBRANCH  50  71
BRANCH  62  79
ATOM     79  C   UNL A   1      45.764  32.212  29.749  1.00  0.00     0.057 A 
ATOM     80  C   UNL A   1      46.182  32.431  31.066  1.00  0.00     0.134 A 
ATOM     81  C   UNL A   1      45.909  33.267  28.838  1.00  0.00     0.134 A 
ATOM     82  F   UNL A   1      46.059  31.465  31.989  1.00  0.00    -0.206 F 
ATOM     83  C   UNL A   1      46.701  33.663  31.471  1.00  0.00     0.040 A 
ATOM     84  C   UNL A   1      46.455  34.492  29.222  1.00  0.00     0.040 A 
ATOM     85  F   UNL A   1      45.539  33.117  27.557  1.00  0.00    -0.206 F 
ATOM     86  C   UNL A   1      46.846  34.694  30.544  1.00  0.00     0.006 A 
ENDBRANCH  62  79
ENDBRANCH  36  37
ENDBRANCH  28  31
ENDBRANCH  26  27
ENDBRANCH   1  26
TORSDOF 14
ENDMDL
MODEL 3
REMARK VINA RESULT:     -11.4      0.355      6.316
REMARK SMILES CC[NH2+][C@@]1(C(=O)NCCCNC(=O)c2ccc(-c3c4nc(c(-c5c(F)cccc5F)c5ccc([nH]5)c(-c5c(F)cccc5F)c5nc(c(-c6c(F)cccc6F)c6ccc3[nH]6)C=C5)C=C4)cc2)CCC[C@@H](Sc2ncc(C)cn2)C1
REMARK SMILES IDX 9 1 8 2 7 3 5 4 6 5 4 7 68 8 80 9 69 10 71 11 70 12 3 13
REMARK SMILES IDX 2 16 1 17 72 18 73 19 74 20 79 21 75 22 78 23 76 24 77 25
REMARK SMILES IDX 10 26 11 27 12 28 13 30 14 31 15 32 67 33 16 34 66 35 17 36
REMARK SMILES IDX 18 37 19 38 60 39 20 40 65 41 59 42 61 43 21 44 64 45 58 46
REMARK SMILES IDX 57 47 22 49 48 50 31 51 47 52 32 53 35 54 46 55 62 56 33 57
REMARK SMILES IDX 34 58 45 60 63 61 36 62 23 63 24 64 29 65 25 66 26 67 28 68
REMARK SMILES IDX 30 69 27 70 49 71 50 72 55 73 51 74 52 75 54 76 56 77 53 78
REMARK SMILES IDX 37 79 38 80 43 81 39 82 40 83 42 84 44 85 41 86
REMARK H PARENT 7 6 3 14 3 15 11 29 61 48 35 59
REMARK Flexibility Score: inf
ROOT
ATOM      1  C   UNL A   1      31.141  31.885  26.641  1.00  0.00     0.042 C 
ENDROOT
BRANCH   1   2
ATOM      2  C   UNL A   1      31.026  31.054  25.372  1.00  0.00     0.118 C 
BRANCH   2   3
ATOM      3  N   UNL A   1      32.034  30.023  25.276  1.00  0.00    -0.351 N 
ATOM      4  C   UNL A   1      32.378  29.167  24.283  1.00  0.00     0.281 C 
ATOM      5  O   UNL A   1      33.601  28.938  24.251  1.00  0.00    -0.268 OA
ATOM      6  H   UNL A   1      32.577  29.922  26.091  1.00  0.00     0.163 HD
BRANCH   4   7
ATOM      7  C   UNL A   1      31.412  28.478  23.217  1.00  0.00     0.176 C 
ATOM      8  C   UNL A   1      30.060  28.060  23.844  1.00  0.00     0.079 C 
ATOM      9  C   UNL A   1      32.003  27.336  22.361  1.00  0.00     0.094 C 
ATOM     10  C   UNL A   1      29.965  26.661  24.446  1.00  0.00     0.008 C 
ATOM     11  C   UNL A   1      32.003  25.975  23.046  1.00  0.00     0.061 C 
ATOM     12  C   UNL A   1      30.649  25.565  23.628  1.00  0.00     0.015 C 
BRANCH   7  13
ATOM     13  N   UNL A   1      31.005  29.594  22.268  1.00  0.00    -0.334 N 
ATOM     14  H   UNL A   1      31.317  30.477  22.673  1.00  0.00     0.347 HD
ATOM     15  H   UNL A   1      31.440  29.368  21.374  1.00  0.00     0.347 HD
BRANCH  13  16
ATOM     16  C   UNL A   1      29.567  29.713  21.990  1.00  0.00     0.257 C 
ATOM     17  C   UNL A   1      29.154  31.173  22.130  1.00  0.00     0.071 C 
ENDBRANCH  13  16
ENDBRANCH   7  13
BRANCH  11  18
ATOM     18  S   UNL A   1      32.881  24.684  22.082  1.00  0.00    -0.083 SA
BRANCH  18  19
ATOM     19  C   UNL A   1      34.171  24.255  23.202  1.00  0.00     0.187 A 
ATOM     20  N   UNL A   1      34.164  24.829  24.413  1.00  0.00    -0.231 NA
ATOM     21  N   UNL A   1      35.105  23.403  22.752  1.00  0.00    -0.231 NA
ATOM     22  C   UNL A   1      35.189  24.511  25.223  1.00  0.00     0.119 A 
ATOM     23  C   UNL A   1      36.106  23.118  23.602  1.00  0.00     0.119 A 
ATOM     24  C   UNL A   1      36.208  23.654  24.868  1.00  0.00    -0.014 A 
ATOM     25  C   UNL A   1      37.337  23.319  25.777  1.00  0.00     0.048 C 
ENDBRANCH  18  19
ENDBRANCH  11  18
ENDBRANCH   4   7
ENDBRANCH   2   3
ENDBRANCH   1   2
BRANCH   1  26
ATOM     26  C   UNL A   1      32.538  32.417  26.876  1.00  0.00     0.118 C 
BRANCH  26  27
ATOM     27  N   UNL A   1      32.523  33.801  27.338  1.00  0.00    -0.352 N 
ATOM     28  C   UNL A   1      33.201  34.402  28.367  1.00  0.00     0.251 C 
ATOM     29  H   UNL A   1      31.931  34.401  26.828  1.00  0.00     0.163 HD
ATOM     30  O   UNL A   1      32.852  35.520  28.752  1.00  0.00    -0.269 OA
BRANCH  28  31
ATOM     31  C   UNL A   1      34.333  33.718  29.023  1.00  0.00     0.039 A 
ATOM     32  C   UNL A   1      34.083  32.716  29.963  1.00  0.00     0.014 A 
ATOM     33  C   UNL A   1      35.649  34.081  28.728  1.00  0.00     0.014 A 
ATOM     34  C   UNL A   1      35.151  32.041  30.556  1.00  0.00     0.010 A 
ATOM     35  C   UNL A   1      36.703  33.321  29.214  1.00  0.00     0.010 A 
ATOM     36  C   UNL A   1      36.470  32.313  30.158  1.00  0.00    -0.014 A 
BRANCH  36  37
ATOM     37  C   UNL A   1      37.628  31.597  30.744  1.00  0.00     0.031 A 
ATOM     38  C   UNL A   1      38.101  31.954  32.130  1.00  0.00     0.074 A 
ATOM     39  C   UNL A   1      38.293  30.685  30.009  1.00  0.00     0.049 A 
ATOM     40  N   UNL A   1      39.147  31.518  32.786  1.00  0.00    -0.248 NA
ATOM     41  C   UNL A   1      37.318  32.965  32.863  1.00  0.00     0.031 C 
ATOM     42  C   UNL A   1      37.969  30.301  28.633  1.00  0.00     0.029 A 
ATOM     43  N   UNL A   1      39.392  29.921  30.314  1.00  0.00    -0.354 N 
ATOM     44  C   UNL A   1      39.157  32.218  33.986  1.00  0.00     0.074 A 
ATOM     45  C   UNL A   1      38.057  33.153  33.945  1.00  0.00     0.031 C 
ATOM     46  C   UNL A   1      38.825  29.352  28.226  1.00  0.00     0.029 A 
ATOM     47  C   UNL A   1      39.788  29.092  29.291  1.00  0.00     0.049 A 
ATOM     48  H   UNL A   1      39.852  29.962  31.183  1.00  0.00     0.167 HD
ATOM     49  C   UNL A   1      39.991  32.072  35.042  1.00  0.00     0.037 A 
ATOM     50  C   UNL A   1      40.818  28.229  29.222  1.00  0.00     0.037 A 
ATOM     51  C   UNL A   1      41.053  31.105  35.094  1.00  0.00     0.049 A 
ATOM     52  C   UNL A   1      41.721  28.078  30.415  1.00  0.00     0.074 A 
ATOM     53  C   UNL A   1      41.908  30.822  36.144  1.00  0.00     0.029 A 
ATOM     54  N   UNL A   1      41.401  30.260  34.052  1.00  0.00    -0.354 N 
ATOM     55  N   UNL A   1      41.672  28.692  31.574  1.00  0.00    -0.248 NA
ATOM     56  C   UNL A   1      42.820  27.110  30.297  1.00  0.00     0.031 C 
ATOM     57  C   UNL A   1      42.806  29.838  35.719  1.00  0.00     0.029 A 
ATOM     58  C   UNL A   1      42.473  29.470  34.425  1.00  0.00     0.049 A 
ATOM     59  H   UNL A   1      40.951  30.228  33.176  1.00  0.00     0.167 HD
ATOM     60  C   UNL A   1      42.709  28.161  32.330  1.00  0.00     0.074 A 
ATOM     61  C   UNL A   1      43.358  27.164  31.506  1.00  0.00     0.031 C 
ATOM     62  C   UNL A   1      43.091  28.471  33.593  1.00  0.00     0.037 A 
BRANCH  49  63
ATOM     63  C   UNL A   1      39.777  32.963  36.232  1.00  0.00     0.057 A 
ATOM     64  C   UNL A   1      40.465  34.174  36.384  1.00  0.00     0.134 A 
ATOM     65  C   UNL A   1      38.835  32.629  37.213  1.00  0.00     0.134 A 
ATOM     66  F   UNL A   1      41.391  34.548  35.487  1.00  0.00    -0.206 F 
ATOM     67  C   UNL A   1      40.237  35.012  37.477  1.00  0.00     0.040 A 
ATOM     68  C   UNL A   1      38.578  33.472  38.296  1.00  0.00     0.040 A 
ATOM     69  F   UNL A   1      38.139  31.485  37.130  1.00  0.00    -0.206 F 
ATOM     70  C   UNL A   1      39.284  34.666  38.433  1.00  0.00     0.006 A 
ENDBRANCH  49  63
BRANCH  50  71
ATOM     71  C   UNL A   1      41.047  27.427  27.991  1.00  0.00     0.057 A 
ATOM     72  C   UNL A   1      41.843  27.917  26.948  1.00  0.00     0.134 A 
ATOM     73  C   UNL A   1      40.454  26.172  27.812  1.00  0.00     0.134 A 
ATOM     74  F   UNL A   1      42.427  29.120  27.051  1.00  0.00    -0.206 F 
ATOM     75  C   UNL A   1      42.014  27.204  25.760  1.00  0.00     0.040 A 
ATOM     76  C   UNL A   1      40.642  25.434  26.642  1.00  0.00     0.040 A 
ATOM     77  F   UNL A   1      39.688  25.642  28.776  1.00  0.00    -0.206 F 
ATOM     78  C   UNL A   1      41.414  25.956  25.606  1.00  0.00     0.006 A 
ENDBRANCH  50  71
BRANCH  62  79
ATOM     79  C   UNL A   1      44.234  27.692  34.174  1.00  0.00     0.057 A 
ATOM     80  C   UNL A   1      45.553  28.158  34.121  1.00  0.00     0.134 A 
ATOM     81  C   UNL A   1      44.001  26.479  34.835  1.00  0.00     0.134 A 
ATOM     82  F   UNL A   1      45.843  29.308  33.491  1.00  0.00    -0.206 F 
ATOM     83  C   UNL A   1      46.606  27.433  34.681  1.00  0.00     0.040 A 
ATOM     84  C   UNL A   1      45.040  25.760  35.427  1.00  0.00     0.040 A 
ATOM     85  F   UNL A   1      42.759  25.983  34.933  1.00  0.00    -0.206 F 
ATOM     86  C   UNL A   1      46.348  26.233  35.344  1.00  0.00     0.006 A 
ENDBRANCH  62  79
ENDBRANCH  36  37
ENDBRANCH  28  31
ENDBRANCH  26  27
ENDBRANCH   1  26
TORSDOF 14
ENDMDL
