MODEL 1
REMARK VINA RESULT:     -10.7      0.000      0.000
REMARK SMILES CC(C)(C)N(CC(=O)NCCCNC(=O)c1ccc(-c2c3nc(c(-c4c(F)cccc4F)c4ccc([nH]4)c(-c4c(F)cccc4F)c4nc(c(-c5c(F)cccc5F)c5ccc2[nH]5)C=C4)C=C3)cc1)C(=O)N1CC[C@H](C[NH3+])C1
REMARK SMILES IDX 7 1 8 2 9 3 6 5 5 6 2 7 1 8 3 9 4 10 70 11 71 12 72 13 73 14
REMARK SMILES IDX 78 15 74 16 75 17 76 18 77 19 10 23 11 24 12 25 13 26 14 27
REMARK SMILES IDX 15 29 16 30 17 31 69 32 18 33 68 34 19 35 20 36 21 37 62 38
REMARK SMILES IDX 22 39 67 40 61 41 63 42 23 43 66 44 60 45 59 46 24 48 50 49
REMARK SMILES IDX 33 50 49 51 34 52 37 53 48 54 64 55 35 56 36 57 47 59 65 60
REMARK SMILES IDX 38 61 25 62 26 63 31 64 27 65 28 66 30 67 32 68 29 69 51 70
REMARK SMILES IDX 52 71 57 72 53 73 54 74 56 75 58 76 55 77 39 78 40 79 45 80
REMARK SMILES IDX 41 81 42 82 44 83 46 84 43 85
REMARK H PARENT 9 4 77 20 77 21 77 22 13 28 63 47 37 58
REMARK Flexibility Score: inf
ROOT
ATOM      1  C   UNL A   1      31.227  24.302  26.348  1.00  0.00     0.239 C 
ATOM      2  O   UNL A   1      30.796  23.512  27.199  1.00  0.00    -0.273 OA
ATOM      3  N   UNL A   1      31.382  25.591  26.758  1.00  0.00    -0.354 N 
ATOM      4  H   UNL A   1      30.916  25.814  27.596  1.00  0.00     0.163 HD
ENDROOT
BRANCH   1   5
ATOM      5  C   UNL A   1      31.674  23.771  24.972  1.00  0.00     0.221 C 
BRANCH   5   6
ATOM      6  N   UNL A   1      32.987  23.115  24.800  1.00  0.00    -0.311 N 
BRANCH   6   7
ATOM      7  C   UNL A   1      34.172  23.930  24.299  1.00  0.00     0.037 C 
ATOM      8  C   UNL A   1      35.014  24.615  25.412  1.00  0.00     0.034 C 
ATOM      9  C   UNL A   1      33.725  25.057  23.340  1.00  0.00     0.034 C 
ATOM     10  C   UNL A   1      35.180  23.012  23.559  1.00  0.00     0.034 C 
ENDBRANCH   6   7
BRANCH   6  11
ATOM     11  C   UNL A   1      33.275  21.917  25.493  1.00  0.00     0.320 C 
ATOM     12  O   UNL A   1      33.570  21.885  26.688  1.00  0.00    -0.248 OA
BRANCH  11  13
ATOM     13  N   UNL A   1      33.018  20.735  24.835  1.00  0.00    -0.324 N 
ATOM     14  C   UNL A   1      32.493  20.630  23.489  1.00  0.00     0.122 C 
ATOM     15  C   UNL A   1      33.887  19.584  25.059  1.00  0.00     0.130 C 
ATOM     16  C   UNL A   1      32.190  19.147  23.391  1.00  0.00     0.033 C 
ATOM     17  C   UNL A   1      33.435  18.521  24.040  1.00  0.00     0.065 C 
BRANCH  17  18
ATOM     18  C   UNL A   1      33.206  17.157  24.690  1.00  0.00     0.264 C 
BRANCH  18  19
ATOM     19  N   UNL A   1      33.072  17.258  26.140  1.00  0.00    -0.357 N 
ATOM     20  H   UNL A   1      32.862  16.337  26.527  1.00  0.00     0.344 HD
ATOM     21  H   UNL A   1      32.314  17.903  26.368  1.00  0.00     0.344 HD
ATOM     22  H   UNL A   1      33.944  17.605  26.539  1.00  0.00     0.344 HD
ENDBRANCH  18  19
ENDBRANCH  17  18
ENDBRANCH  11  13
ENDBRANCH   6  11
ENDBRANCH   5   6
ENDBRANCH   1   5
BRANCH   3  23
ATOM     23  C   UNL A   1      32.118  26.684  26.167  1.00  0.00     0.117 C 
BRANCH  23  24
ATOM     24  C   UNL A   1      32.218  27.922  27.048  1.00  0.00     0.042 C 
BRANCH  24  25
ATOM     25  C   UNL A   1      33.629  28.475  27.209  1.00  0.00     0.118 C 
BRANCH  25  26
ATOM     26  N   UNL A   1      33.646  29.874  27.619  1.00  0.00    -0.352 N 
ATOM     27  C   UNL A   1      34.583  30.629  28.280  1.00  0.00     0.251 C 
ATOM     28  H   UNL A   1      32.832  30.371  27.375  1.00  0.00     0.163 HD
ATOM     29  O   UNL A   1      34.258  31.739  28.696  1.00  0.00    -0.269 OA
BRANCH  27  30
ATOM     30  C   UNL A   1      35.965  30.146  28.514  1.00  0.00     0.039 A 
ATOM     31  C   UNL A   1      36.874  30.169  27.447  1.00  0.00     0.014 A 
ATOM     32  C   UNL A   1      36.360  29.597  29.733  1.00  0.00     0.014 A 
ATOM     33  C   UNL A   1      38.183  29.708  27.625  1.00  0.00     0.010 A 
ATOM     34  C   UNL A   1      37.687  29.217  29.936  1.00  0.00     0.010 A 
ATOM     35  C   UNL A   1      38.613  29.263  28.883  1.00  0.00    -0.014 A 
BRANCH  35  36
ATOM     36  C   UNL A   1      40.016  28.832  29.124  1.00  0.00     0.031 A 
ATOM     37  C   UNL A   1      41.013  29.790  29.719  1.00  0.00     0.074 A 
ATOM     38  C   UNL A   1      40.417  27.608  28.730  1.00  0.00     0.049 A 
ATOM     39  N   UNL A   1      42.304  29.647  29.883  1.00  0.00    -0.248 NA
ATOM     40  C   UNL A   1      40.493  31.094  30.162  1.00  0.00     0.031 C 
ATOM     41  C   UNL A   1      39.563  26.596  28.103  1.00  0.00     0.029 A 
ATOM     42  N   UNL A   1      41.653  27.011  28.782  1.00  0.00    -0.354 N 
ATOM     43  C   UNL A   1      42.754  30.849  30.417  1.00  0.00     0.074 A 
ATOM     44  C   UNL A   1      41.605  31.724  30.513  1.00  0.00     0.031 C 
ATOM     45  C   UNL A   1      40.296  25.503  27.842  1.00  0.00     0.029 A 
ATOM     46  C   UNL A   1      41.678  25.749  28.241  1.00  0.00     0.049 A 
ATOM     47  H   UNL A   1      42.446  27.448  29.169  1.00  0.00     0.167 HD
ATOM     48  C   UNL A   1      44.006  31.186  30.808  1.00  0.00     0.037 A 
ATOM     49  C   UNL A   1      42.701  24.890  28.070  1.00  0.00     0.037 A 
ATOM     50  C   UNL A   1      45.140  30.302  30.751  1.00  0.00     0.049 A 
ATOM     51  C   UNL A   1      44.080  25.287  28.518  1.00  0.00     0.074 A 
ATOM     52  C   UNL A   1      46.433  30.529  31.192  1.00  0.00     0.029 A 
ATOM     53  N   UNL A   1      45.117  29.020  30.223  1.00  0.00    -0.354 N 
ATOM     54  N   UNL A   1      44.479  26.405  29.072  1.00  0.00    -0.248 NA
ATOM     55  C   UNL A   1      45.151  24.300  28.318  1.00  0.00     0.031 C 
ATOM     56  C   UNL A   1      47.201  29.398  30.897  1.00  0.00     0.029 A 
ATOM     57  C   UNL A   1      46.377  28.451  30.310  1.00  0.00     0.049 A 
ATOM     58  H   UNL A   1      44.321  28.581  29.844  1.00  0.00     0.167 HD
ATOM     59  C   UNL A   1      45.838  26.249  29.309  1.00  0.00     0.074 A 
ATOM     60  C   UNL A   1      46.194  24.923  28.849  1.00  0.00     0.031 C 
ATOM     61  C   UNL A   1      46.713  27.127  29.856  1.00  0.00     0.037 A 
BRANCH  48  62
ATOM     62  C   UNL A   1      44.214  32.574  31.341  1.00  0.00     0.057 A 
ATOM     63  C   UNL A   1      44.413  33.670  30.490  1.00  0.00     0.134 A 
ATOM     64  C   UNL A   1      44.178  32.824  32.718  1.00  0.00     0.134 A 
ATOM     65  F   UNL A   1      44.469  33.497  29.161  1.00  0.00    -0.206 F 
ATOM     66  C   UNL A   1      44.597  34.960  30.993  1.00  0.00     0.040 A 
ATOM     67  C   UNL A   1      44.335  34.113  33.231  1.00  0.00     0.040 A 
ATOM     68  F   UNL A   1      43.984  31.822  33.589  1.00  0.00    -0.206 F 
ATOM     69  C   UNL A   1      44.551  35.185  32.367  1.00  0.00     0.006 A 
ENDBRANCH  48  62
BRANCH  49  70
ATOM     70  C   UNL A   1      42.458  23.561  27.459  1.00  0.00     0.057 A 
ATOM     71  C   UNL A   1      42.551  23.379  26.074  1.00  0.00     0.134 A 
ATOM     72  C   UNL A   1      42.125  22.445  28.235  1.00  0.00     0.134 A 
ATOM     73  F   UNL A   1      42.846  24.416  25.276  1.00  0.00    -0.206 F 
ATOM     74  C   UNL A   1      42.309  22.139  25.481  1.00  0.00     0.040 A 
ATOM     75  C   UNL A   1      41.903  21.194  27.659  1.00  0.00     0.040 A 
ATOM     76  F   UNL A   1      42.026  22.554  29.568  1.00  0.00    -0.206 F 
ATOM     77  C   UNL A   1      41.988  21.041  26.276  1.00  0.00     0.006 A 
ENDBRANCH  49  70
BRANCH  61  78
ATOM     78  C   UNL A   1      48.132  26.670  30.020  1.00  0.00     0.057 A 
ATOM     79  C   UNL A   1      49.106  26.927  29.048  1.00  0.00     0.134 A 
ATOM     80  C   UNL A   1      48.536  26.004  31.184  1.00  0.00     0.134 A 
ATOM     81  F   UNL A   1      48.779  27.549  27.905  1.00  0.00    -0.206 F 
ATOM     82  C   UNL A   1      50.430  26.522  29.220  1.00  0.00     0.040 A 
ATOM     83  C   UNL A   1      49.861  25.614  31.378  1.00  0.00     0.040 A 
ATOM     84  F   UNL A   1      47.652  25.734  32.156  1.00  0.00    -0.206 F 
ATOM     85  C   UNL A   1      50.812  25.870  30.391  1.00  0.00     0.006 A 
ENDBRANCH  61  78
ENDBRANCH  35  36
ENDBRANCH  27  30
ENDBRANCH  25  26
ENDBRANCH  24  25
ENDBRANCH  23  24
ENDBRANCH   3  23
TORSDOF 16
ENDMDL
MODEL 2
REMARK VINA RESULT:     -10.7      2.160      7.534
REMARK SMILES CC(C)(C)N(CC(=O)NCCCNC(=O)c1ccc(-c2c3nc(c(-c4c(F)cccc4F)c4ccc([nH]4)c(-c4c(F)cccc4F)c4nc(c(-c5c(F)cccc5F)c5ccc2[nH]5)C=C4)C=C3)cc1)C(=O)N1CC[C@H](C[NH3+])C1
REMARK SMILES IDX 7 1 8 2 9 3 6 5 5 6 2 7 1 8 3 9 4 10 70 11 71 12 72 13 73 14
REMARK SMILES IDX 78 15 74 16 75 17 76 18 77 19 10 23 11 24 12 25 13 26 14 27
REMARK SMILES IDX 15 29 16 30 17 31 69 32 18 33 68 34 19 35 20 36 21 37 62 38
REMARK SMILES IDX 22 39 67 40 61 41 63 42 23 43 66 44 60 45 59 46 24 48 50 49
REMARK SMILES IDX 33 50 49 51 34 52 37 53 48 54 64 55 35 56 36 57 47 59 65 60
REMARK SMILES IDX 38 61 25 62 26 63 31 64 27 65 28 66 30 67 32 68 29 69 51 70
REMARK SMILES IDX 52 71 57 72 53 73 54 74 56 75 58 76 55 77 39 78 40 79 45 80
REMARK SMILES IDX 41 81 42 82 44 83 46 84 43 85
REMARK H PARENT 9 4 77 20 77 21 77 22 13 28 63 47 37 58
REMARK Flexibility Score: inf
ROOT
ATOM      1  C   UNL A   1      35.776  22.684  25.702  1.00  0.00     0.239 C 
ATOM      2  O   UNL A   1      36.312  23.761  25.996  1.00  0.00    -0.273 OA
ATOM      3  N   UNL A   1      36.586  21.757  25.121  1.00  0.00    -0.354 N 
ATOM      4  H   UNL A   1      37.436  22.113  24.775  1.00  0.00     0.163 HD
ENDROOT
BRANCH   1   5
ATOM      5  C   UNL A   1      34.317  22.419  26.122  1.00  0.00     0.221 C 
BRANCH   5   6
ATOM      6  N   UNL A   1      33.202  23.173  25.512  1.00  0.00    -0.311 N 
BRANCH   6   7
ATOM      7  C   UNL A   1      32.624  22.712  24.181  1.00  0.00     0.037 C 
ATOM      8  C   UNL A   1      31.213  23.274  23.850  1.00  0.00     0.034 C 
ATOM      9  C   UNL A   1      32.502  21.172  24.114  1.00  0.00     0.034 C 
ATOM     10  C   UNL A   1      33.519  23.196  23.010  1.00  0.00     0.034 C 
ENDBRANCH   6   7
BRANCH   6  11
ATOM     11  C   UNL A   1      32.388  24.004  26.316  1.00  0.00     0.320 C 
ATOM     12  O   UNL A   1      31.622  23.567  27.175  1.00  0.00    -0.248 OA
BRANCH  11  13
ATOM     13  N   UNL A   1      32.621  25.360  26.253  1.00  0.00    -0.324 N 
ATOM     14  C   UNL A   1      33.662  25.988  25.467  1.00  0.00     0.122 C 
ATOM     15  C   UNL A   1      31.495  26.286  26.313  1.00  0.00     0.130 C 
ATOM     16  C   UNL A   1      33.604  27.420  25.965  1.00  0.00     0.033 C 
ATOM     17  C   UNL A   1      32.090  27.678  26.024  1.00  0.00     0.065 C 
BRANCH  17  18
ATOM     18  C   UNL A   1      31.653  28.718  27.056  1.00  0.00     0.264 C 
BRANCH  18  19
ATOM     19  N   UNL A   1      31.251  28.102  28.317  1.00  0.00    -0.357 N 
ATOM     20  H   UNL A   1      30.857  27.179  28.134  1.00  0.00     0.344 HD
ATOM     21  H   UNL A   1      30.550  28.687  28.773  1.00  0.00     0.344 HD
ATOM     22  H   UNL A   1      32.065  28.010  28.925  1.00  0.00     0.344 HD
ENDBRANCH  18  19
ENDBRANCH  17  18
ENDBRANCH  11  13
ENDBRANCH   6  11
ENDBRANCH   5   6
ENDBRANCH   1   5
BRANCH   3  23
ATOM     23  C   UNL A   1      36.404  20.336  24.928  1.00  0.00     0.117 C 
BRANCH  23  24
ATOM     24  C   UNL A   1      37.698  19.534  24.924  1.00  0.00     0.042 C 
BRANCH  24  25
ATOM     25  C   UNL A   1      38.842  20.171  25.703  1.00  0.00     0.118 C 
BRANCH  25  26
ATOM     26  N   UNL A   1      40.017  19.311  25.788  1.00  0.00    -0.352 N 
ATOM     27  C   UNL A   1      41.333  19.574  26.080  1.00  0.00     0.251 C 
ATOM     28  H   UNL A   1      39.831  18.362  25.603  1.00  0.00     0.163 HD
ATOM     29  O   UNL A   1      42.168  18.697  25.872  1.00  0.00    -0.269 OA
BRANCH  27  30
ATOM     30  C   UNL A   1      41.775  20.880  26.625  1.00  0.00     0.039 A 
ATOM     31  C   UNL A   1      42.163  21.884  25.727  1.00  0.00     0.014 A 
ATOM     32  C   UNL A   1      41.896  21.108  27.995  1.00  0.00     0.014 A 
ATOM     33  C   UNL A   1      42.600  23.125  26.202  1.00  0.00     0.010 A 
ATOM     34  C   UNL A   1      42.249  22.372  28.468  1.00  0.00     0.010 A 
ATOM     35  C   UNL A   1      42.611  23.393  27.578  1.00  0.00    -0.014 A 
BRANCH  35  36
ATOM     36  C   UNL A   1      43.003  24.724  28.114  1.00  0.00     0.031 A 
ATOM     37  C   UNL A   1      41.956  25.769  28.396  1.00  0.00     0.074 A 
ATOM     38  C   UNL A   1      44.308  25.026  28.268  1.00  0.00     0.049 A 
ATOM     39  N   UNL A   1      42.108  27.023  28.738  1.00  0.00    -0.248 NA
ATOM     40  C   UNL A   1      40.552  25.354  28.243  1.00  0.00     0.031 C 
ATOM     41  C   UNL A   1      45.426  24.120  27.994  1.00  0.00     0.029 A 
ATOM     42  N   UNL A   1      44.915  26.187  28.676  1.00  0.00    -0.354 N 
ATOM     43  C   UNL A   1      40.826  27.554  28.811  1.00  0.00     0.074 A 
ATOM     44  C   UNL A   1      39.910  26.497  28.439  1.00  0.00     0.031 C 
ATOM     45  C   UNL A   1      46.579  24.755  28.254  1.00  0.00     0.029 A 
ATOM     46  C   UNL A   1      46.287  26.122  28.671  1.00  0.00     0.049 A 
ATOM     47  H   UNL A   1      44.415  26.991  28.947  1.00  0.00     0.167 HD
ATOM     48  C   UNL A   1      40.445  28.803  29.172  1.00  0.00     0.037 A 
ATOM     49  C   UNL A   1      47.209  27.062  28.954  1.00  0.00     0.037 A 
ATOM     50  C   UNL A   1      41.352  29.842  29.581  1.00  0.00     0.049 A 
ATOM     51  C   UNL A   1      46.760  28.438  29.358  1.00  0.00     0.074 A 
ATOM     52  C   UNL A   1      41.055  31.116  30.033  1.00  0.00     0.029 A 
ATOM     53  N   UNL A   1      42.734  29.726  29.589  1.00  0.00    -0.354 N 
ATOM     54  N   UNL A   1      45.542  28.908  29.476  1.00  0.00    -0.248 NA
ATOM     55  C   UNL A   1      47.814  29.415  29.668  1.00  0.00     0.031 C 
ATOM     56  C   UNL A   1      42.259  31.784  30.282  1.00  0.00     0.029 A 
ATOM     57  C   UNL A   1      43.304  30.911  30.022  1.00  0.00     0.049 A 
ATOM     58  H   UNL A   1      43.234  28.919  29.326  1.00  0.00     0.167 HD
ATOM     59  C   UNL A   1      45.682  30.224  29.897  1.00  0.00     0.074 A 
ATOM     60  C   UNL A   1      47.103  30.475  30.025  1.00  0.00     0.031 C 
ATOM     61  C   UNL A   1      44.719  31.143  30.153  1.00  0.00     0.037 A 
BRANCH  48  62
ATOM     62  C   UNL A   1      38.976  29.113  29.146  1.00  0.00     0.057 A 
ATOM     63  C   UNL A   1      38.180  29.014  30.295  1.00  0.00     0.134 A 
ATOM     64  C   UNL A   1      38.358  29.550  27.968  1.00  0.00     0.134 A 
ATOM     65  F   UNL A   1      38.708  28.592  31.454  1.00  0.00    -0.206 F 
ATOM     66  C   UNL A   1      36.816  29.314  30.267  1.00  0.00     0.040 A 
ATOM     67  C   UNL A   1      37.001  29.877  27.933  1.00  0.00     0.040 A 
ATOM     68  F   UNL A   1      39.063  29.674  26.833  1.00  0.00    -0.206 F 
ATOM     69  C   UNL A   1      36.225  29.753  29.084  1.00  0.00     0.006 A 
ENDBRANCH  48  62
BRANCH  49  70
ATOM     70  C   UNL A   1      48.653  26.729  28.881  1.00  0.00     0.057 A 
ATOM     71  C   UNL A   1      49.380  26.940  27.704  1.00  0.00     0.134 A 
ATOM     72  C   UNL A   1      49.339  26.192  29.976  1.00  0.00     0.134 A 
ATOM     73  F   UNL A   1      48.773  27.433  26.615  1.00  0.00    -0.206 F 
ATOM     74  C   UNL A   1      50.735  26.616  27.613  1.00  0.00     0.040 A 
ATOM     75  C   UNL A   1      50.698  25.885  29.908  1.00  0.00     0.040 A 
ATOM     76  F   UNL A   1      48.698  25.971  31.134  1.00  0.00    -0.206 F 
ATOM     77  C   UNL A   1      51.398  26.091  28.720  1.00  0.00     0.006 A 
ENDBRANCH  49  70
BRANCH  61  78
ATOM     78  C   UNL A   1      45.167  32.493  30.629  1.00  0.00     0.057 A 
ATOM     79  C   UNL A   1      45.376  32.763  31.986  1.00  0.00     0.134 A 
ATOM     80  C   UNL A   1      45.432  33.519  29.714  1.00  0.00     0.134 A 
ATOM     81  F   UNL A   1      45.127  31.826  32.913  1.00  0.00    -0.206 F 
ATOM     82  C   UNL A   1      45.818  34.014  32.418  1.00  0.00     0.040 A 
ATOM     83  C   UNL A   1      45.897  34.766  30.131  1.00  0.00     0.040 A 
ATOM     84  F   UNL A   1      45.259  33.320  28.398  1.00  0.00    -0.206 F 
ATOM     85  C   UNL A   1      46.087  35.017  31.489  1.00  0.00     0.006 A 
ENDBRANCH  61  78
ENDBRANCH  35  36
ENDBRANCH  27  30
ENDBRANCH  25  26
ENDBRANCH  24  25
ENDBRANCH  23  24
ENDBRANCH   3  23
TORSDOF 16
ENDMDL
MODEL 3
REMARK VINA RESULT:     -10.5      4.015      7.817
REMARK SMILES CC(C)(C)N(CC(=O)NCCCNC(=O)c1ccc(-c2c3nc(c(-c4c(F)cccc4F)c4ccc([nH]4)c(-c4c(F)cccc4F)c4nc(c(-c5c(F)cccc5F)c5ccc2[nH]5)C=C4)C=C3)cc1)C(=O)N1CC[C@H](C[NH3+])C1
REMARK SMILES IDX 7 1 8 2 9 3 6 5 5 6 2 7 1 8 3 9 4 10 70 11 71 12 72 13 73 14
REMARK SMILES IDX 78 15 74 16 75 17 76 18 77 19 10 23 11 24 12 25 13 26 14 27
REMARK SMILES IDX 15 29 16 30 17 31 69 32 18 33 68 34 19 35 20 36 21 37 62 38
REMARK SMILES IDX 22 39 67 40 61 41 63 42 23 43 66 44 60 45 59 46 24 48 50 49
REMARK SMILES IDX 33 50 49 51 34 52 37 53 48 54 64 55 35 56 36 57 47 59 65 60
REMARK SMILES IDX 38 61 25 62 26 63 31 64 27 65 28 66 30 67 32 68 29 69 51 70
REMARK SMILES IDX 52 71 57 72 53 73 54 74 56 75 58 76 55 77 39 78 40 79 45 80
REMARK SMILES IDX 41 81 42 82 44 83 46 84 43 85
REMARK H PARENT 9 4 77 20 77 21 77 22 13 28 63 47 37 58
REMARK Flexibility Score: inf
ROOT
ATOM      1  C   UNL A   1      33.082  28.697  25.332  1.00  0.00     0.239 C 
ATOM      2  O   UNL A   1      34.106  28.370  25.947  1.00  0.00    -0.273 OA
ATOM      3  N   UNL A   1      32.315  29.654  25.922  1.00  0.00    -0.354 N 
ATOM      4  H   UNL A   1      32.514  29.811  26.874  1.00  0.00     0.163 HD
ENDROOT
BRANCH   1   5
ATOM      5  C   UNL A   1      32.822  28.124  23.925  1.00  0.00     0.221 C 
BRANCH   5   6
ATOM      6  N   UNL A   1      32.533  26.687  23.731  1.00  0.00    -0.311 N 
BRANCH   6   7
ATOM      7  C   UNL A   1      31.102  26.185  23.865  1.00  0.00     0.037 C 
ATOM      8  C   UNL A   1      30.628  25.942  25.326  1.00  0.00     0.034 C 
ATOM      9  C   UNL A   1      30.893  24.849  23.116  1.00  0.00     0.034 C 
ATOM     10  C   UNL A   1      30.109  27.236  23.305  1.00  0.00     0.034 C 
ENDBRANCH   6   7
BRANCH   6  11
ATOM     11  C   UNL A   1      33.436  25.876  23.005  1.00  0.00     0.320 C 
ATOM     12  O   UNL A   1      33.642  26.012  21.798  1.00  0.00    -0.248 OA
BRANCH  11  13
ATOM     13  N   UNL A   1      34.251  25.039  23.734  1.00  0.00    -0.324 N 
ATOM     14  C   UNL A   1      34.279  24.956  25.179  1.00  0.00     0.122 C 
ATOM     15  C   UNL A   1      34.570  23.714  23.211  1.00  0.00     0.130 C 
ATOM     16  C   UNL A   1      35.498  24.084  25.415  1.00  0.00     0.033 C 
ATOM     17  C   UNL A   1      35.323  22.993  24.346  1.00  0.00     0.065 C 
BRANCH  17  18
ATOM     18  C   UNL A   1      36.623  22.352  23.861  1.00  0.00     0.264 C 
BRANCH  18  19
ATOM     19  N   UNL A   1      37.770  22.770  24.659  1.00  0.00    -0.357 N 
ATOM     20  H   UNL A   1      37.503  23.555  25.255  1.00  0.00     0.344 HD
ATOM     21  H   UNL A   1      38.529  23.057  24.040  1.00  0.00     0.344 HD
ATOM     22  H   UNL A   1      38.082  21.992  25.241  1.00  0.00     0.344 HD
ENDBRANCH  18  19
ENDBRANCH  17  18
ENDBRANCH  11  13
ENDBRANCH   6  11
ENDBRANCH   5   6
ENDBRANCH   1   5
BRANCH   3  23
ATOM     23  C   UNL A   1      31.257  30.477  25.383  1.00  0.00     0.117 C 
BRANCH  23  24
ATOM     24  C   UNL A   1      31.084  31.816  26.088  1.00  0.00     0.042 C 
BRANCH  24  25
ATOM     25  C   UNL A   1      32.220  32.187  27.032  1.00  0.00     0.118 C 
BRANCH  25  26
ATOM     26  N   UNL A   1      32.245  33.609  27.357  1.00  0.00    -0.352 N 
ATOM     27  C   UNL A   1      33.006  34.341  28.235  1.00  0.00     0.251 C 
ATOM     28  H   UNL A   1      31.593  34.145  26.850  1.00  0.00     0.163 HD
ATOM     29  O   UNL A   1      32.676  35.500  28.475  1.00  0.00    -0.269 OA
BRANCH  27  30
ATOM     30  C   UNL A   1      34.201  33.775  28.906  1.00  0.00     0.039 A 
ATOM     31  C   UNL A   1      34.028  32.699  29.787  1.00  0.00     0.014 A 
ATOM     32  C   UNL A   1      35.470  34.332  28.751  1.00  0.00     0.014 A 
ATOM     33  C   UNL A   1      35.129  32.147  30.451  1.00  0.00     0.010 A 
ATOM     34  C   UNL A   1      36.579  33.729  29.345  1.00  0.00     0.010 A 
ATOM     35  C   UNL A   1      36.421  32.633  30.207  1.00  0.00    -0.014 A 
BRANCH  35  36
ATOM     36  C   UNL A   1      37.621  32.024  30.841  1.00  0.00     0.031 A 
ATOM     37  C   UNL A   1      38.424  30.984  30.106  1.00  0.00     0.074 A 
ATOM     38  C   UNL A   1      37.940  32.342  32.111  1.00  0.00     0.049 A 
ATOM     39  N   UNL A   1      39.416  30.247  30.537  1.00  0.00    -0.248 NA
ATOM     40  C   UNL A   1      38.041  30.719  28.710  1.00  0.00     0.031 C 
ATOM     41  C   UNL A   1      37.222  33.304  32.951  1.00  0.00     0.029 A 
ATOM     42  N   UNL A   1      38.942  31.876  32.925  1.00  0.00    -0.354 N 
ATOM     43  C   UNL A   1      39.754  29.411  29.479  1.00  0.00     0.074 A 
ATOM     44  C   UNL A   1      38.835  29.705  28.400  1.00  0.00     0.031 C 
ATOM     45  C   UNL A   1      37.814  33.365  34.153  1.00  0.00     0.029 A 
ATOM     46  C   UNL A   1      38.925  32.419  34.187  1.00  0.00     0.049 A 
ATOM     47  H   UNL A   1      39.610  31.214  32.632  1.00  0.00     0.167 HD
ATOM     48  C   UNL A   1      40.749  28.495  29.407  1.00  0.00     0.037 A 
ATOM     49  C   UNL A   1      39.704  32.172  35.257  1.00  0.00     0.037 A 
ATOM     50  C   UNL A   1      41.688  28.232  30.465  1.00  0.00     0.049 A 
ATOM     51  C   UNL A   1      40.805  31.155  35.149  1.00  0.00     0.074 A 
ATOM     52  C   UNL A   1      42.776  27.375  30.459  1.00  0.00     0.029 A 
ATOM     53  N   UNL A   1      41.654  28.825  31.717  1.00  0.00    -0.354 N 
ATOM     54  N   UNL A   1      41.147  30.414  34.124  1.00  0.00    -0.248 NA
ATOM     55  C   UNL A   1      41.630  30.942  36.347  1.00  0.00     0.031 C 
ATOM     56  C   UNL A   1      43.378  27.422  31.721  1.00  0.00     0.029 A 
ATOM     57  C   UNL A   1      42.689  28.339  32.499  1.00  0.00     0.049 A 
ATOM     58  H   UNL A   1      40.990  29.493  32.007  1.00  0.00     0.167 HD
ATOM     59  C   UNL A   1      42.239  29.665  34.544  1.00  0.00     0.074 A 
ATOM     60  C   UNL A   1      42.511  30.051  35.913  1.00  0.00     0.031 C 
ATOM     61  C   UNL A   1      42.952  28.740  33.857  1.00  0.00     0.037 A 
BRANCH  48  62
ATOM     62  C   UNL A   1      40.878  27.712  28.133  1.00  0.00     0.057 A 
ATOM     63  C   UNL A   1      41.662  28.164  27.063  1.00  0.00     0.134 A 
ATOM     64  C   UNL A   1      40.241  26.473  27.988  1.00  0.00     0.134 A 
ATOM     65  F   UNL A   1      42.290  29.347  27.133  1.00  0.00    -0.206 F 
ATOM     66  C   UNL A   1      41.785  27.425  25.884  1.00  0.00     0.040 A 
ATOM     67  C   UNL A   1      40.378  25.713  26.825  1.00  0.00     0.040 A 
ATOM     68  F   UNL A   1      39.482  25.976  28.976  1.00  0.00    -0.206 F 
ATOM     69  C   UNL A   1      41.147  26.193  25.766  1.00  0.00     0.006 A 
ENDBRANCH  48  62
BRANCH  49  70
ATOM     70  C   UNL A   1      39.480  32.913  36.522  1.00  0.00     0.057 A 
ATOM     71  C   UNL A   1      38.527  32.479  37.451  1.00  0.00     0.134 A 
ATOM     72  C   UNL A   1      40.206  34.069  36.834  1.00  0.00     0.134 A 
ATOM     73  F   UNL A   1      37.786  31.390  37.197  1.00  0.00    -0.206 F 
ATOM     74  C   UNL A   1      38.293  33.174  38.638  1.00  0.00     0.040 A 
ATOM     75  C   UNL A   1      39.999  34.761  38.028  1.00  0.00     0.040 A 
ATOM     76  F   UNL A   1      41.137  34.532  35.988  1.00  0.00    -0.206 F 
ATOM     77  C   UNL A   1      39.034  34.317  38.931  1.00  0.00     0.006 A 
ENDBRANCH  49  70
BRANCH  61  78
ATOM     78  C   UNL A   1      44.114  28.105  34.562  1.00  0.00     0.057 A 
ATOM     79  C   UNL A   1      45.388  28.685  34.551  1.00  0.00     0.134 A 
ATOM     80  C   UNL A   1      43.943  26.924  35.294  1.00  0.00     0.134 A 
ATOM     81  F   UNL A   1      45.618  29.808  33.856  1.00  0.00    -0.206 F 
ATOM     82  C   UNL A   1      46.457  28.101  35.231  1.00  0.00     0.040 A 
ATOM     83  C   UNL A   1      44.999  26.344  35.998  1.00  0.00     0.040 A 
ATOM     84  F   UNL A   1      42.745  26.324  35.350  1.00  0.00    -0.206 F 
ATOM     85  C   UNL A   1      46.262  26.932  35.964  1.00  0.00     0.006 A 
ENDBRANCH  61  78
ENDBRANCH  35  36
ENDBRANCH  27  30
ENDBRANCH  25  26
ENDBRANCH  24  25
ENDBRANCH  23  24
ENDBRANCH   3  23
TORSDOF 16
ENDMDL
