MODEL 1
REMARK VINA RESULT:     -12.3      0.000      0.000
REMARK SMILES O=C(NCCCNC(=O)c1ccc(-c2c3nc(c(-c4c(F)cccc4F)c4ccc([nH]4)c(-c4c(F)cccc4F)c4nc(c(-c5c(F)cccc5F)c5ccc2[nH]5)C=C4)C=C3)cc1)c1ccc(C[C@H]2SC(=O)N(c3ccccc3)C2=O)cc1
REMARK SMILES IDX 4 1 3 2 1 3 2 4 64 6 65 7 83 8 66 9 82 10 67 11 68 12 69 13
REMARK SMILES IDX 70 14 80 15 71 16 73 17 81 18 72 19 74 20 75 21 79 22 76 23
REMARK SMILES IDX 78 24 77 25 5 26 6 27 7 28 8 29 9 31 10 32 11 33 63 34 12 35
REMARK SMILES IDX 62 36 13 37 14 38 15 39 56 40 16 41 61 42 55 43 57 44 17 45
REMARK SMILES IDX 60 46 54 47 53 48 18 50 44 51 27 52 43 53 28 54 31 55 42 56
REMARK SMILES IDX 58 57 29 58 30 59 41 61 59 62 32 63 19 64 20 65 25 66 21 67
REMARK SMILES IDX 22 68 24 69 26 70 23 71 45 72 46 73 51 74 47 75 48 76 50 77
REMARK SMILES IDX 52 78 49 79 33 80 34 81 39 82 35 83 36 84 38 85 40 86 37 87
REMARK H PARENT 3 5 7 30 57 49 31 60
REMARK Flexibility Score: inf
ROOT
ATOM      1  C   UNL A   1      35.957  20.157  24.959  1.00  0.00     0.118 C 
ENDROOT
BRANCH   1   2
ATOM      2  N   UNL A   1      35.114  18.969  24.938  1.00  0.00    -0.352 N 
ATOM      3  O   UNL A   1      33.191  17.786  24.931  1.00  0.00    -0.269 OA
ATOM      4  C   UNL A   1      33.756  18.861  24.760  1.00  0.00     0.251 C 
ATOM      5  H   UNL A   1      35.589  18.115  25.069  1.00  0.00     0.163 HD
BRANCH   4   6
ATOM      6  C   UNL A   1      32.970  20.058  24.398  1.00  0.00     0.039 A 
ATOM      7  C   UNL A   1      32.764  20.396  23.059  1.00  0.00     0.014 A 
ATOM      8  C   UNL A   1      32.452  20.860  25.417  1.00  0.00     0.014 A 
ATOM      9  C   UNL A   1      32.151  21.605  22.742  1.00  0.00     0.004 A 
ATOM     10  C   UNL A   1      31.839  22.073  25.096  1.00  0.00     0.004 A 
ATOM     11  C   UNL A   1      31.726  22.477  23.758  1.00  0.00    -0.046 A 
BRANCH  11  12
ATOM     12  C   UNL A   1      31.228  23.862  23.408  1.00  0.00     0.060 C 
BRANCH  12  13
ATOM     13  C   UNL A   1      32.357  24.828  22.998  1.00  0.00     0.151 C 
ATOM     14  S   UNL A   1      31.846  26.017  21.727  1.00  0.00    -0.050 SA
ATOM     15  C   UNL A   1      32.745  25.683  24.187  1.00  0.00     0.248 C 
ATOM     16  C   UNL A   1      31.624  27.300  22.896  1.00  0.00     0.293 C 
ATOM     17  N   UNL A   1      32.235  26.969  24.088  1.00  0.00    -0.240 N 
ATOM     18  O   UNL A   1      33.359  25.202  25.137  1.00  0.00    -0.273 OA
ATOM     19  O   UNL A   1      31.043  28.320  22.583  1.00  0.00    -0.261 OA
BRANCH  17  20
ATOM     20  C   UNL A   1      32.342  27.916  25.150  1.00  0.00     0.053 A 
ATOM     21  C   UNL A   1      31.522  27.821  26.283  1.00  0.00     0.027 A 
ATOM     22  C   UNL A   1      33.283  28.955  25.096  1.00  0.00     0.027 A 
ATOM     23  C   UNL A   1      31.655  28.725  27.341  1.00  0.00     0.002 A 
ATOM     24  C   UNL A   1      33.393  29.879  26.139  1.00  0.00     0.002 A 
ATOM     25  C   UNL A   1      32.586  29.759  27.265  1.00  0.00     0.000 A 
ENDBRANCH  17  20
ENDBRANCH  12  13
ENDBRANCH  11  12
ENDBRANCH   4   6
ENDBRANCH   1   2
BRANCH   1  26
ATOM     26  C   UNL A   1      37.405  19.861  24.584  1.00  0.00     0.042 C 
BRANCH  26  27
ATOM     27  C   UNL A   1      38.431  20.250  25.642  1.00  0.00     0.118 C 
BRANCH  27  28
ATOM     28  N   UNL A   1      39.587  19.368  25.668  1.00  0.00    -0.352 N 
ATOM     29  C   UNL A   1      40.897  19.597  26.006  1.00  0.00     0.251 C 
ATOM     30  H   UNL A   1      39.396  18.441  25.394  1.00  0.00     0.163 HD
ATOM     31  O   UNL A   1      41.728  18.717  25.796  1.00  0.00    -0.269 OA
BRANCH  29  32
ATOM     32  C   UNL A   1      41.333  20.883  26.599  1.00  0.00     0.039 A 
ATOM     33  C   UNL A   1      41.853  21.862  25.744  1.00  0.00     0.014 A 
ATOM     34  C   UNL A   1      41.288  21.125  27.974  1.00  0.00     0.014 A 
ATOM     35  C   UNL A   1      42.265  23.095  26.260  1.00  0.00     0.010 A 
ATOM     36  C   UNL A   1      41.615  22.385  28.476  1.00  0.00     0.010 A 
ATOM     37  C   UNL A   1      42.113  23.383  27.626  1.00  0.00    -0.014 A 
BRANCH  37  38
ATOM     38  C   UNL A   1      42.459  24.726  28.161  1.00  0.00     0.031 A 
ATOM     39  C   UNL A   1      43.873  25.061  28.551  1.00  0.00     0.074 A 
ATOM     40  C   UNL A   1      41.481  25.638  28.337  1.00  0.00     0.049 A 
ATOM     41  N   UNL A   1      44.353  26.179  29.037  1.00  0.00    -0.248 NA
ATOM     42  C   UNL A   1      44.877  23.996  28.402  1.00  0.00     0.031 C 
ATOM     43  C   UNL A   1      40.060  25.417  28.062  1.00  0.00     0.029 A 
ATOM     44  N   UNL A   1      41.533  26.933  28.790  1.00  0.00    -0.354 N 
ATOM     45  C   UNL A   1      45.704  25.948  29.260  1.00  0.00     0.074 A 
ATOM     46  C   UNL A   1      45.960  24.569  28.909  1.00  0.00     0.031 C 
ATOM     47  C   UNL A   1      39.380  26.546  28.321  1.00  0.00     0.029 A 
ATOM     48  C   UNL A   1      40.310  27.558  28.810  1.00  0.00     0.049 A 
ATOM     49  H   UNL A   1      42.368  27.371  29.072  1.00  0.00     0.167 HD
ATOM     50  C   UNL A   1      46.652  26.813  29.697  1.00  0.00     0.037 A 
ATOM     51  C   UNL A   1      39.973  28.808  29.181  1.00  0.00     0.037 A 
ATOM     52  C   UNL A   1      46.403  28.194  30.020  1.00  0.00     0.049 A 
ATOM     53  C   UNL A   1      41.048  29.753  29.640  1.00  0.00     0.074 A 
ATOM     54  C   UNL A   1      47.311  29.168  30.398  1.00  0.00     0.029 A 
ATOM     55  N   UNL A   1      45.155  28.797  30.008  1.00  0.00    -0.354 N 
ATOM     56  N   UNL A   1      42.336  29.544  29.762  1.00  0.00    -0.248 NA
ATOM     57  C   UNL A   1      40.621  31.112  30.003  1.00  0.00     0.031 C 
ATOM     58  C   UNL A   1      46.607  30.347  30.660  1.00  0.00     0.029 A 
ATOM     59  C   UNL A   1      45.265  30.123  30.395  1.00  0.00     0.049 A 
ATOM     60  H   UNL A   1      44.313  28.350  29.760  1.00  0.00     0.167 HD
ATOM     61  C   UNL A   1      42.876  30.749  30.194  1.00  0.00     0.074 A 
ATOM     62  C   UNL A   1      41.780  31.689  30.288  1.00  0.00     0.031 C 
ATOM     63  C   UNL A   1      44.165  31.049  30.488  1.00  0.00     0.037 A 
BRANCH  50  64
ATOM     64  C   UNL A   1      48.054  26.296  29.844  1.00  0.00     0.057 A 
ATOM     65  C   UNL A   1      48.976  26.351  28.790  1.00  0.00     0.134 A 
ATOM     66  C   UNL A   1      48.503  25.784  31.068  1.00  0.00     0.134 A 
ATOM     67  F   UNL A   1      48.608  26.820  27.589  1.00  0.00    -0.206 F 
ATOM     68  C   UNL A   1      50.288  25.896  28.943  1.00  0.00     0.040 A 
ATOM     69  C   UNL A   1      49.819  25.352  31.240  1.00  0.00     0.040 A 
ATOM     70  F   UNL A   1      47.675  25.709  32.121  1.00  0.00    -0.206 F 
ATOM     71  C   UNL A   1      50.715  25.402  30.174  1.00  0.00     0.006 A 
ENDBRANCH  50  64
BRANCH  51  72
ATOM     72  C   UNL A   1      38.556  29.249  29.110  1.00  0.00     0.057 A 
ATOM     73  C   UNL A   1      37.999  29.710  27.912  1.00  0.00     0.134 A 
ATOM     74  C   UNL A   1      37.731  29.235  30.241  1.00  0.00     0.134 A 
ATOM     75  F   UNL A   1      38.746  29.765  26.798  1.00  0.00    -0.206 F 
ATOM     76  C   UNL A   1      36.682  30.163  27.844  1.00  0.00     0.040 A 
ATOM     77  C   UNL A   1      36.403  29.660  30.182  1.00  0.00     0.040 A 
ATOM     78  F   UNL A   1      38.201  28.797  31.418  1.00  0.00    -0.206 F 
ATOM     79  C   UNL A   1      35.877  30.135  28.982  1.00  0.00     0.006 A 
ENDBRANCH  51  72
BRANCH  63  80
ATOM     80  C   UNL A   1      44.458  32.457  30.917  1.00  0.00     0.057 A 
ATOM     81  C   UNL A   1      44.756  33.465  29.992  1.00  0.00     0.134 A 
ATOM     82  C   UNL A   1      44.427  32.812  32.272  1.00  0.00     0.134 A 
ATOM     83  F   UNL A   1      44.814  33.188  28.680  1.00  0.00    -0.206 F 
ATOM     84  C   UNL A   1      45.043  34.768  30.400  1.00  0.00     0.040 A 
ATOM     85  C   UNL A   1      44.685  34.117  32.690  1.00  0.00     0.040 A 
ATOM     86  F   UNL A   1      44.140  31.897  33.210  1.00  0.00    -0.206 F 
ATOM     87  C   UNL A   1      45.003  35.098  31.754  1.00  0.00     0.006 A 
ENDBRANCH  63  80
ENDBRANCH  37  38
ENDBRANCH  29  32
ENDBRANCH  27  28
ENDBRANCH  26  27
ENDBRANCH   1  26
TORSDOF 13
ENDMDL
MODEL 2
REMARK VINA RESULT:     -12.2      3.904      9.440
REMARK SMILES O=C(NCCCNC(=O)c1ccc(-c2c3nc(c(-c4c(F)cccc4F)c4ccc([nH]4)c(-c4c(F)cccc4F)c4nc(c(-c5c(F)cccc5F)c5ccc2[nH]5)C=C4)C=C3)cc1)c1ccc(C[C@H]2SC(=O)N(c3ccccc3)C2=O)cc1
REMARK SMILES IDX 4 1 3 2 1 3 2 4 64 6 65 7 83 8 66 9 82 10 67 11 68 12 69 13
REMARK SMILES IDX 70 14 80 15 71 16 73 17 81 18 72 19 74 20 75 21 79 22 76 23
REMARK SMILES IDX 78 24 77 25 5 26 6 27 7 28 8 29 9 31 10 32 11 33 63 34 12 35
REMARK SMILES IDX 62 36 13 37 14 38 15 39 56 40 16 41 61 42 55 43 57 44 17 45
REMARK SMILES IDX 60 46 54 47 53 48 18 50 44 51 27 52 43 53 28 54 31 55 42 56
REMARK SMILES IDX 58 57 29 58 30 59 41 61 59 62 32 63 19 64 20 65 25 66 21 67
REMARK SMILES IDX 22 68 24 69 26 70 23 71 45 72 46 73 51 74 47 75 48 76 50 77
REMARK SMILES IDX 52 78 49 79 33 80 34 81 39 82 35 83 36 84 38 85 40 86 37 87
REMARK H PARENT 3 5 7 30 57 49 31 60
REMARK Flexibility Score: inf
ROOT
ATOM      1  C   UNL A   1      30.861  30.357  24.767  1.00  0.00     0.118 C 
ENDROOT
BRANCH   1   2
ATOM      2  N   UNL A   1      30.136  30.523  23.515  1.00  0.00    -0.352 N 
ATOM      3  O   UNL A   1      29.310  29.930  21.498  1.00  0.00    -0.269 OA
ATOM      4  C   UNL A   1      29.783  29.583  22.575  1.00  0.00     0.251 C 
ATOM      5  H   UNL A   1      29.857  31.445  23.310  1.00  0.00     0.163 HD
BRANCH   4   6
ATOM      6  C   UNL A   1      30.010  28.152  22.854  1.00  0.00     0.039 A 
ATOM      7  C   UNL A   1      29.074  27.409  23.575  1.00  0.00     0.014 A 
ATOM      8  C   UNL A   1      31.189  27.554  22.403  1.00  0.00     0.014 A 
ATOM      9  C   UNL A   1      29.375  26.104  23.956  1.00  0.00     0.004 A 
ATOM     10  C   UNL A   1      31.490  26.245  22.787  1.00  0.00     0.004 A 
ATOM     11  C   UNL A   1      30.607  25.527  23.606  1.00  0.00    -0.046 A 
BRANCH  11  12
ATOM     12  C   UNL A   1      31.001  24.181  24.173  1.00  0.00     0.060 C 
BRANCH  12  13
ATOM     13  C   UNL A   1      32.523  24.025  24.365  1.00  0.00     0.151 C 
ATOM     14  S   UNL A   1      33.029  24.090  26.105  1.00  0.00    -0.050 SA
ATOM     15  C   UNL A   1      32.951  22.649  23.894  1.00  0.00     0.248 C 
ATOM     16  C   UNL A   1      33.171  22.349  26.218  1.00  0.00     0.293 C 
ATOM     17  N   UNL A   1      33.193  21.791  24.957  1.00  0.00    -0.240 N 
ATOM     18  O   UNL A   1      32.966  22.368  22.697  1.00  0.00    -0.273 OA
ATOM     19  O   UNL A   1      33.279  21.812  27.302  1.00  0.00    -0.261 OA
BRANCH  17  20
ATOM     20  C   UNL A   1      33.468  20.404  24.769  1.00  0.00     0.053 A 
ATOM     21  C   UNL A   1      34.785  19.923  24.787  1.00  0.00     0.027 A 
ATOM     22  C   UNL A   1      32.427  19.482  24.580  1.00  0.00     0.027 A 
ATOM     23  C   UNL A   1      35.051  18.558  24.641  1.00  0.00     0.002 A 
ATOM     24  C   UNL A   1      32.695  18.122  24.402  1.00  0.00     0.002 A 
ATOM     25  C   UNL A   1      34.006  17.659  24.442  1.00  0.00     0.000 A 
ENDBRANCH  17  20
ENDBRANCH  12  13
ENDBRANCH  11  12
ENDBRANCH   4   6
ENDBRANCH   1   2
BRANCH   1  26
ATOM     26  C   UNL A   1      30.738  31.567  25.686  1.00  0.00     0.042 C 
BRANCH  26  27
ATOM     27  C   UNL A   1      31.962  31.839  26.552  1.00  0.00     0.118 C 
BRANCH  27  28
ATOM     28  N   UNL A   1      32.052  33.222  26.996  1.00  0.00    -0.352 N 
ATOM     29  C   UNL A   1      32.917  33.842  27.861  1.00  0.00     0.251 C 
ATOM     30  H   UNL A   1      31.370  33.818  26.608  1.00  0.00     0.163 HD
ATOM     31  O   UNL A   1      32.690  35.002  28.199  1.00  0.00    -0.269 OA
BRANCH  29  32
ATOM     32  C   UNL A   1      34.103  33.144  28.410  1.00  0.00     0.039 A 
ATOM     33  C   UNL A   1      35.287  33.873  28.566  1.00  0.00     0.014 A 
ATOM     34  C   UNL A   1      34.088  31.783  28.727  1.00  0.00     0.014 A 
ATOM     35  C   UNL A   1      36.426  33.256  29.093  1.00  0.00     0.010 A 
ATOM     36  C   UNL A   1      35.196  31.192  29.334  1.00  0.00     0.010 A 
ATOM     37  C   UNL A   1      36.380  31.919  29.519  1.00  0.00    -0.014 A 
BRANCH  37  38
ATOM     38  C   UNL A   1      37.558  31.289  30.168  1.00  0.00     0.031 A 
ATOM     39  C   UNL A   1      37.902  31.588  31.603  1.00  0.00     0.074 A 
ATOM     40  C   UNL A   1      38.351  30.470  29.446  1.00  0.00     0.049 A 
ATOM     41  N   UNL A   1      38.894  31.131  32.327  1.00  0.00    -0.248 NA
ATOM     42  C   UNL A   1      37.038  32.546  32.311  1.00  0.00     0.031 C 
ATOM     43  C   UNL A   1      38.167  30.150  28.029  1.00  0.00     0.029 A 
ATOM     44  N   UNL A   1      39.470  29.760  29.803  1.00  0.00    -0.354 N 
ATOM     45  C   UNL A   1      38.779  31.752  33.564  1.00  0.00     0.074 A 
ATOM     46  C   UNL A   1      37.655  32.657  33.478  1.00  0.00     0.031 C 
ATOM     47  C   UNL A   1      39.118  29.284  27.646  1.00  0.00     0.029 A 
ATOM     48  C   UNL A   1      39.998  29.013  28.778  1.00  0.00     0.049 A 
ATOM     49  H   UNL A   1      39.857  29.784  30.708  1.00  0.00     0.167 HD
ATOM     50  C   UNL A   1      39.527  31.566  34.679  1.00  0.00     0.037 A 
ATOM     51  C   UNL A   1      41.070  28.200  28.752  1.00  0.00     0.037 A 
ATOM     52  C   UNL A   1      40.628  30.643  34.773  1.00  0.00     0.049 A 
ATOM     53  C   UNL A   1      41.869  27.996  30.008  1.00  0.00     0.074 A 
ATOM     54  C   UNL A   1      41.398  30.330  35.880  1.00  0.00     0.029 A 
ATOM     55  N   UNL A   1      41.120  29.888  33.719  1.00  0.00    -0.354 N 
ATOM     56  N   UNL A   1      41.693  28.523  31.195  1.00  0.00    -0.248 NA
ATOM     57  C   UNL A   1      43.010  27.073  29.923  1.00  0.00     0.031 C 
ATOM     58  C   UNL A   1      42.385  29.421  35.485  1.00  0.00     0.029 A 
ATOM     59  C   UNL A   1      42.198  29.128  34.144  1.00  0.00     0.049 A 
ATOM     60  H   UNL A   1      40.756  29.890  32.804  1.00  0.00     0.167 HD
ATOM     61  C   UNL A   1      42.685  27.981  32.003  1.00  0.00     0.074 A 
ATOM     62  C   UNL A   1      43.442  27.065  31.176  1.00  0.00     0.031 C 
ATOM     63  C   UNL A   1      42.947  28.222  33.311  1.00  0.00     0.037 A 
BRANCH  50  64
ATOM     64  C   UNL A   1      39.175  32.372  35.896  1.00  0.00     0.057 A 
ATOM     65  C   UNL A   1      39.679  33.663  36.099  1.00  0.00     0.134 A 
ATOM     66  C   UNL A   1      38.281  31.872  36.852  1.00  0.00     0.134 A 
ATOM     67  F   UNL A   1      40.547  34.199  35.229  1.00  0.00    -0.206 F 
ATOM     68  C   UNL A   1      39.323  34.420  37.218  1.00  0.00     0.040 A 
ATOM     69  C   UNL A   1      37.896  32.628  37.960  1.00  0.00     0.040 A 
ATOM     70  F   UNL A   1      37.755  30.645  36.717  1.00  0.00    -0.206 F 
ATOM     71  C   UNL A   1      38.422  33.905  38.148  1.00  0.00     0.006 A 
ENDBRANCH  50  64
BRANCH  51  72
ATOM     72  C   UNL A   1      41.439  27.495  27.497  1.00  0.00     0.057 A 
ATOM     73  C   UNL A   1      40.988  26.197  27.235  1.00  0.00     0.134 A 
ATOM     74  C   UNL A   1      42.264  28.096  26.538  1.00  0.00     0.134 A 
ATOM     75  F   UNL A   1      40.210  25.560  28.125  1.00  0.00    -0.206 F 
ATOM     76  C   UNL A   1      41.360  25.511  26.079  1.00  0.00     0.040 A 
ATOM     77  C   UNL A   1      42.623  27.433  25.364  1.00  0.00     0.040 A 
ATOM     78  F   UNL A   1      42.722  29.342  26.725  1.00  0.00    -0.206 F 
ATOM     79  C   UNL A   1      42.178  26.132  25.136  1.00  0.00     0.006 A 
ENDBRANCH  51  72
BRANCH  63  80
ATOM     80  C   UNL A   1      44.085  27.466  33.930  1.00  0.00     0.057 A 
ATOM     81  C   UNL A   1      45.394  27.964  33.924  1.00  0.00     0.134 A 
ATOM     82  C   UNL A   1      43.867  26.230  34.553  1.00  0.00     0.134 A 
ATOM     83  F   UNL A   1      45.673  29.136  33.332  1.00  0.00    -0.206 F 
ATOM     84  C   UNL A   1      46.451  27.248  34.487  1.00  0.00     0.040 A 
ATOM     85  C   UNL A   1      44.910  25.517  35.144  1.00  0.00     0.040 A 
ATOM     86  F   UNL A   1      42.636  25.699  34.602  1.00  0.00    -0.206 F 
ATOM     87  C   UNL A   1      46.208  26.021  35.104  1.00  0.00     0.006 A 
ENDBRANCH  63  80
ENDBRANCH  37  38
ENDBRANCH  29  32
ENDBRANCH  27  28
ENDBRANCH  26  27
ENDBRANCH   1  26
TORSDOF 13
ENDMDL
MODEL 3
REMARK VINA RESULT:     -12.2      1.321      6.349
REMARK SMILES O=C(NCCCNC(=O)c1ccc(-c2c3nc(c(-c4c(F)cccc4F)c4ccc([nH]4)c(-c4c(F)cccc4F)c4nc(c(-c5c(F)cccc5F)c5ccc2[nH]5)C=C4)C=C3)cc1)c1ccc(C[C@H]2SC(=O)N(c3ccccc3)C2=O)cc1
REMARK SMILES IDX 4 1 3 2 1 3 2 4 64 6 65 7 83 8 66 9 82 10 67 11 68 12 69 13
REMARK SMILES IDX 70 14 80 15 71 16 73 17 81 18 72 19 74 20 75 21 79 22 76 23
REMARK SMILES IDX 78 24 77 25 5 26 6 27 7 28 8 29 9 31 10 32 11 33 63 34 12 35
REMARK SMILES IDX 62 36 13 37 14 38 15 39 56 40 16 41 61 42 55 43 57 44 17 45
REMARK SMILES IDX 60 46 54 47 53 48 18 50 44 51 27 52 43 53 28 54 31 55 42 56
REMARK SMILES IDX 58 57 29 58 30 59 41 61 59 62 32 63 19 64 20 65 25 66 21 67
REMARK SMILES IDX 22 68 24 69 26 70 23 71 45 72 46 73 51 74 47 75 48 76 50 77
REMARK SMILES IDX 52 78 49 79 33 80 34 81 39 82 35 83 36 84 38 85 40 86 37 87
REMARK H PARENT 3 5 7 30 57 49 31 60
REMARK Flexibility Score: inf
ROOT
ATOM      1  C   UNL A   1      35.660  20.536  25.009  1.00  0.00     0.118 C 
ENDROOT
BRANCH   1   2
ATOM      2  N   UNL A   1      34.666  19.495  25.232  1.00  0.00    -0.352 N 
ATOM      3  O   UNL A   1      32.607  18.620  25.535  1.00  0.00    -0.269 OA
ATOM      4  C   UNL A   1      33.296  19.561  25.157  1.00  0.00     0.251 C 
ATOM      5  H   UNL A   1      35.031  18.612  25.472  1.00  0.00     0.163 HD
BRANCH   4   6
ATOM      6  C   UNL A   1      32.652  20.790  24.652  1.00  0.00     0.039 A 
ATOM      7  C   UNL A   1      32.495  21.000  23.280  1.00  0.00     0.014 A 
ATOM      8  C   UNL A   1      32.218  21.751  25.567  1.00  0.00     0.014 A 
ATOM      9  C   UNL A   1      32.023  22.227  22.821  1.00  0.00     0.004 A 
ATOM     10  C   UNL A   1      31.746  22.982  25.104  1.00  0.00     0.004 A 
ATOM     11  C   UNL A   1      31.690  23.247  23.728  1.00  0.00    -0.046 A 
BRANCH  11  12
ATOM     12  C   UNL A   1      31.353  24.631  23.221  1.00  0.00     0.060 C 
BRANCH  12  13
ATOM     13  C   UNL A   1      31.752  25.751  24.201  1.00  0.00     0.151 C 
ATOM     14  S   UNL A   1      33.161  26.735  23.620  1.00  0.00    -0.050 SA
ATOM     15  C   UNL A   1      30.614  26.747  24.319  1.00  0.00     0.248 C 
ATOM     16  C   UNL A   1      32.132  28.039  23.068  1.00  0.00     0.293 C 
ATOM     17  N   UNL A   1      30.869  27.910  23.607  1.00  0.00    -0.240 N 
ATOM     18  O   UNL A   1      29.578  26.453  24.911  1.00  0.00    -0.273 OA
ATOM     19  O   UNL A   1      32.581  28.912  22.354  1.00  0.00    -0.261 OA
BRANCH  17  20
ATOM     20  C   UNL A   1      29.890  28.934  23.446  1.00  0.00     0.053 A 
ATOM     21  C   UNL A   1      28.717  28.700  22.715  1.00  0.00     0.027 A 
ATOM     22  C   UNL A   1      30.067  30.198  24.030  1.00  0.00     0.027 A 
ATOM     23  C   UNL A   1      27.740  29.691  22.591  1.00  0.00     0.002 A 
ATOM     24  C   UNL A   1      29.105  31.200  23.878  1.00  0.00     0.002 A 
ATOM     25  C   UNL A   1      27.938  30.944  23.167  1.00  0.00     0.000 A 
ENDBRANCH  17  20
ENDBRANCH  12  13
ENDBRANCH  11  12
ENDBRANCH   4   6
ENDBRANCH   1   2
BRANCH   1  26
ATOM     26  C   UNL A   1      37.025  19.977  24.622  1.00  0.00     0.042 C 
BRANCH  26  27
ATOM     27  C   UNL A   1      38.182  20.459  25.490  1.00  0.00     0.118 C 
BRANCH  27  28
ATOM     28  N   UNL A   1      39.277  19.503  25.564  1.00  0.00    -0.352 N 
ATOM     29  C   UNL A   1      40.586  19.651  25.947  1.00  0.00     0.251 C 
ATOM     30  H   UNL A   1      39.036  18.588  25.291  1.00  0.00     0.163 HD
ATOM     31  O   UNL A   1      41.365  18.717  25.774  1.00  0.00    -0.269 OA
BRANCH  29  32
ATOM     32  C   UNL A   1      41.084  20.912  26.544  1.00  0.00     0.039 A 
ATOM     33  C   UNL A   1      41.637  21.874  25.692  1.00  0.00     0.014 A 
ATOM     34  C   UNL A   1      41.063  21.145  27.922  1.00  0.00     0.014 A 
ATOM     35  C   UNL A   1      42.107  23.084  26.213  1.00  0.00     0.010 A 
ATOM     36  C   UNL A   1      41.450  22.386  28.429  1.00  0.00     0.010 A 
ATOM     37  C   UNL A   1      41.982  23.368  27.582  1.00  0.00    -0.014 A 
BRANCH  37  38
ATOM     38  C   UNL A   1      42.391  24.690  28.123  1.00  0.00     0.031 A 
ATOM     39  C   UNL A   1      41.378  25.780  28.349  1.00  0.00     0.074 A 
ATOM     40  C   UNL A   1      43.695  24.925  28.375  1.00  0.00     0.049 A 
ATOM     41  N   UNL A   1      41.559  26.992  28.810  1.00  0.00    -0.248 NA
ATOM     42  C   UNL A   1      39.984  25.481  27.985  1.00  0.00     0.031 C 
ATOM     43  C   UNL A   1      44.787  23.977  28.138  1.00  0.00     0.029 A 
ATOM     44  N   UNL A   1      44.326  26.032  28.885  1.00  0.00    -0.354 N 
ATOM     45  C   UNL A   1      40.311  27.600  28.781  1.00  0.00     0.074 A 
ATOM     46  C   UNL A   1      39.390  26.644  28.207  1.00  0.00     0.031 C 
ATOM     47  C   UNL A   1      45.945  24.531  28.530  1.00  0.00     0.029 A 
ATOM     48  C   UNL A   1      45.685  25.882  29.014  1.00  0.00     0.049 A 
ATOM     49  H   UNL A   1      43.848  26.857  29.133  1.00  0.00     0.167 HD
ATOM     50  C   UNL A   1      39.958  28.835  29.214  1.00  0.00     0.037 A 
ATOM     51  C   UNL A   1      46.619  26.736  29.474  1.00  0.00     0.037 A 
ATOM     52  C   UNL A   1      40.869  29.776  29.812  1.00  0.00     0.049 A 
ATOM     53  C   UNL A   1      46.197  28.090  29.968  1.00  0.00     0.074 A 
ATOM     54  C   UNL A   1      40.592  31.022  30.350  1.00  0.00     0.029 A 
ATOM     55  N   UNL A   1      42.235  29.579  29.946  1.00  0.00    -0.354 N 
ATOM     56  N   UNL A   1      44.998  28.618  30.015  1.00  0.00    -0.248 NA
ATOM     57  C   UNL A   1      47.259  28.966  30.485  1.00  0.00     0.031 C 
ATOM     58  C   UNL A   1      41.797  31.597  30.767  1.00  0.00     0.029 A 
ATOM     59  C   UNL A   1      42.818  30.690  30.536  1.00  0.00     0.049 A 
ATOM     60  H   UNL A   1      42.720  28.770  29.664  1.00  0.00     0.167 HD
ATOM     61  C   UNL A   1      45.157  29.874  30.585  1.00  0.00     0.074 A 
ATOM     62  C   UNL A   1      46.565  30.020  30.890  1.00  0.00     0.031 C 
ATOM     63  C   UNL A   1      44.222  30.824  30.831  1.00  0.00     0.037 A 
BRANCH  50  64
ATOM     64  C   UNL A   1      38.520  29.241  29.068  1.00  0.00     0.057 A 
ATOM     65  C   UNL A   1      37.624  29.193  30.144  1.00  0.00     0.134 A 
ATOM     66  C   UNL A   1      38.036  29.736  27.849  1.00  0.00     0.134 A 
ATOM     67  F   UNL A   1      38.019  28.720  31.336  1.00  0.00    -0.206 F 
ATOM     68  C   UNL A   1      36.296  29.601  30.010  1.00  0.00     0.040 A 
ATOM     69  C   UNL A   1      36.718  30.173  27.710  1.00  0.00     0.040 A 
ATOM     70  F   UNL A   1      38.841  29.817  26.779  1.00  0.00    -0.206 F 
ATOM     71  C   UNL A   1      35.842  30.101  28.790  1.00  0.00     0.006 A 
ENDBRANCH  50  64
BRANCH  51  72
ATOM     72  C   UNL A   1      48.047  26.327  29.512  1.00  0.00     0.057 A 
ATOM     73  C   UNL A   1      48.889  26.530  28.413  1.00  0.00     0.134 A 
ATOM     74  C   UNL A   1      48.599  25.709  30.641  1.00  0.00     0.134 A 
ATOM     75  F   UNL A   1      48.413  27.100  27.295  1.00  0.00    -0.206 F 
ATOM     76  C   UNL A   1      50.220  26.114  28.423  1.00  0.00     0.040 A 
ATOM     77  C   UNL A   1      49.936  25.313  30.677  1.00  0.00     0.040 A 
ATOM     78  F   UNL A   1      47.848  25.494  31.731  1.00  0.00    -0.206 F 
ATOM     79  C   UNL A   1      50.750  25.507  29.561  1.00  0.00     0.006 A 
ENDBRANCH  51  72
BRANCH  63  80
ATOM     80  C   UNL A   1      44.691  32.092  31.482  1.00  0.00     0.057 A 
ATOM     81  C   UNL A   1      44.739  32.235  32.874  1.00  0.00     0.134 A 
ATOM     82  C   UNL A   1      45.114  33.179  30.705  1.00  0.00     0.134 A 
ATOM     83  F   UNL A   1      44.336  31.237  33.675  1.00  0.00    -0.206 F 
ATOM     84  C   UNL A   1      45.161  33.424  33.471  1.00  0.00     0.040 A 
ATOM     85  C   UNL A   1      45.565  34.362  31.291  1.00  0.00     0.040 A 
ATOM     86  F   UNL A   1      45.102  33.105  29.366  1.00  0.00    -0.206 F 
ATOM     87  C   UNL A   1      45.580  34.491  32.677  1.00  0.00     0.006 A 
ENDBRANCH  63  80
ENDBRANCH  37  38
ENDBRANCH  29  32
ENDBRANCH  27  28
ENDBRANCH  26  27
ENDBRANCH   1  26
TORSDOF 13
ENDMDL
