MODEL 1
REMARK VINA RESULT:     -13.4      0.000      0.000
REMARK SMILES O=C(NCCCNC(=O)c1ccc(-c2c3nc(c(-c4c(F)cccc4F)c4ccc([nH]4)c(-c4c(F)cccc4F)c4nc(c(-c5c(F)cccc5F)c5ccc2[nH]5)C=C4)C=C3)cc1)C1=Cc2cc(Cl)cc(-c3ccc(O)cc3)c2O[C@@H]1C(F)(F)F
REMARK SMILES IDX 5 1 4 2 3 3 1 4 2 5 64 7 65 8 81 9 66 10 80 11 67 12 79 13
REMARK SMILES IDX 68 14 71 15 69 16 70 17 82 18 83 19 84 20 85 21 72 22 73 23
REMARK SMILES IDX 78 24 74 25 77 26 75 27 76 28 6 30 7 31 8 32 9 34 10 35
REMARK SMILES IDX 11 36 63 37 12 38 62 39 13 40 14 41 15 42 56 43 16 44 61 45
REMARK SMILES IDX 55 46 57 47 17 48 60 49 54 50 53 51 18 53 44 54 27 55 43 56
REMARK SMILES IDX 28 57 31 58 42 59 58 60 29 61 30 62 41 64 59 65 32 66 19 67
REMARK SMILES IDX 20 68 25 69 21 70 22 71 24 72 26 73 23 74 45 75 46 76 51 77
REMARK SMILES IDX 47 78 48 79 50 80 52 81 49 82 33 83 34 84 39 85 35 86 36 87
REMARK SMILES IDX 38 88 40 89 37 90
REMARK H PARENT 3 6 76 29 7 33 57 52 31 63
REMARK Flexibility Score: inf
ROOT
ATOM      1  C   UNL A   1      32.399  28.790  27.279  1.00  0.00     0.042 C 
ENDROOT
BRANCH   1   2
ATOM      2  C   UNL A   1      32.375  27.595  26.325  1.00  0.00     0.118 C 
BRANCH   2   3
ATOM      3  N   UNL A   1      31.632  26.454  26.871  1.00  0.00    -0.352 N 
ATOM      4  O   UNL A   1      31.210  24.267  27.315  1.00  0.00    -0.270 OA
ATOM      5  C   UNL A   1      31.796  25.110  26.652  1.00  0.00     0.251 C 
ATOM      6  H   UNL A   1      30.903  26.689  27.490  1.00  0.00     0.163 HD
BRANCH   5   7
ATOM      7  C   UNL A   1      32.761  24.732  25.611  1.00  0.00     0.067 C 
ATOM      8  C   UNL A   1      34.059  24.910  25.873  1.00  0.00     0.025 C 
ATOM      9  C   UNL A   1      32.270  23.873  24.492  1.00  0.00     0.314 C 
ATOM     10  C   UNL A   1      34.937  23.863  25.343  1.00  0.00     0.019 A 
ATOM     11  O   UNL A   1      33.033  22.644  24.409  1.00  0.00    -0.475 OA
ATOM     12  C   UNL A   1      36.277  23.866  25.734  1.00  0.00     0.032 A 
ATOM     13  C   UNL A   1      34.353  22.698  24.800  1.00  0.00     0.135 A 
ATOM     14  C   UNL A   1      37.009  22.686  25.670  1.00  0.00     0.042 A 
ATOM     15  C   UNL A   1      35.071  21.490  24.795  1.00  0.00     0.026 A 
ATOM     16  Cl  UNL A   1      38.615  22.655  26.284  1.00  0.00    -0.084 Cl
ATOM     17  C   UNL A   1      36.409  21.505  25.232  1.00  0.00     0.033 A 
BRANCH   9  18
ATOM     18  C   UNL A   1      32.235  24.635  23.155  1.00  0.00     0.429 C 
ATOM     19  F   UNL A   1      30.963  24.813  22.725  1.00  0.00    -0.167 F 
ATOM     20  F   UNL A   1      32.783  25.868  23.268  1.00  0.00    -0.167 F 
ATOM     21  F   UNL A   1      32.904  23.989  22.170  1.00  0.00    -0.167 F 
ENDBRANCH   9  18
BRANCH  15  22
ATOM     22  C   UNL A   1      34.424  20.192  24.547  1.00  0.00    -0.014 A 
ATOM     23  C   UNL A   1      35.181  19.008  24.630  1.00  0.00     0.012 A 
ATOM     24  C   UNL A   1      33.084  20.091  24.158  1.00  0.00     0.012 A 
ATOM     25  C   UNL A   1      34.645  17.773  24.275  1.00  0.00     0.047 A 
ATOM     26  C   UNL A   1      32.536  18.850  23.810  1.00  0.00     0.047 A 
ATOM     27  C   UNL A   1      33.330  17.706  23.850  1.00  0.00     0.115 A 
BRANCH  27  28
ATOM     28  O   UNL A   1      32.855  16.489  23.464  1.00  0.00    -0.508 OA
ATOM     29  H   UNL A   1      32.052  16.165  23.821  1.00  0.00     0.293 HD
ENDBRANCH  27  28
ENDBRANCH  15  22
ENDBRANCH   5   7
ENDBRANCH   2   3
ENDBRANCH   1   2
BRANCH   1  30
ATOM     30  C   UNL A   1      33.331  29.906  26.815  1.00  0.00     0.118 C 
BRANCH  30  31
ATOM     31  N   UNL A   1      33.545  30.977  27.776  1.00  0.00    -0.352 N 
ATOM     32  C   UNL A   1      34.647  31.217  28.576  1.00  0.00     0.251 C 
ATOM     33  H   UNL A   1      32.803  31.618  27.870  1.00  0.00     0.163 HD
ATOM     34  O   UNL A   1      34.647  32.166  29.357  1.00  0.00    -0.269 OA
BRANCH  32  35
ATOM     35  C   UNL A   1      35.771  30.252  28.595  1.00  0.00     0.039 A 
ATOM     36  C   UNL A   1      36.584  30.171  27.459  1.00  0.00     0.014 A 
ATOM     37  C   UNL A   1      36.124  29.562  29.752  1.00  0.00     0.014 A 
ATOM     38  C   UNL A   1      37.840  29.569  27.550  1.00  0.00     0.010 A 
ATOM     39  C   UNL A   1      37.413  29.060  29.875  1.00  0.00     0.010 A 
ATOM     40  C   UNL A   1      38.303  29.116  28.792  1.00  0.00    -0.014 A 
BRANCH  40  41
ATOM     41  C   UNL A   1      39.738  28.813  29.031  1.00  0.00     0.031 A 
ATOM     42  C   UNL A   1      40.658  29.880  29.546  1.00  0.00     0.074 A 
ATOM     43  C   UNL A   1      40.232  27.625  28.627  1.00  0.00     0.049 A 
ATOM     44  N   UNL A   1      41.964  29.888  29.601  1.00  0.00    -0.248 NA
ATOM     45  C   UNL A   1      40.025  31.123  30.012  1.00  0.00     0.031 C 
ATOM     46  C   UNL A   1      39.451  26.531  28.040  1.00  0.00     0.029 A 
ATOM     47  N   UNL A   1      41.518  27.143  28.625  1.00  0.00    -0.354 N 
ATOM     48  C   UNL A   1      42.312  31.152  30.059  1.00  0.00     0.074 A 
ATOM     49  C   UNL A   1      41.080  31.892  30.237  1.00  0.00     0.031 C 
ATOM     50  C   UNL A   1      40.265  25.500  27.766  1.00  0.00     0.029 A 
ATOM     51  C   UNL A   1      41.631  25.874  28.107  1.00  0.00     0.049 A 
ATOM     52  H   UNL A   1      42.286  27.658  28.963  1.00  0.00     0.167 HD
ATOM     53  C   UNL A   1      43.546  31.644  30.319  1.00  0.00     0.037 A 
ATOM     54  C   UNL A   1      42.718  25.103  27.915  1.00  0.00     0.037 A 
ATOM     55  C   UNL A   1      44.759  30.883  30.194  1.00  0.00     0.049 A 
ATOM     56  C   UNL A   1      44.067  25.645  28.284  1.00  0.00     0.074 A 
ATOM     57  C   UNL A   1      46.056  31.265  30.492  1.00  0.00     0.029 A 
ATOM     58  N   UNL A   1      44.820  29.570  29.748  1.00  0.00    -0.354 N 
ATOM     59  N   UNL A   1      44.378  26.831  28.750  1.00  0.00    -0.248 NA
ATOM     60  C   UNL A   1      45.216  24.748  28.102  1.00  0.00     0.031 C 
ATOM     61  C   UNL A   1      46.903  30.185  30.216  1.00  0.00     0.029 A 
ATOM     62  C   UNL A   1      46.130  29.125  29.770  1.00  0.00     0.049 A 
ATOM     63  H   UNL A   1      44.046  29.034  29.461  1.00  0.00     0.167 HD
ATOM     64  C   UNL A   1      45.753  26.815  28.938  1.00  0.00     0.074 A 
ATOM     65  C   UNL A   1      46.216  25.500  28.544  1.00  0.00     0.031 C 
ATOM     66  C   UNL A   1      46.560  27.802  29.394  1.00  0.00     0.037 A 
BRANCH  53  67
ATOM     67  C   UNL A   1      43.631  33.073  30.768  1.00  0.00     0.057 A 
ATOM     68  C   UNL A   1      43.580  33.423  32.124  1.00  0.00     0.134 A 
ATOM     69  C   UNL A   1      43.760  34.110  29.836  1.00  0.00     0.134 A 
ATOM     70  F   UNL A   1      43.441  32.478  33.065  1.00  0.00    -0.206 F 
ATOM     71  C   UNL A   1      43.618  34.756  32.534  1.00  0.00     0.040 A 
ATOM     72  C   UNL A   1      43.826  35.445  30.236  1.00  0.00     0.040 A 
ATOM     73  F   UNL A   1      43.820  33.843  28.523  1.00  0.00    -0.206 F 
ATOM     74  C   UNL A   1      43.743  35.772  31.589  1.00  0.00     0.006 A 
ENDBRANCH  53  67
BRANCH  54  75
ATOM     75  C   UNL A   1      42.568  23.727  27.381  1.00  0.00     0.057 A 
ATOM     76  C   UNL A   1      42.331  22.650  28.243  1.00  0.00     0.134 A 
ATOM     77  C   UNL A   1      42.645  23.453  26.011  1.00  0.00     0.134 A 
ATOM     78  F   UNL A   1      42.262  22.850  29.567  1.00  0.00    -0.206 F 
ATOM     79  C   UNL A   1      42.191  21.346  27.764  1.00  0.00     0.040 A 
ATOM     80  C   UNL A   1      42.488  22.156  25.516  1.00  0.00     0.040 A 
ATOM     81  F   UNL A   1      42.858  24.444  25.133  1.00  0.00    -0.206 F 
ATOM     82  C   UNL A   1      42.266  21.098  26.396  1.00  0.00     0.006 A 
ENDBRANCH  54  75
BRANCH  66  83
ATOM     83  C   UNL A   1      48.015  27.484  29.531  1.00  0.00     0.057 A 
ATOM     84  C   UNL A   1      48.924  27.745  28.500  1.00  0.00     0.134 A 
ATOM     85  C   UNL A   1      48.516  26.961  30.729  1.00  0.00     0.134 A 
ATOM     86  F   UNL A   1      48.498  28.232  27.325  1.00  0.00    -0.206 F 
ATOM     87  C   UNL A   1      50.287  27.491  28.654  1.00  0.00     0.040 A 
ATOM     88  C   UNL A   1      49.879  26.718  30.901  1.00  0.00     0.040 A 
ATOM     89  F   UNL A   1      47.692  26.693  31.752  1.00  0.00    -0.206 F 
ATOM     90  C   UNL A   1      50.769  26.983  29.861  1.00  0.00     0.006 A 
ENDBRANCH  66  83
ENDBRANCH  40  41
ENDBRANCH  32  35
ENDBRANCH  30  31
ENDBRANCH   1  30
TORSDOF 13
ENDMDL
MODEL 2
REMARK VINA RESULT:     -13.2      3.457      8.441
REMARK SMILES O=C(NCCCNC(=O)c1ccc(-c2c3nc(c(-c4c(F)cccc4F)c4ccc([nH]4)c(-c4c(F)cccc4F)c4nc(c(-c5c(F)cccc5F)c5ccc2[nH]5)C=C4)C=C3)cc1)C1=Cc2cc(Cl)cc(-c3ccc(O)cc3)c2O[C@@H]1C(F)(F)F
REMARK SMILES IDX 5 1 4 2 3 3 1 4 2 5 64 7 65 8 81 9 66 10 80 11 67 12 79 13
REMARK SMILES IDX 68 14 71 15 69 16 70 17 82 18 83 19 84 20 85 21 72 22 73 23
REMARK SMILES IDX 78 24 74 25 77 26 75 27 76 28 6 30 7 31 8 32 9 34 10 35
REMARK SMILES IDX 11 36 63 37 12 38 62 39 13 40 14 41 15 42 56 43 16 44 61 45
REMARK SMILES IDX 55 46 57 47 17 48 60 49 54 50 53 51 18 53 44 54 27 55 43 56
REMARK SMILES IDX 28 57 31 58 42 59 58 60 29 61 30 62 41 64 59 65 32 66 19 67
REMARK SMILES IDX 20 68 25 69 21 70 22 71 24 72 26 73 23 74 45 75 46 76 51 77
REMARK SMILES IDX 47 78 48 79 50 80 52 81 49 82 33 83 34 84 39 85 35 86 36 87
REMARK SMILES IDX 38 88 40 89 37 90
REMARK H PARENT 3 6 76 29 7 33 57 52 31 63
REMARK Flexibility Score: inf
ROOT
ATOM      1  C   UNL A   1      36.445  21.812  25.756  1.00  0.00     0.042 C 
ENDROOT
BRANCH   1   2
ATOM      2  C   UNL A   1      35.094  22.483  25.499  1.00  0.00     0.118 C 
BRANCH   2   3
ATOM      3  N   UNL A   1      34.968  22.985  24.126  1.00  0.00    -0.352 N 
ATOM      4  O   UNL A   1      34.416  24.468  22.497  1.00  0.00    -0.270 OA
ATOM      5  C   UNL A   1      34.286  24.074  23.647  1.00  0.00     0.251 C 
ATOM      6  H   UNL A   1      35.445  22.459  23.445  1.00  0.00     0.163 HD
BRANCH   5   7
ATOM      7  C   UNL A   1      33.429  24.782  24.607  1.00  0.00     0.067 C 
ATOM      8  C   UNL A   1      34.011  25.664  25.426  1.00  0.00     0.025 C 
ATOM      9  C   UNL A   1      31.953  24.734  24.384  1.00  0.00     0.314 C 
ATOM     10  C   UNL A   1      33.212  26.861  25.699  1.00  0.00     0.019 A 
ATOM     11  O   UNL A   1      31.405  26.069  24.252  1.00  0.00    -0.475 OA
ATOM     12  C   UNL A   1      33.818  27.916  26.383  1.00  0.00     0.032 A 
ATOM     13  C   UNL A   1      32.034  27.076  24.951  1.00  0.00     0.135 A 
ATOM     14  C   UNL A   1      33.305  29.201  26.247  1.00  0.00     0.042 A 
ATOM     15  C   UNL A   1      31.552  28.384  24.760  1.00  0.00     0.026 A 
ATOM     16  Cl  UNL A   1      34.134  30.522  26.973  1.00  0.00    -0.084 Cl
ATOM     17  C   UNL A   1      32.202  29.439  25.426  1.00  0.00     0.033 A 
BRANCH   9  18
ATOM     18  C   UNL A   1      31.234  23.909  25.466  1.00  0.00     0.429 C 
ATOM     19  F   UNL A   1      30.240  24.622  26.047  1.00  0.00    -0.167 F 
ATOM     20  F   UNL A   1      30.662  22.796  24.949  1.00  0.00    -0.167 F 
ATOM     21  F   UNL A   1      32.068  23.507  26.454  1.00  0.00    -0.167 F 
ENDBRANCH   9  18
BRANCH  15  22
ATOM     22  C   UNL A   1      30.536  28.707  23.746  1.00  0.00    -0.014 A 
ATOM     23  C   UNL A   1      30.852  29.595  22.701  1.00  0.00     0.012 A 
ATOM     24  C   UNL A   1      29.229  28.214  23.820  1.00  0.00     0.012 A 
ATOM     25  C   UNL A   1      29.887  30.032  21.798  1.00  0.00     0.047 A 
ATOM     26  C   UNL A   1      28.256  28.642  22.908  1.00  0.00     0.047 A 
ATOM     27  C   UNL A   1      28.590  29.565  21.920  1.00  0.00     0.115 A 
BRANCH  27  28
ATOM     28  O   UNL A   1      27.662  30.052  21.049  1.00  0.00    -0.508 OA
ATOM     29  H   UNL A   1      27.726  30.934  20.741  1.00  0.00     0.293 HD
ENDBRANCH  27  28
ENDBRANCH  15  22
ENDBRANCH   5   7
ENDBRANCH   2   3
ENDBRANCH   1   2
BRANCH   1  30
ATOM     30  C   UNL A   1      37.625  22.633  25.246  1.00  0.00     0.118 C 
BRANCH  30  31
ATOM     31  N   UNL A   1      38.937  22.157  25.657  1.00  0.00    -0.352 N 
ATOM     32  C   UNL A   1      39.895  22.805  26.416  1.00  0.00     0.251 C 
ATOM     33  H   UNL A   1      39.176  21.252  25.353  1.00  0.00     0.163 HD
ATOM     34  O   UNL A   1      40.970  22.256  26.650  1.00  0.00    -0.269 OA
BRANCH  32  35
ATOM     35  C   UNL A   1      39.684  24.211  26.830  1.00  0.00     0.039 A 
ATOM     36  C   UNL A   1      38.946  24.447  27.995  1.00  0.00     0.014 A 
ATOM     37  C   UNL A   1      40.330  25.267  26.191  1.00  0.00     0.014 A 
ATOM     38  C   UNL A   1      39.023  25.692  28.622  1.00  0.00     0.010 A 
ATOM     39  C   UNL A   1      40.495  26.469  26.868  1.00  0.00     0.010 A 
ATOM     40  C   UNL A   1      39.894  26.668  28.119  1.00  0.00    -0.014 A 
BRANCH  40  41
ATOM     41  C   UNL A   1      40.299  27.848  28.926  1.00  0.00     0.031 A 
ATOM     42  C   UNL A   1      41.585  27.830  29.696  1.00  0.00     0.074 A 
ATOM     43  C   UNL A   1      39.423  28.862  29.086  1.00  0.00     0.049 A 
ATOM     44  N   UNL A   1      42.002  28.648  30.627  1.00  0.00    -0.248 NA
ATOM     45  C   UNL A   1      42.500  26.713  29.418  1.00  0.00     0.031 C 
ATOM     46  C   UNL A   1      38.106  28.961  28.450  1.00  0.00     0.029 A 
ATOM     47  N   UNL A   1      39.497  29.997  29.857  1.00  0.00    -0.354 N 
ATOM     48  C   UNL A   1      43.203  28.117  31.081  1.00  0.00     0.074 A 
ATOM     49  C   UNL A   1      43.430  26.891  30.344  1.00  0.00     0.031 C 
ATOM     50  C   UNL A   1      37.513  30.104  28.829  1.00  0.00     0.029 A 
ATOM     51  C   UNL A   1      38.381  30.794  29.774  1.00  0.00     0.049 A 
ATOM     52  H   UNL A   1      40.278  30.217  30.415  1.00  0.00     0.167 HD
ATOM     53  C   UNL A   1      44.043  28.615  32.018  1.00  0.00     0.037 A 
ATOM     54  C   UNL A   1      38.083  31.948  30.400  1.00  0.00     0.037 A 
ATOM     55  C   UNL A   1      43.837  29.862  32.704  1.00  0.00     0.049 A 
ATOM     56  C   UNL A   1      39.068  32.519  31.377  1.00  0.00     0.074 A 
ATOM     57  C   UNL A   1      44.658  30.490  33.624  1.00  0.00     0.029 A 
ATOM     58  N   UNL A   1      42.733  30.684  32.524  1.00  0.00    -0.354 N 
ATOM     59  N   UNL A   1      40.216  32.024  31.772  1.00  0.00    -0.248 NA
ATOM     60  C   UNL A   1      38.719  33.804  31.998  1.00  0.00     0.031 C 
ATOM     61  C   UNL A   1      44.044  31.688  34.011  1.00  0.00     0.029 A 
ATOM     62  C   UNL A   1      42.854  31.815  33.312  1.00  0.00     0.049 A 
ATOM     63  H   UNL A   1      41.976  30.491  31.925  1.00  0.00     0.167 HD
ATOM     64  C   UNL A   1      40.738  32.946  32.668  1.00  0.00     0.074 A 
ATOM     65  C   UNL A   1      39.785  34.033  32.754  1.00  0.00     0.031 C 
ATOM     66  C   UNL A   1      41.901  32.894  33.360  1.00  0.00     0.037 A 
BRANCH  53  67
ATOM     67  C   UNL A   1      45.261  27.803  32.345  1.00  0.00     0.057 A 
ATOM     68  C   UNL A   1      46.468  27.973  31.653  1.00  0.00     0.134 A 
ATOM     69  C   UNL A   1      45.226  26.836  33.357  1.00  0.00     0.134 A 
ATOM     70  F   UNL A   1      46.561  28.872  30.662  1.00  0.00    -0.206 F 
ATOM     71  C   UNL A   1      47.586  27.186  31.932  1.00  0.00     0.040 A 
ATOM     72  C   UNL A   1      46.346  26.061  33.664  1.00  0.00     0.040 A 
ATOM     73  F   UNL A   1      44.104  26.625  34.062  1.00  0.00    -0.206 F 
ATOM     74  C   UNL A   1      47.527  26.228  32.942  1.00  0.00     0.006 A 
ENDBRANCH  53  67
BRANCH  54  75
ATOM     75  C   UNL A   1      36.815  32.655  30.094  1.00  0.00     0.057 A 
ATOM     76  C   UNL A   1      36.745  33.567  29.035  1.00  0.00     0.134 A 
ATOM     77  C   UNL A   1      35.648  32.434  30.834  1.00  0.00     0.134 A 
ATOM     78  F   UNL A   1      37.836  33.830  28.300  1.00  0.00    -0.206 F 
ATOM     79  C   UNL A   1      35.565  34.247  28.730  1.00  0.00     0.040 A 
ATOM     80  C   UNL A   1      34.455  33.093  30.529  1.00  0.00     0.040 A 
ATOM     81  F   UNL A   1      35.647  31.563  31.853  1.00  0.00    -0.206 F 
ATOM     82  C   UNL A   1      34.414  34.007  29.477  1.00  0.00     0.006 A 
ENDBRANCH  54  75
BRANCH  66  83
ATOM     83  C   UNL A   1      42.226  34.064  34.234  1.00  0.00     0.057 A 
ATOM     84  C   UNL A   1      42.824  35.220  33.721  1.00  0.00     0.134 A 
ATOM     85  C   UNL A   1      41.884  34.051  35.592  1.00  0.00     0.134 A 
ATOM     86  F   UNL A   1      43.186  35.283  32.431  1.00  0.00    -0.206 F 
ATOM     87  C   UNL A   1      43.079  36.326  34.533  1.00  0.00     0.040 A 
ATOM     88  C   UNL A   1      42.118  35.157  36.410  1.00  0.00     0.040 A 
ATOM     89  F   UNL A   1      41.306  32.971  36.138  1.00  0.00    -0.206 F 
ATOM     90  C   UNL A   1      42.718  36.298  35.880  1.00  0.00     0.006 A 
ENDBRANCH  66  83
ENDBRANCH  40  41
ENDBRANCH  32  35
ENDBRANCH  30  31
ENDBRANCH   1  30
TORSDOF 13
ENDMDL
MODEL 3
REMARK VINA RESULT:     -13.1      3.229      6.950
REMARK SMILES O=C(NCCCNC(=O)c1ccc(-c2c3nc(c(-c4c(F)cccc4F)c4ccc([nH]4)c(-c4c(F)cccc4F)c4nc(c(-c5c(F)cccc5F)c5ccc2[nH]5)C=C4)C=C3)cc1)C1=Cc2cc(Cl)cc(-c3ccc(O)cc3)c2O[C@@H]1C(F)(F)F
REMARK SMILES IDX 5 1 4 2 3 3 1 4 2 5 64 7 65 8 81 9 66 10 80 11 67 12 79 13
REMARK SMILES IDX 68 14 71 15 69 16 70 17 82 18 83 19 84 20 85 21 72 22 73 23
REMARK SMILES IDX 78 24 74 25 77 26 75 27 76 28 6 30 7 31 8 32 9 34 10 35
REMARK SMILES IDX 11 36 63 37 12 38 62 39 13 40 14 41 15 42 56 43 16 44 61 45
REMARK SMILES IDX 55 46 57 47 17 48 60 49 54 50 53 51 18 53 44 54 27 55 43 56
REMARK SMILES IDX 28 57 31 58 42 59 58 60 29 61 30 62 41 64 59 65 32 66 19 67
REMARK SMILES IDX 20 68 25 69 21 70 22 71 24 72 26 73 23 74 45 75 46 76 51 77
REMARK SMILES IDX 47 78 48 79 50 80 52 81 49 82 33 83 34 84 39 85 35 86 36 87
REMARK SMILES IDX 38 88 40 89 37 90
REMARK H PARENT 3 6 76 29 7 33 57 52 31 63
REMARK Flexibility Score: inf
ROOT
ATOM      1  C   UNL A   1      35.839  21.464  25.850  1.00  0.00     0.042 C 
ENDROOT
BRANCH   1   2
ATOM      2  C   UNL A   1      34.510  21.681  25.124  1.00  0.00     0.118 C 
BRANCH   2   3
ATOM      3  N   UNL A   1      34.669  22.425  23.870  1.00  0.00    -0.352 N 
ATOM      4  O   UNL A   1      34.639  24.249  22.517  1.00  0.00    -0.270 OA
ATOM      5  C   UNL A   1      34.282  23.701  23.550  1.00  0.00     0.251 C 
ATOM      6  H   UNL A   1      35.123  21.934  23.148  1.00  0.00     0.163 HD
BRANCH   5   7
ATOM      7  C   UNL A   1      33.457  24.402  24.542  1.00  0.00     0.067 C 
ATOM      8  C   UNL A   1      34.071  25.252  25.371  1.00  0.00     0.025 C 
ATOM      9  C   UNL A   1      31.976  24.388  24.346  1.00  0.00     0.314 C 
ATOM     10  C   UNL A   1      33.301  26.458  25.687  1.00  0.00     0.019 A 
ATOM     11  O   UNL A   1      31.453  25.736  24.257  1.00  0.00    -0.475 OA
ATOM     12  C   UNL A   1      33.940  27.484  26.385  1.00  0.00     0.032 A 
ATOM     13  C   UNL A   1      32.114  26.714  24.968  1.00  0.00     0.135 A 
ATOM     14  C   UNL A   1      33.450  28.781  26.290  1.00  0.00     0.042 A 
ATOM     15  C   UNL A   1      31.655  28.034  24.817  1.00  0.00     0.026 A 
ATOM     16  Cl  UNL A   1      34.318  30.068  27.032  1.00  0.00    -0.084 Cl
ATOM     17  C   UNL A   1      32.338  29.061  25.496  1.00  0.00     0.033 A 
BRANCH   9  18
ATOM     18  C   UNL A   1      31.262  23.551  25.422  1.00  0.00     0.429 C 
ATOM     19  F   UNL A   1      32.004  23.468  26.552  1.00  0.00    -0.167 F 
ATOM     20  F   UNL A   1      30.076  24.099  25.776  1.00  0.00    -0.167 F 
ATOM     21  F   UNL A   1      31.011  22.284  25.014  1.00  0.00    -0.167 F 
ENDBRANCH   9  18
BRANCH  15  22
ATOM     22  C   UNL A   1      30.627  28.402  23.831  1.00  0.00    -0.014 A 
ATOM     23  C   UNL A   1      30.928  29.343  22.829  1.00  0.00     0.012 A 
ATOM     24  C   UNL A   1      29.324  27.898  23.893  1.00  0.00     0.012 A 
ATOM     25  C   UNL A   1      29.951  29.818  21.958  1.00  0.00     0.047 A 
ATOM     26  C   UNL A   1      28.339  28.365  23.012  1.00  0.00     0.047 A 
ATOM     27  C   UNL A   1      28.658  29.338  22.068  1.00  0.00     0.115 A 
BRANCH  27  28
ATOM     28  O   UNL A   1      27.719  29.862  21.233  1.00  0.00    -0.508 OA
ATOM     29  H   UNL A   1      27.765  29.696  20.312  1.00  0.00     0.293 HD
ENDBRANCH  27  28
ENDBRANCH  15  22
ENDBRANCH   5   7
ENDBRANCH   2   3
ENDBRANCH   1   2
BRANCH   1  30
ATOM     30  C   UNL A   1      37.050  21.856  25.007  1.00  0.00     0.118 C 
BRANCH  30  31
ATOM     31  N   UNL A   1      38.183  20.947  25.088  1.00  0.00    -0.352 N 
ATOM     32  C   UNL A   1      39.313  21.039  25.880  1.00  0.00     0.251 C 
ATOM     33  H   UNL A   1      38.141  20.160  24.497  1.00  0.00     0.163 HD
ATOM     34  O   UNL A   1      40.192  20.184  25.801  1.00  0.00    -0.269 OA
BRANCH  32  35
ATOM     35  C   UNL A   1      39.530  22.238  26.722  1.00  0.00     0.039 A 
ATOM     36  C   UNL A   1      40.470  22.152  27.755  1.00  0.00     0.014 A 
ATOM     37  C   UNL A   1      38.953  23.466  26.409  1.00  0.00     0.014 A 
ATOM     38  C   UNL A   1      40.973  23.320  28.330  1.00  0.00     0.010 A 
ATOM     39  C   UNL A   1      39.529  24.631  26.901  1.00  0.00     0.010 A 
ATOM     40  C   UNL A   1      40.587  24.566  27.819  1.00  0.00    -0.014 A 
BRANCH  40  41
ATOM     41  C   UNL A   1      41.345  25.808  28.123  1.00  0.00     0.031 A 
ATOM     42  C   UNL A   1      40.681  26.936  28.854  1.00  0.00     0.074 A 
ATOM     43  C   UNL A   1      42.575  25.969  27.594  1.00  0.00     0.049 A 
ATOM     44  N   UNL A   1      41.085  28.170  29.011  1.00  0.00    -0.248 NA
ATOM     45  C   UNL A   1      39.363  26.651  29.441  1.00  0.00     0.031 C 
ATOM     46  C   UNL A   1      43.300  24.972  26.798  1.00  0.00     0.029 A 
ATOM     47  N   UNL A   1      43.429  27.045  27.623  1.00  0.00    -0.354 N 
ATOM     48  C   UNL A   1      40.051  28.821  29.670  1.00  0.00     0.074 A 
ATOM     49  C   UNL A   1      38.990  27.853  29.854  1.00  0.00     0.031 C 
ATOM     50  C   UNL A   1      44.496  25.470  26.445  1.00  0.00     0.029 A 
ATOM     51  C   UNL A   1      44.604  26.835  26.940  1.00  0.00     0.049 A 
ATOM     52  H   UNL A   1      43.219  27.886  28.089  1.00  0.00     0.167 HD
ATOM     53  C   UNL A   1      39.998  30.106  30.092  1.00  0.00     0.037 A 
ATOM     54  C   UNL A   1      45.647  27.658  26.725  1.00  0.00     0.037 A 
ATOM     55  C   UNL A   1      41.079  31.044  29.954  1.00  0.00     0.049 A 
ATOM     56  C   UNL A   1      45.596  29.054  27.271  1.00  0.00     0.074 A 
ATOM     57  C   UNL A   1      41.154  32.351  30.404  1.00  0.00     0.029 A 
ATOM     58  N   UNL A   1      42.288  30.763  29.333  1.00  0.00    -0.354 N 
ATOM     59  N   UNL A   1      44.625  29.647  27.924  1.00  0.00    -0.248 NA
ATOM     60  C   UNL A   1      46.780  29.897  27.053  1.00  0.00     0.031 C 
ATOM     61  C   UNL A   1      42.406  32.865  30.043  1.00  0.00     0.029 A 
ATOM     62  C   UNL A   1      43.117  31.870  29.392  1.00  0.00     0.049 A 
ATOM     63  H   UNL A   1      42.521  29.905  28.913  1.00  0.00     0.167 HD
ATOM     64  C   UNL A   1      45.087  30.923  28.214  1.00  0.00     0.074 A 
ATOM     65  C   UNL A   1      46.428  31.016  27.674  1.00  0.00     0.031 C 
ATOM     66  C   UNL A   1      44.457  31.927  28.866  1.00  0.00     0.037 A 
BRANCH  53  67
ATOM     67  C   UNL A   1      38.726  30.560  30.745  1.00  0.00     0.057 A 
ATOM     68  C   UNL A   1      37.686  31.143  30.009  1.00  0.00     0.134 A 
ATOM     69  C   UNL A   1      38.540  30.417  32.126  1.00  0.00     0.134 A 
ATOM     70  F   UNL A   1      37.809  31.322  28.685  1.00  0.00    -0.206 F 
ATOM     71  C   UNL A   1      36.523  31.602  30.627  1.00  0.00     0.040 A 
ATOM     72  C   UNL A   1      37.370  30.848  32.752  1.00  0.00     0.040 A 
ATOM     73  F   UNL A   1      39.494  29.862  32.889  1.00  0.00    -0.206 F 
ATOM     74  C   UNL A   1      36.361  31.452  32.003  1.00  0.00     0.006 A 
ENDBRANCH  53  67
BRANCH  54  75
ATOM     75  C   UNL A   1      46.841  27.170  25.991  1.00  0.00     0.057 A 
ATOM     76  C   UNL A   1      47.854  26.472  26.660  1.00  0.00     0.134 A 
ATOM     77  C   UNL A   1      46.997  27.373  24.615  1.00  0.00     0.134 A 
ATOM     78  F   UNL A   1      47.765  26.260  27.982  1.00  0.00    -0.206 F 
ATOM     79  C   UNL A   1      48.987  26.006  25.992  1.00  0.00     0.040 A 
ATOM     80  C   UNL A   1      48.117  26.896  23.930  1.00  0.00     0.040 A 
ATOM     81  F   UNL A   1      46.056  28.022  23.916  1.00  0.00    -0.206 F 
ATOM     82  C   UNL A   1      49.118  26.215  24.621  1.00  0.00     0.006 A 
ENDBRANCH  54  75
BRANCH  66  83
ATOM     83  C   UNL A   1      45.225  33.195  29.070  1.00  0.00     0.057 A 
ATOM     84  C   UNL A   1      46.061  33.377  30.177  1.00  0.00     0.134 A 
ATOM     85  C   UNL A   1      45.166  34.220  28.118  1.00  0.00     0.134 A 
ATOM     86  F   UNL A   1      46.145  32.436  31.128  1.00  0.00    -0.206 F 
ATOM     87  C   UNL A   1      46.812  34.543  30.334  1.00  0.00     0.040 A 
ATOM     88  C   UNL A   1      45.925  35.383  28.255  1.00  0.00     0.040 A 
ATOM     89  F   UNL A   1      44.383  34.099  27.035  1.00  0.00    -0.206 F 
ATOM     90  C   UNL A   1      46.750  35.546  29.366  1.00  0.00     0.006 A 
ENDBRANCH  66  83
ENDBRANCH  40  41
ENDBRANCH  32  35
ENDBRANCH  30  31
ENDBRANCH   1  30
TORSDOF 13
ENDMDL
