MODEL 1
REMARK VINA RESULT:     -12.6      0.000      0.000
REMARK SMILES Cc1nc(-c2cccc(N3C[C@H](C(=O)NCCCNC(=O)c4ccc(-c5c6nc(c(-c7c(F)cccc7F)c7ccc([nH]7)c(-c7c(F)cccc7F)c7nc(c(-c8c(F)cccc8F)c8ccc5[nH]8)C=C7)C=C6)cc4)CC3=O)c2)no1
REMARK SMILES IDX 17 1 16 2 15 3 13 4 14 5 12 7 10 8 11 9 77 10 76 11 78 12
REMARK SMILES IDX 9 13 5 14 6 15 79 16 7 17 8 18 4 19 1 20 2 21 3 22 81 23
REMARK SMILES IDX 80 24 18 25 19 26 20 27 21 29 22 30 23 31 75 32 24 33 74 34
REMARK SMILES IDX 25 35 26 36 27 37 68 38 28 39 73 40 67 41 69 42 29 43 72 44
REMARK SMILES IDX 66 45 65 46 30 48 56 49 39 50 55 51 40 52 43 53 54 54 70 55
REMARK SMILES IDX 41 56 42 57 53 59 71 60 44 61 31 62 32 63 37 64 33 65 34 66
REMARK SMILES IDX 36 67 38 68 35 69 57 70 58 71 63 72 59 73 60 74 62 75 64 76
REMARK SMILES IDX 61 77 45 78 46 79 51 80 47 81 48 82 50 83 52 84 49 85
REMARK H PARENT 15 6 19 28 69 47 43 58
REMARK Flexibility Score: inf
ROOT
ATOM      1  C   UNL A   1      37.430  19.713  24.980  1.00  0.00     0.042 C 
ENDROOT
BRANCH   1   2
ATOM      2  C   UNL A   1      36.209  20.626  25.060  1.00  0.00     0.117 C 
BRANCH   2   3
ATOM      3  N   UNL A   1      36.564  21.941  25.568  1.00  0.00    -0.356 N 
ATOM      4  C   UNL A   1      35.904  23.129  25.444  1.00  0.00     0.225 C 
ATOM      5  O   UNL A   1      36.462  24.151  25.832  1.00  0.00    -0.275 OA
ATOM      6  H   UNL A   1      37.405  21.980  26.077  1.00  0.00     0.163 HD
BRANCH   4   7
ATOM      7  C   UNL A   1      34.484  23.116  24.917  1.00  0.00     0.107 C 
ATOM      8  N   UNL A   1      33.716  25.291  24.485  1.00  0.00    -0.312 N 
ATOM      9  C   UNL A   1      33.746  24.297  25.524  1.00  0.00     0.139 C 
ATOM     10  C   UNL A   1      34.028  24.766  23.233  1.00  0.00     0.227 C 
ATOM     11  C   UNL A   1      34.400  23.319  23.408  1.00  0.00     0.116 C 
ATOM     12  O   UNL A   1      34.003  25.331  22.149  1.00  0.00    -0.274 OA
BRANCH   8  13
ATOM     13  C   UNL A   1      33.269  26.608  24.706  1.00  0.00     0.044 A 
ATOM     14  C   UNL A   1      31.796  28.453  24.121  1.00  0.00     0.025 A 
ATOM     15  C   UNL A   1      32.425  29.254  25.082  1.00  0.00     0.012 A 
ATOM     16  C   UNL A   1      32.242  27.140  23.921  1.00  0.00     0.038 A 
ATOM     17  C   UNL A   1      33.450  28.727  25.869  1.00  0.00     0.003 A 
ATOM     18  C   UNL A   1      33.852  27.401  25.700  1.00  0.00     0.026 A 
BRANCH  14  19
ATOM     19  C   UNL A   1      30.659  28.946  23.368  1.00  0.00     0.202 A 
ATOM     20  C   UNL A   1      27.965  31.165  22.697  1.00  0.00     0.114 C 
ATOM     21  C   UNL A   1      29.032  30.163  22.850  1.00  0.00     0.223 A 
ATOM     22  N   UNL A   1      29.884  29.988  23.832  1.00  0.00    -0.191 NA
ATOM     23  O   UNL A   1      29.205  29.286  21.820  1.00  0.00    -0.339 OA
ATOM     24  N   UNL A   1      30.301  28.490  22.157  1.00  0.00    -0.057 NA
ENDBRANCH  14  19
ENDBRANCH   8  13
ENDBRANCH   4   7
ENDBRANCH   2   3
ENDBRANCH   1   2
BRANCH   1  25
ATOM     25  C   UNL A   1      38.709  20.348  25.525  1.00  0.00     0.118 C 
BRANCH  25  26
ATOM     26  N   UNL A   1      39.796  19.389  25.658  1.00  0.00    -0.352 N 
ATOM     27  C   UNL A   1      41.100  19.570  26.044  1.00  0.00     0.251 C 
ATOM     28  H   UNL A   1      39.557  18.459  25.434  1.00  0.00     0.163 HD
ATOM     29  O   UNL A   1      41.901  18.649  25.907  1.00  0.00    -0.269 OA
BRANCH  27  30
ATOM     30  C   UNL A   1      41.553  20.861  26.605  1.00  0.00     0.039 A 
ATOM     31  C   UNL A   1      42.077  21.822  25.735  1.00  0.00     0.014 A 
ATOM     32  C   UNL A   1      41.504  21.117  27.977  1.00  0.00     0.014 A 
ATOM     33  C   UNL A   1      42.493  23.058  26.233  1.00  0.00     0.010 A 
ATOM     34  C   UNL A   1      41.844  22.378  28.463  1.00  0.00     0.010 A 
ATOM     35  C   UNL A   1      42.348  23.360  27.597  1.00  0.00    -0.014 A 
BRANCH  35  36
ATOM     36  C   UNL A   1      42.717  24.697  28.129  1.00  0.00     0.031 A 
ATOM     37  C   UNL A   1      41.666  25.754  28.335  1.00  0.00     0.074 A 
ATOM     38  C   UNL A   1      44.012  24.979  28.377  1.00  0.00     0.049 A 
ATOM     39  N   UNL A   1      41.805  26.989  28.747  1.00  0.00    -0.248 NA
ATOM     40  C   UNL A   1      40.279  25.381  28.014  1.00  0.00     0.031 C 
ATOM     41  C   UNL A   1      45.132  24.057  28.179  1.00  0.00     0.029 A 
ATOM     42  N   UNL A   1      44.605  26.124  28.845  1.00  0.00    -0.354 N 
ATOM     43  C   UNL A   1      40.531  27.543  28.718  1.00  0.00     0.074 A 
ATOM     44  C   UNL A   1      39.641  26.528  28.199  1.00  0.00     0.031 C 
ATOM     45  C   UNL A   1      46.271  24.662  28.551  1.00  0.00     0.029 A 
ATOM     46  C   UNL A   1      45.970  26.026  28.972  1.00  0.00     0.049 A 
ATOM     47  H   UNL A   1      44.100  26.940  29.070  1.00  0.00     0.167 HD
ATOM     48  C   UNL A   1      40.134  28.778  29.111  1.00  0.00     0.037 A 
ATOM     49  C   UNL A   1      46.877  26.935  29.376  1.00  0.00     0.037 A 
ATOM     50  C   UNL A   1      41.019  29.780  29.645  1.00  0.00     0.049 A 
ATOM     51  C   UNL A   1      46.414  28.305  29.787  1.00  0.00     0.074 A 
ATOM     52  C   UNL A   1      40.704  31.039  30.128  1.00  0.00     0.029 A 
ATOM     53  N   UNL A   1      42.394  29.642  29.759  1.00  0.00    -0.354 N 
ATOM     54  N   UNL A   1      45.195  28.789  29.827  1.00  0.00    -0.248 NA
ATOM     55  C   UNL A   1      47.451  29.253  30.217  1.00  0.00     0.031 C 
ATOM     56  C   UNL A   1      41.894  31.683  30.481  1.00  0.00     0.029 A 
ATOM     57  C   UNL A   1      42.945  30.803  30.278  1.00  0.00     0.049 A 
ATOM     58  H   UNL A   1      42.904  28.837  29.509  1.00  0.00     0.167 HD
ATOM     59  C   UNL A   1      45.317  30.084  30.316  1.00  0.00     0.074 A 
ATOM     60  C   UNL A   1      46.725  30.303  30.573  1.00  0.00     0.031 C 
ATOM     61  C   UNL A   1      44.348  31.007  30.536  1.00  0.00     0.037 A 
BRANCH  48  62
ATOM     62  C   UNL A   1      38.677  29.115  28.971  1.00  0.00     0.057 A 
ATOM     63  C   UNL A   1      37.788  29.032  30.051  1.00  0.00     0.134 A 
ATOM     64  C   UNL A   1      38.161  29.560  27.746  1.00  0.00     0.134 A 
ATOM     65  F   UNL A   1      38.212  28.603  31.249  1.00  0.00    -0.206 F 
ATOM     66  C   UNL A   1      36.435  29.349  29.912  1.00  0.00     0.040 A 
ATOM     67  C   UNL A   1      36.817  29.910  27.603  1.00  0.00     0.040 A 
ATOM     68  F   UNL A   1      38.956  29.672  26.672  1.00  0.00    -0.206 F 
ATOM     69  C   UNL A   1      35.948  29.797  28.686  1.00  0.00     0.006 A 
ENDBRANCH  48  62
BRANCH  49  70
ATOM     70  C   UNL A   1      48.317  26.575  29.436  1.00  0.00     0.057 A 
ATOM     71  C   UNL A   1      49.173  26.849  28.362  1.00  0.00     0.134 A 
ATOM     72  C   UNL A   1      48.870  25.940  30.554  1.00  0.00     0.134 A 
ATOM     73  F   UNL A   1      48.700  27.440  27.255  1.00  0.00    -0.206 F 
ATOM     74  C   UNL A   1      50.519  26.482  28.387  1.00  0.00     0.040 A 
ATOM     75  C   UNL A   1      50.221  25.592  30.604  1.00  0.00     0.040 A 
ATOM     76  F   UNL A   1      48.106  25.658  31.620  1.00  0.00    -0.206 F 
ATOM     77  C   UNL A   1      51.048  25.855  29.514  1.00  0.00     0.006 A 
ENDBRANCH  49  70
BRANCH  61  78
ATOM     78  C   UNL A   1      44.772  32.323  31.123  1.00  0.00     0.057 A 
ATOM     79  C   UNL A   1      44.855  32.530  32.506  1.00  0.00     0.134 A 
ATOM     80  C   UNL A   1      45.132  33.390  30.288  1.00  0.00     0.134 A 
ATOM     81  F   UNL A   1      44.512  31.556  33.361  1.00  0.00    -0.206 F 
ATOM     82  C   UNL A   1      45.252  33.759  33.037  1.00  0.00     0.040 A 
ATOM     83  C   UNL A   1      45.561  34.611  30.807  1.00  0.00     0.040 A 
ATOM     84  F   UNL A   1      45.085  33.256  28.954  1.00  0.00    -0.206 F 
ATOM     85  C   UNL A   1      45.614  34.801  32.187  1.00  0.00     0.006 A 
ENDBRANCH  61  78
ENDBRANCH  35  36
ENDBRANCH  27  30
ENDBRANCH  25  26
ENDBRANCH   1  25
TORSDOF 12
ENDMDL
MODEL 2
REMARK VINA RESULT:     -12.5      2.333      8.045
REMARK SMILES Cc1nc(-c2cccc(N3C[C@H](C(=O)NCCCNC(=O)c4ccc(-c5c6nc(c(-c7c(F)cccc7F)c7ccc([nH]7)c(-c7c(F)cccc7F)c7nc(c(-c8c(F)cccc8F)c8ccc5[nH]8)C=C7)C=C6)cc4)CC3=O)c2)no1
REMARK SMILES IDX 17 1 16 2 15 3 13 4 14 5 12 7 10 8 11 9 77 10 76 11 78 12
REMARK SMILES IDX 9 13 5 14 6 15 79 16 7 17 8 18 4 19 1 20 2 21 3 22 81 23
REMARK SMILES IDX 80 24 18 25 19 26 20 27 21 29 22 30 23 31 75 32 24 33 74 34
REMARK SMILES IDX 25 35 26 36 27 37 68 38 28 39 73 40 67 41 69 42 29 43 72 44
REMARK SMILES IDX 66 45 65 46 30 48 56 49 39 50 55 51 40 52 43 53 54 54 70 55
REMARK SMILES IDX 41 56 42 57 53 59 71 60 44 61 31 62 32 63 37 64 33 65 34 66
REMARK SMILES IDX 36 67 38 68 35 69 57 70 58 71 63 72 59 73 60 74 62 75 64 76
REMARK SMILES IDX 61 77 45 78 46 79 51 80 47 81 48 82 50 83 52 84 49 85
REMARK H PARENT 15 6 19 28 69 47 43 58
REMARK Flexibility Score: inf
ROOT
ATOM      1  C   UNL A   1      32.316  28.148  27.085  1.00  0.00     0.042 C 
ENDROOT
BRANCH   1   2
ATOM      2  C   UNL A   1      31.833  28.212  25.638  1.00  0.00     0.117 C 
BRANCH   2   3
ATOM      3  N   UNL A   1      31.148  26.988  25.255  1.00  0.00    -0.356 N 
ATOM      4  C   UNL A   1      31.470  26.077  24.291  1.00  0.00     0.225 C 
ATOM      5  O   UNL A   1      30.667  25.184  24.039  1.00  0.00    -0.275 OA
ATOM      6  H   UNL A   1      30.332  26.787  25.766  1.00  0.00     0.163 HD
BRANCH   4   7
ATOM      7  C   UNL A   1      32.838  26.160  23.645  1.00  0.00     0.107 C 
ATOM      8  N   UNL A   1      33.872  24.054  23.568  1.00  0.00    -0.312 N 
ATOM      9  C   UNL A   1      33.770  25.226  24.398  1.00  0.00     0.139 C 
ATOM     10  C   UNL A   1      33.410  24.274  22.273  1.00  0.00     0.227 C 
ATOM     11  C   UNL A   1      32.853  25.670  22.201  1.00  0.00     0.116 C 
ATOM     12  O   UNL A   1      33.444  23.510  21.319  1.00  0.00    -0.274 OA
BRANCH   8  13
ATOM     13  C   UNL A   1      34.511  22.875  23.995  1.00  0.00     0.044 A 
ATOM     14  C   UNL A   1      34.381  20.547  24.688  1.00  0.00     0.025 A 
ATOM     15  C   UNL A   1      35.761  20.544  24.923  1.00  0.00     0.012 A 
ATOM     16  C   UNL A   1      33.760  21.724  24.250  1.00  0.00     0.038 A 
ATOM     17  C   UNL A   1      36.516  21.690  24.670  1.00  0.00     0.003 A 
ATOM     18  C   UNL A   1      35.897  22.843  24.182  1.00  0.00     0.026 A 
BRANCH  14  19
ATOM     19  C   UNL A   1      33.596  19.337  24.842  1.00  0.00     0.202 A 
ATOM     20  C   UNL A   1      33.088  15.820  24.901  1.00  0.00     0.114 C 
ATOM     21  C   UNL A   1      33.143  17.291  24.902  1.00  0.00     0.223 A 
ATOM     22  N   UNL A   1      34.130  18.093  24.579  1.00  0.00    -0.191 NA
ATOM     23  O   UNL A   1      32.025  17.949  25.320  1.00  0.00    -0.339 OA
ATOM     24  N   UNL A   1      32.335  19.310  25.300  1.00  0.00    -0.057 NA
ENDBRANCH  14  19
ENDBRANCH   8  13
ENDBRANCH   4   7
ENDBRANCH   2   3
ENDBRANCH   1   2
BRANCH   1  25
ATOM     25  C   UNL A   1      33.722  28.708  27.290  1.00  0.00     0.118 C 
BRANCH  25  26
ATOM     26  N   UNL A   1      33.712  30.086  27.762  1.00  0.00    -0.352 N 
ATOM     27  C   UNL A   1      34.672  30.804  28.429  1.00  0.00     0.251 C 
ATOM     28  H   UNL A   1      32.882  30.581  27.573  1.00  0.00     0.163 HD
ATOM     29  O   UNL A   1      34.383  31.901  28.899  1.00  0.00    -0.269 OA
BRANCH  27  30
ATOM     30  C   UNL A   1      36.039  30.269  28.600  1.00  0.00     0.039 A 
ATOM     31  C   UNL A   1      36.934  30.360  27.530  1.00  0.00     0.014 A 
ATOM     32  C   UNL A   1      36.434  29.645  29.786  1.00  0.00     0.014 A 
ATOM     33  C   UNL A   1      38.238  29.882  27.669  1.00  0.00     0.010 A 
ATOM     34  C   UNL A   1      37.757  29.240  29.953  1.00  0.00     0.010 A 
ATOM     35  C   UNL A   1      38.672  29.350  28.894  1.00  0.00    -0.014 A 
BRANCH  35  36
ATOM     36  C   UNL A   1      40.077  28.905  29.081  1.00  0.00     0.031 A 
ATOM     37  C   UNL A   1      41.100  29.837  29.672  1.00  0.00     0.074 A 
ATOM     38  C   UNL A   1      40.446  27.676  28.667  1.00  0.00     0.049 A 
ATOM     39  N   UNL A   1      42.380  29.642  29.870  1.00  0.00    -0.248 NA
ATOM     40  C   UNL A   1      40.629  31.172  30.072  1.00  0.00     0.031 C 
ATOM     41  C   UNL A   1      39.561  26.694  28.040  1.00  0.00     0.029 A 
ATOM     42  N   UNL A   1      41.664  27.046  28.708  1.00  0.00    -0.354 N 
ATOM     43  C   UNL A   1      42.867  30.830  30.400  1.00  0.00     0.074 A 
ATOM     44  C   UNL A   1      41.758  31.758  30.443  1.00  0.00     0.031 C 
ATOM     45  C   UNL A   1      40.257  25.575  27.782  1.00  0.00     0.029 A 
ATOM     46  C   UNL A   1      41.645  25.776  28.185  1.00  0.00     0.049 A 
ATOM     47  H   UNL A   1      42.476  27.465  29.078  1.00  0.00     0.167 HD
ATOM     48  C   UNL A   1      44.119  31.116  30.833  1.00  0.00     0.037 A 
ATOM     49  C   UNL A   1      42.636  24.875  28.041  1.00  0.00     0.037 A 
ATOM     50  C   UNL A   1      45.216  30.184  30.806  1.00  0.00     0.049 A 
ATOM     51  C   UNL A   1      44.021  25.224  28.511  1.00  0.00     0.074 A 
ATOM     52  C   UNL A   1      46.506  30.359  31.278  1.00  0.00     0.029 A 
ATOM     53  N   UNL A   1      45.157  28.907  30.271  1.00  0.00    -0.354 N 
ATOM     54  N   UNL A   1      44.449  26.326  29.080  1.00  0.00    -0.248 NA
ATOM     55  C   UNL A   1      45.059  24.202  28.325  1.00  0.00     0.031 C 
ATOM     56  C   UNL A   1      47.241  29.207  30.977  1.00  0.00     0.029 A 
ATOM     57  C   UNL A   1      46.394  28.291  30.374  1.00  0.00     0.049 A 
ATOM     58  H   UNL A   1      44.353  28.497  29.876  1.00  0.00     0.167 HD
ATOM     59  C   UNL A   1      45.796  26.115  29.350  1.00  0.00     0.074 A 
ATOM     60  C   UNL A   1      46.108  24.776  28.895  1.00  0.00     0.031 C 
ATOM     61  C   UNL A   1      46.692  26.955  29.925  1.00  0.00     0.037 A 
BRANCH  48  62
ATOM     62  C   UNL A   1      44.368  32.497  31.369  1.00  0.00     0.057 A 
ATOM     63  C   UNL A   1      44.773  33.553  30.541  1.00  0.00     0.134 A 
ATOM     64  C   UNL A   1      44.168  32.784  32.726  1.00  0.00     0.134 A 
ATOM     65  F   UNL A   1      44.994  33.346  29.234  1.00  0.00    -0.206 F 
ATOM     66  C   UNL A   1      45.002  34.834  31.048  1.00  0.00     0.040 A 
ATOM     67  C   UNL A   1      44.363  34.068  33.238  1.00  0.00     0.040 A 
ATOM     68  F   UNL A   1      43.772  31.824  33.574  1.00  0.00    -0.206 F 
ATOM     69  C   UNL A   1      44.788  35.096  32.399  1.00  0.00     0.006 A 
ENDBRANCH  48  62
BRANCH  49  70
ATOM     70  C   UNL A   1      42.353  23.545  27.444  1.00  0.00     0.057 A 
ATOM     71  C   UNL A   1      42.052  22.442  28.253  1.00  0.00     0.134 A 
ATOM     72  C   UNL A   1      42.391  23.337  26.061  1.00  0.00     0.134 A 
ATOM     73  F   UNL A   1      42.018  22.573  29.587  1.00  0.00    -0.206 F 
ATOM     74  C   UNL A   1      41.823  21.177  27.710  1.00  0.00     0.040 A 
ATOM     75  C   UNL A   1      42.137  22.084  25.502  1.00  0.00     0.040 A 
ATOM     76  F   UNL A   1      42.665  24.354  25.229  1.00  0.00    -0.206 F 
ATOM     77  C   UNL A   1      41.861  20.997  26.328  1.00  0.00     0.006 A 
ENDBRANCH  49  70
BRANCH  61  78
ATOM     78  C   UNL A   1      48.085  26.435  30.136  1.00  0.00     0.057 A 
ATOM     79  C   UNL A   1      48.471  25.799  31.323  1.00  0.00     0.134 A 
ATOM     80  C   UNL A   1      49.046  26.547  29.122  1.00  0.00     0.134 A 
ATOM     81  F   UNL A   1      47.605  25.671  32.339  1.00  0.00    -0.206 F 
ATOM     82  C   UNL A   1      49.770  25.319  31.504  1.00  0.00     0.040 A 
ATOM     83  C   UNL A   1      50.337  26.044  29.280  1.00  0.00     0.040 A 
ATOM     84  F   UNL A   1      48.740  27.137  27.957  1.00  0.00    -0.206 F 
ATOM     85  C   UNL A   1      50.705  25.435  30.478  1.00  0.00     0.006 A 
ENDBRANCH  61  78
ENDBRANCH  35  36
ENDBRANCH  27  30
ENDBRANCH  25  26
ENDBRANCH   1  25
TORSDOF 12
ENDMDL
MODEL 3
REMARK VINA RESULT:     -12.5      3.365      9.069
REMARK SMILES Cc1nc(-c2cccc(N3C[C@H](C(=O)NCCCNC(=O)c4ccc(-c5c6nc(c(-c7c(F)cccc7F)c7ccc([nH]7)c(-c7c(F)cccc7F)c7nc(c(-c8c(F)cccc8F)c8ccc5[nH]8)C=C7)C=C6)cc4)CC3=O)c2)no1
REMARK SMILES IDX 17 1 16 2 15 3 13 4 14 5 12 7 10 8 11 9 77 10 76 11 78 12
REMARK SMILES IDX 9 13 5 14 6 15 79 16 7 17 8 18 4 19 1 20 2 21 3 22 81 23
REMARK SMILES IDX 80 24 18 25 19 26 20 27 21 29 22 30 23 31 75 32 24 33 74 34
REMARK SMILES IDX 25 35 26 36 27 37 68 38 28 39 73 40 67 41 69 42 29 43 72 44
REMARK SMILES IDX 66 45 65 46 30 48 56 49 39 50 55 51 40 52 43 53 54 54 70 55
REMARK SMILES IDX 41 56 42 57 53 59 71 60 44 61 31 62 32 63 37 64 33 65 34 66
REMARK SMILES IDX 36 67 38 68 35 69 57 70 58 71 63 72 59 73 60 74 62 75 64 76
REMARK SMILES IDX 61 77 45 78 46 79 51 80 47 81 48 82 50 83 52 84 49 85
REMARK H PARENT 15 6 19 28 69 47 43 58
REMARK Flexibility Score: inf
ROOT
ATOM      1  C   UNL A   1      31.229  31.346  26.146  1.00  0.00     0.042 C 
ENDROOT
BRANCH   1   2
ATOM      2  C   UNL A   1      31.508  30.029  25.426  1.00  0.00     0.117 C 
BRANCH   2   3
ATOM      3  N   UNL A   1      32.756  29.435  25.876  1.00  0.00    -0.356 N 
ATOM      4  C   UNL A   1      33.127  28.122  25.922  1.00  0.00     0.225 C 
ATOM      5  O   UNL A   1      34.183  27.833  26.477  1.00  0.00    -0.275 OA
ATOM      6  H   UNL A   1      33.434  30.074  26.193  1.00  0.00     0.163 HD
BRANCH   4   7
ATOM      7  C   UNL A   1      32.264  27.101  25.211  1.00  0.00     0.107 C 
ATOM      8  N   UNL A   1      33.016  24.916  25.624  1.00  0.00    -0.312 N 
ATOM      9  C   UNL A   1      33.172  26.000  24.690  1.00  0.00     0.139 C 
ATOM     10  C   UNL A   1      31.899  25.071  26.442  1.00  0.00     0.227 C 
ATOM     11  C   UNL A   1      31.271  26.404  26.134  1.00  0.00     0.116 C 
ATOM     12  O   UNL A   1      31.452  24.288  27.267  1.00  0.00    -0.274 OA
BRANCH   8  13
ATOM     13  C   UNL A   1      33.825  23.764  25.593  1.00  0.00     0.044 A 
ATOM     14  C   UNL A   1      34.045  21.358  25.314  1.00  0.00     0.025 A 
ATOM     15  C   UNL A   1      35.410  21.453  25.608  1.00  0.00     0.012 A 
ATOM     16  C   UNL A   1      33.254  22.514  25.335  1.00  0.00     0.038 A 
ATOM     17  C   UNL A   1      35.985  22.698  25.866  1.00  0.00     0.003 A 
ATOM     18  C   UNL A   1      35.200  23.853  25.832  1.00  0.00     0.026 A 
BRANCH  14  19
ATOM     19  C   UNL A   1      33.449  20.089  24.939  1.00  0.00     0.202 A 
ATOM     20  C   UNL A   1      33.510  16.704  23.860  1.00  0.00     0.114 C 
ATOM     21  C   UNL A   1      33.327  18.096  24.302  1.00  0.00     0.223 A 
ATOM     22  N   UNL A   1      34.213  19.053  24.443  1.00  0.00    -0.191 NA
ATOM     23  O   UNL A   1      32.064  18.472  24.648  1.00  0.00    -0.339 OA
ATOM     24  N   UNL A   1      32.149  19.792  25.092  1.00  0.00    -0.057 NA
ENDBRANCH  14  19
ENDBRANCH   8  13
ENDBRANCH   4   7
ENDBRANCH   2   3
ENDBRANCH   1   2
BRANCH   1  25
ATOM     25  C   UNL A   1      32.431  31.894  26.914  1.00  0.00     0.118 C 
BRANCH  25  26
ATOM     26  N   UNL A   1      32.243  33.274  27.336  1.00  0.00    -0.352 N 
ATOM     27  C   UNL A   1      32.990  34.056  28.181  1.00  0.00     0.251 C 
ATOM     28  H   UNL A   1      31.451  33.719  26.954  1.00  0.00     0.163 HD
ATOM     29  O   UNL A   1      32.545  35.141  28.547  1.00  0.00    -0.269 OA
BRANCH  27  30
ATOM     30  C   UNL A   1      34.310  33.602  28.666  1.00  0.00     0.039 A 
ATOM     31  C   UNL A   1      34.368  32.836  29.835  1.00  0.00     0.014 A 
ATOM     32  C   UNL A   1      35.490  33.954  28.007  1.00  0.00     0.014 A 
ATOM     33  C   UNL A   1      35.599  32.375  30.306  1.00  0.00     0.010 A 
ATOM     34  C   UNL A   1      36.709  33.428  28.431  1.00  0.00     0.010 A 
ATOM     35  C   UNL A   1      36.777  32.638  29.589  1.00  0.00    -0.014 A 
BRANCH  35  36
ATOM     36  C   UNL A   1      38.084  32.092  30.037  1.00  0.00     0.031 A 
ATOM     37  C   UNL A   1      38.583  30.774  29.508  1.00  0.00     0.074 A 
ATOM     38  C   UNL A   1      38.800  32.759  30.964  1.00  0.00     0.049 A 
ATOM     39  N   UNL A   1      39.674  30.120  29.816  1.00  0.00    -0.248 NA
ATOM     40  C   UNL A   1      37.731  30.091  28.522  1.00  0.00     0.031 C 
ATOM     41  C   UNL A   1      38.407  34.024  31.587  1.00  0.00     0.029 A 
ATOM     42  N   UNL A   1      40.006  32.463  31.548  1.00  0.00    -0.354 N 
ATOM     43  C   UNL A   1      39.632  28.944  29.076  1.00  0.00     0.074 A 
ATOM     44  C   UNL A   1      38.383  28.951  28.345  1.00  0.00     0.031 C 
ATOM     45  C   UNL A   1      39.367  34.410  32.442  1.00  0.00     0.029 A 
ATOM     46  C   UNL A   1      40.421  33.401  32.462  1.00  0.00     0.049 A 
ATOM     47  H   UNL A   1      40.525  31.654  31.332  1.00  0.00     0.167 HD
ATOM     48  C   UNL A   1      40.560  27.960  28.994  1.00  0.00     0.037 A 
ATOM     49  C   UNL A   1      41.524  33.441  33.233  1.00  0.00     0.037 A 
ATOM     50  C   UNL A   1      41.810  27.965  29.708  1.00  0.00     0.049 A 
ATOM     51  C   UNL A   1      42.529  32.326  33.138  1.00  0.00     0.074 A 
ATOM     52  C   UNL A   1      42.842  27.045  29.644  1.00  0.00     0.029 A 
ATOM     53  N   UNL A   1      42.195  28.934  30.622  1.00  0.00    -0.354 N 
ATOM     54  N   UNL A   1      42.511  31.258  32.376  1.00  0.00    -0.248 NA
ATOM     55  C   UNL A   1      43.710  32.425  34.005  1.00  0.00     0.031 C 
ATOM     56  C   UNL A   1      43.826  27.427  30.562  1.00  0.00     0.029 A 
ATOM     57  C   UNL A   1      43.437  28.619  31.152  1.00  0.00     0.049 A 
ATOM     58  H   UNL A   1      41.664  29.729  30.860  1.00  0.00     0.167 HD
ATOM     59  C   UNL A   1      43.692  30.578  32.649  1.00  0.00     0.074 A 
ATOM     60  C   UNL A   1      44.408  31.362  33.633  1.00  0.00     0.031 C 
ATOM     61  C   UNL A   1      44.143  29.411  32.126  1.00  0.00     0.037 A 
BRANCH  48  62
ATOM     62  C   UNL A   1      40.252  26.790  28.103  1.00  0.00     0.057 A 
ATOM     63  C   UNL A   1      40.781  26.683  26.809  1.00  0.00     0.134 A 
ATOM     64  C   UNL A   1      39.443  25.740  28.556  1.00  0.00     0.134 A 
ATOM     65  F   UNL A   1      41.554  27.657  26.307  1.00  0.00    -0.206 F 
ATOM     66  C   UNL A   1      40.490  25.590  25.988  1.00  0.00     0.040 A 
ATOM     67  C   UNL A   1      39.172  24.628  27.757  1.00  0.00     0.040 A 
ATOM     68  F   UNL A   1      38.911  25.771  29.787  1.00  0.00    -0.206 F 
ATOM     69  C   UNL A   1      39.690  24.555  26.465  1.00  0.00     0.006 A 
ENDBRANCH  48  62
BRANCH  49  70
ATOM     70  C   UNL A   1      41.753  34.588  34.148  1.00  0.00     0.057 A 
ATOM     71  C   UNL A   1      41.345  34.534  35.487  1.00  0.00     0.134 A 
ATOM     72  C   UNL A   1      42.367  35.767  33.709  1.00  0.00     0.134 A 
ATOM     73  F   UNL A   1      40.734  33.439  35.962  1.00  0.00    -0.206 F 
ATOM     74  C   UNL A   1      41.518  35.618  36.348  1.00  0.00     0.040 A 
ATOM     75  C   UNL A   1      42.571  36.848  34.567  1.00  0.00     0.040 A 
ATOM     76  F   UNL A   1      42.790  35.880  32.441  1.00  0.00    -0.206 F 
ATOM     77  C   UNL A   1      42.137  36.779  35.889  1.00  0.00     0.006 A 
ENDBRANCH  49  70
BRANCH  61  78
ATOM     78  C   UNL A   1      45.494  28.932  32.577  1.00  0.00     0.057 A 
ATOM     79  C   UNL A   1      46.675  29.322  31.934  1.00  0.00     0.134 A 
ATOM     80  C   UNL A   1      45.613  28.091  33.692  1.00  0.00     0.134 A 
ATOM     81  F   UNL A   1      46.631  30.114  30.852  1.00  0.00    -0.206 F 
ATOM     82  C   UNL A   1      47.924  28.870  32.365  1.00  0.00     0.040 A 
ATOM     83  C   UNL A   1      46.857  27.659  34.151  1.00  0.00     0.040 A 
ATOM     84  F   UNL A   1      44.522  27.688  34.360  1.00  0.00    -0.206 F 
ATOM     85  C   UNL A   1      48.018  28.042  33.482  1.00  0.00     0.006 A 
ENDBRANCH  61  78
ENDBRANCH  35  36
ENDBRANCH  27  30
ENDBRANCH  25  26
ENDBRANCH   1  25
TORSDOF 12
ENDMDL
