MODEL 1
REMARK VINA RESULT:     -12.3      0.000      0.000
REMARK SMILES Cc1cc(C)c2c(c1)C=C(C(=O)NCCCNC(=O)c1ccc(-c3c4nc(c(-c5c(F)cccc5F)c5ccc([nH]5)c(-c5c(F)cccc5F)c5nc(c(-c6c(F)cccc6F)c6ccc3[nH]6)C=C5)C=C4)cc1)[C@@H](C(F)(F)F)O2
REMARK SMILES IDX 15 1 14 2 13 3 11 4 12 5 10 7 1 8 2 9 3 10 8 11 4 12 7 13
REMARK SMILES IDX 5 14 6 15 9 16 79 17 74 18 75 19 76 20 77 21 78 22 16 23
REMARK SMILES IDX 17 24 18 25 19 27 20 28 21 29 73 30 22 31 72 32 23 33 24 34
REMARK SMILES IDX 25 35 66 36 26 37 71 38 65 39 67 40 27 41 70 42 64 43 63 44
REMARK SMILES IDX 28 46 54 47 37 48 53 49 38 50 41 51 52 52 68 53 39 54 40 55
REMARK SMILES IDX 51 57 69 58 42 59 29 60 30 61 35 62 31 63 32 64 34 65 36 66
REMARK SMILES IDX 33 67 55 68 56 69 61 70 57 71 58 72 60 73 62 74 59 75 43 76
REMARK SMILES IDX 44 77 49 78 45 79 46 80 48 81 50 82 47 83
REMARK H PARENT 13 6 17 26 67 45 41 56
REMARK Flexibility Score: inf
ROOT
ATOM      1  C   UNL A   1      37.629  19.479  24.988  1.00  0.00     0.042 C 
ENDROOT
BRANCH   1   2
ATOM      2  C   UNL A   1      36.513  20.453  24.647  1.00  0.00     0.118 C 
BRANCH   2   3
ATOM      3  N   UNL A   1      35.588  20.625  25.756  1.00  0.00    -0.352 N 
ATOM      4  C   UNL A   1      34.626  21.505  26.121  1.00  0.00     0.251 C 
ATOM      5  O   UNL A   1      34.073  21.260  27.197  1.00  0.00    -0.270 OA
ATOM      6  H   UNL A   1      35.687  19.906  26.421  1.00  0.00     0.163 HD
BRANCH   4   7
ATOM      7  C   UNL A   1      34.221  22.702  25.331  1.00  0.00     0.067 C 
ATOM      8  C   UNL A   1      33.673  28.839  25.812  1.00  0.00     0.044 C 
ATOM      9  C   UNL A   1      33.680  27.506  25.123  1.00  0.00    -0.050 A 
ATOM     10  C   UNL A   1      33.334  27.402  23.768  1.00  0.00     0.010 A 
ATOM     11  C   UNL A   1      34.016  26.349  25.839  1.00  0.00     0.015 A 
ATOM     12  C   UNL A   1      33.342  26.162  23.120  1.00  0.00    -0.008 A 
ATOM     13  C   UNL A   1      34.024  25.103  25.207  1.00  0.00     0.018 A 
ATOM     14  C   UNL A   1      32.976  26.051  21.668  1.00  0.00     0.048 C 
ATOM     15  C   UNL A   1      33.688  25.021  23.853  1.00  0.00     0.130 A 
ATOM     16  C   UNL A   1      34.413  23.894  25.925  1.00  0.00     0.025 C 
ATOM     17  O   UNL A   1      33.731  23.837  23.170  1.00  0.00    -0.475 OA
ATOM     18  C   UNL A   1      33.609  22.632  23.964  1.00  0.00     0.314 C 
BRANCH  18  19
ATOM     19  C   UNL A   1      32.134  22.187  23.990  1.00  0.00     0.429 C 
ATOM     20  F   UNL A   1      32.053  20.833  23.960  1.00  0.00    -0.167 F 
ATOM     21  F   UNL A   1      31.490  22.582  25.113  1.00  0.00    -0.167 F 
ATOM     22  F   UNL A   1      31.421  22.660  22.945  1.00  0.00    -0.167 F 
ENDBRANCH  18  19
ENDBRANCH   4   7
ENDBRANCH   2   3
ENDBRANCH   1   2
BRANCH   1  23
ATOM     23  C   UNL A   1      38.867  20.199  25.507  1.00  0.00     0.118 C 
BRANCH  23  24
ATOM     24  N   UNL A   1      39.966  19.268  25.756  1.00  0.00    -0.352 N 
ATOM     25  C   UNL A   1      41.271  19.513  26.098  1.00  0.00     0.251 C 
ATOM     26  H   UNL A   1      39.733  18.316  25.663  1.00  0.00     0.163 HD
ATOM     27  O   UNL A   1      42.116  18.628  25.978  1.00  0.00    -0.269 OA
BRANCH  25  28
ATOM     28  C   UNL A   1      41.658  20.839  26.610  1.00  0.00     0.039 A 
ATOM     29  C   UNL A   1      42.111  21.817  25.722  1.00  0.00     0.014 A 
ATOM     30  C   UNL A   1      41.588  21.106  27.979  1.00  0.00     0.014 A 
ATOM     31  C   UNL A   1      42.433  23.084  26.205  1.00  0.00     0.010 A 
ATOM     32  C   UNL A   1      41.799  22.396  28.441  1.00  0.00     0.010 A 
ATOM     33  C   UNL A   1      42.246  23.391  27.564  1.00  0.00    -0.014 A 
BRANCH  33  34
ATOM     34  C   UNL A   1      42.556  24.734  28.102  1.00  0.00     0.031 A 
ATOM     35  C   UNL A   1      43.975  25.088  28.446  1.00  0.00     0.074 A 
ATOM     36  C   UNL A   1      41.559  25.611  28.320  1.00  0.00     0.049 A 
ATOM     37  N   UNL A   1      44.450  26.195  28.957  1.00  0.00    -0.248 NA
ATOM     38  C   UNL A   1      44.994  24.050  28.210  1.00  0.00     0.031 C 
ATOM     39  C   UNL A   1      40.141  25.362  28.061  1.00  0.00     0.029 A 
ATOM     40  N   UNL A   1      41.590  26.894  28.802  1.00  0.00    -0.354 N 
ATOM     41  C   UNL A   1      45.815  25.985  29.098  1.00  0.00     0.074 A 
ATOM     42  C   UNL A   1      46.081  24.619  28.709  1.00  0.00     0.031 C 
ATOM     43  C   UNL A   1      39.444  26.477  28.330  1.00  0.00     0.029 A 
ATOM     44  C   UNL A   1      40.359  27.503  28.820  1.00  0.00     0.049 A 
ATOM     45  H   UNL A   1      42.415  27.337  29.106  1.00  0.00     0.167 HD
ATOM     46  C   UNL A   1      46.771  26.865  29.473  1.00  0.00     0.037 A 
ATOM     47  C   UNL A   1      40.013  28.753  29.179  1.00  0.00     0.037 A 
ATOM     48  C   UNL A   1      46.502  28.226  29.847  1.00  0.00     0.049 A 
ATOM     49  C   UNL A   1      41.083  29.698  29.650  1.00  0.00     0.074 A 
ATOM     50  C   UNL A   1      47.397  29.211  30.222  1.00  0.00     0.029 A 
ATOM     51  N   UNL A   1      45.236  28.793  29.891  1.00  0.00    -0.354 N 
ATOM     52  N   UNL A   1      42.376  29.505  29.735  1.00  0.00    -0.248 NA
ATOM     53  C   UNL A   1      40.644  31.033  30.080  1.00  0.00     0.031 C 
ATOM     54  C   UNL A   1      46.668  30.362  30.536  1.00  0.00     0.029 A 
ATOM     55  C   UNL A   1      45.323  30.109  30.311  1.00  0.00     0.049 A 
ATOM     56  H   UNL A   1      44.400  28.328  29.659  1.00  0.00     0.167 HD
ATOM     57  C   UNL A   1      42.911  30.695  30.207  1.00  0.00     0.074 A 
ATOM     58  C   UNL A   1      41.801  31.611  30.379  1.00  0.00     0.031 C 
ATOM     59  C   UNL A   1      44.204  31.002  30.475  1.00  0.00     0.037 A 
BRANCH  46  60
ATOM     60  C   UNL A   1      48.191  26.378  29.469  1.00  0.00     0.057 A 
ATOM     61  C   UNL A   1      49.003  26.497  28.332  1.00  0.00     0.134 A 
ATOM     62  C   UNL A   1      48.758  25.790  30.607  1.00  0.00     0.134 A 
ATOM     63  F   UNL A   1      48.517  27.036  27.204  1.00  0.00    -0.206 F 
ATOM     64  C   UNL A   1      50.314  26.017  28.315  1.00  0.00     0.040 A 
ATOM     65  C   UNL A   1      50.078  25.335  30.611  1.00  0.00     0.040 A 
ATOM     66  F   UNL A   1      48.039  25.648  31.731  1.00  0.00    -0.206 F 
ATOM     67  C   UNL A   1      50.856  25.439  29.460  1.00  0.00     0.006 A 
ENDBRANCH  46  60
BRANCH  47  68
ATOM     68  C   UNL A   1      38.603  29.193  29.037  1.00  0.00     0.057 A 
ATOM     69  C   UNL A   1      38.119  29.639  27.802  1.00  0.00     0.134 A 
ATOM     70  C   UNL A   1      37.697  29.131  30.102  1.00  0.00     0.134 A 
ATOM     71  F   UNL A   1      38.944  29.731  26.748  1.00  0.00    -0.206 F 
ATOM     72  C   UNL A   1      36.785  30.010  27.630  1.00  0.00     0.040 A 
ATOM     73  C   UNL A   1      36.354  29.479  29.938  1.00  0.00     0.040 A 
ATOM     74  F   UNL A   1      38.096  28.702  31.308  1.00  0.00    -0.206 F 
ATOM     75  C   UNL A   1      35.896  29.921  28.698  1.00  0.00     0.006 A 
ENDBRANCH  47  68
BRANCH  59  76
ATOM     76  C   UNL A   1      44.499  32.383  30.980  1.00  0.00     0.057 A 
ATOM     77  C   UNL A   1      44.702  33.455  30.103  1.00  0.00     0.134 A 
ATOM     78  C   UNL A   1      44.482  32.661  32.353  1.00  0.00     0.134 A 
ATOM     79  F   UNL A   1      44.739  33.252  28.777  1.00  0.00    -0.206 F 
ATOM     80  C   UNL A   1      44.881  34.757  30.574  1.00  0.00     0.040 A 
ATOM     81  C   UNL A   1      44.635  33.962  32.834  1.00  0.00     0.040 A 
ATOM     82  F   UNL A   1      44.282  31.679  33.244  1.00  0.00    -0.206 F 
ATOM     83  C   UNL A   1      44.835  35.013  31.944  1.00  0.00     0.006 A 
ENDBRANCH  59  76
ENDBRANCH  33  34
ENDBRANCH  25  28
ENDBRANCH  23  24
ENDBRANCH   1  23
TORSDOF 11
ENDMDL
MODEL 2
REMARK VINA RESULT:     -12.2      4.118      9.022
REMARK SMILES Cc1cc(C)c2c(c1)C=C(C(=O)NCCCNC(=O)c1ccc(-c3c4nc(c(-c5c(F)cccc5F)c5ccc([nH]5)c(-c5c(F)cccc5F)c5nc(c(-c6c(F)cccc6F)c6ccc3[nH]6)C=C5)C=C4)cc1)[C@@H](C(F)(F)F)O2
REMARK SMILES IDX 15 1 14 2 13 3 11 4 12 5 10 7 1 8 2 9 3 10 8 11 4 12 7 13
REMARK SMILES IDX 5 14 6 15 9 16 79 17 74 18 75 19 76 20 77 21 78 22 16 23
REMARK SMILES IDX 17 24 18 25 19 27 20 28 21 29 73 30 22 31 72 32 23 33 24 34
REMARK SMILES IDX 25 35 66 36 26 37 71 38 65 39 67 40 27 41 70 42 64 43 63 44
REMARK SMILES IDX 28 46 54 47 37 48 53 49 38 50 41 51 52 52 68 53 39 54 40 55
REMARK SMILES IDX 51 57 69 58 42 59 29 60 30 61 35 62 31 63 32 64 34 65 36 66
REMARK SMILES IDX 33 67 55 68 56 69 61 70 57 71 58 72 60 73 62 74 59 75 43 76
REMARK SMILES IDX 44 77 49 78 45 79 46 80 48 81 50 82 47 83
REMARK H PARENT 13 6 17 26 67 45 41 56
REMARK Flexibility Score: inf
ROOT
ATOM      1  C   UNL A   1      31.413  32.014  26.833  1.00  0.00     0.042 C 
ENDROOT
BRANCH   1   2
ATOM      2  C   UNL A   1      31.653  30.546  26.522  1.00  0.00     0.118 C 
BRANCH   2   3
ATOM      3  N   UNL A   1      31.401  30.243  25.122  1.00  0.00    -0.352 N 
ATOM      4  C   UNL A   1      31.363  29.143  24.334  1.00  0.00     0.251 C 
ATOM      5  O   UNL A   1      31.109  29.358  23.145  1.00  0.00    -0.270 OA
ATOM      6  H   UNL A   1      31.205  31.059  24.607  1.00  0.00     0.163 HD
BRANCH   4   7
ATOM      7  C   UNL A   1      31.604  27.749  24.803  1.00  0.00     0.067 C 
ATOM      8  C   UNL A   1      36.178  23.702  25.751  1.00  0.00     0.044 C 
ATOM      9  C   UNL A   1      34.775  24.232  25.799  1.00  0.00    -0.050 A 
ATOM     10  C   UNL A   1      33.729  23.438  26.293  1.00  0.00     0.010 A 
ATOM     11  C   UNL A   1      34.497  25.523  25.330  1.00  0.00     0.015 A 
ATOM     12  C   UNL A   1      32.420  23.928  26.342  1.00  0.00    -0.008 A 
ATOM     13  C   UNL A   1      33.194  26.024  25.369  1.00  0.00     0.018 A 
ATOM     14  C   UNL A   1      31.301  23.080  26.876  1.00  0.00     0.048 C 
ATOM     15  C   UNL A   1      32.167  25.224  25.876  1.00  0.00     0.130 A 
ATOM     16  C   UNL A   1      32.893  27.381  24.926  1.00  0.00     0.025 C 
ATOM     17  O   UNL A   1      30.884  25.681  25.988  1.00  0.00    -0.475 OA
ATOM     18  C   UNL A   1      30.510  26.770  25.109  1.00  0.00     0.314 C 
BRANCH  18  19
ATOM     19  C   UNL A   1      29.848  26.197  23.842  1.00  0.00     0.429 C 
ATOM     20  F   UNL A   1      30.678  26.333  22.776  1.00  0.00    -0.167 F 
ATOM     21  F   UNL A   1      29.578  24.874  23.946  1.00  0.00    -0.167 F 
ATOM     22  F   UNL A   1      28.685  26.808  23.531  1.00  0.00    -0.167 F 
ENDBRANCH  18  19
ENDBRANCH   4   7
ENDBRANCH   2   3
ENDBRANCH   1   2
BRANCH   1  23
ATOM     23  C   UNL A   1      32.720  32.784  26.967  1.00  0.00     0.118 C 
BRANCH  23  24
ATOM     24  N   UNL A   1      32.520  34.074  27.625  1.00  0.00    -0.352 N 
ATOM     25  C   UNL A   1      33.112  34.595  28.747  1.00  0.00     0.251 C 
ATOM     26  H   UNL A   1      31.857  34.661  27.195  1.00  0.00     0.163 HD
ATOM     27  O   UNL A   1      32.611  35.563  29.315  1.00  0.00    -0.269 OA
BRANCH  25  28
ATOM     28  C   UNL A   1      34.350  33.991  29.270  1.00  0.00     0.039 A 
ATOM     29  C   UNL A   1      34.281  33.078  30.324  1.00  0.00     0.014 A 
ATOM     30  C   UNL A   1      35.584  34.347  28.724  1.00  0.00     0.014 A 
ATOM     31  C   UNL A   1      35.450  32.475  30.786  1.00  0.00     0.010 A 
ATOM     32  C   UNL A   1      36.730  33.665  29.105  1.00  0.00     0.010 A 
ATOM     33  C   UNL A   1      36.678  32.740  30.155  1.00  0.00    -0.014 A 
BRANCH  33  34
ATOM     34  C   UNL A   1      37.933  32.098  30.607  1.00  0.00     0.031 A 
ATOM     35  C   UNL A   1      38.707  32.698  31.747  1.00  0.00     0.074 A 
ATOM     36  C   UNL A   1      38.392  31.009  29.965  1.00  0.00     0.049 A 
ATOM     37  N   UNL A   1      39.841  32.309  32.270  1.00  0.00    -0.248 NA
ATOM     38  C   UNL A   1      38.147  33.914  32.362  1.00  0.00     0.031 C 
ATOM     39  C   UNL A   1      37.744  30.364  28.822  1.00  0.00     0.029 A 
ATOM     40  N   UNL A   1      39.509  30.246  30.190  1.00  0.00    -0.354 N 
ATOM     41  C   UNL A   1      40.123  33.226  33.273  1.00  0.00     0.074 A 
ATOM     42  C   UNL A   1      39.096  34.242  33.225  1.00  0.00     0.031 C 
ATOM     43  C   UNL A   1      38.443  29.269  28.483  1.00  0.00     0.029 A 
ATOM     44  C   UNL A   1      39.607  29.159  29.356  1.00  0.00     0.049 A 
ATOM     45  H   UNL A   1      40.176  30.456  30.883  1.00  0.00     0.167 HD
ATOM     46  C   UNL A   1      41.122  33.201  34.184  1.00  0.00     0.037 A 
ATOM     47  C   UNL A   1      40.528  28.178  29.313  1.00  0.00     0.037 A 
ATOM     48  C   UNL A   1      42.133  32.182  34.234  1.00  0.00     0.049 A 
ATOM     49  C   UNL A   1      41.664  28.200  30.297  1.00  0.00     0.074 A 
ATOM     50  C   UNL A   1      43.179  32.046  35.129  1.00  0.00     0.029 A 
ATOM     51  N   UNL A   1      42.222  31.119  33.346  1.00  0.00    -0.354 N 
ATOM     52  N   UNL A   1      41.895  29.047  31.271  1.00  0.00    -0.248 NA
ATOM     53  C   UNL A   1      42.670  27.137  30.172  1.00  0.00     0.031 C 
ATOM     54  C   UNL A   1      43.926  30.925  34.756  1.00  0.00     0.029 A 
ATOM     55  C   UNL A   1      43.319  30.336  33.657  1.00  0.00     0.049 A 
ATOM     56  H   UNL A   1      41.597  30.948  32.605  1.00  0.00     0.167 HD
ATOM     57  C   UNL A   1      43.059  28.609  31.889  1.00  0.00     0.074 A 
ATOM     58  C   UNL A   1      43.479  27.413  31.186  1.00  0.00     0.031 C 
ATOM     59  C   UNL A   1      43.719  29.149  32.943  1.00  0.00     0.037 A 
BRANCH  46  60
ATOM     60  C   UNL A   1      41.144  34.299  35.208  1.00  0.00     0.057 A 
ATOM     61  C   UNL A   1      40.474  34.171  36.434  1.00  0.00     0.134 A 
ATOM     62  C   UNL A   1      41.839  35.492  34.976  1.00  0.00     0.134 A 
ATOM     63  F   UNL A   1      39.775  33.061  36.713  1.00  0.00    -0.206 F 
ATOM     64  C   UNL A   1      40.466  35.202  37.375  1.00  0.00     0.040 A 
ATOM     65  C   UNL A   1      41.864  36.517  35.923  1.00  0.00     0.040 A 
ATOM     66  F   UNL A   1      42.505  35.681  33.826  1.00  0.00    -0.206 F 
ATOM     67  C   UNL A   1      41.168  36.377  37.123  1.00  0.00     0.006 A 
ENDBRANCH  46  60
BRANCH  47  68
ATOM     68  C   UNL A   1      40.366  27.063  28.348  1.00  0.00     0.057 A 
ATOM     69  C   UNL A   1      39.524  25.984  28.643  1.00  0.00     0.134 A 
ATOM     70  C   UNL A   1      40.995  27.067  27.098  1.00  0.00     0.134 A 
ATOM     71  F   UNL A   1      38.903  25.919  29.831  1.00  0.00    -0.206 F 
ATOM     72  C   UNL A   1      39.315  24.948  27.732  1.00  0.00     0.040 A 
ATOM     73  C   UNL A   1      40.778  26.047  26.168  1.00  0.00     0.040 A 
ATOM     74  F   UNL A   1      41.805  28.077  26.751  1.00  0.00    -0.206 F 
ATOM     75  C   UNL A   1      39.935  24.983  26.486  1.00  0.00     0.006 A 
ENDBRANCH  47  68
BRANCH  59  76
ATOM     76  C   UNL A   1      44.965  28.457  33.409  1.00  0.00     0.057 A 
ATOM     77  C   UNL A   1      46.232  28.854  32.967  1.00  0.00     0.134 A 
ATOM     78  C   UNL A   1      44.902  27.451  34.382  1.00  0.00     0.134 A 
ATOM     79  F   UNL A   1      46.359  29.805  32.029  1.00  0.00    -0.206 F 
ATOM     80  C   UNL A   1      47.395  28.272  33.475  1.00  0.00     0.040 A 
ATOM     81  C   UNL A   1      46.058  26.880  34.915  1.00  0.00     0.040 A 
ATOM     82  F   UNL A   1      43.718  27.033  34.854  1.00  0.00    -0.206 F 
ATOM     83  C   UNL A   1      47.309  27.290  34.461  1.00  0.00     0.006 A 
ENDBRANCH  59  76
ENDBRANCH  33  34
ENDBRANCH  25  28
ENDBRANCH  23  24
ENDBRANCH   1  23
TORSDOF 11
ENDMDL
MODEL 3
REMARK VINA RESULT:     -12.2      1.380      2.004
REMARK SMILES Cc1cc(C)c2c(c1)C=C(C(=O)NCCCNC(=O)c1ccc(-c3c4nc(c(-c5c(F)cccc5F)c5ccc([nH]5)c(-c5c(F)cccc5F)c5nc(c(-c6c(F)cccc6F)c6ccc3[nH]6)C=C5)C=C4)cc1)[C@@H](C(F)(F)F)O2
REMARK SMILES IDX 15 1 14 2 13 3 11 4 12 5 10 7 1 8 2 9 3 10 8 11 4 12 7 13
REMARK SMILES IDX 5 14 6 15 9 16 79 17 74 18 75 19 76 20 77 21 78 22 16 23
REMARK SMILES IDX 17 24 18 25 19 27 20 28 21 29 73 30 22 31 72 32 23 33 24 34
REMARK SMILES IDX 25 35 66 36 26 37 71 38 65 39 67 40 27 41 70 42 64 43 63 44
REMARK SMILES IDX 28 46 54 47 37 48 53 49 38 50 41 51 52 52 68 53 39 54 40 55
REMARK SMILES IDX 51 57 69 58 42 59 29 60 30 61 35 62 31 63 32 64 34 65 36 66
REMARK SMILES IDX 33 67 55 68 56 69 61 70 57 71 58 72 60 73 62 74 59 75 43 76
REMARK SMILES IDX 44 77 49 78 45 79 46 80 48 81 50 82 47 83
REMARK H PARENT 13 6 17 26 67 45 41 56
REMARK Flexibility Score: inf
ROOT
ATOM      1  C   UNL A   1      37.730  19.460  24.935  1.00  0.00     0.042 C 
ENDROOT
BRANCH   1   2
ATOM      2  C   UNL A   1      36.469  20.307  24.977  1.00  0.00     0.118 C 
BRANCH   2   3
ATOM      3  N   UNL A   1      35.267  19.488  24.940  1.00  0.00    -0.352 N 
ATOM      4  C   UNL A   1      33.930  19.687  24.888  1.00  0.00     0.251 C 
ATOM      5  O   UNL A   1      33.246  18.660  24.884  1.00  0.00    -0.270 OA
ATOM      6  H   UNL A   1      35.486  18.528  24.956  1.00  0.00     0.163 HD
BRANCH   4   7
ATOM      7  C   UNL A   1      33.267  21.022  24.842  1.00  0.00     0.067 C 
ATOM      8  C   UNL A   1      32.446  25.874  21.104  1.00  0.00     0.044 C 
ATOM      9  C   UNL A   1      32.242  25.024  22.324  1.00  0.00    -0.050 A 
ATOM     10  C   UNL A   1      31.431  25.472  23.377  1.00  0.00     0.010 A 
ATOM     11  C   UNL A   1      32.878  23.780  22.425  1.00  0.00     0.015 A 
ATOM     12  C   UNL A   1      31.236  24.682  24.515  1.00  0.00    -0.008 A 
ATOM     13  C   UNL A   1      32.696  22.982  23.557  1.00  0.00     0.018 A 
ATOM     14  C   UNL A   1      30.364  25.159  25.641  1.00  0.00     0.048 C 
ATOM     15  C   UNL A   1      31.875  23.439  24.592  1.00  0.00     0.130 A 
ATOM     16  C   UNL A   1      33.316  21.666  23.662  1.00  0.00     0.025 C 
ATOM     17  O   UNL A   1      31.617  22.679  25.698  1.00  0.00    -0.475 OA
ATOM     18  C   UNL A   1      32.596  21.662  26.021  1.00  0.00     0.314 C 
BRANCH  18  19
ATOM     19  C   UNL A   1      33.598  22.227  27.046  1.00  0.00     0.429 C 
ATOM     20  F   UNL A   1      32.940  22.910  28.017  1.00  0.00    -0.167 F 
ATOM     21  F   UNL A   1      34.303  21.258  27.675  1.00  0.00    -0.167 F 
ATOM     22  F   UNL A   1      34.498  23.070  26.496  1.00  0.00    -0.167 F 
ENDBRANCH  18  19
ENDBRANCH   4   7
ENDBRANCH   2   3
ENDBRANCH   1   2
BRANCH   1  23
ATOM     23  C   UNL A   1      38.891  20.141  25.647  1.00  0.00     0.118 C 
BRANCH  23  24
ATOM     24  N   UNL A   1      40.038  19.245  25.787  1.00  0.00    -0.352 N 
ATOM     25  C   UNL A   1      41.356  19.528  26.035  1.00  0.00     0.251 C 
ATOM     26  H   UNL A   1      39.830  18.287  25.688  1.00  0.00     0.163 HD
ATOM     27  O   UNL A   1      42.218  18.678  25.828  1.00  0.00    -0.269 OA
BRANCH  25  28
ATOM     28  C   UNL A   1      41.736  20.855  26.549  1.00  0.00     0.039 A 
ATOM     29  C   UNL A   1      42.169  21.842  25.661  1.00  0.00     0.014 A 
ATOM     30  C   UNL A   1      41.679  21.115  27.920  1.00  0.00     0.014 A 
ATOM     31  C   UNL A   1      42.485  23.111  26.148  1.00  0.00     0.010 A 
ATOM     32  C   UNL A   1      41.883  22.404  28.387  1.00  0.00     0.010 A 
ATOM     33  C   UNL A   1      42.310  23.408  27.510  1.00  0.00    -0.014 A 
BRANCH  33  34
ATOM     34  C   UNL A   1      42.614  24.752  28.052  1.00  0.00     0.031 A 
ATOM     35  C   UNL A   1      44.032  25.114  28.390  1.00  0.00     0.074 A 
ATOM     36  C   UNL A   1      41.612  25.621  28.279  1.00  0.00     0.049 A 
ATOM     37  N   UNL A   1      44.502  26.222  28.903  1.00  0.00    -0.248 NA
ATOM     38  C   UNL A   1      45.057  24.084  28.145  1.00  0.00     0.031 C 
ATOM     39  C   UNL A   1      40.194  25.362  28.025  1.00  0.00     0.029 A 
ATOM     40  N   UNL A   1      41.636  26.902  28.765  1.00  0.00    -0.354 N 
ATOM     41  C   UNL A   1      45.869  26.021  29.036  1.00  0.00     0.074 A 
ATOM     42  C   UNL A   1      46.142  24.659  28.640  1.00  0.00     0.031 C 
ATOM     43  C   UNL A   1      39.491  26.471  28.303  1.00  0.00     0.029 A 
ATOM     44  C   UNL A   1      40.401  27.501  28.792  1.00  0.00     0.049 A 
ATOM     45  H   UNL A   1      42.460  27.350  29.067  1.00  0.00     0.167 HD
ATOM     46  C   UNL A   1      46.820  26.907  29.409  1.00  0.00     0.037 A 
ATOM     47  C   UNL A   1      40.048  28.748  29.158  1.00  0.00     0.037 A 
ATOM     48  C   UNL A   1      46.544  28.265  29.790  1.00  0.00     0.049 A 
ATOM     49  C   UNL A   1      41.113  29.699  29.627  1.00  0.00     0.074 A 
ATOM     50  C   UNL A   1      47.434  29.255  30.165  1.00  0.00     0.029 A 
ATOM     51  N   UNL A   1      45.274  28.823  29.843  1.00  0.00    -0.354 N 
ATOM     52  N   UNL A   1      42.409  29.514  29.704  1.00  0.00    -0.248 NA
ATOM     53  C   UNL A   1      40.668  31.029  30.065  1.00  0.00     0.031 C 
ATOM     54  C   UNL A   1      46.699  30.399  30.487  1.00  0.00     0.029 A 
ATOM     55  C   UNL A   1      45.354  30.137  30.268  1.00  0.00     0.049 A 
ATOM     56  H   UNL A   1      44.440  28.352  29.613  1.00  0.00     0.167 HD
ATOM     57  C   UNL A   1      42.937  30.707  30.179  1.00  0.00     0.074 A 
ATOM     58  C   UNL A   1      41.821  31.614  30.359  1.00  0.00     0.031 C 
ATOM     59  C   UNL A   1      44.229  31.022  30.441  1.00  0.00     0.037 A 
BRANCH  46  60
ATOM     60  C   UNL A   1      48.244  26.430  29.397  1.00  0.00     0.057 A 
ATOM     61  C   UNL A   1      48.821  25.818  30.519  1.00  0.00     0.134 A 
ATOM     62  C   UNL A   1      49.047  26.577  28.259  1.00  0.00     0.134 A 
ATOM     63  F   UNL A   1      48.113  25.662  31.647  1.00  0.00    -0.206 F 
ATOM     64  C   UNL A   1      50.154  25.402  30.522  1.00  0.00     0.040 A 
ATOM     65  C   UNL A   1      50.371  26.136  28.240  1.00  0.00     0.040 A 
ATOM     66  F   UNL A   1      48.558  27.149  27.148  1.00  0.00    -0.206 F 
ATOM     67  C   UNL A   1      50.931  25.556  29.377  1.00  0.00     0.006 A 
ENDBRANCH  46  60
BRANCH  47  68
ATOM     68  C   UNL A   1      38.634  29.178  29.025  1.00  0.00     0.057 A 
ATOM     69  C   UNL A   1      38.136  29.609  27.790  1.00  0.00     0.134 A 
ATOM     70  C   UNL A   1      37.738  29.122  30.098  1.00  0.00     0.134 A 
ATOM     71  F   UNL A   1      38.950  29.695  26.727  1.00  0.00    -0.206 F 
ATOM     72  C   UNL A   1      36.798  29.971  27.627  1.00  0.00     0.040 A 
ATOM     73  C   UNL A   1      36.392  29.461  29.944  1.00  0.00     0.040 A 
ATOM     74  F   UNL A   1      38.152  28.708  31.305  1.00  0.00    -0.206 F 
ATOM     75  C   UNL A   1      35.920  29.887  28.704  1.00  0.00     0.006 A 
ENDBRANCH  47  68
BRANCH  59  76
ATOM     76  C   UNL A   1      44.517  32.403  30.949  1.00  0.00     0.057 A 
ATOM     77  C   UNL A   1      44.709  33.480  30.076  1.00  0.00     0.134 A 
ATOM     78  C   UNL A   1      44.504  32.676  32.323  1.00  0.00     0.134 A 
ATOM     79  F   UNL A   1      44.742  33.282  28.749  1.00  0.00    -0.206 F 
ATOM     80  C   UNL A   1      44.881  34.781  30.551  1.00  0.00     0.040 A 
ATOM     81  C   UNL A   1      44.650  33.976  32.809  1.00  0.00     0.040 A 
ATOM     82  F   UNL A   1      44.314  31.689  33.212  1.00  0.00    -0.206 F 
ATOM     83  C   UNL A   1      44.840  35.032  31.922  1.00  0.00     0.006 A 
ENDBRANCH  59  76
ENDBRANCH  33  34
ENDBRANCH  25  28
ENDBRANCH  23  24
ENDBRANCH   1  23
TORSDOF 11
ENDMDL
