MODEL 1
REMARK VINA RESULT:     -13.7      0.000      0.000
REMARK SMILES O=C(NCCCNC(=O)c1ccccc1C(=O)Nc1ccc(N2C(=O)[C@H]3[C@@H]4CC[C@@H](C4)[C@@H]3C2=O)cc1)c1ccc(-c2c3nc(c(-c4c(F)cccc4F)c4ccc([nH]4)c(-c4c(F)cccc4F)c4nc(c(-c5c(F)cccc5F)c5ccc2[nH]5)C=C4)C=C3)cc1
REMARK SMILES IDX 5 1 4 2 3 3 1 4 2 5 37 7 38 8 90 9 39 10 89 11 40 12 41 13
REMARK SMILES IDX 42 14 83 15 43 16 88 17 82 18 84 19 44 20 87 21 81 22 80 23
REMARK SMILES IDX 45 25 71 26 54 27 70 28 55 29 58 30 69 31 85 32 56 33 57 34
REMARK SMILES IDX 68 36 86 37 59 38 46 39 47 40 52 41 48 42 49 43 51 44 53 45
REMARK SMILES IDX 50 46 72 47 73 48 78 49 74 50 75 51 77 52 79 53 76 54 60 55
REMARK SMILES IDX 61 56 66 57 62 58 63 59 65 60 67 61 64 62 6 63 7 64 8 65
REMARK SMILES IDX 9 67 10 68 11 69 15 70 12 71 14 72 13 73 16 74 17 75 18 76
REMARK SMILES IDX 19 78 20 79 36 80 21 81 35 82 22 83 23 84 24 85 33 86 25 87
REMARK SMILES IDX 26 88 32 89 34 90 27 91 30 92 28 93 31 94 29 95
REMARK H PARENT 3 6 84 24 58 35 7 66 18 77
REMARK Flexibility Score: inf
ROOT
ATOM      1  C   UNL A   1      37.539  21.703  24.860  1.00  0.00     0.042 C 
ENDROOT
BRANCH   1   2
ATOM      2  C   UNL A   1      38.689  21.451  25.827  1.00  0.00     0.118 C 
BRANCH   2   3
ATOM      3  N   UNL A   1      39.420  20.208  25.597  1.00  0.00    -0.352 N 
ATOM      4  O   UNL A   1      41.202  18.805  25.709  1.00  0.00    -0.269 OA
ATOM      5  C   UNL A   1      40.718  19.902  25.957  1.00  0.00     0.251 C 
ATOM      6  H   UNL A   1      38.927  19.499  25.126  1.00  0.00     0.163 HD
BRANCH   5   7
ATOM      7  C   UNL A   1      41.540  20.965  26.572  1.00  0.00     0.039 A 
ATOM      8  C   UNL A   1      41.539  21.131  27.956  1.00  0.00     0.014 A 
ATOM      9  C   UNL A   1      42.143  21.910  25.740  1.00  0.00     0.014 A 
ATOM     10  C   UNL A   1      41.917  22.358  28.483  1.00  0.00     0.010 A 
ATOM     11  C   UNL A   1      42.625  23.101  26.291  1.00  0.00     0.010 A 
ATOM     12  C   UNL A   1      42.438  23.369  27.654  1.00  0.00    -0.014 A 
BRANCH  12  13
ATOM     13  C   UNL A   1      42.737  24.706  28.236  1.00  0.00     0.031 A 
ATOM     14  C   UNL A   1      44.150  25.119  28.562  1.00  0.00     0.074 A 
ATOM     15  C   UNL A   1      41.726  25.580  28.409  1.00  0.00     0.049 A 
ATOM     16  N   UNL A   1      44.588  26.257  29.045  1.00  0.00    -0.248 NA
ATOM     17  C   UNL A   1      45.214  24.128  28.328  1.00  0.00     0.031 C 
ATOM     18  C   UNL A   1      40.317  25.302  28.130  1.00  0.00     0.029 A 
ATOM     19  N   UNL A   1      41.732  26.884  28.830  1.00  0.00    -0.354 N 
ATOM     20  C   UNL A   1      45.961  26.106  29.206  1.00  0.00     0.074 A 
ATOM     21  C   UNL A   1      46.286  24.760  28.786  1.00  0.00     0.031 C 
ATOM     22  C   UNL A   1      39.602  26.418  28.323  1.00  0.00     0.029 A 
ATOM     23  C   UNL A   1      40.490  27.469  28.807  1.00  0.00     0.049 A 
ATOM     24  H   UNL A   1      42.546  27.356  29.121  1.00  0.00     0.167 HD
ATOM     25  C   UNL A   1      46.868  27.007  29.657  1.00  0.00     0.037 A 
ATOM     26  C   UNL A   1      40.102  28.710  29.149  1.00  0.00     0.037 A 
ATOM     27  C   UNL A   1      46.548  28.361  30.037  1.00  0.00     0.049 A 
ATOM     28  C   UNL A   1      41.126  29.689  29.641  1.00  0.00     0.074 A 
ATOM     29  C   UNL A   1      47.403  29.362  30.467  1.00  0.00     0.029 A 
ATOM     30  N   UNL A   1      45.272  28.905  30.026  1.00  0.00    -0.354 N 
ATOM     31  N   UNL A   1      42.421  29.532  29.773  1.00  0.00    -0.248 NA
ATOM     32  C   UNL A   1      40.633  31.015  30.036  1.00  0.00     0.031 C 
ATOM     33  C   UNL A   1      46.640  30.499  30.755  1.00  0.00     0.029 A 
ATOM     34  C   UNL A   1      45.315  30.221  30.459  1.00  0.00     0.049 A 
ATOM     35  H   UNL A   1      44.456  28.427  29.751  1.00  0.00     0.167 HD
ATOM     36  C   UNL A   1      42.902  30.745  30.247  1.00  0.00     0.074 A 
ATOM     37  C   UNL A   1      41.761  31.631  30.360  1.00  0.00     0.031 C 
ATOM     38  C   UNL A   1      44.173  31.093  30.561  1.00  0.00     0.037 A 
BRANCH  25  39
ATOM     39  C   UNL A   1      48.296  26.559  29.790  1.00  0.00     0.057 A 
ATOM     40  C   UNL A   1      49.248  26.792  28.790  1.00  0.00     0.134 A 
ATOM     41  C   UNL A   1      48.736  25.933  30.964  1.00  0.00     0.134 A 
ATOM     42  F   UNL A   1      48.893  27.378  27.636  1.00  0.00    -0.206 F 
ATOM     43  C   UNL A   1      50.581  26.399  28.943  1.00  0.00     0.040 A 
ATOM     44  C   UNL A   1      50.070  25.559  31.139  1.00  0.00     0.040 A 
ATOM     45  F   UNL A   1      47.881  25.689  31.968  1.00  0.00    -0.206 F 
ATOM     46  C   UNL A   1      50.995  25.787  30.124  1.00  0.00     0.006 A 
ENDBRANCH  25  39
BRANCH  26  47
ATOM     47  C   UNL A   1      38.673  29.092  29.029  1.00  0.00     0.057 A 
ATOM     48  C   UNL A   1      37.807  29.000  30.123  1.00  0.00     0.134 A 
ATOM     49  C   UNL A   1      38.148  29.577  27.825  1.00  0.00     0.134 A 
ATOM     50  F   UNL A   1      38.249  28.528  31.298  1.00  0.00    -0.206 F 
ATOM     51  C   UNL A   1      36.464  29.366  30.022  1.00  0.00     0.040 A 
ATOM     52  C   UNL A   1      36.816  29.973  27.717  1.00  0.00     0.040 A 
ATOM     53  F   UNL A   1      38.933  29.698  26.744  1.00  0.00    -0.206 F 
ATOM     54  C   UNL A   1      35.968  29.861  28.818  1.00  0.00     0.006 A 
ENDBRANCH  26  47
BRANCH  38  55
ATOM     55  C   UNL A   1      44.396  32.502  31.022  1.00  0.00     0.057 A 
ATOM     56  C   UNL A   1      44.352  32.855  32.376  1.00  0.00     0.134 A 
ATOM     57  C   UNL A   1      44.664  33.518  30.095  1.00  0.00     0.134 A 
ATOM     58  F   UNL A   1      44.085  31.930  33.311  1.00  0.00    -0.206 F 
ATOM     59  C   UNL A   1      44.537  34.175  32.791  1.00  0.00     0.040 A 
ATOM     60  C   UNL A   1      44.876  34.837  30.500  1.00  0.00     0.040 A 
ATOM     61  F   UNL A   1      44.726  33.245  28.783  1.00  0.00    -0.206 F 
ATOM     62  C   UNL A   1      44.804  35.169  31.852  1.00  0.00     0.006 A 
ENDBRANCH  38  55
ENDBRANCH  12  13
ENDBRANCH   5   7
ENDBRANCH   2   3
ENDBRANCH   1   2
BRANCH   1  63
ATOM     63  C   UNL A   1      36.785  22.994  25.123  1.00  0.00     0.118 C 
BRANCH  63  64
ATOM     64  N   UNL A   1      36.065  23.468  23.958  1.00  0.00    -0.352 N 
ATOM     65  C   UNL A   1      34.804  23.152  23.540  1.00  0.00     0.252 C 
ATOM     66  H   UNL A   1      36.552  24.109  23.390  1.00  0.00     0.163 HD
ATOM     67  O   UNL A   1      34.402  23.559  22.451  1.00  0.00    -0.269 OA
BRANCH  65  68
ATOM     68  C   UNL A   1      33.956  22.211  24.295  1.00  0.00     0.052 A 
ATOM     69  C   UNL A   1      33.556  21.109  23.502  1.00  0.00     0.014 A 
ATOM     70  C   UNL A   1      33.569  22.285  25.642  1.00  0.00     0.052 A 
ATOM     71  C   UNL A   1      32.854  20.041  24.045  1.00  0.00     0.001 A 
ATOM     72  C   UNL A   1      32.876  21.170  26.173  1.00  0.00     0.014 A 
ATOM     73  C   UNL A   1      32.532  20.061  25.392  1.00  0.00     0.001 A 
BRANCH  70  74
ATOM     74  C   UNL A   1      33.906  23.319  26.669  1.00  0.00     0.256 C 
ATOM     75  O   UNL A   1      34.486  22.924  27.689  1.00  0.00    -0.269 OA
ATOM     76  N   UNL A   1      33.739  24.679  26.562  1.00  0.00    -0.322 N 
ATOM     77  H   UNL A   1      34.131  25.192  27.306  1.00  0.00     0.170 HD
BRANCH  76  78
ATOM     78  C   UNL A   1      33.120  25.466  25.596  1.00  0.00     0.041 A 
ATOM     79  C   UNL A   1      31.722  25.489  25.608  1.00  0.00     0.028 A 
ATOM     80  C   UNL A   1      33.828  26.263  24.704  1.00  0.00     0.028 A 
ATOM     81  C   UNL A   1      31.047  26.501  24.932  1.00  0.00     0.029 A 
ATOM     82  C   UNL A   1      33.136  27.190  23.922  1.00  0.00     0.029 A 
ATOM     83  C   UNL A   1      31.759  27.384  24.120  1.00  0.00     0.052 A 
BRANCH  83  84
ATOM     84  N   UNL A   1      31.167  28.573  23.661  1.00  0.00    -0.250 N 
ATOM     85  C   UNL A   1      30.903  29.674  24.481  1.00  0.00     0.237 C 
ATOM     86  C   UNL A   1      30.512  28.666  22.414  1.00  0.00     0.237 C 
ATOM     87  O   UNL A   1      31.425  30.020  25.530  1.00  0.00    -0.274 OA
ATOM     88  C   UNL A   1      29.685  30.258  23.866  1.00  0.00     0.095 C 
ATOM     89  C   UNL A   1      30.019  30.080  22.394  1.00  0.00     0.095 C 
ATOM     90  O   UNL A   1      30.439  27.868  21.495  1.00  0.00    -0.274 OA
ATOM     91  C   UNL A   1      29.002  31.627  23.882  1.00  0.00     0.002 C 
ATOM     92  C   UNL A   1      28.875  30.857  21.753  1.00  0.00     0.002 C 
ATOM     93  C   UNL A   1      27.502  31.288  23.746  1.00  0.00     0.005 C 
ATOM     94  C   UNL A   1      29.203  32.199  22.458  1.00  0.00     0.009 C 
ATOM     95  C   UNL A   1      27.468  30.579  22.359  1.00  0.00     0.005 C 
ENDBRANCH  83  84
ENDBRANCH  76  78
ENDBRANCH  70  74
ENDBRANCH  65  68
ENDBRANCH  63  64
ENDBRANCH   1  63
TORSDOF 13
ENDMDL
MODEL 2
REMARK VINA RESULT:     -13.6      2.203      8.192
REMARK SMILES O=C(NCCCNC(=O)c1ccccc1C(=O)Nc1ccc(N2C(=O)[C@H]3[C@@H]4CC[C@@H](C4)[C@@H]3C2=O)cc1)c1ccc(-c2c3nc(c(-c4c(F)cccc4F)c4ccc([nH]4)c(-c4c(F)cccc4F)c4nc(c(-c5c(F)cccc5F)c5ccc2[nH]5)C=C4)C=C3)cc1
REMARK SMILES IDX 5 1 4 2 3 3 1 4 2 5 37 7 38 8 90 9 39 10 89 11 40 12 41 13
REMARK SMILES IDX 42 14 83 15 43 16 88 17 82 18 84 19 44 20 87 21 81 22 80 23
REMARK SMILES IDX 45 25 71 26 54 27 70 28 55 29 58 30 69 31 85 32 56 33 57 34
REMARK SMILES IDX 68 36 86 37 59 38 46 39 47 40 52 41 48 42 49 43 51 44 53 45
REMARK SMILES IDX 50 46 72 47 73 48 78 49 74 50 75 51 77 52 79 53 76 54 60 55
REMARK SMILES IDX 61 56 66 57 62 58 63 59 65 60 67 61 64 62 6 63 7 64 8 65
REMARK SMILES IDX 9 67 10 68 11 69 15 70 12 71 14 72 13 73 16 74 17 75 18 76
REMARK SMILES IDX 19 78 20 79 36 80 21 81 35 82 22 83 23 84 24 85 33 86 25 87
REMARK SMILES IDX 26 88 32 89 34 90 27 91 30 92 28 93 31 94 29 95
REMARK H PARENT 3 6 84 24 58 35 7 66 18 77
REMARK Flexibility Score: inf
ROOT
ATOM      1  C   UNL A   1      32.486  29.411  26.796  1.00  0.00     0.042 C 
ENDROOT
BRANCH   1   2
ATOM      2  C   UNL A   1      33.811  29.424  27.546  1.00  0.00     0.118 C 
BRANCH   2   3
ATOM      3  N   UNL A   1      34.059  30.630  28.332  1.00  0.00    -0.352 N 
ATOM      4  O   UNL A   1      35.314  32.107  29.515  1.00  0.00    -0.269 OA
ATOM      5  C   UNL A   1      35.249  31.059  28.886  1.00  0.00     0.251 C 
ATOM      6  H   UNL A   1      33.280  31.210  28.486  1.00  0.00     0.163 HD
BRANCH   5   7
ATOM      7  C   UNL A   1      36.428  30.175  28.775  1.00  0.00     0.039 A 
ATOM      8  C   UNL A   1      36.848  29.434  29.879  1.00  0.00     0.014 A 
ATOM      9  C   UNL A   1      37.218  30.254  27.626  1.00  0.00     0.014 A 
ATOM     10  C   UNL A   1      38.161  28.985  29.924  1.00  0.00     0.010 A 
ATOM     11  C   UNL A   1      38.502  29.703  27.637  1.00  0.00     0.010 A 
ATOM     12  C   UNL A   1      39.014  29.140  28.815  1.00  0.00    -0.014 A 
BRANCH  12  13
ATOM     13  C   UNL A   1      40.443  28.740  28.935  1.00  0.00     0.031 A 
ATOM     14  C   UNL A   1      40.918  27.388  28.466  1.00  0.00     0.074 A 
ATOM     15  C   UNL A   1      41.330  29.635  29.410  1.00  0.00     0.049 A 
ATOM     16  N   UNL A   1      42.133  26.893  28.469  1.00  0.00    -0.248 NA
ATOM     17  C   UNL A   1      39.904  26.463  27.933  1.00  0.00     0.031 C 
ATOM     18  C   UNL A   1      40.995  30.976  29.892  1.00  0.00     0.029 A 
ATOM     19  N   UNL A   1      42.693  29.565  29.537  1.00  0.00    -0.354 N 
ATOM     20  C   UNL A   1      42.023  25.596  27.978  1.00  0.00     0.074 A 
ATOM     21  C   UNL A   1      40.620  25.370  27.702  1.00  0.00     0.031 C 
ATOM     22  C   UNL A   1      42.126  31.626  30.201  1.00  0.00     0.029 A 
ATOM     23  C   UNL A   1      43.256  30.726  30.006  1.00  0.00     0.049 A 
ATOM     24  H   UNL A   1      43.217  28.762  29.314  1.00  0.00     0.167 HD
ATOM     25  C   UNL A   1      43.000  24.679  27.773  1.00  0.00     0.037 A 
ATOM     26  C   UNL A   1      44.540  31.032  30.264  1.00  0.00     0.037 A 
ATOM     27  C   UNL A   1      44.402  24.919  28.010  1.00  0.00     0.049 A 
ATOM     28  C   UNL A   1      45.602  30.001  30.023  1.00  0.00     0.074 A 
ATOM     29  C   UNL A   1      45.473  24.068  27.794  1.00  0.00     0.029 A 
ATOM     30  N   UNL A   1      44.928  26.100  28.514  1.00  0.00    -0.354 N 
ATOM     31  N   UNL A   1      45.480  28.786  29.546  1.00  0.00    -0.248 NA
ATOM     32  C   UNL A   1      46.979  30.384  30.361  1.00  0.00     0.031 C 
ATOM     33  C   UNL A   1      46.642  24.719  28.203  1.00  0.00     0.029 A 
ATOM     34  C   UNL A   1      46.305  25.993  28.631  1.00  0.00     0.049 A 
ATOM     35  H   UNL A   1      44.401  26.897  28.752  1.00  0.00     0.167 HD
ATOM     36  C   UNL A   1      46.766  28.265  29.507  1.00  0.00     0.074 A 
ATOM     37  C   UNL A   1      47.653  29.304  29.992  1.00  0.00     0.031 C 
ATOM     38  C   UNL A   1      47.175  27.036  29.109  1.00  0.00     0.037 A 
BRANCH  25  39
ATOM     39  C   UNL A   1      42.594  23.317  27.285  1.00  0.00     0.057 A 
ATOM     40  C   UNL A   1      42.633  22.967  25.930  1.00  0.00     0.134 A 
ATOM     41  C   UNL A   1      42.209  22.324  28.195  1.00  0.00     0.134 A 
ATOM     42  F   UNL A   1      42.983  23.873  25.003  1.00  0.00    -0.206 F 
ATOM     43  C   UNL A   1      42.285  21.685  25.495  1.00  0.00     0.040 A 
ATOM     44  C   UNL A   1      41.882  21.032  27.776  1.00  0.00     0.040 A 
ATOM     45  F   UNL A   1      42.159  22.587  29.509  1.00  0.00    -0.206 F 
ATOM     46  C   UNL A   1      41.915  20.712  26.422  1.00  0.00     0.006 A 
ENDBRANCH  25  39
BRANCH  26  47
ATOM     47  C   UNL A   1      44.884  32.382  30.775  1.00  0.00     0.057 A 
ATOM     48  C   UNL A   1      45.015  32.623  32.146  1.00  0.00     0.134 A 
ATOM     49  C   UNL A   1      45.112  33.454  29.904  1.00  0.00     0.134 A 
ATOM     50  F   UNL A   1      44.794  31.639  33.030  1.00  0.00    -0.206 F 
ATOM     51  C   UNL A   1      45.347  33.887  32.635  1.00  0.00     0.040 A 
ATOM     52  C   UNL A   1      45.473  34.715  30.377  1.00  0.00     0.040 A 
ATOM     53  F   UNL A   1      45.012  33.281  28.577  1.00  0.00    -0.206 F 
ATOM     54  C   UNL A   1      45.585  34.935  31.748  1.00  0.00     0.006 A 
ENDBRANCH  26  47
BRANCH  38  55
ATOM     55  C   UNL A   1      48.650  26.768  29.147  1.00  0.00     0.057 A 
ATOM     56  C   UNL A   1      49.265  26.165  30.251  1.00  0.00     0.134 A 
ATOM     57  C   UNL A   1      49.463  27.112  28.059  1.00  0.00     0.134 A 
ATOM     58  F   UNL A   1      48.543  25.826  31.330  1.00  0.00    -0.206 F 
ATOM     59  C   UNL A   1      50.643  25.943  30.285  1.00  0.00     0.040 A 
ATOM     60  C   UNL A   1      50.837  26.870  28.071  1.00  0.00     0.040 A 
ATOM     61  F   UNL A   1      48.934  27.685  26.968  1.00  0.00    -0.206 F 
ATOM     62  C   UNL A   1      51.432  26.291  29.191  1.00  0.00     0.006 A 
ENDBRANCH  38  55
ENDBRANCH  12  13
ENDBRANCH   5   7
ENDBRANCH   2   3
ENDBRANCH   1   2
BRANCH   1  63
ATOM     63  C   UNL A   1      31.420  28.547  27.445  1.00  0.00     0.118 C 
BRANCH  63  64
ATOM     64  N   UNL A   1      31.797  27.150  27.510  1.00  0.00    -0.352 N 
ATOM     65  C   UNL A   1      31.591  26.160  26.590  1.00  0.00     0.252 C 
ATOM     66  H   UNL A   1      32.268  26.875  28.330  1.00  0.00     0.163 HD
ATOM     67  O   UNL A   1      31.873  24.997  26.874  1.00  0.00    -0.269 OA
BRANCH  65  68
ATOM     68  C   UNL A   1      30.905  26.426  25.314  1.00  0.00     0.052 A 
ATOM     69  C   UNL A   1      29.553  26.007  25.344  1.00  0.00     0.014 A 
ATOM     70  C   UNL A   1      31.422  27.048  24.166  1.00  0.00     0.052 A 
ATOM     71  C   UNL A   1      28.687  26.272  24.291  1.00  0.00     0.001 A 
ATOM     72  C   UNL A   1      30.509  27.326  23.120  1.00  0.00     0.014 A 
ATOM     73  C   UNL A   1      29.161  26.955  23.183  1.00  0.00     0.001 A 
BRANCH  70  74
ATOM     74  C   UNL A   1      32.789  27.605  23.926  1.00  0.00     0.256 C 
ATOM     75  O   UNL A   1      32.881  28.836  23.829  1.00  0.00    -0.269 OA
ATOM     76  N   UNL A   1      33.976  26.912  23.906  1.00  0.00    -0.322 N 
ATOM     77  H   UNL A   1      34.775  27.485  23.844  1.00  0.00     0.170 HD
BRANCH  76  78
ATOM     78  C   UNL A   1      34.257  25.550  23.959  1.00  0.00     0.041 A 
ATOM     79  C   UNL A   1      34.745  25.058  25.173  1.00  0.00     0.028 A 
ATOM     80  C   UNL A   1      33.999  24.685  22.903  1.00  0.00     0.028 A 
ATOM     81  C   UNL A   1      34.710  23.689  25.421  1.00  0.00     0.029 A 
ATOM     82  C   UNL A   1      34.095  23.308  23.112  1.00  0.00     0.029 A 
ATOM     83  C   UNL A   1      34.341  22.811  24.402  1.00  0.00     0.052 A 
BRANCH  83  84
ATOM     84  N   UNL A   1      34.018  21.473  24.690  1.00  0.00    -0.250 N 
ATOM     85  C   UNL A   1      34.972  20.479  24.925  1.00  0.00     0.237 C 
ATOM     86  C   UNL A   1      32.729  20.938  24.476  1.00  0.00     0.237 C 
ATOM     87  O   UNL A   1      36.125  20.570  25.319  1.00  0.00    -0.274 OA
ATOM     88  C   UNL A   1      34.309  19.258  24.404  1.00  0.00     0.095 C 
ATOM     89  C   UNL A   1      32.887  19.504  24.878  1.00  0.00     0.095 C 
ATOM     90  O   UNL A   1      31.686  21.485  24.161  1.00  0.00    -0.274 OA
ATOM     91  C   UNL A   1      34.469  17.752  24.621  1.00  0.00     0.002 C 
ATOM     92  C   UNL A   1      32.243  18.167  24.530  1.00  0.00     0.002 C 
ATOM     93  C   UNL A   1      34.078  17.143  23.257  1.00  0.00     0.005 C 
ATOM     94  C   UNL A   1      33.204  17.316  25.399  1.00  0.00     0.009 C 
ATOM     95  C   UNL A   1      32.599  17.610  23.120  1.00  0.00     0.005 C 
ENDBRANCH  83  84
ENDBRANCH  76  78
ENDBRANCH  70  74
ENDBRANCH  65  68
ENDBRANCH  63  64
ENDBRANCH   1  63
TORSDOF 13
ENDMDL
MODEL 3
REMARK VINA RESULT:     -13.5      2.177      8.277
REMARK SMILES O=C(NCCCNC(=O)c1ccccc1C(=O)Nc1ccc(N2C(=O)[C@H]3[C@@H]4CC[C@@H](C4)[C@@H]3C2=O)cc1)c1ccc(-c2c3nc(c(-c4c(F)cccc4F)c4ccc([nH]4)c(-c4c(F)cccc4F)c4nc(c(-c5c(F)cccc5F)c5ccc2[nH]5)C=C4)C=C3)cc1
REMARK SMILES IDX 5 1 4 2 3 3 1 4 2 5 37 7 38 8 90 9 39 10 89 11 40 12 41 13
REMARK SMILES IDX 42 14 83 15 43 16 88 17 82 18 84 19 44 20 87 21 81 22 80 23
REMARK SMILES IDX 45 25 71 26 54 27 70 28 55 29 58 30 69 31 85 32 56 33 57 34
REMARK SMILES IDX 68 36 86 37 59 38 46 39 47 40 52 41 48 42 49 43 51 44 53 45
REMARK SMILES IDX 50 46 72 47 73 48 78 49 74 50 75 51 77 52 79 53 76 54 60 55
REMARK SMILES IDX 61 56 66 57 62 58 63 59 65 60 67 61 64 62 6 63 7 64 8 65
REMARK SMILES IDX 9 67 10 68 11 69 15 70 12 71 14 72 13 73 16 74 17 75 18 76
REMARK SMILES IDX 19 78 20 79 36 80 21 81 35 82 22 83 23 84 24 85 33 86 25 87
REMARK SMILES IDX 26 88 32 89 34 90 27 91 30 92 28 93 31 94 29 95
REMARK H PARENT 3 6 84 24 58 35 7 66 18 77
REMARK Flexibility Score: inf
ROOT
ATOM      1  C   UNL A   1      32.461  29.454  26.767  1.00  0.00     0.042 C 
ENDROOT
BRANCH   1   2
ATOM      2  C   UNL A   1      33.792  29.466  27.506  1.00  0.00     0.118 C 
BRANCH   2   3
ATOM      3  N   UNL A   1      34.004  30.625  28.369  1.00  0.00    -0.352 N 
ATOM      4  O   UNL A   1      35.209  32.045  29.668  1.00  0.00    -0.269 OA
ATOM      5  C   UNL A   1      35.175  31.036  28.975  1.00  0.00     0.251 C 
ATOM      6  H   UNL A   1      33.212  31.183  28.541  1.00  0.00     0.163 HD
BRANCH   5   7
ATOM      7  C   UNL A   1      36.370  30.178  28.836  1.00  0.00     0.039 A 
ATOM      8  C   UNL A   1      36.875  29.505  29.947  1.00  0.00     0.014 A 
ATOM      9  C   UNL A   1      37.088  30.220  27.639  1.00  0.00     0.014 A 
ATOM     10  C   UNL A   1      38.201  29.094  29.935  1.00  0.00     0.010 A 
ATOM     11  C   UNL A   1      38.386  29.703  27.600  1.00  0.00     0.010 A 
ATOM     12  C   UNL A   1      38.982  29.214  28.771  1.00  0.00    -0.014 A 
BRANCH  12  13
ATOM     13  C   UNL A   1      40.426  28.858  28.823  1.00  0.00     0.031 A 
ATOM     14  C   UNL A   1      41.445  29.805  29.407  1.00  0.00     0.074 A 
ATOM     15  C   UNL A   1      40.810  27.638  28.399  1.00  0.00     0.049 A 
ATOM     16  N   UNL A   1      42.737  29.637  29.558  1.00  0.00    -0.248 NA
ATOM     17  C   UNL A   1      40.960  31.113  29.876  1.00  0.00     0.031 C 
ATOM     18  C   UNL A   1      39.921  26.632  27.817  1.00  0.00     0.029 A 
ATOM     19  N   UNL A   1      42.037  27.028  28.421  1.00  0.00    -0.354 N 
ATOM     20  C   UNL A   1      43.220  30.824  30.099  1.00  0.00     0.074 A 
ATOM     21  C   UNL A   1      42.086  31.713  30.237  1.00  0.00     0.031 C 
ATOM     22  C   UNL A   1      40.615  25.507  27.597  1.00  0.00     0.029 A 
ATOM     23  C   UNL A   1      42.010  25.736  27.955  1.00  0.00     0.049 A 
ATOM     24  H   UNL A   1      42.857  27.470  28.739  1.00  0.00     0.167 HD
ATOM     25  C   UNL A   1      44.489  31.142  30.453  1.00  0.00     0.037 A 
ATOM     26  C   UNL A   1      42.999  24.835  27.819  1.00  0.00     0.037 A 
ATOM     27  C   UNL A   1      45.610  30.242  30.353  1.00  0.00     0.049 A 
ATOM     28  C   UNL A   1      44.393  25.211  28.223  1.00  0.00     0.074 A 
ATOM     29  C   UNL A   1      46.927  30.456  30.725  1.00  0.00     0.029 A 
ATOM     30  N   UNL A   1      45.546  28.950  29.849  1.00  0.00    -0.354 N 
ATOM     31  N   UNL A   1      44.828  26.332  28.746  1.00  0.00    -0.248 NA
ATOM     32  C   UNL A   1      45.435  24.198  28.013  1.00  0.00     0.031 C 
ATOM     33  C   UNL A   1      47.666  29.311  30.408  1.00  0.00     0.029 A 
ATOM     34  C   UNL A   1      46.802  28.365  29.883  1.00  0.00     0.049 A 
ATOM     35  H   UNL A   1      44.728  28.514  29.516  1.00  0.00     0.167 HD
ATOM     36  C   UNL A   1      46.189  26.153  28.946  1.00  0.00     0.074 A 
ATOM     37  C   UNL A   1      46.503  24.809  28.506  1.00  0.00     0.031 C 
ATOM     38  C   UNL A   1      47.098  27.025  29.447  1.00  0.00     0.037 A 
BRANCH  25  39
ATOM     39  C   UNL A   1      44.748  32.531  30.964  1.00  0.00     0.057 A 
ATOM     40  C   UNL A   1      44.708  32.845  32.328  1.00  0.00     0.134 A 
ATOM     41  C   UNL A   1      45.096  33.559  30.077  1.00  0.00     0.134 A 
ATOM     42  F   UNL A   1      44.372  31.911  33.231  1.00  0.00    -0.206 F 
ATOM     43  C   UNL A   1      44.985  34.135  32.791  1.00  0.00     0.040 A 
ATOM     44  C   UNL A   1      45.400  34.845  30.529  1.00  0.00     0.040 A 
ATOM     45  F   UNL A   1      45.164  33.327  28.758  1.00  0.00    -0.206 F 
ATOM     46  C   UNL A   1      45.339  35.137  31.889  1.00  0.00     0.006 A 
ENDBRANCH  25  39
BRANCH  26  47
ATOM     47  C   UNL A   1      42.695  23.487  27.279  1.00  0.00     0.057 A 
ATOM     48  C   UNL A   1      42.330  22.436  28.126  1.00  0.00     0.134 A 
ATOM     49  C   UNL A   1      42.741  23.226  25.904  1.00  0.00     0.134 A 
ATOM     50  F   UNL A   1      42.284  22.622  29.453  1.00  0.00    -0.206 F 
ATOM     51  C   UNL A   1      42.034  21.167  27.626  1.00  0.00     0.040 A 
ATOM     52  C   UNL A   1      42.419  21.971  25.389  1.00  0.00     0.040 A 
ATOM     53  F   UNL A   1      43.074  24.198  25.041  1.00  0.00    -0.206 F 
ATOM     54  C   UNL A   1      42.070  20.935  26.253  1.00  0.00     0.006 A 
ENDBRANCH  26  47
BRANCH  38  55
ATOM     55  C   UNL A   1      48.508  26.532  29.579  1.00  0.00     0.057 A 
ATOM     56  C   UNL A   1      49.455  26.716  28.564  1.00  0.00     0.134 A 
ATOM     57  C   UNL A   1      48.924  25.870  30.742  1.00  0.00     0.134 A 
ATOM     58  F   UNL A   1      49.114  27.330  27.420  1.00  0.00    -0.206 F 
ATOM     59  C   UNL A   1      50.758  26.232  28.687  1.00  0.00     0.040 A 
ATOM     60  C   UNL A   1      50.231  25.404  30.887  1.00  0.00     0.040 A 
ATOM     61  F   UNL A   1      48.067  25.668  31.754  1.00  0.00    -0.206 F 
ATOM     62  C   UNL A   1      51.150  25.578  29.854  1.00  0.00     0.006 A 
ENDBRANCH  38  55
ENDBRANCH  12  13
ENDBRANCH   5   7
ENDBRANCH   2   3
ENDBRANCH   1   2
BRANCH   1  63
ATOM     63  C   UNL A   1      31.403  28.581  27.416  1.00  0.00     0.118 C 
BRANCH  63  64
ATOM     64  N   UNL A   1      31.792  27.186  27.480  1.00  0.00    -0.352 N 
ATOM     65  C   UNL A   1      31.606  26.199  26.555  1.00  0.00     0.252 C 
ATOM     66  H   UNL A   1      32.257  26.913  28.304  1.00  0.00     0.163 HD
ATOM     67  O   UNL A   1      31.895  25.037  26.837  1.00  0.00    -0.269 OA
BRANCH  65  68
ATOM     68  C   UNL A   1      30.931  26.464  25.272  1.00  0.00     0.052 A 
ATOM     69  C   UNL A   1      29.574  26.061  25.296  1.00  0.00     0.014 A 
ATOM     70  C   UNL A   1      31.463  27.071  24.123  1.00  0.00     0.052 A 
ATOM     71  C   UNL A   1      28.718  26.328  24.235  1.00  0.00     0.001 A 
ATOM     72  C   UNL A   1      30.560  27.352  23.069  1.00  0.00     0.014 A 
ATOM     73  C   UNL A   1      29.208  26.997  23.126  1.00  0.00     0.001 A 
BRANCH  70  74
ATOM     74  C   UNL A   1      32.838  27.610  23.888  1.00  0.00     0.256 C 
ATOM     75  O   UNL A   1      32.945  28.840  23.786  1.00  0.00    -0.269 OA
ATOM     76  N   UNL A   1      34.016  26.902  23.877  1.00  0.00    -0.322 N 
ATOM     77  H   UNL A   1      34.823  27.465  23.817  1.00  0.00     0.170 HD
BRANCH  76  78
ATOM     78  C   UNL A   1      34.280  25.538  23.937  1.00  0.00     0.041 A 
ATOM     79  C   UNL A   1      34.744  25.042  25.159  1.00  0.00     0.028 A 
ATOM     80  C   UNL A   1      34.028  24.673  22.879  1.00  0.00     0.028 A 
ATOM     81  C   UNL A   1      34.689  23.674  25.410  1.00  0.00     0.029 A 
ATOM     82  C   UNL A   1      34.104  23.295  23.092  1.00  0.00     0.029 A 
ATOM     83  C   UNL A   1      34.325  22.798  24.387  1.00  0.00     0.052 A 
BRANCH  83  84
ATOM     84  N   UNL A   1      33.982  21.465  24.672  1.00  0.00    -0.250 N 
ATOM     85  C   UNL A   1      34.920  20.462  24.932  1.00  0.00     0.237 C 
ATOM     86  C   UNL A   1      32.693  20.943  24.431  1.00  0.00     0.237 C 
ATOM     87  O   UNL A   1      36.065  20.542  25.351  1.00  0.00    -0.274 OA
ATOM     88  C   UNL A   1      34.256  19.246  24.400  1.00  0.00     0.095 C 
ATOM     89  C   UNL A   1      32.826  19.509  24.843  1.00  0.00     0.095 C 
ATOM     90  O   UNL A   1      31.662  21.499  24.092  1.00  0.00    -0.274 OA
ATOM     91  C   UNL A   1      34.395  17.739  24.626  1.00  0.00     0.002 C 
ATOM     92  C   UNL A   1      32.176  18.177  24.485  1.00  0.00     0.002 C 
ATOM     93  C   UNL A   1      34.028  17.129  23.256  1.00  0.00     0.005 C 
ATOM     94  C   UNL A   1      33.109  17.319  25.377  1.00  0.00     0.009 C 
ATOM     95  C   UNL A   1      32.557  17.611  23.085  1.00  0.00     0.005 C 
ENDBRANCH  83  84
ENDBRANCH  76  78
ENDBRANCH  70  74
ENDBRANCH  65  68
ENDBRANCH  63  64
ENDBRANCH   1  63
TORSDOF 13
ENDMDL
