MODEL 1
REMARK VINA RESULT:     -13.4      0.000      0.000
REMARK SMILES O=C1CCCC2=C1[C@H](c1ccc([N+](=O)[O-])cc1)CC(=O)N2c1ccccc1C(=O)NCCCNC(=O)c1ccc(-c2c3nc(c(-c4c(F)cccc4F)c4ccc([nH]4)c(-c4c(F)cccc4F)c4nc(c(-c5c(F)cccc5F)c5ccc2[nH]5)C=C4)C=C3)cc1
REMARK SMILES IDX 31 1 30 2 28 3 29 4 27 6 22 7 23 8 24 9 26 10 25 11 21 12
REMARK SMILES IDX 1 13 2 14 3 15 7 16 4 17 6 18 8 19 5 20 18 21 19 22 20 23
REMARK SMILES IDX 9 24 10 25 17 26 11 27 16 28 12 29 13 30 14 31 15 32 32 33
REMARK SMILES IDX 33 34 34 35 35 36 36 38 37 39 38 40 90 41 39 42 89 43 40 44
REMARK SMILES IDX 41 45 42 46 83 47 43 48 88 49 82 50 84 51 44 52 87 53 81 54
REMARK SMILES IDX 80 55 45 57 71 58 54 59 70 60 55 61 58 62 69 63 85 64 56 65
REMARK SMILES IDX 57 66 68 68 86 69 59 70 46 71 47 72 52 73 48 74 49 75 51 76
REMARK SMILES IDX 53 77 50 78 72 79 73 80 78 81 74 82 75 83 77 84 79 85 76 86
REMARK SMILES IDX 60 87 61 88 66 89 62 90 63 91 65 92 67 93 64 94
REMARK H PARENT 30 5 34 37 84 56 58 67
REMARK Flexibility Score: inf
ROOT
ATOM      1  C   UNL A   1      33.531  30.428  27.581  1.00  0.00     0.118 C 
ENDROOT
BRANCH   1   2
ATOM      2  N   UNL A   1      33.777  29.054  27.195  1.00  0.00    -0.352 N 
ATOM      3  C   UNL A   1      33.321  28.177  26.240  1.00  0.00     0.253 C 
ATOM      4  O   UNL A   1      34.029  27.154  26.226  1.00  0.00    -0.269 OA
ATOM      5  H   UNL A   1      34.454  28.635  27.775  1.00  0.00     0.163 HD
BRANCH   3   6
ATOM      6  C   UNL A   1      32.168  28.227  25.238  1.00  0.00     0.063 A 
ATOM      7  C   UNL A   1      31.517  27.287  24.404  1.00  0.00     0.061 A 
ATOM      8  C   UNL A   1      30.432  27.711  23.569  1.00  0.00     0.027 A 
ATOM      9  C   UNL A   1      30.002  29.024  23.481  1.00  0.00     0.002 A 
ATOM     10  C   UNL A   1      31.681  29.570  25.104  1.00  0.00     0.016 A 
ATOM     11  C   UNL A   1      30.640  29.966  24.249  1.00  0.00     0.001 A 
BRANCH   7  12
ATOM     12  N   UNL A   1      31.794  25.890  24.239  1.00  0.00    -0.284 N 
ATOM     13  O   UNL A   1      31.376  21.385  25.581  1.00  0.00    -0.294 OA
ATOM     14  C   UNL A   1      31.102  22.568  25.783  1.00  0.00     0.161 C 
ATOM     15  C   UNL A   1      30.228  22.997  26.945  1.00  0.00     0.081 C 
ATOM     16  C   UNL A   1      31.697  23.626  24.915  1.00  0.00     0.023 C 
ATOM     17  C   UNL A   1      29.277  24.100  26.533  1.00  0.00     0.015 C 
ATOM     18  C   UNL A   1      31.191  24.878  24.997  1.00  0.00     0.033 C 
ATOM     19  C   UNL A   1      32.778  23.241  23.897  1.00  0.00     0.064 C 
ATOM     20  C   UNL A   1      29.998  25.263  25.858  1.00  0.00     0.055 C 
ATOM     21  C   UNL A   1      32.541  24.116  22.680  1.00  0.00     0.114 C 
ATOM     22  C   UNL A   1      32.582  25.566  23.104  1.00  0.00     0.232 C 
ATOM     23  O   UNL A   1      33.225  26.375  22.431  1.00  0.00    -0.274 OA
BRANCH  19  24
ATOM     24  C   UNL A   1      34.234  23.309  24.390  1.00  0.00    -0.039 A 
ATOM     25  C   UNL A   1      34.651  23.725  25.683  1.00  0.00     0.011 A 
ATOM     26  C   UNL A   1      35.235  22.949  23.502  1.00  0.00     0.011 A 
ATOM     27  C   UNL A   1      35.980  23.614  26.129  1.00  0.00     0.086 A 
ATOM     28  C   UNL A   1      36.554  22.865  23.943  1.00  0.00     0.086 A 
ATOM     29  C   UNL A   1      36.922  23.118  25.256  1.00  0.00     0.269 A 
BRANCH  29  30
ATOM     30  N   UNL A   1      38.240  22.689  25.720  1.00  0.00     0.062 N 
ATOM     31  O   UNL A   1      38.972  23.536  26.242  1.00  0.00    -0.258 OA
ATOM     32  O   UNL A   1      38.516  21.483  25.603  1.00  0.00    -0.258 OA
ENDBRANCH  29  30
ENDBRANCH  19  24
ENDBRANCH   7  12
ENDBRANCH   3   6
ENDBRANCH   1   2
BRANCH   1  33
ATOM     33  C   UNL A   1      34.768  31.335  27.628  1.00  0.00     0.042 C 
BRANCH  33  34
ATOM     34  C   UNL A   1      35.019  32.311  28.807  1.00  0.00     0.118 C 
BRANCH  34  35
ATOM     35  N   UNL A   1      35.147  31.815  30.184  1.00  0.00    -0.352 N 
ATOM     36  C   UNL A   1      36.162  31.375  31.023  1.00  0.00     0.251 C 
ATOM     37  H   UNL A   1      34.274  31.787  30.637  1.00  0.00     0.163 HD
ATOM     38  O   UNL A   1      35.893  31.301  32.224  1.00  0.00    -0.269 OA
BRANCH  36  39
ATOM     39  C   UNL A   1      37.516  30.914  30.593  1.00  0.00     0.039 A 
ATOM     40  C   UNL A   1      38.338  30.232  31.524  1.00  0.00     0.014 A 
ATOM     41  C   UNL A   1      37.984  31.042  29.297  1.00  0.00     0.014 A 
ATOM     42  C   UNL A   1      39.546  29.597  31.133  1.00  0.00     0.010 A 
ATOM     43  C   UNL A   1      39.124  30.315  28.896  1.00  0.00     0.010 A 
ATOM     44  C   UNL A   1      39.951  29.592  29.793  1.00  0.00    -0.014 A 
BRANCH  44  45
ATOM     45  C   UNL A   1      41.247  28.974  29.288  1.00  0.00     0.031 A 
ATOM     46  C   UNL A   1      42.461  29.881  29.144  1.00  0.00     0.074 A 
ATOM     47  C   UNL A   1      41.401  27.696  28.859  1.00  0.00     0.049 A 
ATOM     48  N   UNL A   1      43.583  29.698  28.487  1.00  0.00    -0.248 NA
ATOM     49  C   UNL A   1      42.337  31.227  29.724  1.00  0.00     0.031 C 
ATOM     50  C   UNL A   1      40.378  26.653  28.812  1.00  0.00     0.029 A 
ATOM     51  N   UNL A   1      42.523  27.062  28.344  1.00  0.00    -0.354 N 
ATOM     52  C   UNL A   1      44.210  30.938  28.491  1.00  0.00     0.074 A 
ATOM     53  C   UNL A   1      43.269  31.878  29.053  1.00  0.00     0.031 C 
ATOM     54  C   UNL A   1      40.920  25.516  28.327  1.00  0.00     0.029 A 
ATOM     55  C   UNL A   1      42.331  25.739  28.005  1.00  0.00     0.049 A 
ATOM     56  H   UNL A   1      43.388  27.520  28.230  1.00  0.00     0.167 HD
ATOM     57  C   UNL A   1      45.482  31.281  28.173  1.00  0.00     0.037 A 
ATOM     58  C   UNL A   1      43.185  24.815  27.508  1.00  0.00     0.037 A 
ATOM     59  C   UNL A   1      46.496  30.350  27.773  1.00  0.00     0.049 A 
ATOM     60  C   UNL A   1      44.635  25.168  27.243  1.00  0.00     0.074 A 
ATOM     61  C   UNL A   1      47.842  30.582  27.550  1.00  0.00     0.029 A 
ATOM     62  N   UNL A   1      46.283  28.996  27.580  1.00  0.00    -0.354 N 
ATOM     63  N   UNL A   1      45.242  26.325  27.345  1.00  0.00    -0.248 NA
ATOM     64  C   UNL A   1      45.528  24.073  26.819  1.00  0.00     0.031 C 
ATOM     65  C   UNL A   1      48.443  29.368  27.205  1.00  0.00     0.029 A 
ATOM     66  C   UNL A   1      47.477  28.376  27.255  1.00  0.00     0.049 A 
ATOM     67  H   UNL A   1      45.413  28.544  27.661  1.00  0.00     0.167 HD
ATOM     68  C   UNL A   1      46.584  26.086  27.054  1.00  0.00     0.074 A 
ATOM     69  C   UNL A   1      46.709  24.675  26.772  1.00  0.00     0.031 C 
ATOM     70  C   UNL A   1      47.618  26.962  27.028  1.00  0.00     0.037 A 
BRANCH  57  71
ATOM     71  C   UNL A   1      45.853  32.730  28.337  1.00  0.00     0.057 A 
ATOM     72  C   UNL A   1      45.756  33.641  27.273  1.00  0.00     0.134 A 
ATOM     73  C   UNL A   1      46.354  33.210  29.551  1.00  0.00     0.134 A 
ATOM     74  F   UNL A   1      45.290  33.244  26.077  1.00  0.00    -0.206 F 
ATOM     75  C   UNL A   1      46.222  34.950  27.384  1.00  0.00     0.040 A 
ATOM     76  C   UNL A   1      46.777  34.534  29.690  1.00  0.00     0.040 A 
ATOM     77  F   UNL A   1      46.453  32.404  30.619  1.00  0.00    -0.206 F 
ATOM     78  C   UNL A   1      46.733  35.400  28.598  1.00  0.00     0.006 A 
ENDBRANCH  57  71
BRANCH  58  79
ATOM     79  C   UNL A   1      42.741  23.407  27.284  1.00  0.00     0.057 A 
ATOM     80  C   UNL A   1      42.488  22.933  25.986  1.00  0.00     0.134 A 
ATOM     81  C   UNL A   1      42.482  22.532  28.342  1.00  0.00     0.134 A 
ATOM     82  F   UNL A   1      42.675  23.736  24.928  1.00  0.00    -0.206 F 
ATOM     83  C   UNL A   1      41.970  21.656  25.754  1.00  0.00     0.040 A 
ATOM     84  C   UNL A   1      41.986  21.241  28.123  1.00  0.00     0.040 A 
ATOM     85  F   UNL A   1      42.689  22.919  29.609  1.00  0.00    -0.206 F 
ATOM     86  C   UNL A   1      41.720  20.804  26.826  1.00  0.00     0.006 A 
ENDBRANCH  58  79
BRANCH  70  87
ATOM     87  C   UNL A   1      49.003  26.432  26.783  1.00  0.00     0.057 A 
ATOM     88  C   UNL A   1      49.585  26.409  25.510  1.00  0.00     0.134 A 
ATOM     89  C   UNL A   1      49.793  26.002  27.860  1.00  0.00     0.134 A 
ATOM     90  F   UNL A   1      48.885  26.803  24.435  1.00  0.00    -0.206 F 
ATOM     91  C   UNL A   1      50.893  25.959  25.313  1.00  0.00     0.040 A 
ATOM     92  C   UNL A   1      51.110  25.576  27.679  1.00  0.00     0.040 A 
ATOM     93  F   UNL A   1      49.304  26.011  29.109  1.00  0.00    -0.206 F 
ATOM     94  C   UNL A   1      51.661  25.548  26.401  1.00  0.00     0.006 A 
ENDBRANCH  70  87
ENDBRANCH  44  45
ENDBRANCH  36  39
ENDBRANCH  34  35
ENDBRANCH  33  34
ENDBRANCH   1  33
TORSDOF 13
ENDMDL
MODEL 2
REMARK VINA RESULT:     -13.4      4.498      9.842
REMARK SMILES O=C1CCCC2=C1[C@H](c1ccc([N+](=O)[O-])cc1)CC(=O)N2c1ccccc1C(=O)NCCCNC(=O)c1ccc(-c2c3nc(c(-c4c(F)cccc4F)c4ccc([nH]4)c(-c4c(F)cccc4F)c4nc(c(-c5c(F)cccc5F)c5ccc2[nH]5)C=C4)C=C3)cc1
REMARK SMILES IDX 31 1 30 2 28 3 29 4 27 6 22 7 23 8 24 9 26 10 25 11 21 12
REMARK SMILES IDX 1 13 2 14 3 15 7 16 4 17 6 18 8 19 5 20 18 21 19 22 20 23
REMARK SMILES IDX 9 24 10 25 17 26 11 27 16 28 12 29 13 30 14 31 15 32 32 33
REMARK SMILES IDX 33 34 34 35 35 36 36 38 37 39 38 40 90 41 39 42 89 43 40 44
REMARK SMILES IDX 41 45 42 46 83 47 43 48 88 49 82 50 84 51 44 52 87 53 81 54
REMARK SMILES IDX 80 55 45 57 71 58 54 59 70 60 55 61 58 62 69 63 85 64 56 65
REMARK SMILES IDX 57 66 68 68 86 69 59 70 46 71 47 72 52 73 48 74 49 75 51 76
REMARK SMILES IDX 53 77 50 78 72 79 73 80 78 81 74 82 75 83 77 84 79 85 76 86
REMARK SMILES IDX 60 87 61 88 66 89 62 90 63 91 65 92 67 93 64 94
REMARK H PARENT 30 5 34 37 84 56 58 67
REMARK Flexibility Score: inf
ROOT
ATOM      1  C   UNL A   1      38.513  22.272  25.758  1.00  0.00     0.118 C 
ENDROOT
BRANCH   1   2
ATOM      2  N   UNL A   1      37.498  23.279  25.530  1.00  0.00    -0.352 N 
ATOM      3  C   UNL A   1      36.142  23.312  25.302  1.00  0.00     0.253 C 
ATOM      4  O   UNL A   1      35.724  24.481  25.374  1.00  0.00    -0.269 OA
ATOM      5  H   UNL A   1      37.883  24.185  25.540  1.00  0.00     0.163 HD
BRANCH   3   6
ATOM      6  C   UNL A   1      35.105  22.230  24.998  1.00  0.00     0.063 A 
ATOM      7  C   UNL A   1      33.738  22.221  24.634  1.00  0.00     0.061 A 
ATOM      8  C   UNL A   1      33.069  20.970  24.422  1.00  0.00     0.027 A 
ATOM      9  C   UNL A   1      33.673  19.739  24.609  1.00  0.00     0.002 A 
ATOM     10  C   UNL A   1      35.677  20.926  25.179  1.00  0.00     0.016 A 
ATOM     11  C   UNL A   1      34.988  19.716  25.001  1.00  0.00     0.001 A 
BRANCH   7  12
ATOM     12  N   UNL A   1      32.852  23.331  24.441  1.00  0.00    -0.284 N 
ATOM     13  O   UNL A   1      31.093  26.835  21.814  1.00  0.00    -0.294 OA
ATOM     14  C   UNL A   1      31.882  25.895  21.914  1.00  0.00     0.161 C 
ATOM     15  C   UNL A   1      32.802  25.501  20.776  1.00  0.00     0.081 C 
ATOM     16  C   UNL A   1      31.998  25.159  23.207  1.00  0.00     0.023 C 
ATOM     17  C   UNL A   1      32.902  23.996  20.652  1.00  0.00     0.015 C 
ATOM     18  C   UNL A   1      32.677  23.988  23.216  1.00  0.00     0.033 C 
ATOM     19  C   UNL A   1      31.266  25.694  24.444  1.00  0.00     0.064 C 
ATOM     20  C   UNL A   1      33.260  23.329  21.976  1.00  0.00     0.055 C 
ATOM     21  C   UNL A   1      30.797  24.475  25.217  1.00  0.00     0.114 C 
ATOM     22  C   UNL A   1      31.993  23.608  25.536  1.00  0.00     0.232 C 
ATOM     23  O   UNL A   1      32.123  23.151  26.674  1.00  0.00    -0.274 OA
BRANCH  19  24
ATOM     24  C   UNL A   1      32.052  26.679  25.328  1.00  0.00    -0.039 A 
ATOM     25  C   UNL A   1      33.410  27.054  25.144  1.00  0.00     0.011 A 
ATOM     26  C   UNL A   1      31.393  27.245  26.408  1.00  0.00     0.011 A 
ATOM     27  C   UNL A   1      34.026  28.077  25.885  1.00  0.00     0.086 A 
ATOM     28  C   UNL A   1      32.020  28.241  27.156  1.00  0.00     0.086 A 
ATOM     29  C   UNL A   1      33.290  28.712  26.860  1.00  0.00     0.269 A 
BRANCH  29  30
ATOM     30  N   UNL A   1      33.740  29.968  27.459  1.00  0.00     0.062 N 
ATOM     31  O   UNL A   1      34.836  29.975  28.028  1.00  0.00    -0.258 OA
ATOM     32  O   UNL A   1      33.007  30.961  27.309  1.00  0.00    -0.258 OA
ENDBRANCH  29  30
ENDBRANCH  19  24
ENDBRANCH   7  12
ENDBRANCH   3   6
ENDBRANCH   1   2
BRANCH   1  33
ATOM     33  C   UNL A   1      39.640  22.674  26.719  1.00  0.00     0.042 C 
BRANCH  33  34
ATOM     34  C   UNL A   1      41.127  22.365  26.406  1.00  0.00     0.118 C 
BRANCH  34  35
ATOM     35  N   UNL A   1      41.947  23.307  25.630  1.00  0.00    -0.352 N 
ATOM     36  C   UNL A   1      42.429  24.601  25.772  1.00  0.00     0.251 C 
ATOM     37  H   UNL A   1      42.234  22.912  24.775  1.00  0.00     0.163 HD
ATOM     38  O   UNL A   1      43.330  24.942  25.001  1.00  0.00    -0.269 OA
BRANCH  36  39
ATOM     39  C   UNL A   1      41.905  25.633  26.715  1.00  0.00     0.039 A 
ATOM     40  C   UNL A   1      41.156  25.218  27.843  1.00  0.00     0.014 A 
ATOM     41  C   UNL A   1      42.187  26.983  26.594  1.00  0.00     0.014 A 
ATOM     42  C   UNL A   1      40.797  26.120  28.879  1.00  0.00     0.010 A 
ATOM     43  C   UNL A   1      41.926  27.847  27.678  1.00  0.00     0.010 A 
ATOM     44  C   UNL A   1      41.209  27.457  28.838  1.00  0.00    -0.014 A 
BRANCH  44  45
ATOM     45  C   UNL A   1      40.841  28.504  29.880  1.00  0.00     0.031 A 
ATOM     46  C   UNL A   1      41.600  28.493  31.200  1.00  0.00     0.074 A 
ATOM     47  C   UNL A   1      39.826  29.399  29.781  1.00  0.00     0.049 A 
ATOM     48  N   UNL A   1      41.315  29.067  32.345  1.00  0.00    -0.248 NA
ATOM     49  C   UNL A   1      42.779  27.616  31.263  1.00  0.00     0.031 C 
ATOM     50  C   UNL A   1      38.898  29.559  28.663  1.00  0.00     0.029 A 
ATOM     51  N   UNL A   1      39.393  30.353  30.690  1.00  0.00    -0.354 N 
ATOM     52  C   UNL A   1      42.208  28.516  33.257  1.00  0.00     0.074 A 
ATOM     53  C   UNL A   1      42.904  27.456  32.567  1.00  0.00     0.031 C 
ATOM     54  C   UNL A   1      38.033  30.557  28.938  1.00  0.00     0.029 A 
ATOM     55  C   UNL A   1      38.321  31.108  30.263  1.00  0.00     0.049 A 
ATOM     56  H   UNL A   1      39.816  30.481  31.570  1.00  0.00     0.167 HD
ATOM     57  C   UNL A   1      42.526  28.899  34.517  1.00  0.00     0.037 A 
ATOM     58  C   UNL A   1      37.658  32.127  30.857  1.00  0.00     0.037 A 
ATOM     59  C   UNL A   1      41.980  30.048  35.177  1.00  0.00     0.049 A 
ATOM     60  C   UNL A   1      38.074  32.625  32.227  1.00  0.00     0.074 A 
ATOM     61  C   UNL A   1      42.330  30.588  36.402  1.00  0.00     0.029 A 
ATOM     62  N   UNL A   1      40.997  30.863  34.644  1.00  0.00    -0.354 N 
ATOM     63  N   UNL A   1      38.989  32.155  33.040  1.00  0.00    -0.248 NA
ATOM     64  C   UNL A   1      37.380  33.817  32.750  1.00  0.00     0.031 C 
ATOM     65  C   UNL A   1      41.545  31.725  36.619  1.00  0.00     0.029 A 
ATOM     66  C   UNL A   1      40.738  31.912  35.508  1.00  0.00     0.049 A 
ATOM     67  H   UNL A   1      40.549  30.716  33.779  1.00  0.00     0.167 HD
ATOM     68  C   UNL A   1      39.016  33.020  34.133  1.00  0.00     0.074 A 
ATOM     69  C   UNL A   1      38.029  34.045  33.885  1.00  0.00     0.031 C 
ATOM     70  C   UNL A   1      39.796  32.966  35.241  1.00  0.00     0.037 A 
BRANCH  57  71
ATOM     71  C   UNL A   1      43.587  28.096  35.220  1.00  0.00     0.057 A 
ATOM     72  C   UNL A   1      44.954  28.371  35.051  1.00  0.00     0.134 A 
ATOM     73  C   UNL A   1      43.246  27.011  36.034  1.00  0.00     0.134 A 
ATOM     74  F   UNL A   1      45.351  29.393  34.276  1.00  0.00    -0.206 F 
ATOM     75  C   UNL A   1      45.939  27.548  35.594  1.00  0.00     0.040 A 
ATOM     76  C   UNL A   1      44.225  26.211  36.627  1.00  0.00     0.040 A 
ATOM     77  F   UNL A   1      41.959  26.704  36.262  1.00  0.00    -0.206 F 
ATOM     78  C   UNL A   1      45.574  26.465  36.387  1.00  0.00     0.006 A 
ENDBRANCH  57  71
BRANCH  58  79
ATOM     79  C   UNL A   1      36.552  32.837  30.147  1.00  0.00     0.057 A 
ATOM     80  C   UNL A   1      35.209  32.559  30.450  1.00  0.00     0.134 A 
ATOM     81  C   UNL A   1      36.795  33.737  29.105  1.00  0.00     0.134 A 
ATOM     82  F   UNL A   1      34.907  31.672  31.410  1.00  0.00    -0.206 F 
ATOM     83  C   UNL A   1      34.156  33.127  29.729  1.00  0.00     0.040 A 
ATOM     84  C   UNL A   1      35.750  34.332  28.390  1.00  0.00     0.040 A 
ATOM     85  F   UNL A   1      38.052  34.042  28.752  1.00  0.00    -0.206 F 
ATOM     86  C   UNL A   1      34.425  34.020  28.696  1.00  0.00     0.006 A 
ENDBRANCH  58  79
BRANCH  70  87
ATOM     87  C   UNL A   1      39.704  34.087  36.238  1.00  0.00     0.057 A 
ATOM     88  C   UNL A   1      38.933  33.995  37.403  1.00  0.00     0.134 A 
ATOM     89  C   UNL A   1      40.463  35.253  36.059  1.00  0.00     0.134 A 
ATOM     90  F   UNL A   1      38.180  32.910  37.637  1.00  0.00    -0.206 F 
ATOM     91  C   UNL A   1      38.903  35.029  38.342  1.00  0.00     0.040 A 
ATOM     92  C   UNL A   1      40.463  36.281  37.003  1.00  0.00     0.040 A 
ATOM     93  F   UNL A   1      41.237  35.402  34.973  1.00  0.00    -0.206 F 
ATOM     94  C   UNL A   1      39.675  36.173  38.147  1.00  0.00     0.006 A 
ENDBRANCH  70  87
ENDBRANCH  44  45
ENDBRANCH  36  39
ENDBRANCH  34  35
ENDBRANCH  33  34
ENDBRANCH   1  33
TORSDOF 13
ENDMDL
MODEL 3
REMARK VINA RESULT:     -12.6      2.697      8.173
REMARK SMILES O=C1CCCC2=C1[C@H](c1ccc([N+](=O)[O-])cc1)CC(=O)N2c1ccccc1C(=O)NCCCNC(=O)c1ccc(-c2c3nc(c(-c4c(F)cccc4F)c4ccc([nH]4)c(-c4c(F)cccc4F)c4nc(c(-c5c(F)cccc5F)c5ccc2[nH]5)C=C4)C=C3)cc1
REMARK SMILES IDX 31 1 30 2 28 3 29 4 27 6 22 7 23 8 24 9 26 10 25 11 21 12
REMARK SMILES IDX 1 13 2 14 3 15 7 16 4 17 6 18 8 19 5 20 18 21 19 22 20 23
REMARK SMILES IDX 9 24 10 25 17 26 11 27 16 28 12 29 13 30 14 31 15 32 32 33
REMARK SMILES IDX 33 34 34 35 35 36 36 38 37 39 38 40 90 41 39 42 89 43 40 44
REMARK SMILES IDX 41 45 42 46 83 47 43 48 88 49 82 50 84 51 44 52 87 53 81 54
REMARK SMILES IDX 80 55 45 57 71 58 54 59 70 60 55 61 58 62 69 63 85 64 56 65
REMARK SMILES IDX 57 66 68 68 86 69 59 70 46 71 47 72 52 73 48 74 49 75 51 76
REMARK SMILES IDX 53 77 50 78 72 79 73 80 78 81 74 82 75 83 77 84 79 85 76 86
REMARK SMILES IDX 60 87 61 88 66 89 62 90 63 91 65 92 67 93 64 94
REMARK H PARENT 30 5 34 37 84 56 58 67
REMARK Flexibility Score: inf
ROOT
ATOM      1  C   UNL A   1      36.844  23.703  25.537  1.00  0.00     0.118 C 
ENDROOT
BRANCH   1   2
ATOM      2  N   UNL A   1      35.832  23.456  26.543  1.00  0.00    -0.352 N 
ATOM      3  C   UNL A   1      34.674  22.722  26.652  1.00  0.00     0.253 C 
ATOM      4  O   UNL A   1      34.286  22.706  27.833  1.00  0.00    -0.269 OA
ATOM      5  H   UNL A   1      36.025  23.947  27.374  1.00  0.00     0.163 HD
BRANCH   3   6
ATOM      6  C   UNL A   1      33.823  21.955  25.640  1.00  0.00     0.063 A 
ATOM      7  C   UNL A   1      32.772  22.286  24.751  1.00  0.00     0.061 A 
ATOM      8  C   UNL A   1      32.196  21.268  23.924  1.00  0.00     0.027 A 
ATOM      9  C   UNL A   1      32.570  19.936  23.976  1.00  0.00     0.002 A 
ATOM     10  C   UNL A   1      34.167  20.562  25.653  1.00  0.00     0.016 A 
ATOM     11  C   UNL A   1      33.559  19.577  24.858  1.00  0.00     0.001 A 
BRANCH   7  12
ATOM     12  N   UNL A   1      32.143  23.557  24.539  1.00  0.00    -0.284 N 
ATOM     13  O   UNL A   1      31.310  27.397  21.925  1.00  0.00    -0.294 OA
ATOM     14  C   UNL A   1      31.885  26.315  22.044  1.00  0.00     0.161 C 
ATOM     15  C   UNL A   1      32.785  25.766  20.955  1.00  0.00     0.081 C 
ATOM     16  C   UNL A   1      31.760  25.544  23.316  1.00  0.00     0.023 C 
ATOM     17  C   UNL A   1      32.591  24.275  20.786  1.00  0.00     0.015 C 
ATOM     18  C   UNL A   1      32.189  24.260  23.329  1.00  0.00     0.033 C 
ATOM     19  C   UNL A   1      31.066  26.191  24.521  1.00  0.00     0.064 C 
ATOM     20  C   UNL A   1      32.714  23.522  22.107  1.00  0.00     0.055 C 
ATOM     21  C   UNL A   1      30.310  25.076  25.219  1.00  0.00     0.114 C 
ATOM     22  C   UNL A   1      31.282  23.979  25.585  1.00  0.00     0.232 C 
ATOM     23  O   UNL A   1      31.238  23.483  26.713  1.00  0.00    -0.274 OA
BRANCH  19  24
ATOM     24  C   UNL A   1      31.969  26.979  25.486  1.00  0.00    -0.039 A 
ATOM     25  C   UNL A   1      33.385  27.066  25.409  1.00  0.00     0.011 A 
ATOM     26  C   UNL A   1      31.362  27.653  26.534  1.00  0.00     0.011 A 
ATOM     27  C   UNL A   1      34.142  27.928  26.222  1.00  0.00     0.086 A 
ATOM     28  C   UNL A   1      32.122  28.487  27.352  1.00  0.00     0.086 A 
ATOM     29  C   UNL A   1      33.481  28.688  27.161  1.00  0.00     0.269 A 
BRANCH  29  30
ATOM     30  N   UNL A   1      34.133  29.814  27.827  1.00  0.00     0.062 N 
ATOM     31  O   UNL A   1      35.210  29.604  28.394  1.00  0.00    -0.258 OA
ATOM     32  O   UNL A   1      33.581  30.924  27.734  1.00  0.00    -0.258 OA
ENDBRANCH  29  30
ENDBRANCH  19  24
ENDBRANCH   7  12
ENDBRANCH   3   6
ENDBRANCH   1   2
BRANCH   1  33
ATOM     33  C   UNL A   1      38.291  23.447  25.977  1.00  0.00     0.042 C 
BRANCH  33  34
ATOM     34  C   UNL A   1      38.853  22.010  26.135  1.00  0.00     0.118 C 
BRANCH  34  35
ATOM     35  N   UNL A   1      40.261  21.712  25.833  1.00  0.00    -0.352 N 
ATOM     36  C   UNL A   1      41.506  22.244  26.136  1.00  0.00     0.251 C 
ATOM     37  H   UNL A   1      40.343  20.916  25.259  1.00  0.00     0.163 HD
ATOM     38  O   UNL A   1      42.483  21.526  25.909  1.00  0.00    -0.269 OA
BRANCH  36  39
ATOM     39  C   UNL A   1      41.771  23.627  26.635  1.00  0.00     0.039 A 
ATOM     40  C   UNL A   1      41.746  24.706  25.719  1.00  0.00     0.014 A 
ATOM     41  C   UNL A   1      41.957  23.925  27.974  1.00  0.00     0.014 A 
ATOM     42  C   UNL A   1      41.794  26.058  26.151  1.00  0.00     0.010 A 
ATOM     43  C   UNL A   1      41.890  25.268  28.401  1.00  0.00     0.010 A 
ATOM     44  C   UNL A   1      41.830  26.373  27.514  1.00  0.00    -0.014 A 
BRANCH  44  45
ATOM     45  C   UNL A   1      41.921  27.787  28.069  1.00  0.00     0.031 A 
ATOM     46  C   UNL A   1      43.302  28.420  28.180  1.00  0.00     0.074 A 
ATOM     47  C   UNL A   1      40.889  28.513  28.566  1.00  0.00     0.049 A 
ATOM     48  N   UNL A   1      43.700  29.470  28.861  1.00  0.00    -0.248 NA
ATOM     49  C   UNL A   1      44.403  27.695  27.528  1.00  0.00     0.031 C 
ATOM     50  C   UNL A   1      39.488  28.105  28.655  1.00  0.00     0.029 A 
ATOM     51  N   UNL A   1      40.885  29.781  29.128  1.00  0.00    -0.354 N 
ATOM     52  C   UNL A   1      45.088  29.434  28.800  1.00  0.00     0.074 A 
ATOM     53  C   UNL A   1      45.444  28.181  28.177  1.00  0.00     0.031 C 
ATOM     54  C   UNL A   1      38.765  29.103  29.206  1.00  0.00     0.029 A 
ATOM     55  C   UNL A   1      39.645  30.226  29.534  1.00  0.00     0.049 A 
ATOM     56  H   UNL A   1      41.703  30.320  29.230  1.00  0.00     0.167 HD
ATOM     57  C   UNL A   1      46.006  30.379  29.116  1.00  0.00     0.037 A 
ATOM     58  C   UNL A   1      39.258  31.397  30.091  1.00  0.00     0.037 A 
ATOM     59  C   UNL A   1      45.686  31.698  29.578  1.00  0.00     0.049 A 
ATOM     60  C   UNL A   1      40.268  32.497  30.356  1.00  0.00     0.074 A 
ATOM     61  C   UNL A   1      46.538  32.764  29.807  1.00  0.00     0.029 A 
ATOM     62  N   UNL A   1      44.403  32.145  29.840  1.00  0.00    -0.354 N 
ATOM     63  N   UNL A   1      41.569  32.486  30.202  1.00  0.00    -0.248 NA
ATOM     64  C   UNL A   1      39.746  33.786  30.849  1.00  0.00     0.031 C 
ATOM     65  C   UNL A   1      45.770  33.856  30.223  1.00  0.00     0.029 A 
ATOM     66  C   UNL A   1      44.437  33.477  30.212  1.00  0.00     0.049 A 
ATOM     67  H   UNL A   1      43.588  31.596  29.771  1.00  0.00     0.167 HD
ATOM     68  C   UNL A   1      42.008  33.769  30.523  1.00  0.00     0.074 A 
ATOM     69  C   UNL A   1      40.838  34.537  30.881  1.00  0.00     0.031 C 
ATOM     70  C   UNL A   1      43.271  34.263  30.516  1.00  0.00     0.037 A 
BRANCH  57  71
ATOM     71  C   UNL A   1      47.449  30.025  28.881  1.00  0.00     0.057 A 
ATOM     72  C   UNL A   1      48.245  29.464  29.893  1.00  0.00     0.134 A 
ATOM     73  C   UNL A   1      48.063  30.289  27.652  1.00  0.00     0.134 A 
ATOM     74  F   UNL A   1      47.722  29.193  31.099  1.00  0.00    -0.206 F 
ATOM     75  C   UNL A   1      49.613  29.258  29.719  1.00  0.00     0.040 A 
ATOM     76  C   UNL A   1      49.422  30.038  27.450  1.00  0.00     0.040 A 
ATOM     77  F   UNL A   1      47.359  30.802  26.631  1.00  0.00    -0.206 F 
ATOM     78  C   UNL A   1      50.204  29.544  28.492  1.00  0.00     0.006 A 
ENDBRANCH  57  71
BRANCH  58  79
ATOM     79  C   UNL A   1      37.818  31.666  30.384  1.00  0.00     0.057 A 
ATOM     80  C   UNL A   1      37.040  32.439  29.507  1.00  0.00     0.134 A 
ATOM     81  C   UNL A   1      37.208  31.237  31.566  1.00  0.00     0.134 A 
ATOM     82  F   UNL A   1      37.577  32.919  28.376  1.00  0.00    -0.206 F 
ATOM     83  C   UNL A   1      35.723  32.796  29.808  1.00  0.00     0.040 A 
ATOM     84  C   UNL A   1      35.882  31.566  31.869  1.00  0.00     0.040 A 
ATOM     85  F   UNL A   1      37.893  30.504  32.455  1.00  0.00    -0.206 F 
ATOM     86  C   UNL A   1      35.138  32.356  30.992  1.00  0.00     0.006 A 
ENDBRANCH  58  79
BRANCH  70  87
ATOM     87  C   UNL A   1      43.472  35.723  30.807  1.00  0.00     0.057 A 
ATOM     88  C   UNL A   1      43.683  36.210  32.103  1.00  0.00     0.134 A 
ATOM     89  C   UNL A   1      43.526  36.650  29.755  1.00  0.00     0.134 A 
ATOM     90  F   UNL A   1      43.641  35.380  33.156  1.00  0.00    -0.206 F 
ATOM     91  C   UNL A   1      43.919  37.565  32.345  1.00  0.00     0.040 A 
ATOM     92  C   UNL A   1      43.788  38.002  29.981  1.00  0.00     0.040 A 
ATOM     93  F   UNL A   1      43.348  36.252  28.487  1.00  0.00    -0.206 F 
ATOM     94  C   UNL A   1      43.980  38.465  31.281  1.00  0.00     0.006 A 
ENDBRANCH  70  87
ENDBRANCH  44  45
ENDBRANCH  36  39
ENDBRANCH  34  35
ENDBRANCH  33  34
ENDBRANCH   1  33
TORSDOF 13
ENDMDL
