MODEL 1
REMARK VINA RESULT:     -10.7      0.000      0.000
REMARK SMILES C[C@H]1OCC[C@H]1C(=O)N1CCCC[C@@H]1CC(=O)NCCCNC(=O)c1ccc(-c2c3nc(c(-c4c(F)cccc4F)c4ccc([nH]4)c(-c4c(F)cccc4F)c4nc(c(-c5c(F)cccc5F)c5ccc2[nH]5)C=C4)C=C3)cc1
REMARK SMILES IDX 19 1 18 2 16 3 17 4 15 6 14 7 9 8 10 9 11 10 13 11 12 12
REMARK SMILES IDX 7 13 8 14 6 15 1 16 2 17 3 18 4 19 5 20 20 21 21 22 22 23
REMARK SMILES IDX 23 24 24 26 25 27 26 28 78 29 27 30 77 31 28 32 29 33 30 34
REMARK SMILES IDX 71 35 31 36 76 37 70 38 72 39 32 40 75 41 69 42 68 43 33 45
REMARK SMILES IDX 59 46 42 47 58 48 43 49 46 50 57 51 73 52 44 53 45 54 56 56
REMARK SMILES IDX 74 57 47 58 34 59 35 60 40 61 36 62 37 63 39 64 41 65 38 66
REMARK SMILES IDX 60 67 61 68 66 69 62 70 63 71 65 72 67 73 64 74 48 75 49 76
REMARK SMILES IDX 54 77 50 78 51 79 53 80 55 81 52 82
REMARK H PARENT 18 5 22 25 72 44 46 55
REMARK Flexibility Score: inf
ROOT
ATOM      1  C   UNL A   1      32.744  26.641  25.370  1.00  0.00     0.117 C 
ENDROOT
BRANCH   1   2
ATOM      2  N   UNL A   1      33.166  25.867  24.211  1.00  0.00    -0.356 N 
ATOM      3  C   UNL A   1      34.235  25.043  24.038  1.00  0.00     0.222 C 
ATOM      4  O   UNL A   1      34.552  24.730  22.890  1.00  0.00    -0.275 OA
ATOM      5  H   UNL A   1      32.582  25.955  23.422  1.00  0.00     0.163 HD
BRANCH   3   6
ATOM      6  C   UNL A   1      34.968  24.493  25.232  1.00  0.00     0.125 C 
BRANCH   6   7
ATOM      7  C   UNL A   1      36.232  23.690  24.894  1.00  0.00     0.094 C 
ATOM      8  N   UNL A   1      35.968  22.247  24.668  1.00  0.00    -0.339 N 
ATOM      9  C   UNL A   1      37.148  21.393  24.545  1.00  0.00     0.120 C 
ATOM     10  C   UNL A   1      38.085  21.554  25.737  1.00  0.00     0.022 C 
ATOM     11  C   UNL A   1      37.299  23.911  25.975  1.00  0.00     0.026 C 
ATOM     12  C   UNL A   1      38.516  23.006  25.856  1.00  0.00     0.004 C 
BRANCH   8  13
ATOM     13  C   UNL A   1      34.830  21.640  25.173  1.00  0.00     0.228 C 
ATOM     14  O   UNL A   1      34.721  21.385  26.372  1.00  0.00    -0.274 OA
BRANCH  13  15
ATOM     15  C   UNL A   1      33.718  21.300  24.168  1.00  0.00     0.109 C 
ATOM     16  C   UNL A   1      34.151  18.720  24.538  1.00  0.00     0.039 C 
ATOM     17  C   UNL A   1      33.194  19.864  24.225  1.00  0.00     0.127 C 
ATOM     18  O   UNL A   1      32.092  19.865  25.155  1.00  0.00    -0.378 OA
ATOM     19  C   UNL A   1      31.629  21.212  25.311  1.00  0.00     0.161 C 
ATOM     20  C   UNL A   1      32.416  22.067  24.338  1.00  0.00     0.044 C 
ENDBRANCH  13  15
ENDBRANCH   8  13
ENDBRANCH   6   7
ENDBRANCH   3   6
ENDBRANCH   1   2
BRANCH   1  21
ATOM     21  C   UNL A   1      33.579  27.911  25.516  1.00  0.00     0.042 C 
BRANCH  21  22
ATOM     22  C   UNL A   1      33.987  28.202  26.954  1.00  0.00     0.118 C 
BRANCH  22  23
ATOM     23  N   UNL A   1      33.747  29.587  27.307  1.00  0.00    -0.352 N 
ATOM     24  C   UNL A   1      34.547  30.437  28.035  1.00  0.00     0.251 C 
ATOM     25  H   UNL A   1      32.900  29.970  26.983  1.00  0.00     0.163 HD
ATOM     26  O   UNL A   1      34.091  31.488  28.471  1.00  0.00    -0.269 OA
BRANCH  24  27
ATOM     27  C   UNL A   1      35.955  30.069  28.309  1.00  0.00     0.039 A 
ATOM     28  C   UNL A   1      36.296  29.586  29.575  1.00  0.00     0.014 A 
ATOM     29  C   UNL A   1      36.939  30.212  27.326  1.00  0.00     0.014 A 
ATOM     30  C   UNL A   1      37.613  29.201  29.837  1.00  0.00     0.010 A 
ATOM     31  C   UNL A   1      38.230  29.747  27.561  1.00  0.00     0.010 A 
ATOM     32  C   UNL A   1      38.585  29.251  28.825  1.00  0.00    -0.014 A 
BRANCH  32  33
ATOM     33  C   UNL A   1      39.985  28.818  29.070  1.00  0.00     0.031 A 
ATOM     34  C   UNL A   1      40.961  29.763  29.719  1.00  0.00     0.074 A 
ATOM     35  C   UNL A   1      40.397  27.603  28.658  1.00  0.00     0.049 A 
ATOM     36  N   UNL A   1      42.241  29.609  29.940  1.00  0.00    -0.248 NA
ATOM     37  C   UNL A   1      40.431  31.067  30.150  1.00  0.00     0.031 C 
ATOM     38  C   UNL A   1      39.561  26.610  27.982  1.00  0.00     0.029 A 
ATOM     39  N   UNL A   1      41.628  27.002  28.739  1.00  0.00    -0.354 N 
ATOM     40  C   UNL A   1      42.672  30.799  30.515  1.00  0.00     0.074 A 
ATOM     41  C   UNL A   1      41.530  31.684  30.559  1.00  0.00     0.031 C 
ATOM     42  C   UNL A   1      40.296  25.515  27.731  1.00  0.00     0.029 A 
ATOM     43  C   UNL A   1      41.665  25.743  28.188  1.00  0.00     0.049 A 
ATOM     44  H   UNL A   1      42.411  27.432  29.152  1.00  0.00     0.167 HD
ATOM     45  C   UNL A   1      43.901  31.117  30.987  1.00  0.00     0.037 A 
ATOM     46  C   UNL A   1      42.686  24.876  28.058  1.00  0.00     0.037 A 
ATOM     47  C   UNL A   1      45.028  30.221  30.972  1.00  0.00     0.049 A 
ATOM     48  C   UNL A   1      44.045  25.257  28.577  1.00  0.00     0.074 A 
ATOM     49  C   UNL A   1      46.296  30.425  31.487  1.00  0.00     0.029 A 
ATOM     50  N   UNL A   1      45.020  28.953  30.414  1.00  0.00    -0.354 N 
ATOM     51  N   UNL A   1      44.421  26.361  29.176  1.00  0.00    -0.248 NA
ATOM     52  C   UNL A   1      45.122  24.272  28.403  1.00  0.00     0.031 C 
ATOM     53  C   UNL A   1      47.069  29.295  31.200  1.00  0.00     0.029 A 
ATOM     54  C   UNL A   1      46.269  28.371  30.549  1.00  0.00     0.049 A 
ATOM     55  H   UNL A   1      44.242  28.528  29.985  1.00  0.00     0.167 HD
ATOM     56  C   UNL A   1      45.768  26.194  29.470  1.00  0.00     0.074 A 
ATOM     57  C   UNL A   1      46.141  24.877  28.997  1.00  0.00     0.031 C 
ATOM     58  C   UNL A   1      46.621  27.056  30.076  1.00  0.00     0.037 A 
BRANCH  45  59
ATOM     59  C   UNL A   1      44.087  32.489  31.565  1.00  0.00     0.057 A 
ATOM     60  C   UNL A   1      44.512  33.569  30.781  1.00  0.00     0.134 A 
ATOM     61  C   UNL A   1      43.807  32.740  32.915  1.00  0.00     0.134 A 
ATOM     62  F   UNL A   1      44.809  33.393  29.484  1.00  0.00    -0.206 F 
ATOM     63  C   UNL A   1      44.680  34.844  31.324  1.00  0.00     0.040 A 
ATOM     64  C   UNL A   1      43.944  34.017  33.462  1.00  0.00     0.040 A 
ATOM     65  F   UNL A   1      43.388  31.753  33.720  1.00  0.00    -0.206 F 
ATOM     66  C   UNL A   1      44.389  35.072  32.668  1.00  0.00     0.006 A 
ENDBRANCH  45  59
BRANCH  46  67
ATOM     67  C   UNL A   1      42.462  23.553  27.423  1.00  0.00     0.057 A 
ATOM     68  C   UNL A   1      42.602  23.384  26.040  1.00  0.00     0.134 A 
ATOM     69  C   UNL A   1      42.097  22.431  28.175  1.00  0.00     0.134 A 
ATOM     70  F   UNL A   1      42.930  24.427  25.263  1.00  0.00    -0.206 F 
ATOM     71  C   UNL A   1      42.373  22.152  25.427  1.00  0.00     0.040 A 
ATOM     72  C   UNL A   1      41.887  21.186  27.578  1.00  0.00     0.040 A 
ATOM     73  F   UNL A   1      41.951  22.525  29.506  1.00  0.00    -0.206 F 
ATOM     74  C   UNL A   1      42.019  21.046  26.198  1.00  0.00     0.006 A 
ENDBRANCH  46  67
BRANCH  58  75
ATOM     75  C   UNL A   1      48.032  26.594  30.287  1.00  0.00     0.057 A 
ATOM     76  C   UNL A   1      48.409  25.879  31.430  1.00  0.00     0.134 A 
ATOM     77  C   UNL A   1      49.010  26.822  29.312  1.00  0.00     0.134 A 
ATOM     78  F   UNL A   1      47.522  25.640  32.407  1.00  0.00    -0.206 F 
ATOM     79  C   UNL A   1      49.716  25.419  31.602  1.00  0.00     0.040 A 
ATOM     80  C   UNL A   1      50.313  26.346  29.461  1.00  0.00     0.040 A 
ATOM     81  F   UNL A   1      48.710  27.494  28.190  1.00  0.00    -0.206 F 
ATOM     82  C   UNL A   1      50.670  25.645  30.612  1.00  0.00     0.006 A 
ENDBRANCH  58  75
ENDBRANCH  32  33
ENDBRANCH  24  27
ENDBRANCH  22  23
ENDBRANCH  21  22
ENDBRANCH   1  21
TORSDOF 13
ENDMDL
MODEL 2
REMARK VINA RESULT:     -10.6      2.218      7.323
REMARK SMILES C[C@H]1OCC[C@H]1C(=O)N1CCCC[C@@H]1CC(=O)NCCCNC(=O)c1ccc(-c2c3nc(c(-c4c(F)cccc4F)c4ccc([nH]4)c(-c4c(F)cccc4F)c4nc(c(-c5c(F)cccc5F)c5ccc2[nH]5)C=C4)C=C3)cc1
REMARK SMILES IDX 19 1 18 2 16 3 17 4 15 6 14 7 9 8 10 9 11 10 13 11 12 12
REMARK SMILES IDX 7 13 8 14 6 15 1 16 2 17 3 18 4 19 5 20 20 21 21 22 22 23
REMARK SMILES IDX 23 24 24 26 25 27 26 28 78 29 27 30 77 31 28 32 29 33 30 34
REMARK SMILES IDX 71 35 31 36 76 37 70 38 72 39 32 40 75 41 69 42 68 43 33 45
REMARK SMILES IDX 59 46 42 47 58 48 43 49 46 50 57 51 73 52 44 53 45 54 56 56
REMARK SMILES IDX 74 57 47 58 34 59 35 60 40 61 36 62 37 63 39 64 41 65 38 66
REMARK SMILES IDX 60 67 61 68 66 69 62 70 63 71 65 72 67 73 64 74 48 75 49 76
REMARK SMILES IDX 54 77 50 78 51 79 53 80 55 81 52 82
REMARK H PARENT 18 5 22 25 72 44 46 55
REMARK Flexibility Score: inf
ROOT
ATOM      1  C   UNL A   1      36.327  20.486  24.999  1.00  0.00     0.117 C 
ENDROOT
BRANCH   1   2
ATOM      2  N   UNL A   1      35.363  19.397  24.942  1.00  0.00    -0.356 N 
ATOM      3  C   UNL A   1      34.007  19.419  24.827  1.00  0.00     0.222 C 
ATOM      4  O   UNL A   1      33.381  18.393  25.096  1.00  0.00    -0.275 OA
ATOM      5  H   UNL A   1      35.757  18.495  24.997  1.00  0.00     0.163 HD
BRANCH   3   6
ATOM      6  C   UNL A   1      33.309  20.657  24.332  1.00  0.00     0.125 C 
BRANCH   6   7
ATOM      7  C   UNL A   1      32.416  21.348  25.371  1.00  0.00     0.094 C 
ATOM      8  N   UNL A   1      31.589  22.441  24.801  1.00  0.00    -0.339 N 
ATOM      9  C   UNL A   1      30.873  23.272  25.766  1.00  0.00     0.120 C 
ATOM     10  C   UNL A   1      31.813  23.847  26.820  1.00  0.00     0.022 C 
ATOM     11  C   UNL A   1      33.266  21.835  26.553  1.00  0.00     0.026 C 
ATOM     12  C   UNL A   1      32.523  22.716  27.546  1.00  0.00     0.004 C 
BRANCH   8  13
ATOM     13  C   UNL A   1      31.943  23.060  23.613  1.00  0.00     0.228 C 
ATOM     14  O   UNL A   1      32.015  22.428  22.559  1.00  0.00    -0.274 OA
BRANCH  13  15
ATOM     15  C   UNL A   1      32.245  24.566  23.677  1.00  0.00     0.109 C 
ATOM     16  C   UNL A   1      34.812  24.052  24.034  1.00  0.00     0.039 C 
ATOM     17  C   UNL A   1      33.713  24.953  23.484  1.00  0.00     0.127 C 
ATOM     18  O   UNL A   1      33.900  25.167  22.071  1.00  0.00    -0.378 OA
ATOM     19  C   UNL A   1      32.617  25.384  21.469  1.00  0.00     0.161 C 
ATOM     20  C   UNL A   1      31.600  25.415  22.592  1.00  0.00     0.044 C 
ENDBRANCH  13  15
ENDBRANCH   8  13
ENDBRANCH   6   7
ENDBRANCH   3   6
ENDBRANCH   1   2
BRANCH   1  21
ATOM     21  C   UNL A   1      37.734  19.992  24.670  1.00  0.00     0.042 C 
BRANCH  21  22
ATOM     22  C   UNL A   1      38.768  20.370  25.722  1.00  0.00     0.118 C 
BRANCH  22  23
ATOM     23  N   UNL A   1      39.821  19.378  25.815  1.00  0.00    -0.352 N 
ATOM     24  C   UNL A   1      41.156  19.568  26.088  1.00  0.00     0.251 C 
ATOM     25  H   UNL A   1      39.545  18.445  25.664  1.00  0.00     0.163 HD
ATOM     26  O   UNL A   1      41.962  18.670  25.873  1.00  0.00    -0.269 OA
BRANCH  24  27
ATOM     27  C   UNL A   1      41.620  20.869  26.622  1.00  0.00     0.039 A 
ATOM     28  C   UNL A   1      42.062  21.849  25.730  1.00  0.00     0.014 A 
ATOM     29  C   UNL A   1      41.633  21.117  27.998  1.00  0.00     0.014 A 
ATOM     30  C   UNL A   1      42.469  23.095  26.216  1.00  0.00     0.010 A 
ATOM     31  C   UNL A   1      41.956  22.386  28.472  1.00  0.00     0.010 A 
ATOM     32  C   UNL A   1      42.392  23.384  27.588  1.00  0.00    -0.014 A 
BRANCH  32  33
ATOM     33  C   UNL A   1      42.790  24.711  28.125  1.00  0.00     0.031 A 
ATOM     34  C   UNL A   1      41.746  25.770  28.360  1.00  0.00     0.074 A 
ATOM     35  C   UNL A   1      44.090  24.986  28.345  1.00  0.00     0.049 A 
ATOM     36  N   UNL A   1      41.898  27.013  28.739  1.00  0.00    -0.248 NA
ATOM     37  C   UNL A   1      40.347  25.388  28.106  1.00  0.00     0.031 C 
ATOM     38  C   UNL A   1      45.202  24.061  28.120  1.00  0.00     0.029 A 
ATOM     39  N   UNL A   1      44.697  26.131  28.797  1.00  0.00    -0.354 N 
ATOM     40  C   UNL A   1      40.622  27.564  28.750  1.00  0.00     0.074 A 
ATOM     41  C   UNL A   1      39.715  26.538  28.288  1.00  0.00     0.031 C 
ATOM     42  C   UNL A   1      46.352  24.666  28.457  1.00  0.00     0.029 A 
ATOM     43  C   UNL A   1      46.065  26.034  28.881  1.00  0.00     0.049 A 
ATOM     44  H   UNL A   1      44.199  26.945  29.039  1.00  0.00     0.167 HD
ATOM     45  C   UNL A   1      40.237  28.804  29.133  1.00  0.00     0.037 A 
ATOM     46  C   UNL A   1      46.985  26.946  29.248  1.00  0.00     0.037 A 
ATOM     47  C   UNL A   1      41.138  29.814  29.625  1.00  0.00     0.049 A 
ATOM     48  C   UNL A   1      46.534  28.322  29.657  1.00  0.00     0.074 A 
ATOM     49  C   UNL A   1      40.838  31.077  30.102  1.00  0.00     0.029 A 
ATOM     50  N   UNL A   1      42.515  29.672  29.702  1.00  0.00    -0.354 N 
ATOM     51  N   UNL A   1      45.318  28.808  29.722  1.00  0.00    -0.248 NA
ATOM     52  C   UNL A   1      47.584  29.276  30.042  1.00  0.00     0.031 C 
ATOM     53  C   UNL A   1      42.038  31.717  30.427  1.00  0.00     0.029 A 
ATOM     54  C   UNL A   1      43.082  30.835  30.195  1.00  0.00     0.049 A 
ATOM     55  H   UNL A   1      43.015  28.864  29.445  1.00  0.00     0.167 HD
ATOM     56  C   UNL A   1      45.454  30.113  30.178  1.00  0.00     0.074 A 
ATOM     57  C   UNL A   1      46.869  30.339  30.387  1.00  0.00     0.031 C 
ATOM     58  C   UNL A   1      44.492  31.041  30.402  1.00  0.00     0.037 A 
BRANCH  45  59
ATOM     59  C   UNL A   1      38.776  29.135  29.043  1.00  0.00     0.057 A 
ATOM     60  C   UNL A   1      37.928  29.040  30.153  1.00  0.00     0.134 A 
ATOM     61  C   UNL A   1      38.217  29.584  27.839  1.00  0.00     0.134 A 
ATOM     62  F   UNL A   1      38.397  28.605  31.333  1.00  0.00    -0.206 F 
ATOM     63  C   UNL A   1      36.570  29.353  30.064  1.00  0.00     0.040 A 
ATOM     64  C   UNL A   1      36.867  29.926  27.745  1.00  0.00     0.040 A 
ATOM     65  F   UNL A   1      38.974  29.705  26.739  1.00  0.00    -0.206 F 
ATOM     66  C   UNL A   1      36.038  29.804  28.858  1.00  0.00     0.006 A 
ENDBRANCH  45  59
BRANCH  46  67
ATOM     67  C   UNL A   1      48.425  26.586  29.262  1.00  0.00     0.057 A 
ATOM     68  C   UNL A   1      49.250  26.869  28.167  1.00  0.00     0.134 A 
ATOM     69  C   UNL A   1      49.011  25.947  30.361  1.00  0.00     0.134 A 
ATOM     70  F   UNL A   1      48.743  27.462  27.076  1.00  0.00    -0.206 F 
ATOM     71  C   UNL A   1      50.600  26.516  28.158  1.00  0.00     0.040 A 
ATOM     72  C   UNL A   1      50.365  25.609  30.376  1.00  0.00     0.040 A 
ATOM     73  F   UNL A   1      48.275  25.653  31.445  1.00  0.00    -0.206 F 
ATOM     74  C   UNL A   1      51.162  25.888  29.268  1.00  0.00     0.006 A 
ENDBRANCH  46  67
BRANCH  58  75
ATOM     75  C   UNL A   1      44.933  32.377  30.923  1.00  0.00     0.057 A 
ATOM     76  C   UNL A   1      45.209  33.447  30.063  1.00  0.00     0.134 A 
ATOM     77  C   UNL A   1      45.031  32.608  32.300  1.00  0.00     0.134 A 
ATOM     78  F   UNL A   1      45.145  33.285  28.733  1.00  0.00    -0.206 F 
ATOM     79  C   UNL A   1      45.581  34.699  30.556  1.00  0.00     0.040 A 
ATOM     80  C   UNL A   1      45.378  33.861  32.806  1.00  0.00     0.040 A 
ATOM     81  F   UNL A   1      44.772  31.626  33.176  1.00  0.00    -0.206 F 
ATOM     82  C   UNL A   1      45.658  34.911  31.931  1.00  0.00     0.006 A 
ENDBRANCH  58  75
ENDBRANCH  32  33
ENDBRANCH  24  27
ENDBRANCH  22  23
ENDBRANCH  21  22
ENDBRANCH   1  21
TORSDOF 13
ENDMDL
MODEL 3
REMARK VINA RESULT:     -10.6      2.858      8.087
REMARK SMILES C[C@H]1OCC[C@H]1C(=O)N1CCCC[C@@H]1CC(=O)NCCCNC(=O)c1ccc(-c2c3nc(c(-c4c(F)cccc4F)c4ccc([nH]4)c(-c4c(F)cccc4F)c4nc(c(-c5c(F)cccc5F)c5ccc2[nH]5)C=C4)C=C3)cc1
REMARK SMILES IDX 19 1 18 2 16 3 17 4 15 6 14 7 9 8 10 9 11 10 13 11 12 12
REMARK SMILES IDX 7 13 8 14 6 15 1 16 2 17 3 18 4 19 5 20 20 21 21 22 22 23
REMARK SMILES IDX 23 24 24 26 25 27 26 28 78 29 27 30 77 31 28 32 29 33 30 34
REMARK SMILES IDX 71 35 31 36 76 37 70 38 72 39 32 40 75 41 69 42 68 43 33 45
REMARK SMILES IDX 59 46 42 47 58 48 43 49 46 50 57 51 73 52 44 53 45 54 56 56
REMARK SMILES IDX 74 57 47 58 34 59 35 60 40 61 36 62 37 63 39 64 41 65 38 66
REMARK SMILES IDX 60 67 61 68 66 69 62 70 63 71 65 72 67 73 64 74 48 75 49 76
REMARK SMILES IDX 54 77 50 78 51 79 53 80 55 81 52 82
REMARK H PARENT 18 5 22 25 72 44 46 55
REMARK Flexibility Score: inf
ROOT
ATOM      1  C   UNL A   1      34.744  24.198  24.279  1.00  0.00     0.117 C 
ENDROOT
BRANCH   1   2
ATOM      2  N   UNL A   1      33.555  24.458  25.079  1.00  0.00    -0.356 N 
ATOM      3  C   UNL A   1      33.239  25.510  25.881  1.00  0.00     0.222 C 
ATOM      4  O   UNL A   1      32.315  25.377  26.683  1.00  0.00    -0.275 OA
ATOM      5  H   UNL A   1      32.866  23.755  25.031  1.00  0.00     0.163 HD
BRANCH   3   6
ATOM      6  C   UNL A   1      33.976  26.816  25.742  1.00  0.00     0.125 C 
BRANCH   6   7
ATOM      7  C   UNL A   1      33.477  27.935  26.667  1.00  0.00     0.094 C 
ATOM      8  N   UNL A   1      32.309  28.670  26.121  1.00  0.00    -0.339 N 
ATOM      9  C   UNL A   1      31.914  29.874  26.850  1.00  0.00     0.120 C 
ATOM     10  C   UNL A   1      33.083  30.838  27.020  1.00  0.00     0.022 C 
ATOM     11  C   UNL A   1      34.634  28.881  27.017  1.00  0.00     0.026 C 
ATOM     12  C   UNL A   1      34.216  30.143  27.757  1.00  0.00     0.004 C 
BRANCH   8  13
ATOM     13  C   UNL A   1      32.031  28.665  24.763  1.00  0.00     0.228 C 
ATOM     14  O   UNL A   1      32.763  29.240  23.959  1.00  0.00    -0.274 OA
BRANCH  13  15
ATOM     15  C   UNL A   1      30.767  27.913  24.316  1.00  0.00     0.109 C 
ATOM     16  C   UNL A   1      29.659  30.191  23.566  1.00  0.00     0.039 C 
ATOM     17  C   UNL A   1      29.834  28.688  23.383  1.00  0.00     0.127 C 
ATOM     18  O   UNL A   1      30.259  28.392  22.038  1.00  0.00    -0.378 OA
ATOM     19  C   UNL A   1      31.043  27.192  22.061  1.00  0.00     0.161 C 
ATOM     20  C   UNL A   1      31.003  26.664  23.481  1.00  0.00     0.044 C 
ENDBRANCH  13  15
ENDBRANCH   8  13
ENDBRANCH   6   7
ENDBRANCH   3   6
ENDBRANCH   1   2
BRANCH   1  21
ATOM     21  C   UNL A   1      35.559  23.047  24.864  1.00  0.00     0.042 C 
BRANCH  21  22
ATOM     22  C   UNL A   1      36.625  23.503  25.851  1.00  0.00     0.118 C 
BRANCH  22  23
ATOM     23  N   UNL A   1      37.642  22.488  26.045  1.00  0.00    -0.352 N 
ATOM     24  C   UNL A   1      38.973  22.656  26.351  1.00  0.00     0.251 C 
ATOM     25  H   UNL A   1      37.341  21.556  25.944  1.00  0.00     0.163 HD
ATOM     26  O   UNL A   1      39.756  21.722  26.223  1.00  0.00    -0.269 OA
BRANCH  24  27
ATOM     27  C   UNL A   1      39.461  23.975  26.816  1.00  0.00     0.039 A 
ATOM     28  C   UNL A   1      40.038  24.848  25.891  1.00  0.00     0.014 A 
ATOM     29  C   UNL A   1      39.363  24.343  28.161  1.00  0.00     0.014 A 
ATOM     30  C   UNL A   1      40.471  26.110  26.307  1.00  0.00     0.010 A 
ATOM     31  C   UNL A   1      39.714  25.631  28.556  1.00  0.00     0.010 A 
ATOM     32  C   UNL A   1      40.286  26.524  27.636  1.00  0.00    -0.014 A 
BRANCH  32  33
ATOM     33  C   UNL A   1      40.710  27.871  28.096  1.00  0.00     0.031 A 
ATOM     34  C   UNL A   1      42.173  28.225  28.139  1.00  0.00     0.074 A 
ATOM     35  C   UNL A   1      39.790  28.754  28.531  1.00  0.00     0.049 A 
ATOM     36  N   UNL A   1      42.750  29.311  28.588  1.00  0.00    -0.248 NA
ATOM     37  C   UNL A   1      43.114  27.211  27.637  1.00  0.00     0.031 C 
ATOM     38  C   UNL A   1      38.346  28.520  28.579  1.00  0.00     0.029 A 
ATOM     39  N   UNL A   1      39.937  30.026  29.028  1.00  0.00    -0.354 N 
ATOM     40  C   UNL A   1      44.116  29.102  28.440  1.00  0.00     0.074 A 
ATOM     41  C   UNL A   1      44.284  27.766  27.912  1.00  0.00     0.031 C 
ATOM     42  C   UNL A   1      37.738  29.619  29.054  1.00  0.00     0.029 A 
ATOM     43  C   UNL A   1      38.750  30.619  29.386  1.00  0.00     0.049 A 
ATOM     44  H   UNL A   1      40.810  30.471  29.120  1.00  0.00     0.167 HD
ATOM     45  C   UNL A   1      45.136  29.953  28.698  1.00  0.00     0.037 A 
ATOM     46  C   UNL A   1      38.505  31.826  29.928  1.00  0.00     0.037 A 
ATOM     47  C   UNL A   1      44.965  31.294  29.192  1.00  0.00     0.049 A 
ATOM     48  C   UNL A   1      39.656  32.750  30.218  1.00  0.00     0.074 A 
ATOM     49  C   UNL A   1      45.930  32.258  29.421  1.00  0.00     0.029 A 
ATOM     50  N   UNL A   1      43.745  31.859  29.533  1.00  0.00    -0.354 N 
ATOM     51  N   UNL A   1      40.938  32.562  30.014  1.00  0.00    -0.248 NA
ATOM     52  C   UNL A   1      39.328  34.052  30.814  1.00  0.00     0.031 C 
ATOM     53  C   UNL A   1      45.299  33.392  29.942  1.00  0.00     0.029 A 
ATOM     54  C   UNL A   1      43.936  33.150  29.994  1.00  0.00     0.049 A 
ATOM     55  H   UNL A   1      42.873  31.408  29.457  1.00  0.00     0.167 HD
ATOM     56  C   UNL A   1      41.565  33.728  30.433  1.00  0.00     0.074 A 
ATOM     57  C   UNL A   1      40.522  34.624  30.889  1.00  0.00     0.031 C 
ATOM     58  C   UNL A   1      42.886  34.030  30.440  1.00  0.00     0.037 A 
BRANCH  45  59
ATOM     59  C   UNL A   1      46.531  29.460  28.442  1.00  0.00     0.057 A 
ATOM     60  C   UNL A   1      47.154  29.623  27.198  1.00  0.00     0.134 A 
ATOM     61  C   UNL A   1      47.270  28.845  29.460  1.00  0.00     0.134 A 
ATOM     62  F   UNL A   1      46.497  30.193  26.176  1.00  0.00    -0.206 F 
ATOM     63  C   UNL A   1      48.453  29.165  26.967  1.00  0.00     0.040 A 
ATOM     64  C   UNL A   1      48.580  28.409  29.249  1.00  0.00     0.040 A 
ATOM     65  F   UNL A   1      46.737  28.665  30.678  1.00  0.00    -0.206 F 
ATOM     66  C   UNL A   1      49.172  28.563  27.997  1.00  0.00     0.006 A 
ENDBRANCH  45  59
BRANCH  46  67
ATOM     67  C   UNL A   1      37.109  32.242  30.218  1.00  0.00     0.057 A 
ATOM     68  C   UNL A   1      36.349  32.929  29.265  1.00  0.00     0.134 A 
ATOM     69  C   UNL A   1      36.505  31.972  31.451  1.00  0.00     0.134 A 
ATOM     70  F   UNL A   1      36.880  33.235  28.071  1.00  0.00    -0.206 F 
ATOM     71  C   UNL A   1      35.044  33.346  29.532  1.00  0.00     0.040 A 
ATOM     72  C   UNL A   1      35.193  32.362  31.724  1.00  0.00     0.040 A 
ATOM     73  F   UNL A   1      37.179  31.311  32.405  1.00  0.00    -0.206 F 
ATOM     74  C   UNL A   1      34.461  33.058  30.764  1.00  0.00     0.006 A 
ENDBRANCH  46  67
BRANCH  58  75
ATOM     75  C   UNL A   1      43.279  35.391  30.932  1.00  0.00     0.057 A 
ATOM     76  C   UNL A   1      43.506  35.645  32.290  1.00  0.00     0.134 A 
ATOM     77  C   UNL A   1      43.483  36.443  30.032  1.00  0.00     0.134 A 
ATOM     78  F   UNL A   1      43.315  34.682  33.204  1.00  0.00    -0.206 F 
ATOM     79  C   UNL A   1      43.908  36.904  32.737  1.00  0.00     0.040 A 
ATOM     80  C   UNL A   1      43.909  37.700  30.463  1.00  0.00     0.040 A 
ATOM     81  F   UNL A   1      43.290  36.262  28.717  1.00  0.00    -0.206 F 
ATOM     82  C   UNL A   1      44.119  37.934  31.822  1.00  0.00     0.006 A 
ENDBRANCH  58  75
ENDBRANCH  32  33
ENDBRANCH  24  27
ENDBRANCH  22  23
ENDBRANCH  21  22
ENDBRANCH   1  21
TORSDOF 13
ENDMDL
