MODEL 1
REMARK VINA RESULT:     -11.4      0.000      0.000
REMARK SMILES O=C(NCCCNC(=O)c1cc(Br)ccc1NC(=O)c1ccc(Br)s1)c1ccc(-c2c3nc(c(-c4c(F)cccc4F)c4ccc([nH]4)c(-c4c(F)cccc4F)c4nc(c(-c5c(F)cccc5F)c5ccc2[nH]5)C=C4)C=C3)cc1
REMARK SMILES IDX 5 1 4 2 3 3 1 4 2 5 26 7 27 8 79 9 28 10 78 11 29 12 30 13
REMARK SMILES IDX 31 14 72 15 32 16 77 17 71 18 73 19 33 20 76 21 70 22 69 23
REMARK SMILES IDX 34 25 60 26 43 27 59 28 44 29 47 30 58 31 74 32 45 33 46 34
REMARK SMILES IDX 57 36 75 37 48 38 35 39 36 40 41 41 37 42 38 43 40 44 42 45
REMARK SMILES IDX 39 46 61 47 62 48 67 49 63 50 64 51 66 52 68 53 65 54 49 55
REMARK SMILES IDX 50 56 55 57 51 58 52 59 54 60 56 61 53 62 6 63 7 64 8 65
REMARK SMILES IDX 9 67 10 68 11 69 16 70 12 71 15 72 13 73 14 74 17 75 18 76
REMARK SMILES IDX 19 78 20 79 21 80 25 81 22 82 23 83 24 84
REMARK H PARENT 3 6 73 24 47 35 7 66 17 77
REMARK Flexibility Score: inf
ROOT
ATOM      1  C   UNL A   1      35.262  23.301  26.169  1.00  0.00     0.042 C 
ENDROOT
BRANCH   1   2
ATOM      2  C   UNL A   1      36.630  23.589  25.563  1.00  0.00     0.118 C 
BRANCH   2   3
ATOM      3  N   UNL A   1      37.635  22.617  25.973  1.00  0.00    -0.352 N 
ATOM      4  O   UNL A   1      39.647  21.820  26.566  1.00  0.00    -0.269 OA
ATOM      5  C   UNL A   1      38.891  22.786  26.501  1.00  0.00     0.251 C 
ATOM      6  H   UNL A   1      37.368  21.677  25.851  1.00  0.00     0.163 HD
BRANCH   5   7
ATOM      7  C   UNL A   1      39.352  24.107  26.984  1.00  0.00     0.039 A 
ATOM      8  C   UNL A   1      39.278  24.453  28.334  1.00  0.00     0.014 A 
ATOM      9  C   UNL A   1      39.944  24.993  26.075  1.00  0.00     0.014 A 
ATOM     10  C   UNL A   1      39.660  25.725  28.750  1.00  0.00     0.010 A 
ATOM     11  C   UNL A   1      40.410  26.238  26.509  1.00  0.00     0.010 A 
ATOM     12  C   UNL A   1      40.247  26.624  27.847  1.00  0.00    -0.014 A 
BRANCH  12  13
ATOM     13  C   UNL A   1      40.739  27.934  28.344  1.00  0.00     0.031 A 
ATOM     14  C   UNL A   1      42.200  28.281  28.308  1.00  0.00     0.074 A 
ATOM     15  C   UNL A   1      39.843  28.830  28.801  1.00  0.00     0.049 A 
ATOM     16  N   UNL A   1      42.790  29.392  28.671  1.00  0.00    -0.248 NA
ATOM     17  C   UNL A   1      43.121  27.248  27.810  1.00  0.00     0.031 C 
ATOM     18  C   UNL A   1      38.398  28.601  28.902  1.00  0.00     0.029 A 
ATOM     19  N   UNL A   1      40.006  30.116  29.244  1.00  0.00    -0.354 N 
ATOM     20  C   UNL A   1      44.147  29.188  28.463  1.00  0.00     0.074 A 
ATOM     21  C   UNL A   1      44.299  27.838  27.963  1.00  0.00     0.031 C 
ATOM     22  C   UNL A   1      37.804  29.724  29.328  1.00  0.00     0.029 A 
ATOM     23  C   UNL A   1      38.826  30.734  29.578  1.00  0.00     0.049 A 
ATOM     24  H   UNL A   1      40.884  30.556  29.315  1.00  0.00     0.167 HD
ATOM     25  C   UNL A   1      45.172  30.052  28.666  1.00  0.00     0.037 A 
ATOM     26  C   UNL A   1      38.589  31.974  30.043  1.00  0.00     0.037 A 
ATOM     27  C   UNL A   1      45.018  31.403  29.141  1.00  0.00     0.049 A 
ATOM     28  C   UNL A   1      39.743  32.909  30.254  1.00  0.00     0.074 A 
ATOM     29  C   UNL A   1      45.993  32.364  29.340  1.00  0.00     0.029 A 
ATOM     30  N   UNL A   1      43.808  31.984  29.490  1.00  0.00    -0.354 N 
ATOM     31  N   UNL A   1      41.018  32.709  30.027  1.00  0.00    -0.248 NA
ATOM     32  C   UNL A   1      39.426  34.239  30.792  1.00  0.00     0.031 C 
ATOM     33  C   UNL A   1      45.378  33.517  29.841  1.00  0.00     0.029 A 
ATOM     34  C   UNL A   1      44.015  33.285  29.919  1.00  0.00     0.049 A 
ATOM     35  H   UNL A   1      42.932  31.538  29.440  1.00  0.00     0.167 HD
ATOM     36  C   UNL A   1      41.656  33.888  30.385  1.00  0.00     0.074 A 
ATOM     37  C   UNL A   1      40.624  34.806  30.826  1.00  0.00     0.031 C 
ATOM     38  C   UNL A   1      42.978  34.181  30.356  1.00  0.00     0.037 A 
BRANCH  25  39
ATOM     39  C   UNL A   1      46.559  29.560  28.380  1.00  0.00     0.057 A 
ATOM     40  C   UNL A   1      47.149  29.707  27.118  1.00  0.00     0.134 A 
ATOM     41  C   UNL A   1      47.333  28.981  29.393  1.00  0.00     0.134 A 
ATOM     42  F   UNL A   1      46.456  30.243  26.102  1.00  0.00    -0.206 F 
ATOM     43  C   UNL A   1      48.455  29.282  26.871  1.00  0.00     0.040 A 
ATOM     44  C   UNL A   1      48.646  28.570  29.163  1.00  0.00     0.040 A 
ATOM     45  F   UNL A   1      46.829  28.816  30.625  1.00  0.00    -0.206 F 
ATOM     46  C   UNL A   1      49.211  28.718  27.898  1.00  0.00     0.006 A 
ENDBRANCH  25  39
BRANCH  26  47
ATOM     47  C   UNL A   1      37.199  32.398  30.334  1.00  0.00     0.057 A 
ATOM     48  C   UNL A   1      36.436  33.078  29.378  1.00  0.00     0.134 A 
ATOM     49  C   UNL A   1      36.595  32.113  31.563  1.00  0.00     0.134 A 
ATOM     50  F   UNL A   1      36.968  33.393  28.189  1.00  0.00    -0.206 F 
ATOM     51  C   UNL A   1      35.122  33.469  29.639  1.00  0.00     0.040 A 
ATOM     52  C   UNL A   1      35.275  32.477  31.828  1.00  0.00     0.040 A 
ATOM     53  F   UNL A   1      37.273  31.456  32.514  1.00  0.00    -0.206 F 
ATOM     54  C   UNL A   1      34.536  33.162  30.866  1.00  0.00     0.006 A 
ENDBRANCH  26  47
BRANCH  38  55
ATOM     55  C   UNL A   1      43.375  35.554  30.802  1.00  0.00     0.057 A 
ATOM     56  C   UNL A   1      43.634  35.842  32.148  1.00  0.00     0.134 A 
ATOM     57  C   UNL A   1      43.522  36.593  29.875  1.00  0.00     0.134 A 
ATOM     58  F   UNL A   1      43.496  34.891  33.084  1.00  0.00    -0.206 F 
ATOM     59  C   UNL A   1      44.008  37.121  32.560  1.00  0.00     0.040 A 
ATOM     60  C   UNL A   1      43.913  37.871  30.271  1.00  0.00     0.040 A 
ATOM     61  F   UNL A   1      43.291  36.379  28.571  1.00  0.00    -0.206 F 
ATOM     62  C   UNL A   1      44.153  38.140  31.619  1.00  0.00     0.006 A 
ENDBRANCH  38  55
ENDBRANCH  12  13
ENDBRANCH   5   7
ENDBRANCH   2   3
ENDBRANCH   1   2
BRANCH   1  63
ATOM     63  C   UNL A   1      34.264  24.440  25.999  1.00  0.00     0.118 C 
BRANCH  63  64
ATOM     64  N   UNL A   1      34.287  25.006  24.653  1.00  0.00    -0.352 N 
ATOM     65  C   UNL A   1      33.725  26.170  24.185  1.00  0.00     0.253 C 
ATOM     66  H   UNL A   1      34.779  24.478  23.984  1.00  0.00     0.163 HD
ATOM     67  O   UNL A   1      33.648  26.383  22.980  1.00  0.00    -0.269 OA
BRANCH  65  68
ATOM     68  C   UNL A   1      33.143  27.136  25.142  1.00  0.00     0.064 A 
ATOM     69  C   UNL A   1      33.988  28.119  25.682  1.00  0.00     0.031 A 
ATOM     70  C   UNL A   1      31.792  27.040  25.533  1.00  0.00     0.054 A 
ATOM     71  C   UNL A   1      33.541  28.900  26.737  1.00  0.00     0.018 A 
ATOM     72  C   UNL A   1      31.403  27.780  26.652  1.00  0.00     0.028 A 
ATOM     73  Br  UNL A   1      34.698  30.165  27.525  1.00  0.00    -0.051 Br
ATOM     74  C   UNL A   1      32.266  28.706  27.251  1.00  0.00     0.018 A 
BRANCH  70  75
ATOM     75  N   UNL A   1      30.917  26.199  24.804  1.00  0.00    -0.321 N 
ATOM     76  C   UNL A   1      29.982  26.431  23.812  1.00  0.00     0.265 C 
ATOM     77  H   UNL A   1      30.988  25.251  25.056  1.00  0.00     0.170 HD
ATOM     78  O   UNL A   1      29.251  25.492  23.491  1.00  0.00    -0.268 OA
BRANCH  76  79
ATOM     79  C   UNL A   1      29.923  27.718  23.151  1.00  0.00     0.093 A 
ATOM     80  C   UNL A   1      30.917  28.410  22.479  1.00  0.00     0.027 A 
ATOM     81  S   UNL A   1      28.435  28.572  23.126  1.00  0.00    -0.123 S 
ATOM     82  C   UNL A   1      30.480  29.703  22.059  1.00  0.00     0.028 A 
ATOM     83  C   UNL A   1      29.161  29.905  22.375  1.00  0.00     0.071 A 
ATOM     84  Br  UNL A   1      28.245  31.501  22.021  1.00  0.00    -0.039 Br
ENDBRANCH  76  79
ENDBRANCH  70  75
ENDBRANCH  65  68
ENDBRANCH  63  64
ENDBRANCH   1  63
TORSDOF 12
ENDMDL
MODEL 2
REMARK VINA RESULT:     -11.3      4.460      8.645
REMARK SMILES O=C(NCCCNC(=O)c1cc(Br)ccc1NC(=O)c1ccc(Br)s1)c1ccc(-c2c3nc(c(-c4c(F)cccc4F)c4ccc([nH]4)c(-c4c(F)cccc4F)c4nc(c(-c5c(F)cccc5F)c5ccc2[nH]5)C=C4)C=C3)cc1
REMARK SMILES IDX 5 1 4 2 3 3 1 4 2 5 26 7 27 8 79 9 28 10 78 11 29 12 30 13
REMARK SMILES IDX 31 14 72 15 32 16 77 17 71 18 73 19 33 20 76 21 70 22 69 23
REMARK SMILES IDX 34 25 60 26 43 27 59 28 44 29 47 30 58 31 74 32 45 33 46 34
REMARK SMILES IDX 57 36 75 37 48 38 35 39 36 40 41 41 37 42 38 43 40 44 42 45
REMARK SMILES IDX 39 46 61 47 62 48 67 49 63 50 64 51 66 52 68 53 65 54 49 55
REMARK SMILES IDX 50 56 55 57 51 58 52 59 54 60 56 61 53 62 6 63 7 64 8 65
REMARK SMILES IDX 9 67 10 68 11 69 16 70 12 71 15 72 13 73 14 74 17 75 18 76
REMARK SMILES IDX 19 78 20 79 21 80 25 81 22 82 23 83 24 84
REMARK H PARENT 3 6 73 24 47 35 7 66 17 77
REMARK Flexibility Score: inf
ROOT
ATOM      1  C   UNL A   1      33.620  27.834  26.552  1.00  0.00     0.042 C 
ENDROOT
BRANCH   1   2
ATOM      2  C   UNL A   1      34.133  29.052  25.795  1.00  0.00     0.118 C 
BRANCH   2   3
ATOM      3  N   UNL A   1      33.873  30.298  26.506  1.00  0.00    -0.352 N 
ATOM      4  O   UNL A   1      33.956  31.814  28.157  1.00  0.00    -0.269 OA
ATOM      5  C   UNL A   1      34.489  30.860  27.596  1.00  0.00     0.251 C 
ATOM      6  H   UNL A   1      33.127  30.828  26.141  1.00  0.00     0.163 HD
BRANCH   5   7
ATOM      7  C   UNL A   1      35.773  30.335  28.110  1.00  0.00     0.039 A 
ATOM      8  C   UNL A   1      36.985  30.639  27.486  1.00  0.00     0.014 A 
ATOM      9  C   UNL A   1      35.775  29.583  29.291  1.00  0.00     0.014 A 
ATOM     10  C   UNL A   1      38.169  30.080  27.955  1.00  0.00     0.010 A 
ATOM     11  C   UNL A   1      36.976  29.095  29.813  1.00  0.00     0.010 A 
ATOM     12  C   UNL A   1      38.182  29.318  29.133  1.00  0.00    -0.014 A 
BRANCH  12  13
ATOM     13  C   UNL A   1      39.478  28.823  29.663  1.00  0.00     0.031 A 
ATOM     14  C   UNL A   1      40.092  29.420  30.897  1.00  0.00     0.074 A 
ATOM     15  C   UNL A   1      40.084  27.798  29.034  1.00  0.00     0.049 A 
ATOM     16  N   UNL A   1      41.199  29.081  31.509  1.00  0.00    -0.248 NA
ATOM     17  C   UNL A   1      39.381  30.545  31.521  1.00  0.00     0.031 C 
ATOM     18  C   UNL A   1      39.593  27.148  27.815  1.00  0.00     0.029 A 
ATOM     19  N   UNL A   1      41.227  27.107  29.340  1.00  0.00    -0.354 N 
ATOM     20  C   UNL A   1      41.327  29.959  32.577  1.00  0.00     0.074 A 
ATOM     21  C   UNL A   1      40.197  30.862  32.518  1.00  0.00     0.031 C 
ATOM     22  C   UNL A   1      40.402  26.124  27.507  1.00  0.00     0.029 A 
ATOM     23  C   UNL A   1      41.493  26.075  28.474  1.00  0.00     0.049 A 
ATOM     24  H   UNL A   1      41.803  27.329  30.108  1.00  0.00     0.167 HD
ATOM     25  C   UNL A   1      42.296  30.003  33.523  1.00  0.00     0.037 A 
ATOM     26  C   UNL A   1      42.506  25.191  28.452  1.00  0.00     0.037 A 
ATOM     27  C   UNL A   1      43.407  29.090  33.595  1.00  0.00     0.049 A 
ATOM     28  C   UNL A   1      43.562  25.261  29.514  1.00  0.00     0.074 A 
ATOM     29  C   UNL A   1      44.417  29.033  34.539  1.00  0.00     0.029 A 
ATOM     30  N   UNL A   1      43.652  28.072  32.686  1.00  0.00    -0.354 N 
ATOM     31  N   UNL A   1      43.654  26.081  30.532  1.00  0.00    -0.248 NA
ATOM     32  C   UNL A   1      44.660  24.289  29.421  1.00  0.00     0.031 C 
ATOM     33  C   UNL A   1      45.293  28.000  34.183  1.00  0.00     0.029 A 
ATOM     34  C   UNL A   1      44.807  27.392  33.037  1.00  0.00     0.049 A 
ATOM     35  H   UNL A   1      43.089  27.863  31.906  1.00  0.00     0.167 HD
ATOM     36  C   UNL A   1      44.811  25.721  31.206  1.00  0.00     0.074 A 
ATOM     37  C   UNL A   1      45.378  24.594  30.492  1.00  0.00     0.031 C 
ATOM     38  C   UNL A   1      45.358  26.276  32.314  1.00  0.00     0.037 A 
BRANCH  25  39
ATOM     39  C   UNL A   1      42.204  31.082  34.560  1.00  0.00     0.057 A 
ATOM     40  C   UNL A   1      42.839  32.320  34.396  1.00  0.00     0.134 A 
ATOM     41  C   UNL A   1      41.430  30.899  35.712  1.00  0.00     0.134 A 
ATOM     42  F   UNL A   1      43.605  32.553  33.320  1.00  0.00    -0.206 F 
ATOM     43  C   UNL A   1      42.716  33.333  35.347  1.00  0.00     0.040 A 
ATOM     44  C   UNL A   1      41.285  31.912  36.662  1.00  0.00     0.040 A 
ATOM     45  F   UNL A   1      40.793  29.739  35.928  1.00  0.00    -0.206 F 
ATOM     46  C   UNL A   1      41.931  33.133  36.482  1.00  0.00     0.006 A 
ENDBRANCH  25  39
BRANCH  26  47
ATOM     47  C   UNL A   1      42.561  24.161  27.386  1.00  0.00     0.057 A 
ATOM     48  C   UNL A   1      43.163  24.430  26.153  1.00  0.00     0.134 A 
ATOM     49  C   UNL A   1      42.034  22.881  27.586  1.00  0.00     0.134 A 
ATOM     50  F   UNL A   1      43.670  25.645  25.900  1.00  0.00    -0.206 F 
ATOM     51  C   UNL A   1      43.230  23.463  25.149  1.00  0.00     0.040 A 
ATOM     52  C   UNL A   1      42.115  21.897  26.600  1.00  0.00     0.040 A 
ATOM     53  F   UNL A   1      41.452  22.562  28.751  1.00  0.00    -0.206 F 
ATOM     54  C   UNL A   1      42.711  22.189  25.375  1.00  0.00     0.006 A 
ENDBRANCH  26  47
BRANCH  38  55
ATOM     55  C   UNL A   1      46.625  25.662  32.824  1.00  0.00     0.057 A 
ATOM     56  C   UNL A   1      47.877  26.044  32.326  1.00  0.00     0.134 A 
ATOM     57  C   UNL A   1      46.594  24.696  33.837  1.00  0.00     0.134 A 
ATOM     58  F   UNL A   1      47.968  26.954  31.344  1.00  0.00    -0.206 F 
ATOM     59  C   UNL A   1      49.055  25.472  32.806  1.00  0.00     0.040 A 
ATOM     60  C   UNL A   1      47.766  24.131  34.338  1.00  0.00     0.040 A 
ATOM     61  F   UNL A   1      45.426  24.291  34.357  1.00  0.00    -0.206 F 
ATOM     62  C   UNL A   1      49.002  24.516  33.819  1.00  0.00     0.006 A 
ENDBRANCH  38  55
ENDBRANCH  12  13
ENDBRANCH   5   7
ENDBRANCH   2   3
ENDBRANCH   1   2
BRANCH   1  63
ATOM     63  C   UNL A   1      33.642  26.549  25.733  1.00  0.00     0.118 C 
BRANCH  63  64
ATOM     64  N   UNL A   1      33.006  25.433  26.427  1.00  0.00    -0.352 N 
ATOM     65  C   UNL A   1      33.230  24.083  26.299  1.00  0.00     0.253 C 
ATOM     66  H   UNL A   1      32.317  25.685  27.083  1.00  0.00     0.163 HD
ATOM     67  O   UNL A   1      32.451  23.273  26.793  1.00  0.00    -0.269 OA
BRANCH  65  68
ATOM     68  C   UNL A   1      34.378  23.606  25.499  1.00  0.00     0.064 A 
ATOM     69  C   UNL A   1      35.635  23.548  26.120  1.00  0.00     0.031 A 
ATOM     70  C   UNL A   1      34.218  23.265  24.140  1.00  0.00     0.054 A 
ATOM     71  C   UNL A   1      36.767  23.318  25.352  1.00  0.00     0.018 A 
ATOM     72  C   UNL A   1      35.383  23.123  23.382  1.00  0.00     0.028 A 
ATOM     73  Br  UNL A   1      38.471  23.323  26.163  1.00  0.00    -0.051 Br
ATOM     74  C   UNL A   1      36.650  23.146  23.979  1.00  0.00     0.018 A 
BRANCH  70  75
ATOM     75  N   UNL A   1      32.914  23.108  23.613  1.00  0.00    -0.321 N 
ATOM     76  C   UNL A   1      32.106  22.009  23.386  1.00  0.00     0.265 C 
ATOM     77  H   UNL A   1      32.494  23.959  23.352  1.00  0.00     0.170 HD
ATOM     78  O   UNL A   1      31.065  22.192  22.751  1.00  0.00    -0.268 OA
BRANCH  76  79
ATOM     79  C   UNL A   1      32.460  20.717  23.934  1.00  0.00     0.093 A 
ATOM     80  C   UNL A   1      32.752  20.364  25.241  1.00  0.00     0.027 A 
ATOM     81  S   UNL A   1      32.529  19.360  22.886  1.00  0.00    -0.123 S 
ATOM     82  C   UNL A   1      33.159  18.999  25.350  1.00  0.00     0.028 A 
ATOM     83  C   UNL A   1      33.096  18.367  24.135  1.00  0.00     0.071 A 
ATOM     84  Br  UNL A   1      33.595  16.580  23.871  1.00  0.00    -0.039 Br
ENDBRANCH  76  79
ENDBRANCH  70  75
ENDBRANCH  65  68
ENDBRANCH  63  64
ENDBRANCH   1  63
TORSDOF 12
ENDMDL
MODEL 3
REMARK VINA RESULT:     -11.2      0.222      6.401
REMARK SMILES O=C(NCCCNC(=O)c1cc(Br)ccc1NC(=O)c1ccc(Br)s1)c1ccc(-c2c3nc(c(-c4c(F)cccc4F)c4ccc([nH]4)c(-c4c(F)cccc4F)c4nc(c(-c5c(F)cccc5F)c5ccc2[nH]5)C=C4)C=C3)cc1
REMARK SMILES IDX 5 1 4 2 3 3 1 4 2 5 26 7 27 8 79 9 28 10 78 11 29 12 30 13
REMARK SMILES IDX 31 14 72 15 32 16 77 17 71 18 73 19 33 20 76 21 70 22 69 23
REMARK SMILES IDX 34 25 60 26 43 27 59 28 44 29 47 30 58 31 74 32 45 33 46 34
REMARK SMILES IDX 57 36 75 37 48 38 35 39 36 40 41 41 37 42 38 43 40 44 42 45
REMARK SMILES IDX 39 46 61 47 62 48 67 49 63 50 64 51 66 52 68 53 65 54 49 55
REMARK SMILES IDX 50 56 55 57 51 58 52 59 54 60 56 61 53 62 6 63 7 64 8 65
REMARK SMILES IDX 9 67 10 68 11 69 16 70 12 71 15 72 13 73 14 74 17 75 18 76
REMARK SMILES IDX 19 78 20 79 21 80 25 81 22 82 23 83 24 84
REMARK H PARENT 3 6 73 24 47 35 7 66 17 77
REMARK Flexibility Score: inf
ROOT
ATOM      1  C   UNL A   1      35.239  23.188  26.242  1.00  0.00     0.042 C 
ENDROOT
BRANCH   1   2
ATOM      2  C   UNL A   1      36.607  23.556  25.682  1.00  0.00     0.118 C 
BRANCH   2   3
ATOM      3  N   UNL A   1      37.634  22.587  26.045  1.00  0.00    -0.352 N 
ATOM      4  O   UNL A   1      39.676  21.793  26.529  1.00  0.00    -0.269 OA
ATOM      5  C   UNL A   1      38.918  22.759  26.497  1.00  0.00     0.251 C 
ATOM      6  H   UNL A   1      37.360  21.646  25.948  1.00  0.00     0.163 HD
BRANCH   5   7
ATOM      7  C   UNL A   1      39.407  24.085  26.938  1.00  0.00     0.039 A 
ATOM      8  C   UNL A   1      39.951  24.997  26.033  1.00  0.00     0.014 A 
ATOM      9  C   UNL A   1      39.247  24.455  28.279  1.00  0.00     0.014 A 
ATOM     10  C   UNL A   1      40.461  26.210  26.486  1.00  0.00     0.010 A 
ATOM     11  C   UNL A   1      39.678  25.711  28.718  1.00  0.00     0.010 A 
ATOM     12  C   UNL A   1      40.314  26.589  27.829  1.00  0.00    -0.014 A 
BRANCH  12  13
ATOM     13  C   UNL A   1      40.774  27.933  28.258  1.00  0.00     0.031 A 
ATOM     14  C   UNL A   1      39.807  28.960  28.774  1.00  0.00     0.074 A 
ATOM     15  C   UNL A   1      42.092  28.211  28.209  1.00  0.00     0.049 A 
ATOM     16  N   UNL A   1      40.050  30.167  29.221  1.00  0.00    -0.248 NA
ATOM     17  C   UNL A   1      38.383  28.591  28.785  1.00  0.00     0.031 C 
ATOM     18  C   UNL A   1      43.127  27.301  27.709  1.00  0.00     0.029 A 
ATOM     19  N   UNL A   1      42.790  29.323  28.603  1.00  0.00    -0.354 N 
ATOM     20  C   UNL A   1      38.813  30.707  29.548  1.00  0.00     0.074 A 
ATOM     21  C   UNL A   1      37.817  29.706  29.228  1.00  0.00     0.031 C 
ATOM     22  C   UNL A   1      44.329  27.871  27.872  1.00  0.00     0.029 A 
ATOM     23  C   UNL A   1      44.148  29.203  28.440  1.00  0.00     0.049 A 
ATOM     24  H   UNL A   1      42.359  30.130  28.967  1.00  0.00     0.167 HD
ATOM     25  C   UNL A   1      38.536  31.925  30.073  1.00  0.00     0.037 A 
ATOM     26  C   UNL A   1      45.141  30.069  28.710  1.00  0.00     0.037 A 
ATOM     27  C   UNL A   1      39.530  32.912  30.413  1.00  0.00     0.049 A 
ATOM     28  C   UNL A   1      44.804  31.409  29.294  1.00  0.00     0.074 A 
ATOM     29  C   UNL A   1      39.347  34.158  30.984  1.00  0.00     0.029 A 
ATOM     30  N   UNL A   1      40.893  32.760  30.212  1.00  0.00    -0.354 N 
ATOM     31  N   UNL A   1      43.632  31.894  29.622  1.00  0.00    -0.248 NA
ATOM     32  C   UNL A   1      45.927  32.325  29.538  1.00  0.00     0.031 C 
ATOM     33  C   UNL A   1      40.598  34.775  31.101  1.00  0.00     0.029 A 
ATOM     34  C   UNL A   1      41.562  33.898  30.634  1.00  0.00     0.049 A 
ATOM     35  H   UNL A   1      41.323  31.962  29.827  1.00  0.00     0.167 HD
ATOM     36  C   UNL A   1      43.874  33.166  30.119  1.00  0.00     0.074 A 
ATOM     37  C   UNL A   1      45.308  33.370  30.068  1.00  0.00     0.031 C 
ATOM     38  C   UNL A   1      42.987  34.085  30.572  1.00  0.00     0.037 A 
BRANCH  25  39
ATOM     39  C   UNL A   1      37.096  32.267  30.308  1.00  0.00     0.057 A 
ATOM     40  C   UNL A   1      36.459  31.983  31.523  1.00  0.00     0.134 A 
ATOM     41  C   UNL A   1      36.352  32.935  29.328  1.00  0.00     0.134 A 
ATOM     42  F   UNL A   1      37.113  31.334  32.498  1.00  0.00    -0.206 F 
ATOM     43  C   UNL A   1      35.128  32.341  31.749  1.00  0.00     0.040 A 
ATOM     44  C   UNL A   1      35.027  33.314  29.549  1.00  0.00     0.040 A 
ATOM     45  F   UNL A   1      36.905  33.240  28.144  1.00  0.00    -0.206 F 
ATOM     46  C   UNL A   1      34.410  33.015  30.761  1.00  0.00     0.006 A 
ENDBRANCH  25  39
BRANCH  26  47
ATOM     47  C   UNL A   1      46.546  29.688  28.432  1.00  0.00     0.057 A 
ATOM     48  C   UNL A   1      47.331  29.064  29.407  1.00  0.00     0.134 A 
ATOM     49  C   UNL A   1      47.127  29.918  27.180  1.00  0.00     0.134 A 
ATOM     50  F   UNL A   1      46.833  28.833  30.630  1.00  0.00    -0.206 F 
ATOM     51  C   UNL A   1      48.651  28.689  29.149  1.00  0.00     0.040 A 
ATOM     52  C   UNL A   1      48.437  29.528  26.901  1.00  0.00     0.040 A 
ATOM     53  F   UNL A   1      46.421  30.505  26.203  1.00  0.00    -0.206 F 
ATOM     54  C   UNL A   1      49.205  28.916  27.890  1.00  0.00     0.006 A 
ENDBRANCH  26  47
BRANCH  38  55
ATOM     55  C   UNL A   1      43.550  35.384  31.059  1.00  0.00     0.057 A 
ATOM     56  C   UNL A   1      43.727  36.475  30.199  1.00  0.00     0.134 A 
ATOM     57  C   UNL A   1      43.896  35.554  32.405  1.00  0.00     0.134 A 
ATOM     58  F   UNL A   1      43.427  36.366  28.895  1.00  0.00    -0.206 F 
ATOM     59  C   UNL A   1      44.247  37.685  30.656  1.00  0.00     0.040 A 
ATOM     60  C   UNL A   1      44.400  36.765  32.878  1.00  0.00     0.040 A 
ATOM     61  F   UNL A   1      43.746  34.548  33.279  1.00  0.00    -0.206 F 
ATOM     62  C   UNL A   1      44.581  37.834  32.002  1.00  0.00     0.006 A 
ENDBRANCH  38  55
ENDBRANCH  12  13
ENDBRANCH   5   7
ENDBRANCH   2   3
ENDBRANCH   1   2
BRANCH   1  63
ATOM     63  C   UNL A   1      34.178  24.260  26.021  1.00  0.00     0.118 C 
BRANCH  63  64
ATOM     64  N   UNL A   1      34.227  24.826  24.676  1.00  0.00    -0.352 N 
ATOM     65  C   UNL A   1      33.686  25.997  24.201  1.00  0.00     0.253 C 
ATOM     66  H   UNL A   1      34.720  24.291  24.013  1.00  0.00     0.163 HD
ATOM     67  O   UNL A   1      33.628  26.211  22.994  1.00  0.00    -0.269 OA
BRANCH  65  68
ATOM     68  C   UNL A   1      33.106  26.971  25.150  1.00  0.00     0.064 A 
ATOM     69  C   UNL A   1      33.959  27.937  25.707  1.00  0.00     0.031 A 
ATOM     70  C   UNL A   1      31.747  26.899  25.517  1.00  0.00     0.054 A 
ATOM     71  C   UNL A   1      33.508  28.723  26.756  1.00  0.00     0.018 A 
ATOM     72  C   UNL A   1      31.352  27.643  26.631  1.00  0.00     0.028 A 
ATOM     73  Br  UNL A   1      34.674  29.965  27.568  1.00  0.00    -0.051 Br
ATOM     74  C   UNL A   1      32.221  28.552  27.247  1.00  0.00     0.018 A 
BRANCH  70  75
ATOM     75  N   UNL A   1      30.869  26.076  24.770  1.00  0.00    -0.321 N 
ATOM     76  C   UNL A   1      29.930  26.332  23.789  1.00  0.00     0.265 C 
ATOM     77  H   UNL A   1      30.942  25.122  24.998  1.00  0.00     0.170 HD
ATOM     78  O   UNL A   1      29.199  25.401  23.447  1.00  0.00    -0.268 OA
BRANCH  76  79
ATOM     79  C   UNL A   1      29.866  27.635  23.161  1.00  0.00     0.093 A 
ATOM     80  C   UNL A   1      30.853  28.338  22.489  1.00  0.00     0.027 A 
ATOM     81  S   UNL A   1      28.384  28.498  23.184  1.00  0.00    -0.123 S 
ATOM     82  C   UNL A   1      30.416  29.644  22.109  1.00  0.00     0.028 A 
ATOM     83  C   UNL A   1      29.104  29.845  22.453  1.00  0.00     0.071 A 
ATOM     84  Br  UNL A   1      28.191  31.454  22.155  1.00  0.00    -0.039 Br
ENDBRANCH  76  79
ENDBRANCH  70  75
ENDBRANCH  65  68
ENDBRANCH  63  64
ENDBRANCH   1  63
TORSDOF 12
ENDMDL
