MODEL 1
REMARK VINA RESULT:     -12.8      0.000      0.000
REMARK SMILES O=C(NCCCNC(=O)c1oc2cccc3c2c1CCC3)c1ccc(-c2c3nc(c(-c4c(F)cccc4F)c4ccc([nH]4)c(-c4c(F)cccc4F)c4nc(c(-c5c(F)cccc5F)c5ccc2[nH]5)C=C4)C=C3)cc1
REMARK SMILES IDX 4 1 3 2 1 3 2 4 22 6 23 7 75 8 24 9 74 10 25 11 26 12 27 13
REMARK SMILES IDX 68 14 28 15 73 16 67 17 69 18 29 19 72 20 66 21 65 22 30 24
REMARK SMILES IDX 56 25 39 26 55 27 40 28 43 29 54 30 70 31 41 32 42 33 53 35
REMARK SMILES IDX 71 36 44 37 31 38 32 39 37 40 33 41 34 42 36 43 38 44 35 45
REMARK SMILES IDX 57 46 58 47 63 48 59 49 60 50 62 51 64 52 61 53 45 54 46 55
REMARK SMILES IDX 51 56 47 57 48 58 50 59 52 60 49 61 5 62 6 63 7 64 8 65 9 67
REMARK SMILES IDX 10 68 11 69 18 70 12 71 17 72 19 73 13 74 16 75 20 76 14 77
REMARK SMILES IDX 15 78 21 79
REMARK H PARENT 3 5 69 23 43 34 7 66
REMARK Flexibility Score: inf
ROOT
ATOM      1  C   UNL A   1      33.172  30.167  27.204  1.00  0.00     0.118 C 
ENDROOT
BRANCH   1   2
ATOM      2  N   UNL A   1      33.718  31.457  27.581  1.00  0.00    -0.352 N 
ATOM      3  O   UNL A   1      35.085  33.176  27.828  1.00  0.00    -0.269 OA
ATOM      4  C   UNL A   1      34.981  31.946  27.786  1.00  0.00     0.251 C 
ATOM      5  H   UNL A   1      33.021  32.138  27.721  1.00  0.00     0.163 HD
BRANCH   4   6
ATOM      6  C   UNL A   1      36.194  31.124  28.058  1.00  0.00     0.039 A 
ATOM      7  C   UNL A   1      36.328  29.760  27.810  1.00  0.00     0.014 A 
ATOM      8  C   UNL A   1      37.276  31.802  28.657  1.00  0.00     0.014 A 
ATOM      9  C   UNL A   1      37.462  29.077  28.251  1.00  0.00     0.010 A 
ATOM     10  C   UNL A   1      38.419  31.129  29.087  1.00  0.00     0.010 A 
ATOM     11  C   UNL A   1      38.498  29.755  28.916  1.00  0.00    -0.014 A 
BRANCH  11  12
ATOM     12  C   UNL A   1      39.734  29.018  29.179  1.00  0.00     0.031 A 
ATOM     13  C   UNL A   1      40.049  28.929  30.630  1.00  0.00     0.074 A 
ATOM     14  C   UNL A   1      40.521  28.397  28.275  1.00  0.00     0.049 A 
ATOM     15  N   UNL A   1      40.968  29.574  31.267  1.00  0.00    -0.248 NA
ATOM     16  C   UNL A   1      39.146  28.159  31.499  1.00  0.00     0.031 C 
ATOM     17  C   UNL A   1      40.252  28.117  26.865  1.00  0.00     0.029 A 
ATOM     18  N   UNL A   1      41.751  27.824  28.466  1.00  0.00    -0.354 N 
ATOM     19  C   UNL A   1      40.893  29.150  32.591  1.00  0.00     0.074 A 
ATOM     20  C   UNL A   1      39.663  28.410  32.704  1.00  0.00     0.031 C 
ATOM     21  C   UNL A   1      41.190  27.263  26.387  1.00  0.00     0.029 A 
ATOM     22  C   UNL A   1      42.206  27.045  27.406  1.00  0.00     0.049 A 
ATOM     23  H   UNL A   1      42.273  27.954  29.292  1.00  0.00     0.167 HD
ATOM     24  C   UNL A   1      41.971  29.256  33.416  1.00  0.00     0.037 A 
ATOM     25  C   UNL A   1      43.323  26.266  27.379  1.00  0.00     0.037 A 
ATOM     26  C   UNL A   1      42.942  30.178  32.875  1.00  0.00     0.049 A 
ATOM     27  C   UNL A   1      44.232  26.742  28.448  1.00  0.00     0.074 A 
ATOM     28  C   UNL A   1      42.945  31.515  32.530  1.00  0.00     0.029 A 
ATOM     29  N   UNL A   1      44.053  29.639  32.276  1.00  0.00    -0.354 N 
ATOM     30  N   UNL A   1      44.883  27.868  28.400  1.00  0.00    -0.248 NA
ATOM     31  C   UNL A   1      44.092  26.153  29.769  1.00  0.00     0.031 C 
ATOM     32  C   UNL A   1      43.766  31.595  31.365  1.00  0.00     0.029 A 
ATOM     33  C   UNL A   1      44.267  30.318  31.110  1.00  0.00     0.049 A 
ATOM     34  H   UNL A   1      44.598  28.897  32.625  1.00  0.00     0.167 HD
ATOM     35  C   UNL A   1      44.814  28.358  29.693  1.00  0.00     0.074 A 
ATOM     36  C   UNL A   1      44.407  27.218  30.512  1.00  0.00     0.031 C 
ATOM     37  C   UNL A   1      44.816  29.703  29.928  1.00  0.00     0.037 A 
BRANCH  24  38
ATOM     38  C   UNL A   1      42.363  28.225  34.456  1.00  0.00     0.057 A 
ATOM     39  C   UNL A   1      42.080  28.329  35.832  1.00  0.00     0.134 A 
ATOM     40  C   UNL A   1      42.716  26.932  34.019  1.00  0.00     0.134 A 
ATOM     41  F   UNL A   1      41.716  29.477  36.412  1.00  0.00    -0.206 F 
ATOM     42  C   UNL A   1      42.056  27.221  36.684  1.00  0.00     0.040 A 
ATOM     43  C   UNL A   1      42.645  25.810  34.853  1.00  0.00     0.040 A 
ATOM     44  F   UNL A   1      43.033  26.699  32.736  1.00  0.00    -0.206 F 
ATOM     45  C   UNL A   1      42.293  25.951  36.187  1.00  0.00     0.006 A 
ENDBRANCH  24  38
BRANCH  25  46
ATOM     46  C   UNL A   1      43.605  24.996  26.664  1.00  0.00     0.057 A 
ATOM     47  C   UNL A   1      44.237  24.996  25.412  1.00  0.00     0.134 A 
ATOM     48  C   UNL A   1      42.987  23.789  27.039  1.00  0.00     0.134 A 
ATOM     49  F   UNL A   1      44.798  26.112  24.924  1.00  0.00    -0.206 F 
ATOM     50  C   UNL A   1      44.231  23.877  24.569  1.00  0.00     0.040 A 
ATOM     51  C   UNL A   1      42.969  22.664  26.202  1.00  0.00     0.040 A 
ATOM     52  F   UNL A   1      42.320  23.694  28.198  1.00  0.00    -0.206 F 
ATOM     53  C   UNL A   1      43.582  22.711  24.955  1.00  0.00     0.006 A 
ENDBRANCH  25  46
BRANCH  37  54
ATOM     54  C   UNL A   1      45.212  30.612  28.800  1.00  0.00     0.057 A 
ATOM     55  C   UNL A   1      44.216  31.033  27.910  1.00  0.00     0.134 A 
ATOM     56  C   UNL A   1      46.531  30.990  28.503  1.00  0.00     0.134 A 
ATOM     57  F   UNL A   1      42.939  30.665  28.101  1.00  0.00    -0.206 F 
ATOM     58  C   UNL A   1      44.509  31.805  26.786  1.00  0.00     0.040 A 
ATOM     59  C   UNL A   1      46.832  31.797  27.401  1.00  0.00     0.040 A 
ATOM     60  F   UNL A   1      47.563  30.555  29.236  1.00  0.00    -0.206 F 
ATOM     61  C   UNL A   1      45.819  32.203  26.536  1.00  0.00     0.006 A 
ENDBRANCH  37  54
ENDBRANCH  11  12
ENDBRANCH   4   6
ENDBRANCH   1   2
BRANCH   1  62
ATOM     62  C   UNL A   1      33.188  29.855  25.712  1.00  0.00     0.042 C 
BRANCH  62  63
ATOM     63  C   UNL A   1      33.790  28.507  25.334  1.00  0.00     0.118 C 
BRANCH  63  64
ATOM     64  N   UNL A   1      34.236  28.425  23.955  1.00  0.00    -0.349 N 
ATOM     65  C   UNL A   1      33.484  28.333  22.805  1.00  0.00     0.287 C 
ATOM     66  H   UNL A   1      35.211  28.437  23.823  1.00  0.00     0.163 HD
ATOM     67  O   UNL A   1      34.100  28.127  21.751  1.00  0.00    -0.266 OA
BRANCH  65  68
ATOM     68  C   UNL A   1      32.046  28.458  22.873  1.00  0.00     0.195 A 
ATOM     69  O   UNL A   1      31.475  29.614  22.358  1.00  0.00    -0.451 OA
ATOM     70  C   UNL A   1      31.040  27.643  23.373  1.00  0.00     0.012 A 
ATOM     71  C   UNL A   1      30.119  29.490  22.463  1.00  0.00     0.135 A 
ATOM     72  C   UNL A   1      29.831  28.292  23.066  1.00  0.00     0.028 A 
ATOM     73  C   UNL A   1      30.984  26.331  24.081  1.00  0.00     0.041 C 
ATOM     74  C   UNL A   1      29.130  30.370  22.048  1.00  0.00     0.048 A 
ATOM     75  C   UNL A   1      28.528  27.862  23.310  1.00  0.00    -0.037 A 
ATOM     76  C   UNL A   1      29.619  26.155  24.812  1.00  0.00     0.010 C 
ATOM     77  C   UNL A   1      27.804  29.940  22.263  1.00  0.00     0.004 A 
ATOM     78  C   UNL A   1      27.503  28.706  22.873  1.00  0.00     0.004 A 
ATOM     79  C   UNL A   1      28.370  26.508  23.946  1.00  0.00     0.036 C 
ENDBRANCH  65  68
ENDBRANCH  63  64
ENDBRANCH  62  63
ENDBRANCH   1  62
TORSDOF 10
ENDMDL
MODEL 2
REMARK VINA RESULT:     -12.6      4.835     10.031
REMARK SMILES O=C(NCCCNC(=O)c1oc2cccc3c2c1CCC3)c1ccc(-c2c3nc(c(-c4c(F)cccc4F)c4ccc([nH]4)c(-c4c(F)cccc4F)c4nc(c(-c5c(F)cccc5F)c5ccc2[nH]5)C=C4)C=C3)cc1
REMARK SMILES IDX 4 1 3 2 1 3 2 4 22 6 23 7 75 8 24 9 74 10 25 11 26 12 27 13
REMARK SMILES IDX 68 14 28 15 73 16 67 17 69 18 29 19 72 20 66 21 65 22 30 24
REMARK SMILES IDX 56 25 39 26 55 27 40 28 43 29 54 30 70 31 41 32 42 33 53 35
REMARK SMILES IDX 71 36 44 37 31 38 32 39 37 40 33 41 34 42 36 43 38 44 35 45
REMARK SMILES IDX 57 46 58 47 63 48 59 49 60 50 62 51 64 52 61 53 45 54 46 55
REMARK SMILES IDX 51 56 47 57 48 58 50 59 52 60 49 61 5 62 6 63 7 64 8 65 9 67
REMARK SMILES IDX 10 68 11 69 18 70 12 71 17 72 19 73 13 74 16 75 20 76 14 77
REMARK SMILES IDX 15 78 21 79
REMARK H PARENT 3 5 69 23 43 34 7 66
REMARK Flexibility Score: inf
ROOT
ATOM      1  C   UNL A   1      43.691  23.301  30.378  1.00  0.00     0.118 C 
ENDROOT
BRANCH   1   2
ATOM      2  N   UNL A   1      44.952  24.010  30.478  1.00  0.00    -0.352 N 
ATOM      3  O   UNL A   1      46.488  25.517  30.980  1.00  0.00    -0.269 OA
ATOM      4  C   UNL A   1      45.310  25.319  30.670  1.00  0.00     0.251 C 
ATOM      5  H   UNL A   1      45.730  23.414  30.387  1.00  0.00     0.163 HD
BRANCH   4   6
ATOM      6  C   UNL A   1      44.430  26.499  30.439  1.00  0.00     0.039 A 
ATOM      7  C   UNL A   1      43.761  26.799  29.254  1.00  0.00     0.014 A 
ATOM      8  C   UNL A   1      44.310  27.398  31.519  1.00  0.00     0.014 A 
ATOM      9  C   UNL A   1      43.091  28.015  29.120  1.00  0.00     0.010 A 
ATOM     10  C   UNL A   1      43.628  28.608  31.397  1.00  0.00     0.010 A 
ATOM     11  C   UNL A   1      43.046  28.936  30.180  1.00  0.00    -0.014 A 
BRANCH  11  12
ATOM     12  C   UNL A   1      42.170  30.098  30.037  1.00  0.00     0.031 A 
ATOM     13  C   UNL A   1      42.895  31.306  29.557  1.00  0.00     0.074 A 
ATOM     14  C   UNL A   1      40.834  30.141  30.228  1.00  0.00     0.049 A 
ATOM     15  N   UNL A   1      43.216  32.346  30.250  1.00  0.00    -0.248 NA
ATOM     16  C   UNL A   1      43.463  31.290  28.201  1.00  0.00     0.031 C 
ATOM     17  C   UNL A   1      39.900  29.031  30.414  1.00  0.00     0.029 A 
ATOM     18  N   UNL A   1      40.009  31.235  30.241  1.00  0.00    -0.354 N 
ATOM     19  C   UNL A   1      43.862  33.213  29.371  1.00  0.00     0.074 A 
ATOM     20  C   UNL A   1      44.124  32.450  28.179  1.00  0.00     0.031 C 
ATOM     21  C   UNL A   1      38.628  29.492  30.321  1.00  0.00     0.029 A 
ATOM     22  C   UNL A   1      38.648  30.943  30.214  1.00  0.00     0.049 A 
ATOM     23  H   UNL A   1      40.354  32.157  30.267  1.00  0.00     0.167 HD
ATOM     24  C   UNL A   1      43.913  34.549  29.628  1.00  0.00     0.037 A 
ATOM     25  C   UNL A   1      37.620  31.828  30.092  1.00  0.00     0.037 A 
ATOM     26  C   UNL A   1      43.610  34.817  31.014  1.00  0.00     0.049 A 
ATOM     27  C   UNL A   1      38.128  33.166  30.481  1.00  0.00     0.074 A 
ATOM     28  C   UNL A   1      44.158  34.459  32.230  1.00  0.00     0.029 A 
ATOM     29  N   UNL A   1      42.355  35.295  31.300  1.00  0.00    -0.354 N 
ATOM     30  N   UNL A   1      38.420  33.505  31.702  1.00  0.00    -0.248 NA
ATOM     31  C   UNL A   1      38.709  33.999  29.441  1.00  0.00     0.031 C 
ATOM     32  C   UNL A   1      43.042  34.284  33.102  1.00  0.00     0.029 A 
ATOM     33  C   UNL A   1      41.889  34.610  32.388  1.00  0.00     0.049 A 
ATOM     34  H   UNL A   1      41.878  36.003  30.811  1.00  0.00     0.167 HD
ATOM     35  C   UNL A   1      39.570  34.266  31.579  1.00  0.00     0.074 A 
ATOM     36  C   UNL A   1      39.643  34.621  30.164  1.00  0.00     0.031 C 
ATOM     37  C   UNL A   1      40.497  34.291  32.582  1.00  0.00     0.037 A 
BRANCH  24  38
ATOM     38  C   UNL A   1      43.790  35.632  28.574  1.00  0.00     0.057 A 
ATOM     39  C   UNL A   1      42.627  35.887  27.822  1.00  0.00     0.134 A 
ATOM     40  C   UNL A   1      44.742  36.671  28.567  1.00  0.00     0.134 A 
ATOM     41  F   UNL A   1      41.617  35.017  27.731  1.00  0.00    -0.206 F 
ATOM     42  C   UNL A   1      42.388  37.113  27.193  1.00  0.00     0.040 A 
ATOM     43  C   UNL A   1      44.490  37.918  27.983  1.00  0.00     0.040 A 
ATOM     44  F   UNL A   1      45.906  36.547  29.224  1.00  0.00    -0.206 F 
ATOM     45  C   UNL A   1      43.299  38.149  27.310  1.00  0.00     0.006 A 
ENDBRANCH  24  38
BRANCH  25  46
ATOM     46  C   UNL A   1      36.285  31.687  29.460  1.00  0.00     0.057 A 
ATOM     47  C   UNL A   1      36.123  30.972  28.264  1.00  0.00     0.134 A 
ATOM     48  C   UNL A   1      35.204  32.504  29.837  1.00  0.00     0.134 A 
ATOM     49  F   UNL A   1      37.117  30.217  27.774  1.00  0.00    -0.206 F 
ATOM     50  C   UNL A   1      34.973  31.084  27.473  1.00  0.00     0.040 A 
ATOM     51  C   UNL A   1      34.048  32.629  29.051  1.00  0.00     0.040 A 
ATOM     52  F   UNL A   1      35.271  33.262  30.941  1.00  0.00    -0.206 F 
ATOM     53  C   UNL A   1      33.936  31.927  27.857  1.00  0.00     0.006 A 
ENDBRANCH  25  46
BRANCH  37  54
ATOM     54  C   UNL A   1      40.097  33.745  33.923  1.00  0.00     0.057 A 
ATOM     55  C   UNL A   1      39.810  34.655  34.947  1.00  0.00     0.134 A 
ATOM     56  C   UNL A   1      40.093  32.383  34.263  1.00  0.00     0.134 A 
ATOM     57  F   UNL A   1      39.847  35.976  34.708  1.00  0.00    -0.206 F 
ATOM     58  C   UNL A   1      39.516  34.238  36.244  1.00  0.00     0.040 A 
ATOM     59  C   UNL A   1      39.761  31.950  35.550  1.00  0.00     0.040 A 
ATOM     60  F   UNL A   1      40.452  31.442  33.380  1.00  0.00    -0.206 F 
ATOM     61  C   UNL A   1      39.476  32.880  36.547  1.00  0.00     0.006 A 
ENDBRANCH  37  54
ENDBRANCH  11  12
ENDBRANCH   4   6
ENDBRANCH   1   2
BRANCH   1  62
ATOM     62  C   UNL A   1      43.346  22.761  28.995  1.00  0.00     0.042 C 
BRANCH  62  63
ATOM     63  C   UNL A   1      44.310  23.153  27.882  1.00  0.00     0.118 C 
BRANCH  63  64
ATOM     64  N   UNL A   1      43.918  22.680  26.567  1.00  0.00    -0.349 N 
ATOM     65  C   UNL A   1      43.041  23.246  25.669  1.00  0.00     0.287 C 
ATOM     66  H   UNL A   1      44.336  21.837  26.277  1.00  0.00     0.163 HD
ATOM     67  O   UNL A   1      42.758  22.574  24.667  1.00  0.00    -0.266 OA
BRANCH  65  68
ATOM     68  C   UNL A   1      42.488  24.555  25.929  1.00  0.00     0.195 A 
ATOM     69  O   UNL A   1      43.120  25.647  25.351  1.00  0.00    -0.451 OA
ATOM     70  C   UNL A   1      41.409  25.003  26.678  1.00  0.00     0.012 A 
ATOM     71  C   UNL A   1      42.398  26.762  25.670  1.00  0.00     0.135 A 
ATOM     72  C   UNL A   1      41.344  26.392  26.466  1.00  0.00     0.028 A 
ATOM     73  C   UNL A   1      40.384  24.368  27.557  1.00  0.00     0.041 C 
ATOM     74  C   UNL A   1      42.615  28.079  25.289  1.00  0.00     0.048 A 
ATOM     75  C   UNL A   1      40.409  27.303  26.954  1.00  0.00    -0.037 A 
ATOM     76  C   UNL A   1      39.732  25.425  28.498  1.00  0.00     0.010 C 
ATOM     77  C   UNL A   1      41.663  29.011  25.753  1.00  0.00     0.004 A 
ATOM     78  C   UNL A   1      40.574  28.633  26.562  1.00  0.00     0.004 A 
ATOM     79  C   UNL A   1      39.287  26.740  27.785  1.00  0.00     0.036 C 
ENDBRANCH  65  68
ENDBRANCH  63  64
ENDBRANCH  62  63
ENDBRANCH   1  62
TORSDOF 10
ENDMDL
MODEL 3
REMARK VINA RESULT:     -12.5      5.304     10.627
REMARK SMILES O=C(NCCCNC(=O)c1oc2cccc3c2c1CCC3)c1ccc(-c2c3nc(c(-c4c(F)cccc4F)c4ccc([nH]4)c(-c4c(F)cccc4F)c4nc(c(-c5c(F)cccc5F)c5ccc2[nH]5)C=C4)C=C3)cc1
REMARK SMILES IDX 4 1 3 2 1 3 2 4 22 6 23 7 75 8 24 9 74 10 25 11 26 12 27 13
REMARK SMILES IDX 68 14 28 15 73 16 67 17 69 18 29 19 72 20 66 21 65 22 30 24
REMARK SMILES IDX 56 25 39 26 55 27 40 28 43 29 54 30 70 31 41 32 42 33 53 35
REMARK SMILES IDX 71 36 44 37 31 38 32 39 37 40 33 41 34 42 36 43 38 44 35 45
REMARK SMILES IDX 57 46 58 47 63 48 59 49 60 50 62 51 64 52 61 53 45 54 46 55
REMARK SMILES IDX 51 56 47 57 48 58 50 59 52 60 49 61 5 62 6 63 7 64 8 65 9 67
REMARK SMILES IDX 10 68 11 69 18 70 12 71 17 72 19 73 13 74 16 75 20 76 14 77
REMARK SMILES IDX 15 78 21 79
REMARK H PARENT 3 5 69 23 43 34 7 66
REMARK Flexibility Score: inf
ROOT
ATOM      1  C   UNL A   1      42.678  21.500  26.713  1.00  0.00     0.118 C 
ENDROOT
BRANCH   1   2
ATOM      2  N   UNL A   1      41.234  21.372  26.665  1.00  0.00    -0.352 N 
ATOM      3  O   UNL A   1      39.089  21.809  26.369  1.00  0.00    -0.269 OA
ATOM      4  C   UNL A   1      40.186  22.252  26.720  1.00  0.00     0.251 C 
ATOM      5  H   UNL A   1      40.939  20.438  26.572  1.00  0.00     0.163 HD
BRANCH   4   6
ATOM      6  C   UNL A   1      40.250  23.641  27.257  1.00  0.00     0.039 A 
ATOM      7  C   UNL A   1      39.428  24.701  26.880  1.00  0.00     0.014 A 
ATOM      8  C   UNL A   1      41.268  23.890  28.202  1.00  0.00     0.014 A 
ATOM      9  C   UNL A   1      39.690  25.989  27.347  1.00  0.00     0.010 A 
ATOM     10  C   UNL A   1      41.526  25.172  28.684  1.00  0.00     0.010 A 
ATOM     11  C   UNL A   1      40.758  26.233  28.228  1.00  0.00    -0.014 A 
BRANCH  11  12
ATOM     12  C   UNL A   1      40.857  27.565  28.825  1.00  0.00     0.031 A 
ATOM     13  C   UNL A   1      42.052  28.316  28.351  1.00  0.00     0.074 A 
ATOM     14  C   UNL A   1      39.975  28.153  29.660  1.00  0.00     0.049 A 
ATOM     15  N   UNL A   1      43.131  28.559  29.017  1.00  0.00    -0.248 NA
ATOM     16  C   UNL A   1      42.122  28.703  26.935  1.00  0.00     0.031 C 
ATOM     17  C   UNL A   1      38.624  27.721  30.015  1.00  0.00     0.029 A 
ATOM     18  N   UNL A   1      40.104  29.333  30.344  1.00  0.00    -0.354 N 
ATOM     19  C   UNL A   1      43.949  29.303  28.171  1.00  0.00     0.074 A 
ATOM     20  C   UNL A   1      43.351  29.222  26.864  1.00  0.00     0.031 C 
ATOM     21  C   UNL A   1      37.993  28.718  30.684  1.00  0.00     0.029 A 
ATOM     22  C   UNL A   1      38.932  29.802  30.931  1.00  0.00     0.049 A 
ATOM     23  H   UNL A   1      40.962  29.812  30.415  1.00  0.00     0.167 HD
ATOM     24  C   UNL A   1      44.924  30.107  28.679  1.00  0.00     0.037 A 
ATOM     25  C   UNL A   1      38.747  30.998  31.555  1.00  0.00     0.037 A 
ATOM     26  C   UNL A   1      45.216  29.756  30.048  1.00  0.00     0.049 A 
ATOM     27  C   UNL A   1      40.080  31.515  31.945  1.00  0.00     0.074 A 
ATOM     28  C   UNL A   1      45.667  28.626  30.702  1.00  0.00     0.029 A 
ATOM     29  N   UNL A   1      44.700  30.568  31.027  1.00  0.00    -0.354 N 
ATOM     30  N   UNL A   1      40.806  31.007  32.898  1.00  0.00    -0.248 NA
ATOM     31  C   UNL A   1      40.792  32.346  30.989  1.00  0.00     0.031 C 
ATOM     32  C   UNL A   1      44.963  28.611  31.944  1.00  0.00     0.029 A 
ATOM     33  C   UNL A   1      44.179  29.763  32.002  1.00  0.00     0.049 A 
ATOM     34  H   UNL A   1      44.704  31.552  31.028  1.00  0.00     0.167 HD
ATOM     35  C   UNL A   1      42.099  31.052  32.404  1.00  0.00     0.074 A 
ATOM     36  C   UNL A   1      42.043  31.976  31.274  1.00  0.00     0.031 C 
ATOM     37  C   UNL A   1      43.020  30.117  32.782  1.00  0.00     0.037 A 
BRANCH  24  38
ATOM     38  C   UNL A   1      45.292  31.468  28.122  1.00  0.00     0.057 A 
ATOM     39  C   UNL A   1      46.501  31.760  27.460  1.00  0.00     0.134 A 
ATOM     40  C   UNL A   1      44.265  32.413  27.928  1.00  0.00     0.134 A 
ATOM     41  F   UNL A   1      47.573  30.965  27.523  1.00  0.00    -0.206 F 
ATOM     42  C   UNL A   1      46.645  32.853  26.599  1.00  0.00     0.040 A 
ATOM     43  C   UNL A   1      44.384  33.481  27.030  1.00  0.00     0.040 A 
ATOM     44  F   UNL A   1      43.070  32.267  28.521  1.00  0.00    -0.206 F 
ATOM     45  C   UNL A   1      45.573  33.690  26.345  1.00  0.00     0.006 A 
ENDBRANCH  24  38
BRANCH  25  46
ATOM     46  C   UNL A   1      37.547  31.864  31.661  1.00  0.00     0.057 A 
ATOM     47  C   UNL A   1      36.764  31.878  32.825  1.00  0.00     0.134 A 
ATOM     48  C   UNL A   1      36.963  32.452  30.524  1.00  0.00     0.134 A 
ATOM     49  F   UNL A   1      37.193  31.283  33.948  1.00  0.00    -0.206 F 
ATOM     50  C   UNL A   1      35.471  32.414  32.854  1.00  0.00     0.040 A 
ATOM     51  C   UNL A   1      35.667  32.989  30.538  1.00  0.00     0.040 A 
ATOM     52  F   UNL A   1      37.608  32.456  29.348  1.00  0.00    -0.206 F 
ATOM     53  C   UNL A   1      34.911  32.957  31.704  1.00  0.00     0.006 A 
ENDBRANCH  25  46
BRANCH  37  54
ATOM     54  C   UNL A   1      42.699  29.253  33.968  1.00  0.00     0.057 A 
ATOM     55  C   UNL A   1      43.297  29.566  35.194  1.00  0.00     0.134 A 
ATOM     56  C   UNL A   1      41.924  28.084  33.918  1.00  0.00     0.134 A 
ATOM     57  F   UNL A   1      44.095  30.640  35.302  1.00  0.00    -0.206 F 
ATOM     58  C   UNL A   1      43.124  28.768  36.324  1.00  0.00     0.040 A 
ATOM     59  C   UNL A   1      41.711  27.297  35.055  1.00  0.00     0.040 A 
ATOM     60  F   UNL A   1      41.393  27.646  32.770  1.00  0.00    -0.206 F 
ATOM     61  C   UNL A   1      42.317  27.636  36.262  1.00  0.00     0.006 A 
ENDBRANCH  37  54
ENDBRANCH  11  12
ENDBRANCH   4   6
ENDBRANCH   1   2
BRANCH   1  62
ATOM     62  C   UNL A   1      43.384  21.509  25.362  1.00  0.00     0.042 C 
BRANCH  62  63
ATOM     63  C   UNL A   1      44.089  22.811  25.002  1.00  0.00     0.118 C 
BRANCH  63  64
ATOM     64  N   UNL A   1      43.187  23.919  24.746  1.00  0.00    -0.349 N 
ATOM     65  C   UNL A   1      43.212  25.195  25.264  1.00  0.00     0.287 C 
ATOM     66  H   UNL A   1      42.455  23.733  24.114  1.00  0.00     0.163 HD
ATOM     67  O   UNL A   1      42.244  25.922  25.004  1.00  0.00    -0.266 OA
BRANCH  65  68
ATOM     68  C   UNL A   1      44.326  25.618  26.082  1.00  0.00     0.195 A 
ATOM     69  O   UNL A   1      44.451  25.049  27.342  1.00  0.00    -0.451 OA
ATOM     70  C   UNL A   1      45.360  26.523  25.891  1.00  0.00     0.012 A 
ATOM     71  C   UNL A   1      45.597  25.535  27.905  1.00  0.00     0.135 A 
ATOM     72  C   UNL A   1      46.174  26.424  27.035  1.00  0.00     0.028 A 
ATOM     73  C   UNL A   1      45.761  27.472  24.812  1.00  0.00     0.041 C 
ATOM     74  C   UNL A   1      46.160  25.229  29.136  1.00  0.00     0.048 A 
ATOM     75  C   UNL A   1      47.366  27.090  27.312  1.00  0.00    -0.037 A 
ATOM     76  C   UNL A   1      46.729  28.561  25.365  1.00  0.00     0.010 C 
ATOM     77  C   UNL A   1      47.382  25.873  29.423  1.00  0.00     0.004 A 
ATOM     78  C   UNL A   1      47.982  26.780  28.527  1.00  0.00     0.004 A 
ATOM     79  C   UNL A   1      47.894  28.007  26.242  1.00  0.00     0.036 C 
ENDBRANCH  65  68
ENDBRANCH  63  64
ENDBRANCH  62  63
ENDBRANCH   1  62
TORSDOF 10
ENDMDL
