MODEL 1
REMARK VINA RESULT:     -12.9      0.000      0.000
REMARK SMILES O=C(NCCCNC(=O)[C@@H]1CCCN1S(=O)(=O)c1ccc2[nH]c(=O)c(=O)[nH]c2c1)c1ccc(-c2c3nc(c(-c4c(F)cccc4F)c4ccc([nH]4)c(-c4c(F)cccc4F)c4nc(c(-c5c(F)cccc5F)c5ccc2[nH]5)C=C4)C=C3)cc1
REMARK SMILES IDX 5 1 4 2 3 3 1 4 2 5 30 7 31 8 83 9 32 10 82 11 33 12 34 13
REMARK SMILES IDX 35 14 76 15 36 16 81 17 75 18 77 19 37 20 80 21 74 22 73 23
REMARK SMILES IDX 38 25 64 26 47 27 63 28 48 29 51 30 62 31 78 32 49 33 50 34
REMARK SMILES IDX 61 36 79 37 52 38 39 39 40 40 45 41 41 42 42 43 44 44 46 45
REMARK SMILES IDX 43 46 65 47 66 48 71 49 67 50 68 51 70 52 72 53 69 54 53 55
REMARK SMILES IDX 54 56 59 57 55 58 56 59 58 60 60 61 57 62 6 63 7 64 8 65
REMARK SMILES IDX 9 67 10 68 11 69 14 70 12 71 13 72 15 73 16 74 17 75 18 76
REMARK SMILES IDX 19 77 29 78 20 79 28 80 21 81 27 82 22 83 25 84 23 86 26 88
REMARK SMILES IDX 24 89
REMARK H PARENT 3 6 77 24 51 35 7 66 27 85 22 87
REMARK Flexibility Score: inf
ROOT
ATOM      1  C   UNL A   1      31.339  31.795  26.416  1.00  0.00     0.042 C 
ENDROOT
BRANCH   1   2
ATOM      2  C   UNL A   1      32.621  32.457  26.904  1.00  0.00     0.118 C 
BRANCH   2   3
ATOM      3  N   UNL A   1      32.401  33.819  27.364  1.00  0.00    -0.352 N 
ATOM      4  O   UNL A   1      32.617  35.566  28.774  1.00  0.00    -0.269 OA
ATOM      5  C   UNL A   1      33.035  34.482  28.386  1.00  0.00     0.251 C 
ATOM      6  H   UNL A   1      31.712  34.330  26.882  1.00  0.00     0.163 HD
BRANCH   5   7
ATOM      7  C   UNL A   1      34.215  33.864  29.027  1.00  0.00     0.039 A 
ATOM      8  C   UNL A   1      34.058  32.806  29.930  1.00  0.00     0.014 A 
ATOM      9  C   UNL A   1      35.489  34.340  28.712  1.00  0.00     0.014 A 
ATOM     10  C   UNL A   1      35.168  32.290  30.588  1.00  0.00     0.010 A 
ATOM     11  C   UNL A   1      36.610  33.773  29.322  1.00  0.00     0.010 A 
ATOM     12  C   UNL A   1      36.455  32.748  30.269  1.00  0.00    -0.014 A 
BRANCH  12  13
ATOM     13  C   UNL A   1      37.638  32.057  30.837  1.00  0.00     0.031 A 
ATOM     14  C   UNL A   1      38.366  30.992  30.072  1.00  0.00     0.074 A 
ATOM     15  C   UNL A   1      38.030  32.396  32.081  1.00  0.00     0.049 A 
ATOM     16  N   UNL A   1      39.386  30.265  30.451  1.00  0.00    -0.248 NA
ATOM     17  C   UNL A   1      37.889  30.696  28.714  1.00  0.00     0.031 C 
ATOM     18  C   UNL A   1      37.377  33.402  32.925  1.00  0.00     0.029 A 
ATOM     19  N   UNL A   1      39.059  31.932  32.857  1.00  0.00    -0.354 N 
ATOM     20  C   UNL A   1      39.661  29.412  29.391  1.00  0.00     0.074 A 
ATOM     21  C   UNL A   1      38.694  29.704  28.354  1.00  0.00     0.031 C 
ATOM     22  C   UNL A   1      38.029  33.488  34.092  1.00  0.00     0.029 A 
ATOM     23  C   UNL A   1      39.104  32.505  34.105  1.00  0.00     0.049 A 
ATOM     24  H   UNL A   1      39.705  31.254  32.549  1.00  0.00     0.167 HD
ATOM     25  C   UNL A   1      40.634  28.475  29.300  1.00  0.00     0.037 A 
ATOM     26  C   UNL A   1      39.897  32.242  35.158  1.00  0.00     0.037 A 
ATOM     27  C   UNL A   1      41.607  28.213  30.329  1.00  0.00     0.049 A 
ATOM     28  C   UNL A   1      40.943  31.175  35.034  1.00  0.00     0.074 A 
ATOM     29  C   UNL A   1      42.691  27.352  30.289  1.00  0.00     0.029 A 
ATOM     30  N   UNL A   1      41.605  28.794  31.587  1.00  0.00    -0.354 N 
ATOM     31  N   UNL A   1      41.240  30.431  33.997  1.00  0.00    -0.248 NA
ATOM     32  C   UNL A   1      41.755  30.902  36.227  1.00  0.00     0.031 C 
ATOM     33  C   UNL A   1      43.313  27.374  31.542  1.00  0.00     0.029 A 
ATOM     34  C   UNL A   1      42.642  28.278  32.347  1.00  0.00     0.049 A 
ATOM     35  H   UNL A   1      40.962  29.474  31.894  1.00  0.00     0.167 HD
ATOM     36  C   UNL A   1      42.272  29.603  34.410  1.00  0.00     0.074 A 
ATOM     37  C   UNL A   1      42.570  29.955  35.784  1.00  0.00     0.031 C 
ATOM     38  C   UNL A   1      42.913  28.631  33.716  1.00  0.00     0.037 A 
BRANCH  25  39
ATOM     39  C   UNL A   1      40.703  27.644  28.055  1.00  0.00     0.057 A 
ATOM     40  C   UNL A   1      41.458  28.035  26.943  1.00  0.00     0.134 A 
ATOM     41  C   UNL A   1      40.085  26.387  28.007  1.00  0.00     0.134 A 
ATOM     42  F   UNL A   1      42.070  29.229  26.923  1.00  0.00    -0.206 F 
ATOM     43  C   UNL A   1      41.596  27.206  25.827  1.00  0.00     0.040 A 
ATOM     44  C   UNL A   1      40.229  25.542  26.905  1.00  0.00     0.040 A 
ATOM     45  F   UNL A   1      39.352  25.950  29.043  1.00  0.00    -0.206 F 
ATOM     46  C   UNL A   1      40.988  25.952  25.811  1.00  0.00     0.006 A 
ENDBRANCH  25  39
BRANCH  26  47
ATOM     47  C   UNL A   1      39.695  32.972  36.434  1.00  0.00     0.057 A 
ATOM     48  C   UNL A   1      38.756  32.541  37.377  1.00  0.00     0.134 A 
ATOM     49  C   UNL A   1      40.440  34.117  36.738  1.00  0.00     0.134 A 
ATOM     50  F   UNL A   1      38.001  31.460  37.132  1.00  0.00    -0.206 F 
ATOM     51  C   UNL A   1      38.555  33.233  38.572  1.00  0.00     0.040 A 
ATOM     52  C   UNL A   1      40.269  34.803  37.941  1.00  0.00     0.040 A 
ATOM     53  F   UNL A   1      41.361  34.575  35.878  1.00  0.00    -0.206 F 
ATOM     54  C   UNL A   1      39.317  34.364  38.859  1.00  0.00     0.006 A 
ENDBRANCH  26  47
BRANCH  38  55
ATOM     55  C   UNL A   1      43.991  27.882  34.437  1.00  0.00     0.057 A 
ATOM     56  C   UNL A   1      45.300  28.376  34.506  1.00  0.00     0.134 A 
ATOM     57  C   UNL A   1      43.714  26.677  35.091  1.00  0.00     0.134 A 
ATOM     58  F   UNL A   1      45.630  29.518  33.884  1.00  0.00    -0.206 F 
ATOM     59  C   UNL A   1      46.301  27.686  35.190  1.00  0.00     0.040 A 
ATOM     60  C   UNL A   1      44.702  25.989  35.798  1.00  0.00     0.040 A 
ATOM     61  F   UNL A   1      42.479  26.155  35.065  1.00  0.00    -0.206 F 
ATOM     62  C   UNL A   1      46.001  26.492  35.845  1.00  0.00     0.006 A 
ENDBRANCH  38  55
ENDBRANCH  12  13
ENDBRANCH   5   7
ENDBRANCH   2   3
ENDBRANCH   1   2
BRANCH   1  63
ATOM     63  C   UNL A   1      31.580  30.449  25.749  1.00  0.00     0.117 C 
BRANCH  63  64
ATOM     64  N   UNL A   1      31.759  29.400  26.740  1.00  0.00    -0.355 N 
ATOM     65  C   UNL A   1      31.464  28.068  26.651  1.00  0.00     0.238 C 
ATOM     66  H   UNL A   1      32.146  29.691  27.597  1.00  0.00     0.163 HD
ATOM     67  O   UNL A   1      31.669  27.363  27.638  1.00  0.00    -0.273 OA
BRANCH  65  68
ATOM     68  C   UNL A   1      30.891  27.547  25.359  1.00  0.00     0.162 C 
ATOM     69  C   UNL A   1      30.226  26.184  25.484  1.00  0.00     0.032 C 
ATOM     70  N   UNL A   1      31.768  27.418  24.146  1.00  0.00    -0.185 NA
ATOM     71  C   UNL A   1      29.865  25.881  24.043  1.00  0.00     0.019 C 
ATOM     72  C   UNL A   1      30.947  26.563  23.203  1.00  0.00     0.103 C 
BRANCH  70  73
ATOM     73  S   UNL A   1      33.369  26.799  24.302  1.00  0.00     0.243 S 
ATOM     74  O   UNL A   1      34.002  26.847  22.999  1.00  0.00    -0.207 OA
ATOM     75  O   UNL A   1      33.967  27.488  25.424  1.00  0.00    -0.207 OA
BRANCH  73  76
ATOM     76  C   UNL A   1      33.256  25.090  24.794  1.00  0.00     0.084 A 
ATOM     77  C   UNL A   1      33.105  24.758  26.146  1.00  0.00     0.024 A 
ATOM     78  C   UNL A   1      33.112  24.098  23.813  1.00  0.00     0.050 A 
ATOM     79  C   UNL A   1      32.968  23.424  26.534  1.00  0.00     0.030 A 
ATOM     80  C   UNL A   1      32.887  22.776  24.203  1.00  0.00     0.066 A 
ATOM     81  C   UNL A   1      32.860  22.435  25.561  1.00  0.00     0.065 A 
ATOM     82  N   UNL A   1      32.643  21.793  23.241  1.00  0.00    -0.316 N 
ATOM     83  N   UNL A   1      32.694  21.103  25.945  1.00  0.00    -0.316 N 
ATOM     84  C   UNL A   1      32.381  20.474  23.554  1.00  0.00     0.314 A 
ATOM     85  H   UNL A   1      32.657  22.054  22.292  1.00  0.00     0.170 HD
ATOM     86  C   UNL A   1      32.477  20.080  25.048  1.00  0.00     0.314 A 
ATOM     87  H   UNL A   1      32.732  20.885  26.904  1.00  0.00     0.170 HD
ATOM     88  O   UNL A   1      32.078  19.658  22.694  1.00  0.00    -0.263 OA
ATOM     89  O   UNL A   1      32.352  18.920  25.418  1.00  0.00    -0.263 OA
ENDBRANCH  73  76
ENDBRANCH  70  73
ENDBRANCH  65  68
ENDBRANCH  63  64
ENDBRANCH   1  63
TORSDOF 12
ENDMDL
MODEL 2
REMARK VINA RESULT:     -12.9      4.472      9.451
REMARK SMILES O=C(NCCCNC(=O)[C@@H]1CCCN1S(=O)(=O)c1ccc2[nH]c(=O)c(=O)[nH]c2c1)c1ccc(-c2c3nc(c(-c4c(F)cccc4F)c4ccc([nH]4)c(-c4c(F)cccc4F)c4nc(c(-c5c(F)cccc5F)c5ccc2[nH]5)C=C4)C=C3)cc1
REMARK SMILES IDX 5 1 4 2 3 3 1 4 2 5 30 7 31 8 83 9 32 10 82 11 33 12 34 13
REMARK SMILES IDX 35 14 76 15 36 16 81 17 75 18 77 19 37 20 80 21 74 22 73 23
REMARK SMILES IDX 38 25 64 26 47 27 63 28 48 29 51 30 62 31 78 32 49 33 50 34
REMARK SMILES IDX 61 36 79 37 52 38 39 39 40 40 45 41 41 42 42 43 44 44 46 45
REMARK SMILES IDX 43 46 65 47 66 48 71 49 67 50 68 51 70 52 72 53 69 54 53 55
REMARK SMILES IDX 54 56 59 57 55 58 56 59 58 60 60 61 57 62 6 63 7 64 8 65
REMARK SMILES IDX 9 67 10 68 11 69 14 70 12 71 13 72 15 73 16 74 17 75 18 76
REMARK SMILES IDX 19 77 29 78 20 79 28 80 21 81 27 82 22 83 25 84 23 86 26 88
REMARK SMILES IDX 24 89
REMARK H PARENT 3 6 77 24 51 35 7 66 27 85 22 87
REMARK Flexibility Score: inf
ROOT
ATOM      1  C   UNL A   1      37.626  19.755  24.949  1.00  0.00     0.042 C 
ENDROOT
BRANCH   1   2
ATOM      2  C   UNL A   1      38.843  20.254  25.716  1.00  0.00     0.118 C 
BRANCH   2   3
ATOM      3  N   UNL A   1      39.919  19.277  25.747  1.00  0.00    -0.352 N 
ATOM      4  O   UNL A   1      42.067  18.596  25.843  1.00  0.00    -0.269 OA
ATOM      5  C   UNL A   1      41.246  19.485  26.034  1.00  0.00     0.251 C 
ATOM      6  H   UNL A   1      39.665  18.350  25.535  1.00  0.00     0.163 HD
BRANCH   5   7
ATOM      7  C   UNL A   1      41.676  20.799  26.555  1.00  0.00     0.039 A 
ATOM      8  C   UNL A   1      42.087  21.809  25.678  1.00  0.00     0.014 A 
ATOM      9  C   UNL A   1      41.656  21.025  27.933  1.00  0.00     0.014 A 
ATOM     10  C   UNL A   1      42.568  23.011  26.185  1.00  0.00     0.010 A 
ATOM     11  C   UNL A   1      42.073  22.259  28.438  1.00  0.00     0.010 A 
ATOM     12  C   UNL A   1      42.538  23.257  27.566  1.00  0.00    -0.014 A 
BRANCH  12  13
ATOM     13  C   UNL A   1      42.873  24.609  28.074  1.00  0.00     0.031 A 
ATOM     14  C   UNL A   1      41.811  25.638  28.325  1.00  0.00     0.074 A 
ATOM     15  C   UNL A   1      44.172  24.902  28.282  1.00  0.00     0.049 A 
ATOM     16  N   UNL A   1      41.949  26.877  28.723  1.00  0.00    -0.248 NA
ATOM     17  C   UNL A   1      40.416  25.233  28.095  1.00  0.00     0.031 C 
ATOM     18  C   UNL A   1      45.290  23.983  28.045  1.00  0.00     0.029 A 
ATOM     19  N   UNL A   1      44.775  26.048  28.727  1.00  0.00    -0.354 N 
ATOM     20  C   UNL A   1      40.667  27.407  28.772  1.00  0.00     0.074 A 
ATOM     21  C   UNL A   1      39.761  26.359  28.353  1.00  0.00     0.031 C 
ATOM     22  C   UNL A   1      46.438  24.596  28.360  1.00  0.00     0.029 A 
ATOM     23  C   UNL A   1      46.146  25.967  28.761  1.00  0.00     0.049 A 
ATOM     24  H   UNL A   1      44.274  26.853  28.997  1.00  0.00     0.167 HD
ATOM     25  C   UNL A   1      40.290  28.656  29.134  1.00  0.00     0.037 A 
ATOM     26  C   UNL A   1      47.070  26.901  29.046  1.00  0.00     0.037 A 
ATOM     27  C   UNL A   1      41.199  29.682  29.575  1.00  0.00     0.049 A 
ATOM     28  C   UNL A   1      46.618  28.283  29.412  1.00  0.00     0.074 A 
ATOM     29  C   UNL A   1      40.901  30.946  30.057  1.00  0.00     0.029 A 
ATOM     30  N   UNL A   1      42.580  29.571  29.573  1.00  0.00    -0.354 N 
ATOM     31  N   UNL A   1      45.398  28.746  29.528  1.00  0.00    -0.248 NA
ATOM     32  C   UNL A   1      47.669  29.275  29.675  1.00  0.00     0.031 C 
ATOM     33  C   UNL A   1      42.105  31.617  30.296  1.00  0.00     0.029 A 
ATOM     34  C   UNL A   1      43.150  30.758  30.001  1.00  0.00     0.049 A 
ATOM     35  H   UNL A   1      43.082  28.767  29.306  1.00  0.00     0.167 HD
ATOM     36  C   UNL A   1      45.532  30.081  29.878  1.00  0.00     0.074 A 
ATOM     37  C   UNL A   1      46.953  30.347  29.984  1.00  0.00     0.031 C 
ATOM     38  C   UNL A   1      44.566  31.007  30.087  1.00  0.00     0.037 A 
BRANCH  25  39
ATOM     39  C   UNL A   1      38.834  29.004  29.065  1.00  0.00     0.057 A 
ATOM     40  C   UNL A   1      37.995  28.915  30.183  1.00  0.00     0.134 A 
ATOM     41  C   UNL A   1      38.287  29.532  27.888  1.00  0.00     0.134 A 
ATOM     42  F   UNL A   1      38.456  28.414  31.339  1.00  0.00    -0.206 F 
ATOM     43  C   UNL A   1      36.665  29.337  30.132  1.00  0.00     0.040 A 
ATOM     44  C   UNL A   1      36.964  29.973  27.828  1.00  0.00     0.040 A 
ATOM     45  F   UNL A   1      39.039  29.651  26.782  1.00  0.00    -0.206 F 
ATOM     46  C   UNL A   1      36.149  29.877  28.954  1.00  0.00     0.006 A 
ENDBRANCH  25  39
BRANCH  26  47
ATOM     47  C   UNL A   1      48.512  26.568  28.947  1.00  0.00     0.057 A 
ATOM     48  C   UNL A   1      49.221  26.755  27.755  1.00  0.00     0.134 A 
ATOM     49  C   UNL A   1      49.213  26.056  30.044  1.00  0.00     0.134 A 
ATOM     50  F   UNL A   1      48.597  27.226  26.666  1.00  0.00    -0.206 F 
ATOM     51  C   UNL A   1      50.574  26.430  27.655  1.00  0.00     0.040 A 
ATOM     52  C   UNL A   1      50.573  25.752  29.967  1.00  0.00     0.040 A 
ATOM     53  F   UNL A   1      48.591  25.861  31.216  1.00  0.00    -0.206 F 
ATOM     54  C   UNL A   1      51.254  25.932  28.765  1.00  0.00     0.006 A 
ENDBRANCH  26  47
BRANCH  38  55
ATOM     55  C   UNL A   1      45.018  32.390  30.443  1.00  0.00     0.057 A 
ATOM     56  C   UNL A   1      45.206  33.371  29.461  1.00  0.00     0.134 A 
ATOM     57  C   UNL A   1      45.237  32.753  31.777  1.00  0.00     0.134 A 
ATOM     58  F   UNL A   1      45.029  33.078  28.164  1.00  0.00    -0.206 F 
ATOM     59  C   UNL A   1      45.614  34.663  29.794  1.00  0.00     0.040 A 
ATOM     60  C   UNL A   1      45.623  34.048  32.124  1.00  0.00     0.040 A 
ATOM     61  F   UNL A   1      45.069  31.859  32.763  1.00  0.00    -0.206 F 
ATOM     62  C   UNL A   1      45.816  35.006  31.130  1.00  0.00     0.006 A 
ENDBRANCH  38  55
ENDBRANCH  12  13
ENDBRANCH   5   7
ENDBRANCH   2   3
ENDBRANCH   1   2
BRANCH   1  63
ATOM     63  C   UNL A   1      36.433  20.695  25.044  1.00  0.00     0.117 C 
BRANCH  63  64
ATOM     64  N   UNL A   1      36.625  21.869  24.207  1.00  0.00    -0.355 N 
ATOM     65  C   UNL A   1      35.695  22.612  23.537  1.00  0.00     0.238 C 
ATOM     66  H   UNL A   1      37.557  22.170  24.111  1.00  0.00     0.163 HD
ATOM     67  O   UNL A   1      36.091  23.555  22.853  1.00  0.00    -0.273 OA
BRANCH  65  68
ATOM     68  C   UNL A   1      34.244  22.224  23.659  1.00  0.00     0.162 C 
ATOM     69  C   UNL A   1      33.342  22.870  22.618  1.00  0.00     0.032 C 
ATOM     70  N   UNL A   1      33.517  22.435  24.957  1.00  0.00    -0.185 NA
ATOM     71  C   UNL A   1      31.971  22.399  23.060  1.00  0.00     0.019 C 
ATOM     72  C   UNL A   1      32.061  22.261  24.581  1.00  0.00     0.103 C 
BRANCH  70  73
ATOM     73  S   UNL A   1      33.753  23.890  25.849  1.00  0.00     0.243 S 
ATOM     74  O   UNL A   1      32.972  23.807  27.067  1.00  0.00    -0.207 OA
ATOM     75  O   UNL A   1      35.182  24.102  25.919  1.00  0.00    -0.207 OA
BRANCH  73  76
ATOM     76  C   UNL A   1      33.115  25.244  24.881  1.00  0.00     0.084 A 
ATOM     77  C   UNL A   1      33.912  25.835  23.893  1.00  0.00     0.024 A 
ATOM     78  C   UNL A   1      31.755  25.573  24.969  1.00  0.00     0.050 A 
ATOM     79  C   UNL A   1      33.402  26.864  23.097  1.00  0.00     0.030 A 
ATOM     80  C   UNL A   1      31.228  26.541  24.111  1.00  0.00     0.066 A 
ATOM     81  C   UNL A   1      32.060  27.215  23.210  1.00  0.00     0.065 A 
ATOM     82  N   UNL A   1      29.857  26.811  24.116  1.00  0.00    -0.316 N 
ATOM     83  N   UNL A   1      31.541  28.223  22.395  1.00  0.00    -0.316 N 
ATOM     84  C   UNL A   1      29.262  27.729  23.275  1.00  0.00     0.314 A 
ATOM     85  H   UNL A   1      29.287  26.321  24.751  1.00  0.00     0.170 HD
ATOM     86  C   UNL A   1      30.205  28.560  22.370  1.00  0.00     0.314 A 
ATOM     87  H   UNL A   1      32.159  28.715  21.809  1.00  0.00     0.170 HD
ATOM     88  O   UNL A   1      28.047  27.875  23.239  1.00  0.00    -0.263 OA
ATOM     89  O   UNL A   1      29.785  29.460  21.656  1.00  0.00    -0.263 OA
ENDBRANCH  73  76
ENDBRANCH  70  73
ENDBRANCH  65  68
ENDBRANCH  63  64
ENDBRANCH   1  63
TORSDOF 12
ENDMDL
MODEL 3
REMARK VINA RESULT:     -12.8      4.923     10.232
REMARK SMILES O=C(NCCCNC(=O)[C@@H]1CCCN1S(=O)(=O)c1ccc2[nH]c(=O)c(=O)[nH]c2c1)c1ccc(-c2c3nc(c(-c4c(F)cccc4F)c4ccc([nH]4)c(-c4c(F)cccc4F)c4nc(c(-c5c(F)cccc5F)c5ccc2[nH]5)C=C4)C=C3)cc1
REMARK SMILES IDX 5 1 4 2 3 3 1 4 2 5 30 7 31 8 83 9 32 10 82 11 33 12 34 13
REMARK SMILES IDX 35 14 76 15 36 16 81 17 75 18 77 19 37 20 80 21 74 22 73 23
REMARK SMILES IDX 38 25 64 26 47 27 63 28 48 29 51 30 62 31 78 32 49 33 50 34
REMARK SMILES IDX 61 36 79 37 52 38 39 39 40 40 45 41 41 42 42 43 44 44 46 45
REMARK SMILES IDX 43 46 65 47 66 48 71 49 67 50 68 51 70 52 72 53 69 54 53 55
REMARK SMILES IDX 54 56 59 57 55 58 56 59 58 60 60 61 57 62 6 63 7 64 8 65
REMARK SMILES IDX 9 67 10 68 11 69 14 70 12 71 13 72 15 73 16 74 17 75 18 76
REMARK SMILES IDX 19 77 29 78 20 79 28 80 21 81 27 82 22 83 25 84 23 86 26 88
REMARK SMILES IDX 24 89
REMARK H PARENT 3 6 77 24 51 35 7 66 27 85 22 87
REMARK Flexibility Score: inf
ROOT
ATOM      1  C   UNL A   1      37.839  19.608  25.001  1.00  0.00     0.042 C 
ENDROOT
BRANCH   1   2
ATOM      2  C   UNL A   1      39.094  20.106  25.705  1.00  0.00     0.118 C 
BRANCH   2   3
ATOM      3  N   UNL A   1      40.110  19.073  25.827  1.00  0.00    -0.352 N 
ATOM      4  O   UNL A   1      42.215  18.273  25.944  1.00  0.00    -0.269 OA
ATOM      5  C   UNL A   1      41.456  19.229  26.046  1.00  0.00     0.251 C 
ATOM      6  H   UNL A   1      39.793  18.145  25.740  1.00  0.00     0.163 HD
BRANCH   5   7
ATOM      7  C   UNL A   1      41.983  20.568  26.387  1.00  0.00     0.039 A 
ATOM      8  C   UNL A   1      42.324  21.473  25.376  1.00  0.00     0.014 A 
ATOM      9  C   UNL A   1      42.126  20.921  27.730  1.00  0.00     0.014 A 
ATOM     10  C   UNL A   1      42.896  22.696  25.709  1.00  0.00     0.010 A 
ATOM     11  C   UNL A   1      42.636  22.178  28.064  1.00  0.00     0.010 A 
ATOM     12  C   UNL A   1      43.030  23.071  27.054  1.00  0.00    -0.014 A 
BRANCH  12  13
ATOM     13  C   UNL A   1      43.463  24.449  27.388  1.00  0.00     0.031 A 
ATOM     14  C   UNL A   1      42.482  25.491  27.837  1.00  0.00     0.074 A 
ATOM     15  C   UNL A   1      44.768  24.751  27.253  1.00  0.00     0.049 A 
ATOM     16  N   UNL A   1      42.698  26.750  28.120  1.00  0.00    -0.248 NA
ATOM     17  C   UNL A   1      41.079  25.075  27.981  1.00  0.00     0.031 C 
ATOM     18  C   UNL A   1      45.806  23.820  26.798  1.00  0.00     0.029 A 
ATOM     19  N   UNL A   1      45.448  25.921  27.471  1.00  0.00    -0.354 N 
ATOM     20  C   UNL A   1      41.460  27.284  28.454  1.00  0.00     0.074 A 
ATOM     21  C   UNL A   1      40.493  26.214  28.330  1.00  0.00     0.031 C 
ATOM     22  C   UNL A   1      46.988  24.449  26.785  1.00  0.00     0.029 A 
ATOM     23  C   UNL A   1      46.786  25.840  27.170  1.00  0.00     0.049 A 
ATOM     24  H   UNL A   1      45.019  26.739  27.812  1.00  0.00     0.167 HD
ATOM     25  C   UNL A   1      41.168  28.551  28.829  1.00  0.00     0.037 A 
ATOM     26  C   UNL A   1      47.739  26.787  27.166  1.00  0.00     0.037 A 
ATOM     27  C   UNL A   1      42.144  29.600  28.975  1.00  0.00     0.049 A 
ATOM     28  C   UNL A   1      47.374  28.189  27.556  1.00  0.00     0.074 A 
ATOM     29  C   UNL A   1      41.959  30.890  29.445  1.00  0.00     0.029 A 
ATOM     30  N   UNL A   1      43.484  29.488  28.638  1.00  0.00    -0.354 N 
ATOM     31  N   UNL A   1      46.215  28.659  27.944  1.00  0.00    -0.248 NA
ATOM     32  C   UNL A   1      48.444  29.193  27.496  1.00  0.00     0.031 C 
ATOM     33  C   UNL A   1      43.176  31.572  29.342  1.00  0.00     0.029 A 
ATOM     34  C   UNL A   1      44.127  30.697  28.846  1.00  0.00     0.049 A 
ATOM     35  H   UNL A   1      43.914  28.669  28.299  1.00  0.00     0.167 HD
ATOM     36  C   UNL A   1      46.413  30.011  28.176  1.00  0.00     0.074 A 
ATOM     37  C   UNL A   1      47.812  30.281  27.913  1.00  0.00     0.031 C 
ATOM     38  C   UNL A   1      45.516  30.949  28.565  1.00  0.00     0.037 A 
BRANCH  25  39
ATOM     39  C   UNL A   1      39.735  28.897  29.102  1.00  0.00     0.057 A 
ATOM     40  C   UNL A   1      38.859  29.288  28.083  1.00  0.00     0.134 A 
ATOM     41  C   UNL A   1      39.201  28.739  30.388  1.00  0.00     0.134 A 
ATOM     42  F   UNL A   1      39.309  29.463  26.831  1.00  0.00    -0.206 F 
ATOM     43  C   UNL A   1      37.504  29.511  28.333  1.00  0.00     0.040 A 
ATOM     44  C   UNL A   1      37.845  28.942  30.648  1.00  0.00     0.040 A 
ATOM     45  F   UNL A   1      39.987  28.359  31.408  1.00  0.00    -0.206 F 
ATOM     46  C   UNL A   1      36.992  29.328  29.616  1.00  0.00     0.006 A 
ENDBRANCH  25  39
BRANCH  26  47
ATOM     47  C   UNL A   1      49.116  26.448  26.732  1.00  0.00     0.057 A 
ATOM     48  C   UNL A   1      49.536  26.659  25.415  1.00  0.00     0.134 A 
ATOM     49  C   UNL A   1      50.044  25.905  27.629  1.00  0.00     0.134 A 
ATOM     50  F   UNL A   1      48.686  27.161  24.508  1.00  0.00    -0.206 F 
ATOM     51  C   UNL A   1      50.827  26.328  25.001  1.00  0.00     0.040 A 
ATOM     52  C   UNL A   1      51.346  25.595  27.236  1.00  0.00     0.040 A 
ATOM     53  F   UNL A   1      49.703  25.686  28.907  1.00  0.00    -0.206 F 
ATOM     54  C   UNL A   1      51.737  25.800  25.914  1.00  0.00     0.006 A 
ENDBRANCH  26  47
BRANCH  38  55
ATOM     55  C   UNL A   1      46.024  32.349  28.722  1.00  0.00     0.057 A 
ATOM     56  C   UNL A   1      46.589  32.788  29.926  1.00  0.00     0.134 A 
ATOM     57  C   UNL A   1      45.977  33.254  27.656  1.00  0.00     0.134 A 
ATOM     58  F   UNL A   1      46.646  31.972  30.989  1.00  0.00    -0.206 F 
ATOM     59  C   UNL A   1      47.075  34.088  30.068  1.00  0.00     0.040 A 
ATOM     60  C   UNL A   1      46.481  34.549  27.779  1.00  0.00     0.040 A 
ATOM     61  F   UNL A   1      45.452  32.891  26.477  1.00  0.00    -0.206 F 
ATOM     62  C   UNL A   1      47.029  34.971  28.990  1.00  0.00     0.006 A 
ENDBRANCH  38  55
ENDBRANCH  12  13
ENDBRANCH   5   7
ENDBRANCH   2   3
ENDBRANCH   1   2
BRANCH   1  63
ATOM     63  C   UNL A   1      36.709  20.628  25.001  1.00  0.00     0.117 C 
BRANCH  63  64
ATOM     64  N   UNL A   1      35.413  19.969  24.959  1.00  0.00    -0.355 N 
ATOM     65  C   UNL A   1      34.207  20.408  25.431  1.00  0.00     0.238 C 
ATOM     66  H   UNL A   1      35.403  19.083  24.531  1.00  0.00     0.163 HD
ATOM     67  O   UNL A   1      33.236  19.661  25.317  1.00  0.00    -0.273 OA
BRANCH  65  68
ATOM     68  C   UNL A   1      34.142  21.768  26.076  1.00  0.00     0.162 C 
ATOM     69  C   UNL A   1      33.156  21.856  27.231  1.00  0.00     0.032 C 
ATOM     70  N   UNL A   1      33.841  22.981  25.243  1.00  0.00    -0.185 NA
ATOM     71  C   UNL A   1      33.224  23.328  27.586  1.00  0.00     0.019 C 
ATOM     72  C   UNL A   1      33.524  24.048  26.270  1.00  0.00     0.103 C 
BRANCH  70  73
ATOM     73  S   UNL A   1      32.618  22.911  24.030  1.00  0.00     0.243 S 
ATOM     74  O   UNL A   1      33.147  22.181  22.895  1.00  0.00    -0.207 OA
ATOM     75  O   UNL A   1      31.413  22.455  24.687  1.00  0.00    -0.207 OA
BRANCH  73  76
ATOM     76  C   UNL A   1      32.272  24.576  23.497  1.00  0.00     0.084 A 
ATOM     77  C   UNL A   1      33.133  25.217  22.597  1.00  0.00     0.024 A 
ATOM     78  C   UNL A   1      31.037  25.159  23.815  1.00  0.00     0.050 A 
ATOM     79  C   UNL A   1      32.842  26.503  22.137  1.00  0.00     0.030 A 
ATOM     80  C   UNL A   1      30.712  26.409  23.283  1.00  0.00     0.066 A 
ATOM     81  C   UNL A   1      31.631  27.097  22.483  1.00  0.00     0.065 A 
ATOM     82  N   UNL A   1      29.448  26.960  23.509  1.00  0.00    -0.316 N 
ATOM     83  N   UNL A   1      31.326  28.371  22.001  1.00  0.00    -0.316 N 
ATOM     84  C   UNL A   1      29.045  28.173  22.988  1.00  0.00     0.314 A 
ATOM     85  H   UNL A   1      28.812  26.457  24.067  1.00  0.00     0.170 HD
ATOM     86  C   UNL A   1      30.110  28.985  22.210  1.00  0.00     0.314 A 
ATOM     87  H   UNL A   1      32.011  28.853  21.485  1.00  0.00     0.170 HD
ATOM     88  O   UNL A   1      27.901  28.584  23.126  1.00  0.00    -0.263 OA
ATOM     89  O   UNL A   1      29.880  30.110  21.787  1.00  0.00    -0.263 OA
ENDBRANCH  73  76
ENDBRANCH  70  73
ENDBRANCH  65  68
ENDBRANCH  63  64
ENDBRANCH   1  63
TORSDOF 12
ENDMDL
