MODEL 1
REMARK VINA RESULT:     -11.8      0.000      0.000
REMARK SMILES CCCC[C@H](C(=O)NCCCNC(=O)c1ccc(-c2c3nc(c(-c4c(F)cccc4F)c4ccc([nH]4)c(-c4c(F)cccc4F)c4nc(c(-c5c(F)cccc5F)c5ccc2[nH]5)C=C4)C=C3)cc1)N1C(=O)/C(=C/c2ccc(C)cc2)SC1=S
REMARK SMILES IDX 9 1 8 2 6 3 7 4 5 6 4 7 3 8 2 9 1 10 69 11 70 12 82 13 71 14
REMARK SMILES IDX 72 15 81 16 83 17 73 18 74 19 75 20 80 21 76 22 79 23 77 24
REMARK SMILES IDX 78 25 10 26 11 27 12 28 13 29 14 31 15 32 16 33 68 34 17 35
REMARK SMILES IDX 67 36 18 37 19 38 20 39 61 40 21 41 66 42 60 43 62 44 22 45
REMARK SMILES IDX 65 46 59 47 58 48 23 50 49 51 32 52 48 53 33 54 36 55 47 56
REMARK SMILES IDX 63 57 34 58 35 59 46 61 64 62 37 63 24 64 25 65 30 66 26 67
REMARK SMILES IDX 27 68 29 69 31 70 28 71 50 72 51 73 56 74 52 75 53 76 55 77
REMARK SMILES IDX 57 78 54 79 38 80 39 81 44 82 40 83 41 84 43 85 45 86 42 87
REMARK H PARENT 8 5 12 30 62 49 36 60
REMARK Flexibility Score: inf
ROOT
ATOM      1  C   UNL A   1      31.613  30.264  26.282  1.00  0.00     0.117 C 
ENDROOT
BRANCH   1   2
ATOM      2  N   UNL A   1      32.572  29.989  25.239  1.00  0.00    -0.354 N 
ATOM      3  C   UNL A   1      32.534  29.048  24.261  1.00  0.00     0.243 C 
ATOM      4  O   UNL A   1      33.296  29.231  23.302  1.00  0.00    -0.273 OA
ATOM      5  H   UNL A   1      33.368  30.567  25.236  1.00  0.00     0.163 HD
BRANCH   3   6
ATOM      6  C   UNL A   1      31.543  27.852  24.240  1.00  0.00     0.181 C 
BRANCH   6   7
ATOM      7  C   UNL A   1      30.093  27.984  23.697  1.00  0.00     0.036 C 
BRANCH   7   8
ATOM      8  C   UNL A   1      29.528  29.155  22.879  1.00  0.00     0.002 C 
BRANCH   8   9
ATOM      9  C   UNL A   1      29.216  30.485  23.555  1.00  0.00    -0.003 C 
ATOM     10  C   UNL A   1      27.803  30.980  23.320  1.00  0.00     0.004 C 
ENDBRANCH   8   9
ENDBRANCH   7   8
ENDBRANCH   6   7
BRANCH   6  11
ATOM     11  N   UNL A   1      32.172  26.524  24.108  1.00  0.00    -0.280 N 
ATOM     12  C   UNL A   1      32.676  25.880  25.220  1.00  0.00     0.266 C 
ATOM     13  C   UNL A   1      32.336  25.847  22.911  1.00  0.00     0.149 C 
ATOM     14  O   UNL A   1      32.476  26.153  26.391  1.00  0.00    -0.268 OA
ATOM     15  C   UNL A   1      33.542  24.752  24.816  1.00  0.00     0.081 C 
ATOM     16  S   UNL A   1      33.294  24.388  23.168  1.00  0.00    -0.054 SA
ATOM     17  S   UNL A   1      31.807  26.264  21.383  1.00  0.00    -0.052 S 
ATOM     18  C   UNL A   1      34.395  24.227  25.704  1.00  0.00     0.029 C 
BRANCH  18  19
ATOM     19  C   UNL A   1      35.352  23.141  25.494  1.00  0.00    -0.024 A 
ATOM     20  C   UNL A   1      34.852  21.842  25.367  1.00  0.00     0.008 A 
ATOM     21  C   UNL A   1      36.736  23.346  25.483  1.00  0.00     0.008 A 
ATOM     22  C   UNL A   1      35.719  20.769  25.170  1.00  0.00     0.004 A 
ATOM     23  C   UNL A   1      37.604  22.272  25.278  1.00  0.00     0.004 A 
ATOM     24  C   UNL A   1      37.102  20.979  25.105  1.00  0.00    -0.051 A 
ATOM     25  C   UNL A   1      38.017  19.820  24.852  1.00  0.00     0.044 C 
ENDBRANCH  18  19
ENDBRANCH   6  11
ENDBRANCH   3   6
ENDBRANCH   1   2
BRANCH   1  26
ATOM     26  C   UNL A   1      31.453  31.748  26.534  1.00  0.00     0.042 C 
BRANCH  26  27
ATOM     27  C   UNL A   1      32.697  32.356  27.144  1.00  0.00     0.118 C 
BRANCH  27  28
ATOM     28  N   UNL A   1      32.470  33.740  27.548  1.00  0.00    -0.352 N 
ATOM     29  C   UNL A   1      33.121  34.491  28.494  1.00  0.00     0.251 C 
ATOM     30  H   UNL A   1      31.742  34.202  27.073  1.00  0.00     0.163 HD
ATOM     31  O   UNL A   1      32.642  35.555  28.872  1.00  0.00    -0.269 OA
BRANCH  29  32
ATOM     32  C   UNL A   1      34.391  34.002  29.069  1.00  0.00     0.039 A 
ATOM     33  C   UNL A   1      34.357  33.191  30.206  1.00  0.00     0.014 A 
ATOM     34  C   UNL A   1      35.613  34.341  28.485  1.00  0.00     0.014 A 
ATOM     35  C   UNL A   1      35.547  32.674  30.717  1.00  0.00     0.010 A 
ATOM     36  C   UNL A   1      36.780  33.733  28.921  1.00  0.00     0.010 A 
ATOM     37  C   UNL A   1      36.764  32.913  30.056  1.00  0.00    -0.014 A 
BRANCH  37  38
ATOM     38  C   UNL A   1      38.040  32.343  30.551  1.00  0.00     0.031 A 
ATOM     39  C   UNL A   1      38.561  31.061  29.961  1.00  0.00     0.074 A 
ATOM     40  C   UNL A   1      38.686  32.942  31.569  1.00  0.00     0.049 A 
ATOM     41  N   UNL A   1      39.610  30.359  30.307  1.00  0.00    -0.248 NA
ATOM     42  C   UNL A   1      37.783  30.469  28.859  1.00  0.00     0.031 C 
ATOM     43  C   UNL A   1      38.245  34.159  32.256  1.00  0.00     0.029 A 
ATOM     44  N   UNL A   1      39.848  32.601  32.213  1.00  0.00    -0.354 N 
ATOM     45  C   UNL A   1      39.604  29.242  29.481  1.00  0.00     0.074 A 
ATOM     46  C   UNL A   1      38.416  29.323  28.662  1.00  0.00     0.031 C 
ATOM     47  C   UNL A   1      39.140  34.478  33.204  1.00  0.00     0.029 A 
ATOM     48  C   UNL A   1      40.191  33.467  33.224  1.00  0.00     0.049 A 
ATOM     49  H   UNL A   1      40.385  31.812  31.974  1.00  0.00     0.167 HD
ATOM     50  C   UNL A   1      40.522  28.252  29.392  1.00  0.00     0.037 A 
ATOM     51  C   UNL A   1      41.234  33.439  34.075  1.00  0.00     0.037 A 
ATOM     52  C   UNL A   1      41.717  28.196  30.191  1.00  0.00     0.049 A 
ATOM     53  C   UNL A   1      42.237  32.324  33.960  1.00  0.00     0.074 A 
ATOM     54  C   UNL A   1      42.745  27.272  30.138  1.00  0.00     0.029 A 
ATOM     55  N   UNL A   1      42.042  29.102  31.190  1.00  0.00    -0.354 N 
ATOM     56  N   UNL A   1      42.259  31.313  33.123  1.00  0.00    -0.248 NA
ATOM     57  C   UNL A   1      43.363  32.347  34.901  1.00  0.00     0.031 C 
ATOM     58  C   UNL A   1      43.666  27.589  31.141  1.00  0.00     0.029 A 
ATOM     59  C   UNL A   1      43.242  28.744  31.778  1.00  0.00     0.049 A 
ATOM     60  H   UNL A   1      41.499  29.884  31.441  1.00  0.00     0.167 HD
ATOM     61  C   UNL A   1      43.414  30.602  33.416  1.00  0.00     0.074 A 
ATOM     62  C   UNL A   1      44.075  31.305  34.496  1.00  0.00     0.031 C 
ATOM     63  C   UNL A   1      43.887  29.466  32.845  1.00  0.00     0.037 A 
BRANCH  50  64
ATOM     64  C   UNL A   1      40.274  27.157  28.395  1.00  0.00     0.057 A 
ATOM     65  C   UNL A   1      40.849  27.173  27.118  1.00  0.00     0.134 A 
ATOM     66  C   UNL A   1      39.483  26.052  28.731  1.00  0.00     0.134 A 
ATOM     67  F   UNL A   1      41.607  28.209  26.725  1.00  0.00    -0.206 F 
ATOM     68  C   UNL A   1      40.627  26.143  26.202  1.00  0.00     0.040 A 
ATOM     69  C   UNL A   1      39.278  25.000  27.835  1.00  0.00     0.040 A 
ATOM     70  F   UNL A   1      38.904  25.968  29.939  1.00  0.00    -0.206 F 
ATOM     71  C   UNL A   1      39.845  25.048  26.564  1.00  0.00     0.006 A 
ENDBRANCH  50  64
BRANCH  51  72
ATOM     72  C   UNL A   1      41.393  34.503  35.100  1.00  0.00     0.057 A 
ATOM     73  C   UNL A   1      42.066  35.695  34.807  1.00  0.00     0.134 A 
ATOM     74  C   UNL A   1      40.893  34.348  36.399  1.00  0.00     0.134 A 
ATOM     75  F   UNL A   1      42.580  35.897  33.586  1.00  0.00    -0.206 F 
ATOM     76  C   UNL A   1      42.264  36.681  35.775  1.00  0.00     0.040 A 
ATOM     77  C   UNL A   1      41.057  35.339  37.369  1.00  0.00     0.040 A 
ATOM     78  F   UNL A   1      40.228  33.235  36.743  1.00  0.00    -0.206 F 
ATOM     79  C   UNL A   1      41.754  36.505  37.061  1.00  0.00     0.006 A 
ENDBRANCH  51  72
BRANCH  63  80
ATOM     80  C   UNL A   1      45.200  28.940  33.348  1.00  0.00     0.057 A 
ATOM     81  C   UNL A   1      46.423  29.364  32.815  1.00  0.00     0.134 A 
ATOM     82  C   UNL A   1      45.238  28.027  34.410  1.00  0.00     0.134 A 
ATOM     83  F   UNL A   1      46.455  30.227  31.788  1.00  0.00    -0.206 F 
ATOM     84  C   UNL A   1      47.637  28.880  33.303  1.00  0.00     0.040 A 
ATOM     85  C   UNL A   1      46.445  27.561  34.929  1.00  0.00     0.040 A 
ATOM     86  F   UNL A   1      44.102  27.589  34.974  1.00  0.00    -0.206 F 
ATOM     87  C   UNL A   1      47.650  27.982  34.369  1.00  0.00     0.006 A 
ENDBRANCH  63  80
ENDBRANCH  37  38
ENDBRANCH  29  32
ENDBRANCH  27  28
ENDBRANCH  26  27
ENDBRANCH   1  26
TORSDOF 15
ENDMDL
MODEL 2
REMARK VINA RESULT:     -11.7      3.767      9.322
REMARK SMILES CCCC[C@H](C(=O)NCCCNC(=O)c1ccc(-c2c3nc(c(-c4c(F)cccc4F)c4ccc([nH]4)c(-c4c(F)cccc4F)c4nc(c(-c5c(F)cccc5F)c5ccc2[nH]5)C=C4)C=C3)cc1)N1C(=O)/C(=C/c2ccc(C)cc2)SC1=S
REMARK SMILES IDX 9 1 8 2 6 3 7 4 5 6 4 7 3 8 2 9 1 10 69 11 70 12 82 13 71 14
REMARK SMILES IDX 72 15 81 16 83 17 73 18 74 19 75 20 80 21 76 22 79 23 77 24
REMARK SMILES IDX 78 25 10 26 11 27 12 28 13 29 14 31 15 32 16 33 68 34 17 35
REMARK SMILES IDX 67 36 18 37 19 38 20 39 61 40 21 41 66 42 60 43 62 44 22 45
REMARK SMILES IDX 65 46 59 47 58 48 23 50 49 51 32 52 48 53 33 54 36 55 47 56
REMARK SMILES IDX 63 57 34 58 35 59 46 61 64 62 37 63 24 64 25 65 30 66 26 67
REMARK SMILES IDX 27 68 29 69 31 70 28 71 50 72 51 73 56 74 52 75 53 76 55 77
REMARK SMILES IDX 57 78 54 79 38 80 39 81 44 82 40 83 41 84 43 85 45 86 42 87
REMARK H PARENT 8 5 12 30 62 49 36 60
REMARK Flexibility Score: inf
ROOT
ATOM      1  C   UNL A   1      36.242  21.077  24.881  1.00  0.00     0.117 C 
ENDROOT
BRANCH   1   2
ATOM      2  N   UNL A   1      35.609  21.370  26.145  1.00  0.00    -0.354 N 
ATOM      3  C   UNL A   1      34.296  21.579  26.422  1.00  0.00     0.243 C 
ATOM      4  O   UNL A   1      33.972  21.478  27.613  1.00  0.00    -0.273 OA
ATOM      5  H   UNL A   1      36.217  21.427  26.916  1.00  0.00     0.163 HD
BRANCH   3   6
ATOM      6  C   UNL A   1      33.206  21.829  25.345  1.00  0.00     0.181 C 
BRANCH   6   7
ATOM      7  C   UNL A   1      32.334  20.681  24.765  1.00  0.00     0.036 C 
BRANCH   7   8
ATOM      8  C   UNL A   1      32.797  19.585  23.793  1.00  0.00     0.002 C 
BRANCH   8   9
ATOM      9  C   UNL A   1      32.753  18.119  24.210  1.00  0.00    -0.003 C 
ATOM     10  C   UNL A   1      33.670  17.222  23.405  1.00  0.00     0.004 C 
ENDBRANCH   8   9
ENDBRANCH   7   8
ENDBRANCH   6   7
BRANCH   6  11
ATOM     11  N   UNL A   1      32.584  23.166  25.386  1.00  0.00    -0.280 N 
ATOM     12  C   UNL A   1      33.248  24.258  24.864  1.00  0.00     0.266 C 
ATOM     13  C   UNL A   1      31.351  23.442  25.952  1.00  0.00     0.149 C 
ATOM     14  O   UNL A   1      34.227  24.255  24.139  1.00  0.00    -0.268 OA
ATOM     15  C   UNL A   1      32.608  25.513  25.309  1.00  0.00     0.081 C 
ATOM     16  S   UNL A   1      31.063  25.182  25.956  1.00  0.00    -0.054 SA
ATOM     17  S   UNL A   1      30.235  22.390  26.613  1.00  0.00    -0.052 S 
ATOM     18  C   UNL A   1      33.282  26.666  25.215  1.00  0.00     0.029 C 
BRANCH  18  19
ATOM     19  C   UNL A   1      32.844  27.998  25.629  1.00  0.00    -0.024 A 
ATOM     20  C   UNL A   1      31.924  28.667  24.816  1.00  0.00     0.008 A 
ATOM     21  C   UNL A   1      33.355  28.645  26.759  1.00  0.00     0.008 A 
ATOM     22  C   UNL A   1      31.474  29.941  25.160  1.00  0.00     0.004 A 
ATOM     23  C   UNL A   1      32.900  29.918  27.107  1.00  0.00     0.004 A 
ATOM     24  C   UNL A   1      31.946  30.569  26.319  1.00  0.00    -0.051 A 
ATOM     25  C   UNL A   1      31.422  31.920  26.695  1.00  0.00     0.044 C 
ENDBRANCH  18  19
ENDBRANCH   6  11
ENDBRANCH   3   6
ENDBRANCH   1   2
BRANCH   1  26
ATOM     26  C   UNL A   1      37.302  20.003  25.008  1.00  0.00     0.042 C 
BRANCH  26  27
ATOM     27  C   UNL A   1      38.561  20.527  25.663  1.00  0.00     0.118 C 
BRANCH  27  28
ATOM     28  N   UNL A   1      39.591  19.495  25.738  1.00  0.00    -0.352 N 
ATOM     29  C   UNL A   1      40.928  19.615  26.016  1.00  0.00     0.251 C 
ATOM     30  H   UNL A   1      39.279  18.577  25.563  1.00  0.00     0.163 HD
ATOM     31  O   UNL A   1      41.690  18.678  25.799  1.00  0.00    -0.269 OA
BRANCH  29  32
ATOM     32  C   UNL A   1      41.452  20.886  26.559  1.00  0.00     0.039 A 
ATOM     33  C   UNL A   1      41.946  21.851  25.679  1.00  0.00     0.014 A 
ATOM     34  C   UNL A   1      41.450  21.125  27.935  1.00  0.00     0.014 A 
ATOM     35  C   UNL A   1      42.383  23.077  26.179  1.00  0.00     0.010 A 
ATOM     36  C   UNL A   1      41.773  22.384  28.418  1.00  0.00     0.010 A 
ATOM     37  C   UNL A   1      42.265  23.365  27.549  1.00  0.00    -0.014 A 
BRANCH  37  38
ATOM     38  C   UNL A   1      42.681  24.675  28.105  1.00  0.00     0.031 A 
ATOM     39  C   UNL A   1      41.650  25.743  28.348  1.00  0.00     0.074 A 
ATOM     40  C   UNL A   1      43.987  24.921  28.324  1.00  0.00     0.049 A 
ATOM     41  N   UNL A   1      41.817  26.977  28.750  1.00  0.00    -0.248 NA
ATOM     42  C   UNL A   1      40.247  25.390  28.069  1.00  0.00     0.031 C 
ATOM     43  C   UNL A   1      45.082  23.980  28.072  1.00  0.00     0.029 A 
ATOM     44  N   UNL A   1      44.618  26.043  28.797  1.00  0.00    -0.354 N 
ATOM     45  C   UNL A   1      40.550  27.546  28.754  1.00  0.00     0.074 A 
ATOM     46  C   UNL A   1      39.632  26.548  28.254  1.00  0.00     0.031 C 
ATOM     47  C   UNL A   1      46.244  24.553  28.422  1.00  0.00     0.029 A 
ATOM     48  C   UNL A   1      45.984  25.914  28.877  1.00  0.00     0.049 A 
ATOM     49  H   UNL A   1      44.137  26.862  29.056  1.00  0.00     0.167 HD
ATOM     50  C   UNL A   1      40.180  28.780  29.168  1.00  0.00     0.037 A 
ATOM     51  C   UNL A   1      46.919  26.801  29.266  1.00  0.00     0.037 A 
ATOM     52  C   UNL A   1      41.097  29.756  29.693  1.00  0.00     0.049 A 
ATOM     53  C   UNL A   1      46.481  28.170  29.714  1.00  0.00     0.074 A 
ATOM     54  C   UNL A   1      40.819  31.014  30.198  1.00  0.00     0.029 A 
ATOM     55  N   UNL A   1      42.470  29.582  29.778  1.00  0.00    -0.354 N 
ATOM     56  N   UNL A   1      45.270  28.670  29.784  1.00  0.00    -0.248 NA
ATOM     57  C   UNL A   1      47.538  29.094  30.143  1.00  0.00     0.031 C 
ATOM     58  C   UNL A   1      42.031  31.621  30.539  1.00  0.00     0.029 A 
ATOM     59  C   UNL A   1      43.056  30.720  30.304  1.00  0.00     0.049 A 
ATOM     60  H   UNL A   1      42.955  28.770  29.506  1.00  0.00     0.167 HD
ATOM     61  C   UNL A   1      45.417  29.952  30.293  1.00  0.00     0.074 A 
ATOM     62  C   UNL A   1      46.832  30.147  30.531  1.00  0.00     0.031 C 
ATOM     63  C   UNL A   1      44.467  30.888  30.542  1.00  0.00     0.037 A 
BRANCH  50  64
ATOM     64  C   UNL A   1      38.725  29.141  29.074  1.00  0.00     0.057 A 
ATOM     65  C   UNL A   1      37.873  29.081  30.184  1.00  0.00     0.134 A 
ATOM     66  C   UNL A   1      38.178  29.592  27.866  1.00  0.00     0.134 A 
ATOM     67  F   UNL A   1      38.329  28.644  31.369  1.00  0.00    -0.206 F 
ATOM     68  C   UNL A   1      36.526  29.434  30.092  1.00  0.00     0.040 A 
ATOM     69  C   UNL A   1      36.839  29.977  27.769  1.00  0.00     0.040 A 
ATOM     70  F   UNL A   1      38.937  29.678  26.762  1.00  0.00    -0.206 F 
ATOM     71  C   UNL A   1      36.008  29.892  28.883  1.00  0.00     0.006 A 
ENDBRANCH  50  64
BRANCH  51  72
ATOM     72  C   UNL A   1      48.355  26.424  29.265  1.00  0.00     0.057 A 
ATOM     73  C   UNL A   1      49.161  26.644  28.141  1.00  0.00     0.134 A 
ATOM     74  C   UNL A   1      48.955  25.820  30.377  1.00  0.00     0.134 A 
ATOM     75  F   UNL A   1      48.642  27.206  27.040  1.00  0.00    -0.206 F 
ATOM     76  C   UNL A   1      50.500  26.250  28.111  1.00  0.00     0.040 A 
ATOM     77  C   UNL A   1      50.301  25.448  30.372  1.00  0.00     0.040 A 
ATOM     78  F   UNL A   1      48.243  25.591  31.491  1.00  0.00    -0.206 F 
ATOM     79  C   UNL A   1      51.074  25.653  29.231  1.00  0.00     0.006 A 
ENDBRANCH  51  72
BRANCH  63  80
ATOM     80  C   UNL A   1      44.924  32.188  31.138  1.00  0.00     0.057 A 
ATOM     81  C   UNL A   1      45.030  32.373  32.522  1.00  0.00     0.134 A 
ATOM     82  C   UNL A   1      45.302  33.253  30.311  1.00  0.00     0.134 A 
ATOM     83  F   UNL A   1      44.671  31.396  33.369  1.00  0.00    -0.206 F 
ATOM     84  C   UNL A   1      45.471  33.582  33.063  1.00  0.00     0.040 A 
ATOM     85  C   UNL A   1      45.776  34.454  30.838  1.00  0.00     0.040 A 
ATOM     86  F   UNL A   1      45.236  33.137  28.976  1.00  0.00    -0.206 F 
ATOM     87  C   UNL A   1      45.854  34.623  32.220  1.00  0.00     0.006 A 
ENDBRANCH  63  80
ENDBRANCH  37  38
ENDBRANCH  29  32
ENDBRANCH  27  28
ENDBRANCH  26  27
ENDBRANCH   1  26
TORSDOF 15
ENDMDL
MODEL 3
REMARK VINA RESULT:     -11.6      0.613      6.190
REMARK SMILES CCCC[C@H](C(=O)NCCCNC(=O)c1ccc(-c2c3nc(c(-c4c(F)cccc4F)c4ccc([nH]4)c(-c4c(F)cccc4F)c4nc(c(-c5c(F)cccc5F)c5ccc2[nH]5)C=C4)C=C3)cc1)N1C(=O)/C(=C/c2ccc(C)cc2)SC1=S
REMARK SMILES IDX 9 1 8 2 6 3 7 4 5 6 4 7 3 8 2 9 1 10 69 11 70 12 82 13 71 14
REMARK SMILES IDX 72 15 81 16 83 17 73 18 74 19 75 20 80 21 76 22 79 23 77 24
REMARK SMILES IDX 78 25 10 26 11 27 12 28 13 29 14 31 15 32 16 33 68 34 17 35
REMARK SMILES IDX 67 36 18 37 19 38 20 39 61 40 21 41 66 42 60 43 62 44 22 45
REMARK SMILES IDX 65 46 59 47 58 48 23 50 49 51 32 52 48 53 33 54 36 55 47 56
REMARK SMILES IDX 63 57 34 58 35 59 46 61 64 62 37 63 24 64 25 65 30 66 26 67
REMARK SMILES IDX 27 68 29 69 31 70 28 71 50 72 51 73 56 74 52 75 53 76 55 77
REMARK SMILES IDX 57 78 54 79 38 80 39 81 44 82 40 83 41 84 43 85 45 86 42 87
REMARK H PARENT 8 5 12 30 62 49 36 60
REMARK Flexibility Score: inf
ROOT
ATOM      1  C   UNL A   1      31.456  30.374  26.286  1.00  0.00     0.117 C 
ENDROOT
BRANCH   1   2
ATOM      2  N   UNL A   1      32.487  30.074  25.322  1.00  0.00    -0.354 N 
ATOM      3  C   UNL A   1      32.509  29.121  24.355  1.00  0.00     0.243 C 
ATOM      4  O   UNL A   1      33.345  29.282  23.455  1.00  0.00    -0.273 OA
ATOM      5  H   UNL A   1      33.289  30.641  25.373  1.00  0.00     0.163 HD
BRANCH   3   6
ATOM      6  C   UNL A   1      31.507  27.938  24.273  1.00  0.00     0.181 C 
BRANCH   6   7
ATOM      7  C   UNL A   1      30.076  28.101  23.689  1.00  0.00     0.036 C 
BRANCH   7   8
ATOM      8  C   UNL A   1      29.611  29.181  22.702  1.00  0.00     0.002 C 
BRANCH   8   9
ATOM      9  C   UNL A   1      28.155  29.634  22.687  1.00  0.00    -0.003 C 
ATOM     10  C   UNL A   1      27.905  30.933  23.425  1.00  0.00     0.004 C 
ENDBRANCH   8   9
ENDBRANCH   7   8
ENDBRANCH   6   7
BRANCH   6  11
ATOM     11  N   UNL A   1      32.125  26.606  24.126  1.00  0.00    -0.280 N 
ATOM     12  C   UNL A   1      32.603  25.936  25.235  1.00  0.00     0.266 C 
ATOM     13  C   UNL A   1      32.302  25.950  22.920  1.00  0.00     0.149 C 
ATOM     14  O   UNL A   1      32.387  26.189  26.407  1.00  0.00    -0.268 OA
ATOM     15  C   UNL A   1      33.465  24.808  24.824  1.00  0.00     0.081 C 
ATOM     16  S   UNL A   1      33.241  24.477  23.165  1.00  0.00    -0.054 SA
ATOM     17  S   UNL A   1      31.803  26.401  21.391  1.00  0.00    -0.052 S 
ATOM     18  C   UNL A   1      34.297  24.257  25.716  1.00  0.00     0.029 C 
BRANCH  18  19
ATOM     19  C   UNL A   1      35.248  23.166  25.502  1.00  0.00    -0.024 A 
ATOM     20  C   UNL A   1      34.740  21.869  25.385  1.00  0.00     0.008 A 
ATOM     21  C   UNL A   1      36.632  23.364  25.477  1.00  0.00     0.008 A 
ATOM     22  C   UNL A   1      35.600  20.790  25.183  1.00  0.00     0.004 A 
ATOM     23  C   UNL A   1      37.493  22.285  25.268  1.00  0.00     0.004 A 
ATOM     24  C   UNL A   1      36.982  20.993  25.106  1.00  0.00    -0.051 A 
ATOM     25  C   UNL A   1      37.890  19.829  24.849  1.00  0.00     0.044 C 
ENDBRANCH  18  19
ENDBRANCH   6  11
ENDBRANCH   3   6
ENDBRANCH   1   2
BRANCH   1  26
ATOM     26  C   UNL A   1      31.325  31.862  26.538  1.00  0.00     0.042 C 
BRANCH  26  27
ATOM     27  C   UNL A   1      32.637  32.481  26.966  1.00  0.00     0.118 C 
BRANCH  27  28
ATOM     28  N   UNL A   1      32.442  33.825  27.500  1.00  0.00    -0.352 N 
ATOM     29  C   UNL A   1      33.129  34.479  28.492  1.00  0.00     0.251 C 
ATOM     30  H   UNL A   1      31.710  34.339  27.088  1.00  0.00     0.163 HD
ATOM     31  O   UNL A   1      32.677  35.511  28.978  1.00  0.00    -0.269 OA
BRANCH  29  32
ATOM     32  C   UNL A   1      34.406  33.923  28.986  1.00  0.00     0.039 A 
ATOM     33  C   UNL A   1      34.405  33.131  30.136  1.00  0.00     0.014 A 
ATOM     34  C   UNL A   1      35.602  34.180  28.311  1.00  0.00     0.014 A 
ATOM     35  C   UNL A   1      35.596  32.551  30.572  1.00  0.00     0.010 A 
ATOM     36  C   UNL A   1      36.759  33.511  28.677  1.00  0.00     0.010 A 
ATOM     37  C   UNL A   1      36.774  32.708  29.824  1.00  0.00    -0.014 A 
BRANCH  37  38
ATOM     38  C   UNL A   1      38.047  32.070  30.239  1.00  0.00     0.031 A 
ATOM     39  C   UNL A   1      38.947  32.772  31.218  1.00  0.00     0.074 A 
ATOM     40  C   UNL A   1      38.417  30.901  29.683  1.00  0.00     0.049 A 
ATOM     41  N   UNL A   1      40.134  32.424  31.645  1.00  0.00    -0.248 NA
ATOM     42  C   UNL A   1      38.467  34.053  31.766  1.00  0.00     0.031 C 
ATOM     43  C   UNL A   1      37.651  30.156  28.681  1.00  0.00     0.029 A 
ATOM     44  N   UNL A   1      39.540  30.137  29.874  1.00  0.00    -0.354 N 
ATOM     45  C   UNL A   1      40.544  33.447  32.491  1.00  0.00     0.074 A 
ATOM     46  C   UNL A   1      39.513  34.459  32.469  1.00  0.00     0.031 C 
ATOM     47  C   UNL A   1      38.311  29.030  28.368  1.00  0.00     0.029 A 
ATOM     48  C   UNL A   1      39.566  28.995  29.111  1.00  0.00     0.049 A 
ATOM     49  H   UNL A   1      40.259  30.384  30.500  1.00  0.00     0.167 HD
ATOM     50  C   UNL A   1      41.667  33.522  33.244  1.00  0.00     0.037 A 
ATOM     51  C   UNL A   1      40.504  28.034  29.016  1.00  0.00     0.037 A 
ATOM     52  C   UNL A   1      42.673  32.495  33.283  1.00  0.00     0.049 A 
ATOM     53  C   UNL A   1      41.746  28.145  29.858  1.00  0.00     0.074 A 
ATOM     54  C   UNL A   1      43.819  32.442  34.057  1.00  0.00     0.029 A 
ATOM     55  N   UNL A   1      42.655  31.343  32.511  1.00  0.00    -0.354 N 
ATOM     56  N   UNL A   1      42.087  29.081  30.712  1.00  0.00    -0.248 NA
ATOM     57  C   UNL A   1      42.731  27.064  29.730  1.00  0.00     0.031 C 
ATOM     58  C   UNL A   1      44.519  31.282  33.715  1.00  0.00     0.029 A 
ATOM     59  C   UNL A   1      43.782  30.583  32.773  1.00  0.00     0.049 A 
ATOM     60  H   UNL A   1      41.945  31.101  31.874  1.00  0.00     0.167 HD
ATOM     61  C   UNL A   1      43.306  28.686  31.243  1.00  0.00     0.074 A 
ATOM     62  C   UNL A   1      43.638  27.417  30.630  1.00  0.00     0.031 C 
ATOM     63  C   UNL A   1      44.085  29.317  32.157  1.00  0.00     0.037 A 
BRANCH  50  64
ATOM     64  C   UNL A   1      41.860  34.748  34.088  1.00  0.00     0.057 A 
ATOM     65  C   UNL A   1      41.410  34.816  35.413  1.00  0.00     0.134 A 
ATOM     66  C   UNL A   1      42.542  35.862  33.582  1.00  0.00     0.134 A 
ATOM     67  F   UNL A   1      40.737  33.789  35.956  1.00  0.00    -0.206 F 
ATOM     68  C   UNL A   1      41.609  35.954  36.196  1.00  0.00     0.040 A 
ATOM     69  C   UNL A   1      42.774  36.995  34.365  1.00  0.00     0.040 A 
ATOM     70  F   UNL A   1      43.005  35.866  32.322  1.00  0.00    -0.206 F 
ATOM     71  C   UNL A   1      42.301  37.045  35.674  1.00  0.00     0.006 A 
ENDBRANCH  50  64
BRANCH  51  72
ATOM     72  C   UNL A   1      40.303  26.878  28.105  1.00  0.00     0.057 A 
ATOM     73  C   UNL A   1      39.552  25.765  28.502  1.00  0.00     0.134 A 
ATOM     74  C   UNL A   1      40.870  26.849  26.824  1.00  0.00     0.134 A 
ATOM     75  F   UNL A   1      38.996  25.726  29.721  1.00  0.00    -0.206 F 
ATOM     76  C   UNL A   1      39.397  24.653  27.672  1.00  0.00     0.040 A 
ATOM     77  C   UNL A   1      40.697  25.755  25.973  1.00  0.00     0.040 A 
ATOM     78  F   UNL A   1      41.591  27.887  26.377  1.00  0.00    -0.206 F 
ATOM     79  C   UNL A   1      39.968  24.649  26.401  1.00  0.00     0.006 A 
ENDBRANCH  51  72
BRANCH  63  80
ATOM     80  C   UNL A   1      45.349  28.623  32.578  1.00  0.00     0.057 A 
ATOM     81  C   UNL A   1      46.573  28.858  31.940  1.00  0.00     0.134 A 
ATOM     82  C   UNL A   1      45.344  27.739  33.665  1.00  0.00     0.134 A 
ATOM     83  F   UNL A   1      46.642  29.684  30.884  1.00  0.00    -0.206 F 
ATOM     84  C   UNL A   1      47.743  28.220  32.352  1.00  0.00     0.040 A 
ATOM     85  C   UNL A   1      46.513  27.120  34.107  1.00  0.00     0.040 A 
ATOM     86  F   UNL A   1      44.207  27.479  34.328  1.00  0.00    -0.206 F 
ATOM     87  C   UNL A   1      47.716  27.354  33.444  1.00  0.00     0.006 A 
ENDBRANCH  63  80
ENDBRANCH  37  38
ENDBRANCH  29  32
ENDBRANCH  27  28
ENDBRANCH  26  27
ENDBRANCH   1  26
TORSDOF 15
ENDMDL
