MODEL 1
REMARK VINA RESULT:     -11.7      0.000      0.000
REMARK SMILES C[C@@H]1CCC[C@H](C)N1C(=O)Cn1cccc1C(=O)NCCCNC(=O)c1ccc(-c2c3nc(c(-c4c(F)cccc4F)c4ccc([nH]4)c(-c4c(F)cccc4F)c4nc(c(-c5c(F)cccc5F)c5ccc2[nH]5)C=C4)C=C3)cc1
REMARK SMILES IDX 20 1 19 2 17 3 18 4 16 6 12 7 13 8 14 9 15 10 11 11 9 12
REMARK SMILES IDX 10 13 8 14 1 15 2 16 3 17 4 18 6 19 5 20 7 21 21 22 22 23
REMARK SMILES IDX 23 24 24 25 25 27 26 28 27 29 79 30 28 31 78 32 29 33 30 34
REMARK SMILES IDX 31 35 72 36 32 37 77 38 71 39 73 40 33 41 76 42 70 43 69 44
REMARK SMILES IDX 34 46 60 47 43 48 59 49 44 50 47 51 58 52 74 53 45 54 46 55
REMARK SMILES IDX 57 57 75 58 48 59 35 60 36 61 41 62 37 63 38 64 40 65 42 66
REMARK SMILES IDX 39 67 61 68 62 69 67 70 63 71 64 72 66 73 68 74 65 75 49 76
REMARK SMILES IDX 50 77 55 78 51 79 52 80 54 81 56 82 53 83
REMARK H PARENT 19 5 23 26 73 45 47 56
REMARK Flexibility Score: inf
ROOT
ATOM      1  C   UNL A   1      36.141  20.226  25.067  1.00  0.00     0.118 C 
ENDROOT
BRANCH   1   2
ATOM      2  N   UNL A   1      35.885  21.602  24.514  1.00  0.00    -0.351 N 
ATOM      3  C   UNL A   1      35.026  22.637  24.205  1.00  0.00     0.267 C 
ATOM      4  O   UNL A   1      35.723  23.658  24.049  1.00  0.00    -0.268 OA
ATOM      5  H   UNL A   1      36.771  21.924  24.233  1.00  0.00     0.163 HD
BRANCH   3   6
ATOM      6  C   UNL A   1      33.566  22.811  24.057  1.00  0.00     0.107 A 
ATOM      7  N   UNL A   1      32.683  23.334  23.121  1.00  0.00    -0.334 N 
ATOM      8  C   UNL A   1      31.363  23.124  23.523  1.00  0.00     0.087 A 
ATOM      9  C   UNL A   1      31.374  22.860  24.863  1.00  0.00     0.020 A 
ATOM     10  C   UNL A   1      32.729  22.671  25.192  1.00  0.00     0.033 A 
BRANCH   7  11
ATOM     11  C   UNL A   1      32.865  24.296  22.047  1.00  0.00     0.222 C 
BRANCH  11  12
ATOM     12  C   UNL A   1      33.193  25.703  22.442  1.00  0.00     0.242 C 
ATOM     13  O   UNL A   1      33.830  26.363  21.621  1.00  0.00    -0.273 OA
BRANCH  12  14
ATOM     14  N   UNL A   1      32.619  26.228  23.611  1.00  0.00    -0.336 N 
ATOM     15  C   UNL A   1      31.270  28.144  22.926  1.00  0.00     0.031 C 
ATOM     16  C   UNL A   1      31.252  26.723  23.495  1.00  0.00     0.082 C 
ATOM     17  C   UNL A   1      30.467  26.543  24.795  1.00  0.00     0.025 C 
ATOM     18  C   UNL A   1      31.201  27.017  26.041  1.00  0.00     0.004 C 
ATOM     19  C   UNL A   1      33.381  26.679  24.813  1.00  0.00     0.082 C 
ATOM     20  C   UNL A   1      32.587  26.395  26.099  1.00  0.00     0.025 C 
ATOM     21  C   UNL A   1      33.903  28.119  24.818  1.00  0.00     0.031 C 
ENDBRANCH  12  14
ENDBRANCH  11  12
ENDBRANCH   7  11
ENDBRANCH   3   6
ENDBRANCH   1   2
BRANCH   1  22
ATOM     22  C   UNL A   1      37.505  19.539  24.863  1.00  0.00     0.042 C 
BRANCH  22  23
ATOM     23  C   UNL A   1      38.851  19.997  25.422  1.00  0.00     0.118 C 
BRANCH  23  24
ATOM     24  N   UNL A   1      39.857  19.017  25.750  1.00  0.00    -0.352 N 
ATOM     25  C   UNL A   1      41.194  19.302  26.018  1.00  0.00     0.251 C 
ATOM     26  H   UNL A   1      39.578  18.073  25.787  1.00  0.00     0.163 HD
ATOM     27  O   UNL A   1      42.048  18.455  25.841  1.00  0.00    -0.269 OA
BRANCH  25  28
ATOM     28  C   UNL A   1      41.589  20.660  26.494  1.00  0.00     0.039 A 
ATOM     29  C   UNL A   1      41.920  21.645  25.556  1.00  0.00     0.014 A 
ATOM     30  C   UNL A   1      41.690  20.944  27.861  1.00  0.00     0.014 A 
ATOM     31  C   UNL A   1      42.328  22.901  25.998  1.00  0.00     0.010 A 
ATOM     32  C   UNL A   1      41.975  22.225  28.304  1.00  0.00     0.010 A 
ATOM     33  C   UNL A   1      42.351  23.186  27.373  1.00  0.00    -0.014 A 
BRANCH  33  34
ATOM     34  C   UNL A   1      42.821  24.515  27.812  1.00  0.00     0.031 A 
ATOM     35  C   UNL A   1      41.640  25.476  27.992  1.00  0.00     0.074 A 
ATOM     36  C   UNL A   1      44.182  24.679  27.841  1.00  0.00     0.049 A 
ATOM     37  N   UNL A   1      41.470  26.672  27.528  1.00  0.00    -0.248 NA
ATOM     38  C   UNL A   1      40.411  24.989  28.675  1.00  0.00     0.031 C 
ATOM     39  C   UNL A   1      45.171  23.577  27.742  1.00  0.00     0.029 A 
ATOM     40  N   UNL A   1      45.027  25.767  27.942  1.00  0.00    -0.354 N 
ATOM     41  C   UNL A   1      40.225  27.154  27.999  1.00  0.00     0.074 A 
ATOM     42  C   UNL A   1      39.565  26.023  28.583  1.00  0.00     0.031 C 
ATOM     43  C   UNL A   1      46.433  24.048  27.685  1.00  0.00     0.029 A 
ATOM     44  C   UNL A   1      46.406  25.491  27.705  1.00  0.00     0.049 A 
ATOM     45  H   UNL A   1      44.699  26.670  28.162  1.00  0.00     0.167 HD
ATOM     46  C   UNL A   1      39.907  28.487  27.999  1.00  0.00     0.037 A 
ATOM     47  C   UNL A   1      47.437  26.360  27.449  1.00  0.00     0.037 A 
ATOM     48  C   UNL A   1      41.028  29.227  27.519  1.00  0.00     0.049 A 
ATOM     49  C   UNL A   1      46.827  27.690  27.532  1.00  0.00     0.074 A 
ATOM     50  C   UNL A   1      41.573  29.372  26.272  1.00  0.00     0.029 A 
ATOM     51  N   UNL A   1      41.953  29.595  28.468  1.00  0.00    -0.354 N 
ATOM     52  N   UNL A   1      46.467  28.274  28.634  1.00  0.00    -0.248 NA
ATOM     53  C   UNL A   1      46.460  28.365  26.281  1.00  0.00     0.031 C 
ATOM     54  C   UNL A   1      42.957  29.317  26.532  1.00  0.00     0.029 A 
ATOM     55  C   UNL A   1      43.192  29.437  27.907  1.00  0.00     0.049 A 
ATOM     56  H   UNL A   1      41.760  29.914  29.379  1.00  0.00     0.167 HD
ATOM     57  C   UNL A   1      45.540  29.184  28.185  1.00  0.00     0.074 A 
ATOM     58  C   UNL A   1      45.826  29.419  26.786  1.00  0.00     0.031 C 
ATOM     59  C   UNL A   1      44.324  29.251  28.784  1.00  0.00     0.037 A 
BRANCH  46  60
ATOM     60  C   UNL A   1      38.812  29.306  28.629  1.00  0.00     0.057 A 
ATOM     61  C   UNL A   1      38.663  29.248  30.040  1.00  0.00     0.134 A 
ATOM     62  C   UNL A   1      37.721  29.826  27.930  1.00  0.00     0.134 A 
ATOM     63  F   UNL A   1      39.669  28.826  30.825  1.00  0.00    -0.206 F 
ATOM     64  C   UNL A   1      37.461  29.536  30.689  1.00  0.00     0.040 A 
ATOM     65  C   UNL A   1      36.523  30.165  28.579  1.00  0.00     0.040 A 
ATOM     66  F   UNL A   1      37.738  29.938  26.597  1.00  0.00    -0.206 F 
ATOM     67  C   UNL A   1      36.374  29.974  29.951  1.00  0.00     0.006 A 
ENDBRANCH  46  60
BRANCH  47  68
ATOM     68  C   UNL A   1      48.871  26.305  26.962  1.00  0.00     0.057 A 
ATOM     69  C   UNL A   1      49.301  26.012  25.666  1.00  0.00     0.134 A 
ATOM     70  C   UNL A   1      49.938  26.624  27.852  1.00  0.00     0.134 A 
ATOM     71  F   UNL A   1      48.457  25.546  24.740  1.00  0.00    -0.206 F 
ATOM     72  C   UNL A   1      50.648  26.155  25.263  1.00  0.00     0.040 A 
ATOM     73  C   UNL A   1      51.266  26.816  27.460  1.00  0.00     0.040 A 
ATOM     74  F   UNL A   1      49.746  26.764  29.171  1.00  0.00    -0.206 F 
ATOM     75  C   UNL A   1      51.626  26.602  26.147  1.00  0.00     0.006 A 
ENDBRANCH  47  68
BRANCH  59  76
ATOM     76  C   UNL A   1      44.300  28.734  30.215  1.00  0.00     0.057 A 
ATOM     77  C   UNL A   1      45.072  29.368  31.199  1.00  0.00     0.134 A 
ATOM     78  C   UNL A   1      43.653  27.560  30.628  1.00  0.00     0.134 A 
ATOM     79  F   UNL A   1      45.717  30.509  30.915  1.00  0.00    -0.206 F 
ATOM     80  C   UNL A   1      45.218  28.847  32.493  1.00  0.00     0.040 A 
ATOM     81  C   UNL A   1      43.781  27.026  31.920  1.00  0.00     0.040 A 
ATOM     82  F   UNL A   1      42.881  26.874  29.789  1.00  0.00    -0.206 F 
ATOM     83  C   UNL A   1      44.577  27.667  32.857  1.00  0.00     0.006 A 
ENDBRANCH  59  76
ENDBRANCH  33  34
ENDBRANCH  25  28
ENDBRANCH  23  24
ENDBRANCH  22  23
ENDBRANCH   1  22
TORSDOF 13
ENDMDL
MODEL 2
REMARK VINA RESULT:     -11.7      2.612      7.147
REMARK SMILES C[C@@H]1CCC[C@H](C)N1C(=O)Cn1cccc1C(=O)NCCCNC(=O)c1ccc(-c2c3nc(c(-c4c(F)cccc4F)c4ccc([nH]4)c(-c4c(F)cccc4F)c4nc(c(-c5c(F)cccc5F)c5ccc2[nH]5)C=C4)C=C3)cc1
REMARK SMILES IDX 20 1 19 2 17 3 18 4 16 6 12 7 13 8 14 9 15 10 11 11 9 12
REMARK SMILES IDX 10 13 8 14 1 15 2 16 3 17 4 18 6 19 5 20 7 21 21 22 22 23
REMARK SMILES IDX 23 24 24 25 25 27 26 28 27 29 79 30 28 31 78 32 29 33 30 34
REMARK SMILES IDX 31 35 72 36 32 37 77 38 71 39 73 40 33 41 76 42 70 43 69 44
REMARK SMILES IDX 34 46 60 47 43 48 59 49 44 50 47 51 58 52 74 53 45 54 46 55
REMARK SMILES IDX 57 57 75 58 48 59 35 60 36 61 41 62 37 63 38 64 40 65 42 66
REMARK SMILES IDX 39 67 61 68 62 69 67 70 63 71 64 72 66 73 68 74 65 75 49 76
REMARK SMILES IDX 50 77 55 78 51 79 52 80 54 81 56 82 53 83
REMARK H PARENT 19 5 23 26 73 45 47 56
REMARK Flexibility Score: inf
ROOT
ATOM      1  C   UNL A   1      32.600  28.391  27.566  1.00  0.00     0.118 C 
ENDROOT
BRANCH   1   2
ATOM      2  N   UNL A   1      31.538  27.443  27.075  1.00  0.00    -0.351 N 
ATOM      3  C   UNL A   1      31.001  26.639  26.091  1.00  0.00     0.267 C 
ATOM      4  O   UNL A   1      30.197  25.866  26.647  1.00  0.00    -0.268 OA
ATOM      5  H   UNL A   1      30.918  27.353  27.834  1.00  0.00     0.163 HD
BRANCH   3   6
ATOM      6  C   UNL A   1      31.170  26.469  24.633  1.00  0.00     0.107 A 
ATOM      7  N   UNL A   1      32.045  25.825  23.768  1.00  0.00    -0.334 N 
ATOM      8  C   UNL A   1      31.619  25.966  22.446  1.00  0.00     0.087 A 
ATOM      9  C   UNL A   1      30.745  27.014  22.402  1.00  0.00     0.020 A 
ATOM     10  C   UNL A   1      30.471  27.326  23.747  1.00  0.00     0.033 A 
BRANCH   7  11
ATOM     11  C   UNL A   1      33.410  25.358  23.939  1.00  0.00     0.222 C 
BRANCH  11  12
ATOM     12  C   UNL A   1      33.682  24.464  25.109  1.00  0.00     0.242 C 
ATOM     13  O   UNL A   1      33.924  25.027  26.177  1.00  0.00    -0.273 OA
BRANCH  12  14
ATOM     14  N   UNL A   1      33.476  23.083  24.966  1.00  0.00    -0.336 N 
ATOM     15  C   UNL A   1      31.103  22.685  25.383  1.00  0.00     0.031 C 
ATOM     16  C   UNL A   1      32.223  22.676  24.339  1.00  0.00     0.082 C 
ATOM     17  C   UNL A   1      32.375  21.378  23.546  1.00  0.00     0.025 C 
ATOM     18  C   UNL A   1      33.089  20.264  24.299  1.00  0.00     0.004 C 
ATOM     19  C   UNL A   1      34.203  22.023  25.727  1.00  0.00     0.082 C 
ATOM     20  C   UNL A   1      34.409  20.772  24.857  1.00  0.00     0.025 C 
ATOM     21  C   UNL A   1      33.645  21.630  27.098  1.00  0.00     0.031 C 
ENDBRANCH  12  14
ENDBRANCH  11  12
ENDBRANCH   7  11
ENDBRANCH   3   6
ENDBRANCH   1   2
BRANCH   1  22
ATOM     22  C   UNL A   1      33.914  28.572  26.782  1.00  0.00     0.042 C 
BRANCH  22  23
ATOM     23  C   UNL A   1      35.266  28.998  27.351  1.00  0.00     0.118 C 
BRANCH  23  24
ATOM     24  N   UNL A   1      35.316  29.958  28.427  1.00  0.00    -0.352 N 
ATOM     25  C   UNL A   1      36.287  29.990  29.425  1.00  0.00     0.251 C 
ATOM     26  H   UNL A   1      34.609  30.642  28.460  1.00  0.00     0.163 HD
ATOM     27  O   UNL A   1      36.040  30.493  30.504  1.00  0.00    -0.269 OA
BRANCH  25  28
ATOM     28  C   UNL A   1      37.627  29.377  29.186  1.00  0.00     0.039 A 
ATOM     29  C   UNL A   1      38.131  28.452  30.107  1.00  0.00     0.014 A 
ATOM     30  C   UNL A   1      38.409  29.759  28.089  1.00  0.00     0.014 A 
ATOM     31  C   UNL A   1      39.397  27.909  29.908  1.00  0.00     0.010 A 
ATOM     32  C   UNL A   1      39.614  29.132  27.821  1.00  0.00     0.010 A 
ATOM     33  C   UNL A   1      40.134  28.250  28.761  1.00  0.00    -0.014 A 
BRANCH  33  34
ATOM     34  C   UNL A   1      41.487  27.685  28.596  1.00  0.00     0.031 A 
ATOM     35  C   UNL A   1      41.414  26.238  28.096  1.00  0.00     0.074 A 
ATOM     36  C   UNL A   1      42.516  28.480  29.034  1.00  0.00     0.049 A 
ATOM     37  N   UNL A   1      41.991  25.174  28.555  1.00  0.00    -0.248 NA
ATOM     38  C   UNL A   1      40.456  25.897  27.009  1.00  0.00     0.031 C 
ATOM     39  C   UNL A   1      42.387  29.916  29.384  1.00  0.00     0.029 A 
ATOM     40  N   UNL A   1      43.857  28.275  29.296  1.00  0.00    -0.354 N 
ATOM     41  C   UNL A   1      41.629  24.085  27.728  1.00  0.00     0.074 A 
ATOM     42  C   UNL A   1      40.577  24.570  26.882  1.00  0.00     0.031 C 
ATOM     43  C   UNL A   1      43.536  30.406  29.893  1.00  0.00     0.029 A 
ATOM     44  C   UNL A   1      44.518  29.350  29.962  1.00  0.00     0.049 A 
ATOM     45  H   UNL A   1      44.323  27.446  29.040  1.00  0.00     0.167 HD
ATOM     46  C   UNL A   1      42.334  22.910  27.712  1.00  0.00     0.037 A 
ATOM     47  C   UNL A   1      45.729  29.362  30.606  1.00  0.00     0.037 A 
ATOM     48  C   UNL A   1      43.453  23.033  28.588  1.00  0.00     0.049 A 
ATOM     49  C   UNL A   1      46.262  28.010  30.413  1.00  0.00     0.074 A 
ATOM     50  C   UNL A   1      43.558  23.060  29.952  1.00  0.00     0.029 A 
ATOM     51  N   UNL A   1      44.595  23.560  28.030  1.00  0.00    -0.354 N 
ATOM     52  N   UNL A   1      46.740  27.553  29.296  1.00  0.00    -0.248 NA
ATOM     53  C   UNL A   1      46.124  27.046  31.512  1.00  0.00     0.031 C 
ATOM     54  C   UNL A   1      44.517  24.070  30.168  1.00  0.00     0.029 A 
ATOM     55  C   UNL A   1      45.150  24.396  28.961  1.00  0.00     0.049 A 
ATOM     56  H   UNL A   1      44.946  23.371  27.131  1.00  0.00     0.167 HD
ATOM     57  C   UNL A   1      46.621  26.195  29.469  1.00  0.00     0.074 A 
ATOM     58  C   UNL A   1      46.572  25.957  30.895  1.00  0.00     0.031 C 
ATOM     59  C   UNL A   1      46.027  25.447  28.504  1.00  0.00     0.037 A 
BRANCH  46  60
ATOM     60  C   UNL A   1      42.349  21.705  26.808  1.00  0.00     0.057 A 
ATOM     61  C   UNL A   1      41.692  20.529  27.255  1.00  0.00     0.134 A 
ATOM     62  C   UNL A   1      43.242  21.531  25.749  1.00  0.00     0.134 A 
ATOM     63  F   UNL A   1      40.764  20.580  28.226  1.00  0.00    -0.206 F 
ATOM     64  C   UNL A   1      42.019  19.254  26.789  1.00  0.00     0.040 A 
ATOM     65  C   UNL A   1      43.541  20.257  25.240  1.00  0.00     0.040 A 
ATOM     66  F   UNL A   1      43.920  22.563  25.234  1.00  0.00    -0.206 F 
ATOM     67  C   UNL A   1      42.969  19.113  25.791  1.00  0.00     0.006 A 
ENDBRANCH  46  60
BRANCH  47  68
ATOM     68  C   UNL A   1      46.508  30.267  31.539  1.00  0.00     0.057 A 
ATOM     69  C   UNL A   1      46.154  30.622  32.843  1.00  0.00     0.134 A 
ATOM     70  C   UNL A   1      47.762  30.806  31.128  1.00  0.00     0.134 A 
ATOM     71  F   UNL A   1      44.948  30.334  33.341  1.00  0.00    -0.206 F 
ATOM     72  C   UNL A   1      47.027  31.329  33.700  1.00  0.00     0.040 A 
ATOM     73  C   UNL A   1      48.657  31.465  31.976  1.00  0.00     0.040 A 
ATOM     74  F   UNL A   1      48.190  30.722  29.861  1.00  0.00    -0.206 F 
ATOM     75  C   UNL A   1      48.299  31.713  33.284  1.00  0.00     0.006 A 
ENDBRANCH  47  68
BRANCH  59  76
ATOM     76  C   UNL A   1      46.066  26.070  27.116  1.00  0.00     0.057 A 
ATOM     77  C   UNL A   1      47.298  26.292  26.484  1.00  0.00     0.134 A 
ATOM     78  C   UNL A   1      44.948  26.580  26.439  1.00  0.00     0.134 A 
ATOM     79  F   UNL A   1      48.429  25.828  27.036  1.00  0.00    -0.206 F 
ATOM     80  C   UNL A   1      47.410  27.004  25.281  1.00  0.00     0.040 A 
ATOM     81  C   UNL A   1      45.038  27.289  25.231  1.00  0.00     0.040 A 
ATOM     82  F   UNL A   1      43.721  26.422  26.931  1.00  0.00    -0.206 F 
ATOM     83  C   UNL A   1      46.278  27.513  24.652  1.00  0.00     0.006 A 
ENDBRANCH  59  76
ENDBRANCH  33  34
ENDBRANCH  25  28
ENDBRANCH  23  24
ENDBRANCH  22  23
ENDBRANCH   1  22
TORSDOF 13
ENDMDL
MODEL 3
REMARK VINA RESULT:     -11.7      2.548      7.093
REMARK SMILES C[C@@H]1CCC[C@H](C)N1C(=O)Cn1cccc1C(=O)NCCCNC(=O)c1ccc(-c2c3nc(c(-c4c(F)cccc4F)c4ccc([nH]4)c(-c4c(F)cccc4F)c4nc(c(-c5c(F)cccc5F)c5ccc2[nH]5)C=C4)C=C3)cc1
REMARK SMILES IDX 20 1 19 2 17 3 18 4 16 6 12 7 13 8 14 9 15 10 11 11 9 12
REMARK SMILES IDX 10 13 8 14 1 15 2 16 3 17 4 18 6 19 5 20 7 21 21 22 22 23
REMARK SMILES IDX 23 24 24 25 25 27 26 28 27 29 79 30 28 31 78 32 29 33 30 34
REMARK SMILES IDX 31 35 72 36 32 37 77 38 71 39 73 40 33 41 76 42 70 43 69 44
REMARK SMILES IDX 34 46 60 47 43 48 59 49 44 50 47 51 58 52 74 53 45 54 46 55
REMARK SMILES IDX 57 57 75 58 48 59 35 60 36 61 41 62 37 63 38 64 40 65 42 66
REMARK SMILES IDX 39 67 61 68 62 69 67 70 63 71 64 72 66 73 68 74 65 75 49 76
REMARK SMILES IDX 50 77 55 78 51 79 52 80 54 81 56 82 53 83
REMARK H PARENT 19 5 23 26 73 45 47 56
REMARK Flexibility Score: inf
ROOT
ATOM      1  C   UNL A   1      33.231  27.806  26.798  1.00  0.00     0.118 C 
ENDROOT
BRANCH   1   2
ATOM      2  N   UNL A   1      32.779  27.077  25.561  1.00  0.00    -0.351 N 
ATOM      3  C   UNL A   1      32.190  25.990  24.949  1.00  0.00     0.267 C 
ATOM      4  O   UNL A   1      31.882  26.340  23.794  1.00  0.00    -0.268 OA
ATOM      5  H   UNL A   1      33.028  27.673  24.818  1.00  0.00     0.163 HD
BRANCH   3   6
ATOM      6  C   UNL A   1      31.833  24.608  25.331  1.00  0.00     0.107 A 
ATOM      7  N   UNL A   1      32.214  23.316  24.990  1.00  0.00    -0.334 N 
ATOM      8  C   UNL A   1      31.551  22.383  25.790  1.00  0.00     0.087 A 
ATOM      9  C   UNL A   1      30.465  23.003  26.337  1.00  0.00     0.020 A 
ATOM     10  C   UNL A   1      30.637  24.371  26.053  1.00  0.00     0.033 A 
BRANCH   7  11
ATOM     11  C   UNL A   1      32.867  22.777  23.809  1.00  0.00     0.222 C 
BRANCH  11  12
ATOM     12  C   UNL A   1      34.217  23.327  23.468  1.00  0.00     0.242 C 
ATOM     13  O   UNL A   1      34.254  24.142  22.546  1.00  0.00    -0.273 OA
BRANCH  12  14
ATOM     14  N   UNL A   1      35.301  23.026  24.309  1.00  0.00    -0.336 N 
ATOM     15  C   UNL A   1      35.002  20.713  25.031  1.00  0.00     0.031 C 
ATOM     16  C   UNL A   1      35.850  21.679  24.201  1.00  0.00     0.082 C 
ATOM     17  C   UNL A   1      37.352  21.650  24.486  1.00  0.00     0.025 C 
ATOM     18  C   UNL A   1      37.765  22.396  25.748  1.00  0.00     0.004 C 
ATOM     19  C   UNL A   1      35.670  23.789  25.538  1.00  0.00     0.082 C 
ATOM     20  C   UNL A   1      37.195  23.805  25.732  1.00  0.00     0.025 C 
ATOM     21  C   UNL A   1      34.973  23.400  26.845  1.00  0.00     0.031 C 
ENDBRANCH  12  14
ENDBRANCH  11  12
ENDBRANCH   7  11
ENDBRANCH   3   6
ENDBRANCH   1   2
BRANCH   1  22
ATOM     22  C   UNL A   1      34.140  29.045  26.691  1.00  0.00     0.042 C 
BRANCH  22  23
ATOM     23  C   UNL A   1      35.455  29.281  27.434  1.00  0.00     0.118 C 
BRANCH  23  24
ATOM     24  N   UNL A   1      35.440  29.939  28.717  1.00  0.00    -0.352 N 
ATOM     25  C   UNL A   1      36.340  29.694  29.751  1.00  0.00     0.251 C 
ATOM     26  H   UNL A   1      34.740  30.613  28.875  1.00  0.00     0.163 HD
ATOM     27  O   UNL A   1      36.024  29.919  30.904  1.00  0.00    -0.269 OA
BRANCH  25  28
ATOM     28  C   UNL A   1      37.687  29.125  29.453  1.00  0.00     0.039 A 
ATOM     29  C   UNL A   1      38.233  28.168  30.317  1.00  0.00     0.014 A 
ATOM     30  C   UNL A   1      38.434  29.576  28.358  1.00  0.00     0.014 A 
ATOM     31  C   UNL A   1      39.506  27.664  30.063  1.00  0.00     0.010 A 
ATOM     32  C   UNL A   1      39.646  28.990  28.033  1.00  0.00     0.010 A 
ATOM     33  C   UNL A   1      40.207  28.077  28.918  1.00  0.00    -0.014 A 
BRANCH  33  34
ATOM     34  C   UNL A   1      41.568  27.551  28.695  1.00  0.00     0.031 A 
ATOM     35  C   UNL A   1      41.515  26.114  28.165  1.00  0.00     0.074 A 
ATOM     36  C   UNL A   1      42.590  28.363  29.117  1.00  0.00     0.049 A 
ATOM     37  N   UNL A   1      42.135  25.056  28.581  1.00  0.00    -0.248 NA
ATOM     38  C   UNL A   1      40.530  25.772  27.104  1.00  0.00     0.031 C 
ATOM     39  C   UNL A   1      42.437  29.788  29.503  1.00  0.00     0.029 A 
ATOM     40  N   UNL A   1      43.944  28.189  29.329  1.00  0.00    -0.354 N 
ATOM     41  C   UNL A   1      41.773  23.976  27.743  1.00  0.00     0.074 A 
ATOM     42  C   UNL A   1      40.681  24.451  26.943  1.00  0.00     0.031 C 
ATOM     43  C   UNL A   1      43.589  30.297  29.984  1.00  0.00     0.029 A 
ATOM     44  C   UNL A   1      44.599  29.266  29.996  1.00  0.00     0.049 A 
ATOM     45  H   UNL A   1      44.422  27.378  29.039  1.00  0.00     0.167 HD
ATOM     46  C   UNL A   1      42.508  22.821  27.677  1.00  0.00     0.037 A 
ATOM     47  C   UNL A   1      45.831  29.296  30.600  1.00  0.00     0.037 A 
ATOM     48  C   UNL A   1      43.652  22.954  28.517  1.00  0.00     0.049 A 
ATOM     49  C   UNL A   1      46.392  27.963  30.359  1.00  0.00     0.074 A 
ATOM     50  C   UNL A   1      43.802  22.955  29.878  1.00  0.00     0.029 A 
ATOM     51  N   UNL A   1      44.760  23.523  27.934  1.00  0.00    -0.354 N 
ATOM     52  N   UNL A   1      46.843  27.544  29.217  1.00  0.00    -0.248 NA
ATOM     53  C   UNL A   1      46.316  26.972  31.440  1.00  0.00     0.031 C 
ATOM     54  C   UNL A   1      44.742  23.985  30.084  1.00  0.00     0.029 A 
ATOM     55  C   UNL A   1      45.325  24.354  28.865  1.00  0.00     0.049 A 
ATOM     56  H   UNL A   1      45.086  23.363  27.019  1.00  0.00     0.167 HD
ATOM     57  C   UNL A   1      46.765  26.179  29.363  1.00  0.00     0.074 A 
ATOM     58  C   UNL A   1      46.770  25.909  30.785  1.00  0.00     0.031 C 
ATOM     59  C   UNL A   1      46.159  25.437  28.402  1.00  0.00     0.037 A 
BRANCH  46  60
ATOM     60  C   UNL A   1      42.523  21.636  26.746  1.00  0.00     0.057 A 
ATOM     61  C   UNL A   1      41.845  20.458  27.156  1.00  0.00     0.134 A 
ATOM     62  C   UNL A   1      43.430  21.476  25.697  1.00  0.00     0.134 A 
ATOM     63  F   UNL A   1      40.903  20.498  28.113  1.00  0.00    -0.206 F 
ATOM     64  C   UNL A   1      42.165  19.190  26.666  1.00  0.00     0.040 A 
ATOM     65  C   UNL A   1      43.723  20.210  25.164  1.00  0.00     0.040 A 
ATOM     66  F   UNL A   1      44.128  22.511  25.216  1.00  0.00    -0.206 F 
ATOM     67  C   UNL A   1      43.129  19.060  25.680  1.00  0.00     0.006 A 
ENDBRANCH  46  60
BRANCH  47  68
ATOM     68  C   UNL A   1      46.617  30.201  31.527  1.00  0.00     0.057 A 
ATOM     69  C   UNL A   1      47.725  30.981  31.188  1.00  0.00     0.134 A 
ATOM     70  C   UNL A   1      46.210  30.359  32.884  1.00  0.00     0.134 A 
ATOM     71  F   UNL A   1      48.336  30.848  30.006  1.00  0.00    -0.206 F 
ATOM     72  C   UNL A   1      48.287  31.927  32.075  1.00  0.00     0.040 A 
ATOM     73  C   UNL A   1      46.723  31.323  33.758  1.00  0.00     0.040 A 
ATOM     74  F   UNL A   1      45.281  29.572  33.443  1.00  0.00    -0.206 F 
ATOM     75  C   UNL A   1      47.758  32.133  33.346  1.00  0.00     0.006 A 
ENDBRANCH  47  68
BRANCH  59  76
ATOM     76  C   UNL A   1      46.134  26.090  27.028  1.00  0.00     0.057 A 
ATOM     77  C   UNL A   1      47.338  26.362  26.362  1.00  0.00     0.134 A 
ATOM     78  C   UNL A   1      44.981  26.582  26.399  1.00  0.00     0.134 A 
ATOM     79  F   UNL A   1      48.500  25.919  26.867  1.00  0.00    -0.206 F 
ATOM     80  C   UNL A   1      47.390  27.103  25.172  1.00  0.00     0.040 A 
ATOM     81  C   UNL A   1      45.012  27.320  25.205  1.00  0.00     0.040 A 
ATOM     82  F   UNL A   1      43.776  26.379  26.926  1.00  0.00    -0.206 F 
ATOM     83  C   UNL A   1      46.225  27.592  24.592  1.00  0.00     0.006 A 
ENDBRANCH  59  76
ENDBRANCH  33  34
ENDBRANCH  25  28
ENDBRANCH  23  24
ENDBRANCH  22  23
ENDBRANCH   1  22
TORSDOF 13
ENDMDL
