MODEL 1
REMARK VINA RESULT:     -12.2      0.000      0.000
REMARK SMILES O=C(Cn1cnnn1)Nc1cccc(F)c1C(=O)NCCCNC(=O)c1ccc(-c2c3nc(c(-c4c(F)cccc4F)c4ccc([nH]4)c(-c4c(F)cccc4F)c4nc(c(-c5c(F)cccc5F)c5ccc2[nH]5)C=C4)C=C3)cc1
REMARK SMILES IDX 20 1 19 2 17 3 18 4 16 6 10 7 11 8 12 9 14 10 13 11 15 12
REMARK SMILES IDX 9 13 1 14 2 15 3 17 4 18 5 19 8 20 6 21 7 22 21 23 22 24
REMARK SMILES IDX 23 25 24 26 25 28 26 29 27 30 79 31 28 32 78 33 29 34 30 35
REMARK SMILES IDX 31 36 72 37 32 38 77 39 71 40 73 41 33 42 76 43 70 44 69 45
REMARK SMILES IDX 34 47 60 48 43 49 59 50 44 51 47 52 58 53 74 54 45 55 46 56
REMARK SMILES IDX 57 58 75 59 48 60 35 61 36 62 41 63 37 64 38 65 40 66 42 67
REMARK SMILES IDX 39 68 61 69 62 70 67 71 63 72 64 73 66 74 68 75 65 76 49 77
REMARK SMILES IDX 50 78 55 79 51 80 52 81 54 82 56 83 53 84
REMARK H PARENT 19 5 9 16 23 27 73 46 47 57
REMARK Flexibility Score: inf
ROOT
ATOM      1  C   UNL A   1      32.521  30.398  26.266  1.00  0.00     0.118 C 
ENDROOT
BRANCH   1   2
ATOM      2  N   UNL A   1      33.231  29.756  25.168  1.00  0.00    -0.352 N 
ATOM      3  C   UNL A   1      33.220  28.478  24.665  1.00  0.00     0.256 C 
ATOM      4  O   UNL A   1      33.988  28.250  23.724  1.00  0.00    -0.269 OA
ATOM      5  H   UNL A   1      33.841  30.362  24.689  1.00  0.00     0.163 HD
BRANCH   3   6
ATOM      6  C   UNL A   1      32.329  27.371  25.118  1.00  0.00     0.099 A 
ATOM      7  C   UNL A   1      30.964  27.373  24.719  1.00  0.00     0.057 A 
ATOM      8  C   UNL A   1      30.139  26.291  25.076  1.00  0.00     0.027 A 
ATOM      9  C   UNL A   1      30.620  25.237  25.848  1.00  0.00     0.005 A 
ATOM     10  C   UNL A   1      32.784  26.281  25.867  1.00  0.00     0.138 A 
ATOM     11  C   UNL A   1      31.942  25.241  26.255  1.00  0.00     0.040 A 
ATOM     12  F   UNL A   1      34.064  26.134  26.212  1.00  0.00    -0.206 F 
BRANCH   7  13
ATOM     13  N   UNL A   1      30.443  28.427  23.919  1.00  0.00    -0.324 N 
ATOM     14  O   UNL A   1      30.584  27.513  21.790  1.00  0.00    -0.273 OA
ATOM     15  C   UNL A   1      30.370  28.467  22.538  1.00  0.00     0.246 C 
ATOM     16  H   UNL A   1      30.096  29.213  24.400  1.00  0.00     0.170 HD
BRANCH  15  17
ATOM     17  C   UNL A   1      30.095  29.829  21.948  1.00  0.00     0.248 C 
BRANCH  17  18
ATOM     18  N   UNL A   1      28.921  30.492  22.460  1.00  0.00    -0.223 N 
ATOM     19  C   UNL A   1      28.708  31.832  22.550  1.00  0.00     0.246 A 
ATOM     20  N   UNL A   1      27.953  29.837  23.118  1.00  0.00    -0.045 NA
ATOM     21  N   UNL A   1      27.599  32.031  23.223  1.00  0.00    -0.117 NA
ATOM     22  N   UNL A   1      27.137  30.782  23.563  1.00  0.00    -0.024 NA
ENDBRANCH  17  18
ENDBRANCH  15  17
ENDBRANCH   7  13
ENDBRANCH   3   6
ENDBRANCH   1   2
BRANCH   1  23
ATOM     23  C   UNL A   1      33.350  30.373  27.560  1.00  0.00     0.042 C 
BRANCH  23  24
ATOM     24  C   UNL A   1      34.289  31.558  27.685  1.00  0.00     0.118 C 
BRANCH  24  25
ATOM     25  N   UNL A   1      34.281  32.142  29.026  1.00  0.00    -0.352 N 
ATOM     26  C   UNL A   1      35.121  31.862  30.081  1.00  0.00     0.251 C 
ATOM     27  H   UNL A   1      33.588  32.821  29.195  1.00  0.00     0.163 HD
ATOM     28  O   UNL A   1      34.805  32.158  31.232  1.00  0.00    -0.269 OA
BRANCH  26  29
ATOM     29  C   UNL A   1      36.400  31.185  29.815  1.00  0.00     0.039 A 
ATOM     30  C   UNL A   1      37.583  31.911  29.654  1.00  0.00     0.014 A 
ATOM     31  C   UNL A   1      36.412  29.794  29.772  1.00  0.00     0.014 A 
ATOM     32  C   UNL A   1      38.787  31.222  29.538  1.00  0.00     0.010 A 
ATOM     33  C   UNL A   1      37.606  29.121  29.823  1.00  0.00     0.010 A 
ATOM     34  C   UNL A   1      38.795  29.822  29.653  1.00  0.00    -0.014 A 
BRANCH  34  35
ATOM     35  C   UNL A   1      40.056  29.088  29.708  1.00  0.00     0.031 A 
ATOM     36  C   UNL A   1      40.612  28.887  31.077  1.00  0.00     0.074 A 
ATOM     37  C   UNL A   1      40.576  28.438  28.644  1.00  0.00     0.049 A 
ATOM     38  N   UNL A   1      41.734  29.320  31.548  1.00  0.00    -0.248 NA
ATOM     39  C   UNL A   1      39.768  28.214  32.080  1.00  0.00     0.031 C 
ATOM     40  C   UNL A   1      40.005  28.259  27.304  1.00  0.00     0.029 A 
ATOM     41  N   UNL A   1      41.709  27.689  28.580  1.00  0.00    -0.354 N 
ATOM     42  C   UNL A   1      41.830  28.826  32.847  1.00  0.00     0.074 A 
ATOM     43  C   UNL A   1      40.535  28.284  33.170  1.00  0.00     0.031 C 
ATOM     44  C   UNL A   1      40.660  27.268  26.659  1.00  0.00     0.029 A 
ATOM     45  C   UNL A   1      41.801  26.872  27.461  1.00  0.00     0.049 A 
ATOM     46  H   UNL A   1      42.409  27.723  29.272  1.00  0.00     0.167 HD
ATOM     47  C   UNL A   1      43.029  28.718  33.484  1.00  0.00     0.037 A 
ATOM     48  C   UNL A   1      42.736  25.917  27.233  1.00  0.00     0.037 A 
ATOM     49  C   UNL A   1      44.039  29.516  32.837  1.00  0.00     0.049 A 
ATOM     50  C   UNL A   1      43.889  26.219  28.117  1.00  0.00     0.074 A 
ATOM     51  C   UNL A   1      44.173  30.863  32.557  1.00  0.00     0.029 A 
ATOM     52  N   UNL A   1      44.942  28.881  32.019  1.00  0.00    -0.354 N 
ATOM     53  N   UNL A   1      44.664  27.258  27.975  1.00  0.00    -0.248 NA
ATOM     54  C   UNL A   1      43.903  25.602  29.435  1.00  0.00     0.031 C 
ATOM     55  C   UNL A   1      44.744  30.910  31.251  1.00  0.00     0.029 A 
ATOM     56  C   UNL A   1      44.992  29.597  30.849  1.00  0.00     0.049 A 
ATOM     57  H   UNL A   1      45.454  28.067  32.231  1.00  0.00     0.167 HD
ATOM     58  C   UNL A   1      44.916  27.685  29.269  1.00  0.00     0.074 A 
ATOM     59  C   UNL A   1      44.498  26.577  30.126  1.00  0.00     0.031 C 
ATOM     60  C   UNL A   1      45.167  28.999  29.545  1.00  0.00     0.037 A 
BRANCH  47  61
ATOM     61  C   UNL A   1      43.370  27.644  34.484  1.00  0.00     0.057 A 
ATOM     62  C   UNL A   1      43.716  26.324  34.133  1.00  0.00     0.134 A 
ATOM     63  C   UNL A   1      43.636  27.995  35.821  1.00  0.00     0.134 A 
ATOM     64  F   UNL A   1      43.622  25.872  32.877  1.00  0.00    -0.206 F 
ATOM     65  C   UNL A   1      44.279  25.420  35.037  1.00  0.00     0.040 A 
ATOM     66  C   UNL A   1      44.249  27.114  36.721  1.00  0.00     0.040 A 
ATOM     67  F   UNL A   1      43.380  29.232  36.273  1.00  0.00    -0.206 F 
ATOM     68  C   UNL A   1      44.574  25.821  36.330  1.00  0.00     0.006 A 
ENDBRANCH  47  61
BRANCH  48  69
ATOM     69  C   UNL A   1      42.588  24.603  26.564  1.00  0.00     0.057 A 
ATOM     70  C   UNL A   1      41.972  23.510  27.198  1.00  0.00     0.134 A 
ATOM     71  C   UNL A   1      43.325  24.306  25.408  1.00  0.00     0.134 A 
ATOM     72  F   UNL A   1      41.283  23.663  28.338  1.00  0.00    -0.206 F 
ATOM     73  C   UNL A   1      42.123  22.197  26.739  1.00  0.00     0.040 A 
ATOM     74  C   UNL A   1      43.492  22.995  24.943  1.00  0.00     0.040 A 
ATOM     75  F   UNL A   1      43.969  25.277  24.743  1.00  0.00    -0.206 F 
ATOM     76  C   UNL A   1      42.904  21.933  25.621  1.00  0.00     0.006 A 
ENDBRANCH  48  69
BRANCH  60  77
ATOM     77  C   UNL A   1      45.391  29.942  28.391  1.00  0.00     0.057 A 
ATOM     78  C   UNL A   1      46.704  30.248  28.020  1.00  0.00     0.134 A 
ATOM     79  C   UNL A   1      44.373  30.670  27.756  1.00  0.00     0.134 A 
ATOM     80  F   UNL A   1      47.737  29.633  28.620  1.00  0.00    -0.206 F 
ATOM     81  C   UNL A   1      46.995  31.225  27.064  1.00  0.00     0.040 A 
ATOM     82  C   UNL A   1      44.648  31.626  26.771  1.00  0.00     0.040 A 
ATOM     83  F   UNL A   1      43.090  30.527  28.106  1.00  0.00    -0.206 F 
ATOM     84  C   UNL A   1      45.965  31.913  26.430  1.00  0.00     0.006 A 
ENDBRANCH  60  77
ENDBRANCH  34  35
ENDBRANCH  26  29
ENDBRANCH  24  25
ENDBRANCH  23  24
ENDBRANCH   1  23
TORSDOF 13
ENDMDL
MODEL 2
REMARK VINA RESULT:     -12.1      0.880      1.460
REMARK SMILES O=C(Cn1cnnn1)Nc1cccc(F)c1C(=O)NCCCNC(=O)c1ccc(-c2c3nc(c(-c4c(F)cccc4F)c4ccc([nH]4)c(-c4c(F)cccc4F)c4nc(c(-c5c(F)cccc5F)c5ccc2[nH]5)C=C4)C=C3)cc1
REMARK SMILES IDX 20 1 19 2 17 3 18 4 16 6 10 7 11 8 12 9 14 10 13 11 15 12
REMARK SMILES IDX 9 13 1 14 2 15 3 17 4 18 5 19 8 20 6 21 7 22 21 23 22 24
REMARK SMILES IDX 23 25 24 26 25 28 26 29 27 30 79 31 28 32 78 33 29 34 30 35
REMARK SMILES IDX 31 36 72 37 32 38 77 39 71 40 73 41 33 42 76 43 70 44 69 45
REMARK SMILES IDX 34 47 60 48 43 49 59 50 44 51 47 52 58 53 74 54 45 55 46 56
REMARK SMILES IDX 57 58 75 59 48 60 35 61 36 62 41 63 37 64 38 65 40 66 42 67
REMARK SMILES IDX 39 68 61 69 62 70 67 71 63 72 64 73 66 74 68 75 65 76 49 77
REMARK SMILES IDX 50 78 55 79 51 80 52 81 54 82 56 83 53 84
REMARK H PARENT 19 5 9 16 23 27 73 46 47 57
REMARK Flexibility Score: inf
ROOT
ATOM      1  C   UNL A   1      32.618  30.247  26.716  1.00  0.00     0.118 C 
ENDROOT
BRANCH   1   2
ATOM      2  N   UNL A   1      32.880  30.084  25.293  1.00  0.00    -0.352 N 
ATOM      3  C   UNL A   1      32.516  29.129  24.376  1.00  0.00     0.256 C 
ATOM      4  O   UNL A   1      32.947  29.276  23.227  1.00  0.00    -0.269 OA
ATOM      5  H   UNL A   1      33.430  30.806  24.911  1.00  0.00     0.163 HD
BRANCH   3   6
ATOM      6  C   UNL A   1      31.608  27.974  24.635  1.00  0.00     0.099 A 
ATOM      7  C   UNL A   1      30.409  27.853  23.879  1.00  0.00     0.057 A 
ATOM      8  C   UNL A   1      29.590  26.724  24.063  1.00  0.00     0.027 A 
ATOM      9  C   UNL A   1      29.906  25.743  24.998  1.00  0.00     0.005 A 
ATOM     10  C   UNL A   1      31.909  26.954  25.544  1.00  0.00     0.138 A 
ATOM     11  C   UNL A   1      31.061  25.868  25.748  1.00  0.00     0.040 A 
ATOM     12  F   UNL A   1      33.050  26.922  26.232  1.00  0.00    -0.206 F 
BRANCH   7  13
ATOM     13  N   UNL A   1      30.062  28.830  22.907  1.00  0.00    -0.324 N 
ATOM     14  O   UNL A   1      27.823  29.201  23.396  1.00  0.00    -0.273 OA
ATOM     15  C   UNL A   1      28.806  29.363  22.673  1.00  0.00     0.246 C 
ATOM     16  H   UNL A   1      30.793  29.164  22.338  1.00  0.00     0.170 HD
BRANCH  15  17
ATOM     17  C   UNL A   1      28.658  30.114  21.371  1.00  0.00     0.248 C 
BRANCH  17  18
ATOM     18  N   UNL A   1      28.459  31.535  21.505  1.00  0.00    -0.223 N 
ATOM     19  C   UNL A   1      28.769  32.310  22.580  1.00  0.00     0.246 A 
ATOM     20  N   UNL A   1      27.733  32.247  20.632  1.00  0.00    -0.045 NA
ATOM     21  N   UNL A   1      28.280  33.511  22.379  1.00  0.00    -0.117 NA
ATOM     22  N   UNL A   1      27.646  33.460  21.161  1.00  0.00    -0.024 NA
ENDBRANCH  17  18
ENDBRANCH  15  17
ENDBRANCH   7  13
ENDBRANCH   3   6
ENDBRANCH   1   2
BRANCH   1  23
ATOM     23  C   UNL A   1      33.877  29.974  27.553  1.00  0.00     0.042 C 
BRANCH  23  24
ATOM     24  C   UNL A   1      34.810  31.168  27.627  1.00  0.00     0.118 C 
BRANCH  24  25
ATOM     25  N   UNL A   1      34.525  32.035  28.771  1.00  0.00    -0.352 N 
ATOM     26  C   UNL A   1      35.068  31.981  30.036  1.00  0.00     0.251 C 
ATOM     27  H   UNL A   1      33.861  32.746  28.616  1.00  0.00     0.163 HD
ATOM     28  O   UNL A   1      34.509  32.530  30.983  1.00  0.00    -0.269 OA
BRANCH  26  29
ATOM     29  C   UNL A   1      36.322  31.240  30.243  1.00  0.00     0.039 A 
ATOM     30  C   UNL A   1      36.317  29.863  30.480  1.00  0.00     0.014 A 
ATOM     31  C   UNL A   1      37.522  31.940  30.154  1.00  0.00     0.014 A 
ATOM     32  C   UNL A   1      37.532  29.185  30.538  1.00  0.00     0.010 A 
ATOM     33  C   UNL A   1      38.704  31.252  30.046  1.00  0.00     0.010 A 
ATOM     34  C   UNL A   1      38.725  29.882  30.290  1.00  0.00    -0.014 A 
BRANCH  34  35
ATOM     35  C   UNL A   1      39.993  29.170  30.173  1.00  0.00     0.031 A 
ATOM     36  C   UNL A   1      40.703  28.925  31.463  1.00  0.00     0.074 A 
ATOM     37  C   UNL A   1      40.400  28.572  29.032  1.00  0.00     0.049 A 
ATOM     38  N   UNL A   1      41.865  29.360  31.823  1.00  0.00    -0.248 NA
ATOM     39  C   UNL A   1      39.985  28.197  32.524  1.00  0.00     0.031 C 
ATOM     40  C   UNL A   1      39.685  28.436  27.758  1.00  0.00     0.029 A 
ATOM     41  N   UNL A   1      41.529  27.847  28.811  1.00  0.00    -0.354 N 
ATOM     42  C   UNL A   1      42.112  28.816  33.082  1.00  0.00     0.074 A 
ATOM     43  C   UNL A   1      40.869  28.238  33.524  1.00  0.00     0.031 C 
ATOM     44  C   UNL A   1      40.277  27.484  27.003  1.00  0.00     0.029 A 
ATOM     45  C   UNL A   1      41.506  27.077  27.655  1.00  0.00     0.049 A 
ATOM     46  H   UNL A   1      42.302  27.866  29.422  1.00  0.00     0.167 HD
ATOM     47  C   UNL A   1      43.377  28.705  33.575  1.00  0.00     0.037 A 
ATOM     48  C   UNL A   1      42.423  26.149  27.286  1.00  0.00     0.037 A 
ATOM     49  C   UNL A   1      44.297  29.546  32.854  1.00  0.00     0.049 A 
ATOM     50  C   UNL A   1      43.664  26.437  28.048  1.00  0.00     0.074 A 
ATOM     51  C   UNL A   1      44.379  30.906  32.617  1.00  0.00     0.029 A 
ATOM     52  N   UNL A   1      45.110  28.961  31.915  1.00  0.00    -0.354 N 
ATOM     53  N   UNL A   1      44.403  27.494  27.863  1.00  0.00    -0.248 NA
ATOM     54  C   UNL A   1      43.834  25.768  29.328  1.00  0.00     0.031 C 
ATOM     55  C   UNL A   1      44.800  31.015  31.258  1.00  0.00     0.029 A 
ATOM     56  C   UNL A   1      45.019  29.723  30.777  1.00  0.00     0.049 A 
ATOM     57  H   UNL A   1      45.655  28.149  32.034  1.00  0.00     0.167 HD
ATOM     58  C   UNL A   1      44.793  27.875  29.138  1.00  0.00     0.074 A 
ATOM     59  C   UNL A   1      44.489  26.726  29.989  1.00  0.00     0.031 C 
ATOM     60  C   UNL A   1      45.055  29.181  29.438  1.00  0.00     0.037 A 
BRANCH  47  61
ATOM     61  C   UNL A   1      43.842  27.599  34.486  1.00  0.00     0.057 A 
ATOM     62  C   UNL A   1      43.998  27.742  35.880  1.00  0.00     0.134 A 
ATOM     63  C   UNL A   1      43.870  26.272  34.016  1.00  0.00     0.134 A 
ATOM     64  F   UNL A   1      43.889  28.926  36.493  1.00  0.00    -0.206 F 
ATOM     65  C   UNL A   1      44.172  26.655  36.740  1.00  0.00     0.040 A 
ATOM     66  C   UNL A   1      43.991  25.173  34.876  1.00  0.00     0.040 A 
ATOM     67  F   UNL A   1      43.704  26.000  32.713  1.00  0.00    -0.206 F 
ATOM     68  C   UNL A   1      44.141  25.362  36.243  1.00  0.00     0.006 A 
ENDBRANCH  47  61
BRANCH  48  69
ATOM     69  C   UNL A   1      42.219  24.860  26.584  1.00  0.00     0.057 A 
ATOM     70  C   UNL A   1      41.474  23.812  27.152  1.00  0.00     0.134 A 
ATOM     71  C   UNL A   1      43.011  24.520  25.477  1.00  0.00     0.134 A 
ATOM     72  F   UNL A   1      40.719  24.006  28.243  1.00  0.00    -0.206 F 
ATOM     73  C   UNL A   1      41.551  22.497  26.680  1.00  0.00     0.040 A 
ATOM     74  C   UNL A   1      43.106  23.205  25.001  1.00  0.00     0.040 A 
ATOM     75  F   UNL A   1      43.777  25.444  24.878  1.00  0.00    -0.206 F 
ATOM     76  C   UNL A   1      42.388  22.185  25.616  1.00  0.00     0.006 A 
ENDBRANCH  48  69
BRANCH  60  77
ATOM     77  C   UNL A   1      45.135  30.173  28.307  1.00  0.00     0.057 A 
ATOM     78  C   UNL A   1      46.394  30.522  27.809  1.00  0.00     0.134 A 
ATOM     79  C   UNL A   1      44.041  30.902  27.815  1.00  0.00     0.134 A 
ATOM     80  F   UNL A   1      47.497  29.909  28.268  1.00  0.00    -0.206 F 
ATOM     81  C   UNL A   1      46.562  31.543  26.868  1.00  0.00     0.040 A 
ATOM     82  C   UNL A   1      44.190  31.901  26.847  1.00  0.00     0.040 A 
ATOM     83  F   UNL A   1      42.806  30.716  28.295  1.00  0.00    -0.206 F 
ATOM     84  C   UNL A   1      45.457  32.231  26.377  1.00  0.00     0.006 A 
ENDBRANCH  60  77
ENDBRANCH  34  35
ENDBRANCH  26  29
ENDBRANCH  24  25
ENDBRANCH  23  24
ENDBRANCH   1  23
TORSDOF 13
ENDMDL
MODEL 3
REMARK VINA RESULT:     -12.1      4.299      8.774
REMARK SMILES O=C(Cn1cnnn1)Nc1cccc(F)c1C(=O)NCCCNC(=O)c1ccc(-c2c3nc(c(-c4c(F)cccc4F)c4ccc([nH]4)c(-c4c(F)cccc4F)c4nc(c(-c5c(F)cccc5F)c5ccc2[nH]5)C=C4)C=C3)cc1
REMARK SMILES IDX 20 1 19 2 17 3 18 4 16 6 10 7 11 8 12 9 14 10 13 11 15 12
REMARK SMILES IDX 9 13 1 14 2 15 3 17 4 18 5 19 8 20 6 21 7 22 21 23 22 24
REMARK SMILES IDX 23 25 24 26 25 28 26 29 27 30 79 31 28 32 78 33 29 34 30 35
REMARK SMILES IDX 31 36 72 37 32 38 77 39 71 40 73 41 33 42 76 43 70 44 69 45
REMARK SMILES IDX 34 47 60 48 43 49 59 50 44 51 47 52 58 53 74 54 45 55 46 56
REMARK SMILES IDX 57 58 75 59 48 60 35 61 36 62 41 63 37 64 38 65 40 66 42 67
REMARK SMILES IDX 39 68 61 69 62 70 67 71 63 72 64 73 66 74 68 75 65 76 49 77
REMARK SMILES IDX 50 78 55 79 51 80 52 81 54 82 56 83 53 84
REMARK H PARENT 19 5 9 16 23 27 73 46 47 57
REMARK Flexibility Score: inf
ROOT
ATOM      1  C   UNL A   1      37.357  22.267  25.068  1.00  0.00     0.118 C 
ENDROOT
BRANCH   1   2
ATOM      2  N   UNL A   1      36.307  22.294  26.077  1.00  0.00    -0.352 N 
ATOM      3  C   UNL A   1      35.031  22.799  26.087  1.00  0.00     0.256 C 
ATOM      4  O   UNL A   1      34.400  22.682  27.144  1.00  0.00    -0.269 OA
ATOM      5  H   UNL A   1      36.565  21.861  26.923  1.00  0.00     0.163 HD
BRANCH   3   6
ATOM      6  C   UNL A   1      34.330  23.419  24.925  1.00  0.00     0.099 A 
ATOM      7  C   UNL A   1      33.569  22.592  24.054  1.00  0.00     0.057 A 
ATOM      8  C   UNL A   1      32.842  23.182  23.004  1.00  0.00     0.027 A 
ATOM      9  C   UNL A   1      32.883  24.554  22.774  1.00  0.00     0.005 A 
ATOM     10  C   UNL A   1      34.323  24.797  24.682  1.00  0.00     0.138 A 
ATOM     11  C   UNL A   1      33.637  25.359  23.608  1.00  0.00     0.040 A 
ATOM     12  F   UNL A   1      34.925  25.669  25.493  1.00  0.00    -0.206 F 
BRANCH   7  13
ATOM     13  N   UNL A   1      33.495  21.188  24.266  1.00  0.00    -0.324 N 
ATOM     14  O   UNL A   1      31.510  20.999  25.456  1.00  0.00    -0.273 OA
ATOM     15  C   UNL A   1      32.546  20.507  25.008  1.00  0.00     0.246 C 
ATOM     16  H   UNL A   1      34.193  20.641  23.838  1.00  0.00     0.170 HD
BRANCH  15  17
ATOM     17  C   UNL A   1      32.899  19.079  25.348  1.00  0.00     0.248 C 
BRANCH  17  18
ATOM     18  N   UNL A   1      33.066  18.204  24.213  1.00  0.00    -0.223 N 
ATOM     19  C   UNL A   1      34.075  17.317  24.002  1.00  0.00     0.246 A 
ATOM     20  N   UNL A   1      32.326  18.317  23.101  1.00  0.00    -0.045 NA
ATOM     21  N   UNL A   1      33.959  16.840  22.784  1.00  0.00    -0.117 NA
ATOM     22  N   UNL A   1      32.863  17.465  22.239  1.00  0.00    -0.024 NA
ENDBRANCH  17  18
ENDBRANCH  15  17
ENDBRANCH   7  13
ENDBRANCH   3   6
ENDBRANCH   1   2
BRANCH   1  23
ATOM     23  C   UNL A   1      38.534  21.382  25.508  1.00  0.00     0.042 C 
BRANCH  23  24
ATOM     24  C   UNL A   1      39.478  22.085  26.466  1.00  0.00     0.118 C 
BRANCH  24  25
ATOM     25  N   UNL A   1      40.859  22.102  25.984  1.00  0.00    -0.352 N 
ATOM     26  C   UNL A   1      41.736  23.165  25.951  1.00  0.00     0.251 C 
ATOM     27  H   UNL A   1      41.206  21.246  25.642  1.00  0.00     0.163 HD
ATOM     28  O   UNL A   1      42.726  23.138  25.223  1.00  0.00    -0.269 OA
BRANCH  26  29
ATOM     29  C   UNL A   1      41.461  24.344  26.786  1.00  0.00     0.039 A 
ATOM     30  C   UNL A   1      42.012  24.468  28.064  1.00  0.00     0.014 A 
ATOM     31  C   UNL A   1      40.670  25.358  26.254  1.00  0.00     0.014 A 
ATOM     32  C   UNL A   1      41.833  25.660  28.762  1.00  0.00     0.010 A 
ATOM     33  C   UNL A   1      40.632  26.584  26.867  1.00  0.00     0.010 A 
ATOM     34  C   UNL A   1      41.164  26.729  28.144  1.00  0.00    -0.014 A 
BRANCH  34  35
ATOM     35  C   UNL A   1      41.111  28.041  28.781  1.00  0.00     0.031 A 
ATOM     36  C   UNL A   1      42.178  28.994  28.357  1.00  0.00     0.074 A 
ATOM     37  C   UNL A   1      40.062  28.458  29.524  1.00  0.00     0.049 A 
ATOM     38  N   UNL A   1      43.097  29.531  29.088  1.00  0.00    -0.248 NA
ATOM     39  C   UNL A   1      42.303  29.303  26.921  1.00  0.00     0.031 C 
ATOM     40  C   UNL A   1      38.788  27.777  29.781  1.00  0.00     0.029 A 
ATOM     41  N   UNL A   1      39.877  29.662  30.126  1.00  0.00    -0.354 N 
ATOM     42  C   UNL A   1      43.810  30.388  28.251  1.00  0.00     0.074 A 
ATOM     43  C   UNL A   1      43.377  30.096  26.909  1.00  0.00     0.031 C 
ATOM     44  C   UNL A   1      37.888  28.663  30.264  1.00  0.00     0.029 A 
ATOM     45  C   UNL A   1      38.569  29.918  30.519  1.00  0.00     0.049 A 
ATOM     46  H   UNL A   1      40.610  30.303  30.273  1.00  0.00     0.167 HD
ATOM     47  C   UNL A   1      44.553  31.416  28.749  1.00  0.00     0.037 A 
ATOM     48  C   UNL A   1      38.082  31.092  30.991  1.00  0.00     0.037 A 
ATOM     49  C   UNL A   1      44.815  31.241  30.154  1.00  0.00     0.049 A 
ATOM     50  C   UNL A   1      39.245  31.884  31.466  1.00  0.00     0.074 A 
ATOM     51  C   UNL A   1      45.443  30.265  30.905  1.00  0.00     0.029 A 
ATOM     52  N   UNL A   1      44.065  31.965  31.048  1.00  0.00    -0.354 N 
ATOM     53  N   UNL A   1      39.967  31.566  32.503  1.00  0.00    -0.248 NA
ATOM     54  C   UNL A   1      39.876  32.785  30.514  1.00  0.00     0.031 C 
ATOM     55  C   UNL A   1      44.640  30.132  32.076  1.00  0.00     0.029 A 
ATOM     56  C   UNL A   1      43.622  31.083  32.002  1.00  0.00     0.049 A 
ATOM     57  H   UNL A   1      43.879  32.931  31.012  1.00  0.00     0.167 HD
ATOM     58  C   UNL A   1      41.269  31.859  32.125  1.00  0.00     0.074 A 
ATOM     59  C   UNL A   1      41.141  32.689  30.928  1.00  0.00     0.031 C 
ATOM     60  C   UNL A   1      42.328  31.169  32.640  1.00  0.00     0.037 A 
BRANCH  47  61
ATOM     61  C   UNL A   1      44.762  32.734  28.048  1.00  0.00     0.057 A 
ATOM     62  C   UNL A   1      43.883  33.831  28.160  1.00  0.00     0.134 A 
ATOM     63  C   UNL A   1      46.010  33.027  27.469  1.00  0.00     0.134 A 
ATOM     64  F   UNL A   1      42.702  33.739  28.782  1.00  0.00    -0.206 F 
ATOM     65  C   UNL A   1      44.215  35.117  27.727  1.00  0.00     0.040 A 
ATOM     66  C   UNL A   1      46.373  34.322  27.080  1.00  0.00     0.040 A 
ATOM     67  F   UNL A   1      46.946  32.075  27.334  1.00  0.00    -0.206 F 
ATOM     68  C   UNL A   1      45.475  35.374  27.210  1.00  0.00     0.006 A 
ENDBRANCH  47  61
BRANCH  48  69
ATOM     69  C   UNL A   1      36.754  31.710  30.771  1.00  0.00     0.057 A 
ATOM     70  C   UNL A   1      36.438  32.396  29.585  1.00  0.00     0.134 A 
ATOM     71  C   UNL A   1      35.874  31.907  31.846  1.00  0.00     0.134 A 
ATOM     72  F   UNL A   1      37.232  32.324  28.507  1.00  0.00    -0.206 F 
ATOM     73  C   UNL A   1      35.344  33.263  29.491  1.00  0.00     0.040 A 
ATOM     74  C   UNL A   1      34.781  32.780  31.768  1.00  0.00     0.040 A 
ATOM     75  F   UNL A   1      36.101  31.315  33.028  1.00  0.00    -0.206 F 
ATOM     76  C   UNL A   1      34.525  33.476  30.592  1.00  0.00     0.006 A 
ENDBRANCH  48  69
BRANCH  60  77
ATOM     77  C   UNL A   1      42.079  30.237  33.798  1.00  0.00     0.057 A 
ATOM     78  C   UNL A   1      42.369  30.681  35.092  1.00  0.00     0.134 A 
ATOM     79  C   UNL A   1      41.727  28.884  33.663  1.00  0.00     0.134 A 
ATOM     80  F   UNL A   1      42.766  31.948  35.298  1.00  0.00    -0.206 F 
ATOM     81  C   UNL A   1      42.310  29.830  36.199  1.00  0.00     0.040 A 
ATOM     82  C   UNL A   1      41.629  28.030  34.767  1.00  0.00     0.040 A 
ATOM     83  F   UNL A   1      41.526  28.333  32.461  1.00  0.00    -0.206 F 
ATOM     84  C   UNL A   1      41.930  28.500  36.039  1.00  0.00     0.006 A 
ENDBRANCH  60  77
ENDBRANCH  34  35
ENDBRANCH  26  29
ENDBRANCH  24  25
ENDBRANCH  23  24
ENDBRANCH   1  23
TORSDOF 13
ENDMDL
