MODEL 1
REMARK VINA RESULT:     -10.5      0.000      0.000
REMARK SMILES [NH3+][C@H](Cc1cc(Br)c(O)c(Br)c1)C(=O)NCCCNC(=O)c1ccc(-c2c3nc(c(-c4c(F)cccc4F)c4ccc([nH]4)c(-c4c(F)cccc4F)c4nc(c(-c5c(F)cccc5F)c5ccc2[nH]5)C=C4)C=C3)cc1
REMARK SMILES IDX 16 1 15 2 13 3 14 4 2 6 1 7 3 11 4 12 5 13 12 14 6 15 10 16
REMARK SMILES IDX 7 17 8 18 11 19 9 20 17 22 18 23 19 24 20 25 21 27 22 28
REMARK SMILES IDX 23 29 75 30 24 31 74 32 25 33 26 34 27 35 68 36 28 37 73 38
REMARK SMILES IDX 67 39 69 40 29 41 72 42 66 43 65 44 30 46 56 47 39 48 55 49
REMARK SMILES IDX 40 50 43 51 54 52 70 53 41 54 42 55 53 57 71 58 44 59 31 60
REMARK SMILES IDX 32 61 37 62 33 63 34 64 36 65 38 66 35 67 57 68 58 69 63 70
REMARK SMILES IDX 59 71 60 72 62 73 64 74 61 75 45 76 46 77 51 78 47 79 48 80
REMARK SMILES IDX 50 81 52 82 49 83
REMARK H PARENT 15 5 1 8 1 9 1 10 9 21 19 26 69 45 43 56
REMARK Flexibility Score: inf
ROOT
ATOM      1  C   UNL A   1      36.263  20.502  24.660  1.00  0.00     0.118 C 
ENDROOT
BRANCH   1   2
ATOM      2  N   UNL A   1      35.324  20.575  25.763  1.00  0.00    -0.351 N 
ATOM      3  C   UNL A   1      34.860  21.641  26.477  1.00  0.00     0.278 C 
ATOM      4  O   UNL A   1      34.230  21.401  27.510  1.00  0.00    -0.268 OA
ATOM      5  H   UNL A   1      34.958  19.705  26.044  1.00  0.00     0.163 HD
BRANCH   3   6
ATOM      6  C   UNL A   1      35.069  23.083  25.983  1.00  0.00     0.275 C 
BRANCH   6   7
ATOM      7  N   UNL A   1      36.424  23.522  26.397  1.00  0.00    -0.347 N 
ATOM      8  H   UNL A   1      36.973  22.710  26.681  1.00  0.00     0.345 HD
ATOM      9  H   UNL A   1      36.347  24.170  27.181  1.00  0.00     0.345 HD
ATOM     10  H   UNL A   1      36.886  23.987  25.616  1.00  0.00     0.345 HD
ENDBRANCH   6   7
BRANCH   6  11
ATOM     11  C   UNL A   1      33.878  24.019  26.321  1.00  0.00     0.111 C 
BRANCH  11  12
ATOM     12  C   UNL A   1      33.808  25.221  25.403  1.00  0.00    -0.039 A 
ATOM     13  C   UNL A   1      33.600  25.037  24.027  1.00  0.00     0.023 A 
ATOM     14  C   UNL A   1      33.786  26.517  25.930  1.00  0.00     0.023 A 
ATOM     15  C   UNL A   1      33.235  26.115  23.222  1.00  0.00     0.061 A 
ATOM     16  C   UNL A   1      33.465  27.603  25.109  1.00  0.00     0.061 A 
ATOM     17  Br  UNL A   1      32.782  25.781  21.412  1.00  0.00    -0.047 Br
ATOM     18  C   UNL A   1      33.141  27.397  23.765  1.00  0.00     0.143 A 
ATOM     19  Br  UNL A   1      33.408  29.331  25.888  1.00  0.00    -0.047 Br
BRANCH  18  20
ATOM     20  O   UNL A   1      32.698  28.447  23.005  1.00  0.00    -0.506 OA
ATOM     21  H   UNL A   1      32.455  29.253  23.416  1.00  0.00     0.293 HD
ENDBRANCH  18  20
ENDBRANCH  11  12
ENDBRANCH   6  11
ENDBRANCH   3   6
ENDBRANCH   1   2
BRANCH   1  22
ATOM     22  C   UNL A   1      37.397  19.534  24.985  1.00  0.00     0.042 C 
BRANCH  22  23
ATOM     23  C   UNL A   1      38.664  20.238  25.453  1.00  0.00     0.118 C 
BRANCH  23  24
ATOM     24  N   UNL A   1      39.760  19.306  25.676  1.00  0.00    -0.352 N 
ATOM     25  C   UNL A   1      41.038  19.554  26.102  1.00  0.00     0.251 C 
ATOM     26  H   UNL A   1      39.553  18.361  25.494  1.00  0.00     0.163 HD
ATOM     27  O   UNL A   1      41.886  18.664  26.041  1.00  0.00    -0.269 OA
BRANCH  25  28
ATOM     28  C   UNL A   1      41.402  20.888  26.616  1.00  0.00     0.039 A 
ATOM     29  C   UNL A   1      41.417  21.100  27.996  1.00  0.00     0.014 A 
ATOM     30  C   UNL A   1      41.711  21.934  25.740  1.00  0.00     0.014 A 
ATOM     31  C   UNL A   1      41.786  22.347  28.501  1.00  0.00     0.010 A 
ATOM     32  C   UNL A   1      42.161  23.149  26.245  1.00  0.00     0.010 A 
ATOM     33  C   UNL A   1      42.187  23.374  27.629  1.00  0.00    -0.014 A 
BRANCH  33  34
ATOM     34  C   UNL A   1      42.605  24.699  28.147  1.00  0.00     0.031 A 
ATOM     35  C   UNL A   1      41.580  25.777  28.367  1.00  0.00     0.074 A 
ATOM     36  C   UNL A   1      43.910  24.949  28.367  1.00  0.00     0.049 A 
ATOM     37  N   UNL A   1      41.751  27.016  28.754  1.00  0.00    -0.248 NA
ATOM     38  C   UNL A   1      40.178  25.427  28.084  1.00  0.00     0.031 C 
ATOM     39  C   UNL A   1      45.003  24.000  28.148  1.00  0.00     0.029 A 
ATOM     40  N   UNL A   1      44.538  26.082  28.819  1.00  0.00    -0.354 N 
ATOM     41  C   UNL A   1      40.487  27.592  28.747  1.00  0.00     0.074 A 
ATOM     42  C   UNL A   1      39.567  26.588  28.259  1.00  0.00     0.031 C 
ATOM     43  C   UNL A   1      46.165  24.582  28.490  1.00  0.00     0.029 A 
ATOM     44  C   UNL A   1      45.902  25.953  28.915  1.00  0.00     0.049 A 
ATOM     45  H   UNL A   1      44.057  26.909  29.051  1.00  0.00     0.167 HD
ATOM     46  C   UNL A   1      40.120  28.835  29.137  1.00  0.00     0.037 A 
ATOM     47  C   UNL A   1      46.837  26.843  29.299  1.00  0.00     0.037 A 
ATOM     48  C   UNL A   1      41.036  29.822  29.647  1.00  0.00     0.049 A 
ATOM     49  C   UNL A   1      46.405  28.221  29.723  1.00  0.00     0.074 A 
ATOM     50  C   UNL A   1      40.758  31.090  30.123  1.00  0.00     0.029 A 
ATOM     51  N   UNL A   1      42.408  29.647  29.746  1.00  0.00    -0.354 N 
ATOM     52  N   UNL A   1      45.198  28.730  29.777  1.00  0.00    -0.248 NA
ATOM     53  C   UNL A   1      47.466  29.144  30.147  1.00  0.00     0.031 C 
ATOM     54  C   UNL A   1      41.968  31.702  30.468  1.00  0.00     0.029 A 
ATOM     55  C   UNL A   1      42.994  30.794  30.256  1.00  0.00     0.049 A 
ATOM     56  H   UNL A   1      42.894  28.829  29.491  1.00  0.00     0.167 HD
ATOM     57  C   UNL A   1      45.350  30.019  30.268  1.00  0.00     0.074 A 
ATOM     58  C   UNL A   1      46.765  30.209  30.512  1.00  0.00     0.031 C 
ATOM     59  C   UNL A   1      44.404  30.962  30.501  1.00  0.00     0.037 A 
BRANCH  46  60
ATOM     60  C   UNL A   1      38.666  29.194  29.029  1.00  0.00     0.057 A 
ATOM     61  C   UNL A   1      37.803  29.122  30.131  1.00  0.00     0.134 A 
ATOM     62  C   UNL A   1      38.128  29.643  27.816  1.00  0.00     0.134 A 
ATOM     63  F   UNL A   1      38.251  28.689  31.318  1.00  0.00    -0.206 F 
ATOM     64  C   UNL A   1      36.452  29.455  30.024  1.00  0.00     0.040 A 
ATOM     65  C   UNL A   1      36.785  30.006  27.704  1.00  0.00     0.040 A 
ATOM     66  F   UNL A   1      38.898  29.741  26.723  1.00  0.00    -0.206 F 
ATOM     67  C   UNL A   1      35.940  29.904  28.808  1.00  0.00     0.006 A 
ENDBRANCH  46  60
BRANCH  47  68
ATOM     68  C   UNL A   1      48.270  26.455  29.327  1.00  0.00     0.057 A 
ATOM     69  C   UNL A   1      49.103  26.693  28.227  1.00  0.00     0.134 A 
ATOM     70  C   UNL A   1      48.838  25.830  30.442  1.00  0.00     0.134 A 
ATOM     71  F   UNL A   1      48.611  27.275  27.122  1.00  0.00    -0.206 F 
ATOM     72  C   UNL A   1      50.443  26.304  28.226  1.00  0.00     0.040 A 
ATOM     73  C   UNL A   1      50.184  25.458  30.465  1.00  0.00     0.040 A 
ATOM     74  F   UNL A   1      48.096  25.582  31.532  1.00  0.00    -0.206 F 
ATOM     75  C   UNL A   1      50.988  25.688  29.350  1.00  0.00     0.006 A 
ENDBRANCH  47  68
BRANCH  59  76
ATOM     76  C   UNL A   1      44.861  32.267  31.083  1.00  0.00     0.057 A 
ATOM     77  C   UNL A   1      45.216  33.356  30.277  1.00  0.00     0.134 A 
ATOM     78  C   UNL A   1      44.909  32.447  32.472  1.00  0.00     0.134 A 
ATOM     79  F   UNL A   1      45.204  33.244  28.940  1.00  0.00    -0.206 F 
ATOM     80  C   UNL A   1      45.625  34.571  30.830  1.00  0.00     0.040 A 
ATOM     81  C   UNL A   1      45.288  33.666  33.037  1.00  0.00     0.040 A 
ATOM     82  F   UNL A   1      44.572  31.448  33.301  1.00  0.00    -0.206 F 
ATOM     83  C   UNL A   1      45.653  34.729  32.215  1.00  0.00     0.006 A 
ENDBRANCH  59  76
ENDBRANCH  33  34
ENDBRANCH  25  28
ENDBRANCH  23  24
ENDBRANCH  22  23
ENDBRANCH   1  22
TORSDOF 14
ENDMDL
MODEL 2
REMARK VINA RESULT:     -10.5      0.872      6.504
REMARK SMILES [NH3+][C@H](Cc1cc(Br)c(O)c(Br)c1)C(=O)NCCCNC(=O)c1ccc(-c2c3nc(c(-c4c(F)cccc4F)c4ccc([nH]4)c(-c4c(F)cccc4F)c4nc(c(-c5c(F)cccc5F)c5ccc2[nH]5)C=C4)C=C3)cc1
REMARK SMILES IDX 16 1 15 2 13 3 14 4 2 6 1 7 3 11 4 12 5 13 12 14 6 15 10 16
REMARK SMILES IDX 7 17 8 18 11 19 9 20 17 22 18 23 19 24 20 25 21 27 22 28
REMARK SMILES IDX 23 29 75 30 24 31 74 32 25 33 26 34 27 35 68 36 28 37 73 38
REMARK SMILES IDX 67 39 69 40 29 41 72 42 66 43 65 44 30 46 56 47 39 48 55 49
REMARK SMILES IDX 40 50 43 51 54 52 70 53 41 54 42 55 53 57 71 58 44 59 31 60
REMARK SMILES IDX 32 61 37 62 33 63 34 64 36 65 38 66 35 67 57 68 58 69 63 70
REMARK SMILES IDX 59 71 60 72 62 73 64 74 61 75 45 76 46 77 51 78 47 79 48 80
REMARK SMILES IDX 50 81 52 82 49 83
REMARK H PARENT 15 5 1 8 1 9 1 10 9 21 19 26 69 45 43 56
REMARK Flexibility Score: inf
ROOT
ATOM      1  C   UNL A   1      37.260  20.656  24.642  1.00  0.00     0.118 C 
ENDROOT
BRANCH   1   2
ATOM      2  N   UNL A   1      37.681  21.877  25.302  1.00  0.00    -0.351 N 
ATOM      3  C   UNL A   1      36.959  22.908  25.829  1.00  0.00     0.278 C 
ATOM      4  O   UNL A   1      37.573  23.932  26.139  1.00  0.00    -0.268 OA
ATOM      5  H   UNL A   1      38.657  21.980  25.384  1.00  0.00     0.163 HD
BRANCH   3   6
ATOM      6  C   UNL A   1      35.445  22.775  26.077  1.00  0.00     0.275 C 
BRANCH   6   7
ATOM      7  N   UNL A   1      35.227  21.642  27.009  1.00  0.00    -0.347 N 
ATOM      8  H   UNL A   1      36.099  21.125  27.126  1.00  0.00     0.345 HD
ATOM      9  H   UNL A   1      34.512  21.021  26.629  1.00  0.00     0.345 HD
ATOM     10  H   UNL A   1      34.920  21.999  27.914  1.00  0.00     0.345 HD
ENDBRANCH   6   7
BRANCH   6  11
ATOM     11  C   UNL A   1      34.612  22.797  24.767  1.00  0.00     0.111 C 
BRANCH  11  12
ATOM     12  C   UNL A   1      34.295  24.205  24.308  1.00  0.00    -0.039 A 
ATOM     13  C   UNL A   1      33.853  24.427  22.994  1.00  0.00     0.023 A 
ATOM     14  C   UNL A   1      34.283  25.265  25.221  1.00  0.00     0.023 A 
ATOM     15  C   UNL A   1      33.277  25.647  22.645  1.00  0.00     0.061 A 
ATOM     16  C   UNL A   1      33.744  26.502  24.853  1.00  0.00     0.061 A 
ATOM     17  Br  UNL A   1      32.525  25.831  20.914  1.00  0.00    -0.047 Br
ATOM     18  C   UNL A   1      33.196  26.679  23.580  1.00  0.00     0.143 A 
ATOM     19  Br  UNL A   1      33.714  27.888  26.147  1.00  0.00    -0.047 Br
BRANCH  18  20
ATOM     20  O   UNL A   1      32.553  27.850  23.276  1.00  0.00    -0.506 OA
ATOM     21  H   UNL A   1      32.472  28.522  23.923  1.00  0.00     0.293 HD
ENDBRANCH  18  20
ENDBRANCH  11  12
ENDBRANCH   6  11
ENDBRANCH   3   6
ENDBRANCH   1   2
BRANCH   1  22
ATOM     22  C   UNL A   1      38.225  19.517  24.955  1.00  0.00     0.042 C 
BRANCH  22  23
ATOM     23  C   UNL A   1      39.270  19.893  25.998  1.00  0.00     0.118 C 
BRANCH  23  24
ATOM     24  N   UNL A   1      40.499  19.128  25.845  1.00  0.00    -0.352 N 
ATOM     25  C   UNL A   1      41.799  19.542  25.963  1.00  0.00     0.251 C 
ATOM     26  H   UNL A   1      40.379  18.176  25.625  1.00  0.00     0.163 HD
ATOM     27  O   UNL A   1      42.713  18.800  25.602  1.00  0.00    -0.269 OA
BRANCH  25  28
ATOM     28  C   UNL A   1      42.106  20.880  26.504  1.00  0.00     0.039 A 
ATOM     29  C   UNL A   1      42.438  21.908  25.619  1.00  0.00     0.014 A 
ATOM     30  C   UNL A   1      42.083  21.119  27.882  1.00  0.00     0.014 A 
ATOM     31  C   UNL A   1      42.703  23.186  26.110  1.00  0.00     0.010 A 
ATOM     32  C   UNL A   1      42.264  22.411  28.364  1.00  0.00     0.010 A 
ATOM     33  C   UNL A   1      42.592  23.454  27.485  1.00  0.00    -0.014 A 
BRANCH  33  34
ATOM     34  C   UNL A   1      42.848  24.811  28.025  1.00  0.00     0.031 A 
ATOM     35  C   UNL A   1      44.239  25.205  28.440  1.00  0.00     0.074 A 
ATOM     36  C   UNL A   1      41.821  25.668  28.193  1.00  0.00     0.049 A 
ATOM     37  N   UNL A   1      44.655  26.319  28.988  1.00  0.00    -0.248 NA
ATOM     38  C   UNL A   1      45.298  24.204  28.241  1.00  0.00     0.031 C 
ATOM     39  C   UNL A   1      40.422  25.386  27.871  1.00  0.00     0.029 A 
ATOM     40  N   UNL A   1      41.799  26.949  28.681  1.00  0.00    -0.354 N 
ATOM     41  C   UNL A   1      46.014  26.145  29.211  1.00  0.00     0.074 A 
ATOM     42  C   UNL A   1      46.342  24.799  28.797  1.00  0.00     0.031 C 
ATOM     43  C   UNL A   1      39.680  26.472  28.147  1.00  0.00     0.029 A 
ATOM     44  C   UNL A   1      40.545  27.509  28.699  1.00  0.00     0.049 A 
ATOM     45  H   UNL A   1      42.605  27.423  28.991  1.00  0.00     0.167 HD
ATOM     46  C   UNL A   1      46.915  27.034  29.692  1.00  0.00     0.037 A 
ATOM     47  C   UNL A   1      40.138  28.723  29.118  1.00  0.00     0.037 A 
ATOM     48  C   UNL A   1      46.588  28.382  30.078  1.00  0.00     0.049 A 
ATOM     49  C   UNL A   1      41.157  29.691  29.653  1.00  0.00     0.074 A 
ATOM     50  C   UNL A   1      47.436  29.379  30.524  1.00  0.00     0.029 A 
ATOM     51  N   UNL A   1      45.309  28.917  30.065  1.00  0.00    -0.354 N 
ATOM     52  N   UNL A   1      42.451  29.538  29.795  1.00  0.00    -0.248 NA
ATOM     53  C   UNL A   1      40.658  31.006  30.080  1.00  0.00     0.031 C 
ATOM     54  C   UNL A   1      46.665  30.507  30.824  1.00  0.00     0.029 A 
ATOM     55  C   UNL A   1      45.342  30.227  30.515  1.00  0.00     0.049 A 
ATOM     56  H   UNL A   1      44.498  28.438  29.778  1.00  0.00     0.167 HD
ATOM     57  C   UNL A   1      42.926  30.743  30.296  1.00  0.00     0.074 A 
ATOM     58  C   UNL A   1      41.782  31.623  30.420  1.00  0.00     0.031 C 
ATOM     59  C   UNL A   1      44.195  31.091  30.623  1.00  0.00     0.037 A 
BRANCH  46  60
ATOM     60  C   UNL A   1      48.339  26.575  29.823  1.00  0.00     0.057 A 
ATOM     61  C   UNL A   1      48.795  25.891  30.958  1.00  0.00     0.134 A 
ATOM     62  C   UNL A   1      49.259  26.797  28.791  1.00  0.00     0.134 A 
ATOM     63  F   UNL A   1      47.968  25.658  31.988  1.00  0.00    -0.206 F 
ATOM     64  C   UNL A   1      50.120  25.470  31.075  1.00  0.00     0.040 A 
ATOM     65  C   UNL A   1      50.580  26.354  28.884  1.00  0.00     0.040 A 
ATOM     66  F   UNL A   1      48.890  27.440  27.674  1.00  0.00    -0.206 F 
ATOM     67  C   UNL A   1      51.016  25.696  30.032  1.00  0.00     0.006 A 
ENDBRANCH  46  60
BRANCH  47  68
ATOM     68  C   UNL A   1      38.706  29.102  29.025  1.00  0.00     0.057 A 
ATOM     69  C   UNL A   1      38.156  29.554  27.819  1.00  0.00     0.134 A 
ATOM     70  C   UNL A   1      37.856  29.034  30.135  1.00  0.00     0.134 A 
ATOM     71  F   UNL A   1      38.924  29.656  26.724  1.00  0.00    -0.206 F 
ATOM     72  C   UNL A   1      36.820  29.945  27.725  1.00  0.00     0.040 A 
ATOM     73  C   UNL A   1      36.511  29.397  30.050  1.00  0.00     0.040 A 
ATOM     74  F   UNL A   1      38.319  28.601  31.317  1.00  0.00    -0.206 F 
ATOM     75  C   UNL A   1      35.992  29.863  28.843  1.00  0.00     0.006 A 
ENDBRANCH  47  68
BRANCH  59  76
ATOM     76  C   UNL A   1      44.419  32.494  31.106  1.00  0.00     0.057 A 
ATOM     77  C   UNL A   1      44.398  32.822  32.467  1.00  0.00     0.134 A 
ATOM     78  C   UNL A   1      44.700  33.523  30.197  1.00  0.00     0.134 A 
ATOM     79  F   UNL A   1      44.123  31.886  33.389  1.00  0.00    -0.206 F 
ATOM     80  C   UNL A   1      44.625  34.128  32.907  1.00  0.00     0.040 A 
ATOM     81  C   UNL A   1      44.957  34.826  30.625  1.00  0.00     0.040 A 
ATOM     82  F   UNL A   1      44.745  33.274  28.879  1.00  0.00    -0.206 F 
ATOM     83  C   UNL A   1      44.913  35.132  31.984  1.00  0.00     0.006 A 
ENDBRANCH  59  76
ENDBRANCH  33  34
ENDBRANCH  25  28
ENDBRANCH  23  24
ENDBRANCH  22  23
ENDBRANCH   1  22
TORSDOF 14
ENDMDL
MODEL 3
REMARK VINA RESULT:     -10.5      2.781      7.401
REMARK SMILES [NH3+][C@H](Cc1cc(Br)c(O)c(Br)c1)C(=O)NCCCNC(=O)c1ccc(-c2c3nc(c(-c4c(F)cccc4F)c4ccc([nH]4)c(-c4c(F)cccc4F)c4nc(c(-c5c(F)cccc5F)c5ccc2[nH]5)C=C4)C=C3)cc1
REMARK SMILES IDX 16 1 15 2 13 3 14 4 2 6 1 7 3 11 4 12 5 13 12 14 6 15 10 16
REMARK SMILES IDX 7 17 8 18 11 19 9 20 17 22 18 23 19 24 20 25 21 27 22 28
REMARK SMILES IDX 23 29 75 30 24 31 74 32 25 33 26 34 27 35 68 36 28 37 73 38
REMARK SMILES IDX 67 39 69 40 29 41 72 42 66 43 65 44 30 46 56 47 39 48 55 49
REMARK SMILES IDX 40 50 43 51 54 52 70 53 41 54 42 55 53 57 71 58 44 59 31 60
REMARK SMILES IDX 32 61 37 62 33 63 34 64 36 65 38 66 35 67 57 68 58 69 63 70
REMARK SMILES IDX 59 71 60 72 62 73 64 74 61 75 45 76 46 77 51 78 47 79 48 80
REMARK SMILES IDX 50 81 52 82 49 83
REMARK H PARENT 15 5 1 8 1 9 1 10 9 21 19 26 69 45 43 56
REMARK Flexibility Score: inf
ROOT
ATOM      1  C   UNL A   1      34.157  24.194  26.263  1.00  0.00     0.118 C 
ENDROOT
BRANCH   1   2
ATOM      2  N   UNL A   1      32.855  23.660  26.610  1.00  0.00    -0.351 N 
ATOM      3  C   UNL A   1      31.634  24.262  26.702  1.00  0.00     0.278 C 
ATOM      4  O   UNL A   1      30.723  23.620  27.232  1.00  0.00    -0.268 OA
ATOM      5  H   UNL A   1      32.851  22.697  26.815  1.00  0.00     0.163 HD
BRANCH   3   6
ATOM      6  C   UNL A   1      31.391  25.665  26.119  1.00  0.00     0.275 C 
BRANCH   6   7
ATOM      7  N   UNL A   1      31.391  26.638  27.239  1.00  0.00    -0.347 N 
ATOM      8  H   UNL A   1      31.826  26.213  28.059  1.00  0.00     0.345 HD
ATOM      9  H   UNL A   1      30.430  26.900  27.463  1.00  0.00     0.345 HD
ATOM     10  H   UNL A   1      31.916  27.469  26.969  1.00  0.00     0.345 HD
ENDBRANCH   6   7
BRANCH   6  11
ATOM     11  C   UNL A   1      30.197  25.712  25.129  1.00  0.00     0.111 C 
BRANCH  11  12
ATOM     12  C   UNL A   1      30.409  26.714  24.013  1.00  0.00    -0.039 A 
ATOM     13  C   UNL A   1      29.321  27.449  23.519  1.00  0.00     0.023 A 
ATOM     14  C   UNL A   1      31.701  27.031  23.580  1.00  0.00     0.023 A 
ATOM     15  C   UNL A   1      29.536  28.571  22.721  1.00  0.00     0.061 A 
ATOM     16  C   UNL A   1      31.910  28.131  22.741  1.00  0.00     0.061 A 
ATOM     17  Br  UNL A   1      28.046  29.639  22.237  1.00  0.00    -0.047 Br
ATOM     18  C   UNL A   1      30.833  28.931  22.351  1.00  0.00     0.143 A 
ATOM     19  Br  UNL A   1      33.687  28.539  22.223  1.00  0.00    -0.047 Br
BRANCH  18  20
ATOM     20  O   UNL A   1      31.064  30.080  21.641  1.00  0.00    -0.506 OA
ATOM     21  H   UNL A   1      30.471  30.339  20.964  1.00  0.00     0.293 HD
ENDBRANCH  18  20
ENDBRANCH  11  12
ENDBRANCH   6  11
ENDBRANCH   3   6
ENDBRANCH   1   2
BRANCH   1  22
ATOM     22  C   UNL A   1      35.191  23.075  26.176  1.00  0.00     0.042 C 
BRANCH  22  23
ATOM     23  C   UNL A   1      36.588  23.580  25.842  1.00  0.00     0.118 C 
BRANCH  23  24
ATOM     24  N   UNL A   1      37.607  22.564  26.060  1.00  0.00    -0.352 N 
ATOM     25  C   UNL A   1      38.913  22.712  26.443  1.00  0.00     0.251 C 
ATOM     26  H   UNL A   1      37.315  21.635  25.910  1.00  0.00     0.163 HD
ATOM     27  O   UNL A   1      39.681  21.751  26.384  1.00  0.00    -0.269 OA
BRANCH  25  28
ATOM     28  C   UNL A   1      39.405  24.022  26.910  1.00  0.00     0.039 A 
ATOM     29  C   UNL A   1      39.980  24.897  25.985  1.00  0.00     0.014 A 
ATOM     30  C   UNL A   1      39.318  24.382  28.259  1.00  0.00     0.014 A 
ATOM     31  C   UNL A   1      40.425  26.151  26.404  1.00  0.00     0.010 A 
ATOM     32  C   UNL A   1      39.682  25.663  28.658  1.00  0.00     0.010 A 
ATOM     33  C   UNL A   1      40.256  26.554  27.739  1.00  0.00    -0.014 A 
BRANCH  33  34
ATOM     34  C   UNL A   1      40.701  27.892  28.198  1.00  0.00     0.031 A 
ATOM     35  C   UNL A   1      42.166  28.234  28.207  1.00  0.00     0.074 A 
ATOM     36  C   UNL A   1      39.795  28.777  28.658  1.00  0.00     0.049 A 
ATOM     37  N   UNL A   1      42.759  29.323  28.627  1.00  0.00    -0.248 NA
ATOM     38  C   UNL A   1      43.090  27.204  27.706  1.00  0.00     0.031 C 
ATOM     39  C   UNL A   1      38.353  28.545  28.743  1.00  0.00     0.029 A 
ATOM     40  N   UNL A   1      39.957  30.048  29.146  1.00  0.00    -0.354 N 
ATOM     41  C   UNL A   1      44.119  29.102  28.454  1.00  0.00     0.074 A 
ATOM     42  C   UNL A   1      44.269  27.755  27.950  1.00  0.00     0.031 C 
ATOM     43  C   UNL A   1      37.758  29.648  29.228  1.00  0.00     0.029 A 
ATOM     44  C   UNL A   1      38.780  30.647  29.524  1.00  0.00     0.049 A 
ATOM     45  H   UNL A   1      40.834  30.490  29.220  1.00  0.00     0.167 HD
ATOM     46  C   UNL A   1      45.150  29.953  28.670  1.00  0.00     0.037 A 
ATOM     47  C   UNL A   1      38.552  31.864  30.053  1.00  0.00     0.037 A 
ATOM     48  C   UNL A   1      44.994  31.302  29.146  1.00  0.00     0.049 A 
ATOM     49  C   UNL A   1      39.714  32.789  30.288  1.00  0.00     0.074 A 
ATOM     50  C   UNL A   1      45.968  32.264  29.344  1.00  0.00     0.029 A 
ATOM     51  N   UNL A   1      43.783  31.878  29.501  1.00  0.00    -0.354 N 
ATOM     52  N   UNL A   1      40.989  32.593  30.056  1.00  0.00    -0.248 NA
ATOM     53  C   UNL A   1      39.403  34.110  30.852  1.00  0.00     0.031 C 
ATOM     54  C   UNL A   1      45.353  33.409  29.861  1.00  0.00     0.029 A 
ATOM     55  C   UNL A   1      43.988  33.177  29.936  1.00  0.00     0.049 A 
ATOM     56  H   UNL A   1      42.907  31.430  29.450  1.00  0.00     0.167 HD
ATOM     57  C   UNL A   1      41.628  33.772  30.415  1.00  0.00     0.074 A 
ATOM     58  C   UNL A   1      40.598  34.684  30.867  1.00  0.00     0.031 C 
ATOM     59  C   UNL A   1      42.949  34.074  30.373  1.00  0.00     0.037 A 
BRANCH  46  60
ATOM     60  C   UNL A   1      46.536  29.448  28.388  1.00  0.00     0.057 A 
ATOM     61  C   UNL A   1      47.297  28.790  29.364  1.00  0.00     0.134 A 
ATOM     62  C   UNL A   1      47.107  29.596  27.117  1.00  0.00     0.134 A 
ATOM     63  F   UNL A   1      46.814  28.626  30.605  1.00  0.00    -0.206 F 
ATOM     64  C   UNL A   1      48.585  28.326  29.096  1.00  0.00     0.040 A 
ATOM     65  C   UNL A   1      48.383  29.109  26.830  1.00  0.00     0.040 A 
ATOM     66  F   UNL A   1      46.433  30.211  26.134  1.00  0.00    -0.206 F 
ATOM     67  C   UNL A   1      49.130  28.479  27.823  1.00  0.00     0.006 A 
ENDBRANCH  46  60
BRANCH  47  68
ATOM     68  C   UNL A   1      37.166  32.290  30.373  1.00  0.00     0.057 A 
ATOM     69  C   UNL A   1      36.408  33.028  29.456  1.00  0.00     0.134 A 
ATOM     70  C   UNL A   1      36.569  31.980  31.601  1.00  0.00     0.134 A 
ATOM     71  F   UNL A   1      36.931  33.368  28.268  1.00  0.00    -0.206 F 
ATOM     72  C   UNL A   1      35.116  33.463  29.756  1.00  0.00     0.040 A 
ATOM     73  C   UNL A   1      35.269  32.387  31.905  1.00  0.00     0.040 A 
ATOM     74  F   UNL A   1      37.239  31.268  32.519  1.00  0.00    -0.206 F 
ATOM     75  C   UNL A   1      34.542  33.138  30.983  1.00  0.00     0.006 A 
ENDBRANCH  47  68
BRANCH  59  76
ATOM     76  C   UNL A   1      43.351  35.459  30.788  1.00  0.00     0.057 A 
ATOM     77  C   UNL A   1      43.640  35.781  32.119  1.00  0.00     0.134 A 
ATOM     78  C   UNL A   1      43.488  36.475  29.832  1.00  0.00     0.134 A 
ATOM     79  F   UNL A   1      43.517  34.857  33.085  1.00  0.00    -0.206 F 
ATOM     80  C   UNL A   1      44.029  37.069  32.491  1.00  0.00     0.040 A 
ATOM     81  C   UNL A   1      43.904  37.760  30.187  1.00  0.00     0.040 A 
ATOM     82  F   UNL A   1      43.236  36.232  28.537  1.00  0.00    -0.206 F 
ATOM     83  C   UNL A   1      44.170  38.060  31.520  1.00  0.00     0.006 A 
ENDBRANCH  59  76
ENDBRANCH  33  34
ENDBRANCH  25  28
ENDBRANCH  23  24
ENDBRANCH  22  23
ENDBRANCH   1  22
TORSDOF 14
ENDMDL
