MODEL 1
REMARK VINA RESULT:     -13.2      0.000      0.000
REMARK SMILES CS(=O)(=O)c1ccc(/C=C(/C(=O)NCCCNC(=O)c2ccc(-c3c4nc(c(-c5c(F)cccc5F)c5ccc([nH]5)c(-c5c(F)cccc5F)c5nc(c(-c6c(F)cccc6F)c6ccc3[nH]6)C=C5)C=C4)cc2)c2cccc(-c3ccc(S(C)(=O)=O)cc3)c2)cc1
REMARK SMILES IDX 14 1 13 2 11 3 12 4 10 6 9 7 8 8 5 9 6 10 91 11 7 12 90 13
REMARK SMILES IDX 2 14 1 15 3 16 4 17 74 18 75 19 89 20 76 21 78 22 77 23
REMARK SMILES IDX 79 24 80 25 88 26 81 27 87 28 82 29 83 30 84 31 85 32 86 33
REMARK SMILES IDX 15 34 16 35 17 36 18 37 19 39 20 40 21 41 73 42 22 43 72 44
REMARK SMILES IDX 23 45 24 46 25 47 66 48 26 49 71 50 65 51 67 52 27 53 70 54
REMARK SMILES IDX 64 55 63 56 28 58 54 59 37 60 53 61 38 62 41 63 52 64 68 65
REMARK SMILES IDX 39 66 40 67 51 69 69 70 42 71 29 72 30 73 35 74 31 75 32 76
REMARK SMILES IDX 34 77 36 78 33 79 55 80 56 81 61 82 57 83 58 84 60 85 62 86
REMARK SMILES IDX 59 87 43 88 44 89 49 90 45 91 46 92 48 93 50 94 47 95
REMARK H PARENT 13 5 17 38 67 57 41 68
REMARK Flexibility Score: inf
ROOT
ATOM      1  C   UNL A   1      32.157  27.492  23.101  1.00  0.00     0.118 C 
ENDROOT
BRANCH   1   2
ATOM      2  N   UNL A   1      32.484  26.863  21.836  1.00  0.00    -0.352 N 
ATOM      3  C   UNL A   1      32.883  25.617  21.468  1.00  0.00     0.251 C 
ATOM      4  O   UNL A   1      33.099  25.466  20.263  1.00  0.00    -0.269 OA
ATOM      5  H   UNL A   1      32.397  27.476  21.071  1.00  0.00     0.163 HD
BRANCH   3   6
ATOM      6  C   UNL A   1      32.983  24.448  22.423  1.00  0.00     0.047 C 
ATOM      7  C   UNL A   1      32.297  23.300  22.213  1.00  0.00     0.022 C 
BRANCH   7   8
ATOM      8  C   UNL A   1      32.322  22.021  22.963  1.00  0.00    -0.025 A 
ATOM      9  C   UNL A   1      32.503  19.509  24.219  1.00  0.00     0.067 A 
ATOM     10  C   UNL A   1      32.648  20.678  24.968  1.00  0.00     0.021 A 
ATOM     11  C   UNL A   1      32.220  19.579  22.856  1.00  0.00     0.021 A 
ATOM     12  C   UNL A   1      32.520  21.924  24.347  1.00  0.00     0.009 A 
ATOM     13  C   UNL A   1      32.137  20.832  22.236  1.00  0.00     0.009 A 
BRANCH   9  14
ATOM     14  S   UNL A   1      32.696  17.944  25.042  1.00  0.00     0.175 S 
ATOM     15  C   UNL A   1      34.229  17.261  24.468  1.00  0.00     0.163 C 
ATOM     16  O   UNL A   1      31.619  17.098  24.567  1.00  0.00    -0.224 OA
ATOM     17  O   UNL A   1      32.858  18.230  26.456  1.00  0.00    -0.224 OA
ENDBRANCH   9  14
ENDBRANCH   7   8
BRANCH   6  18
ATOM     18  C   UNL A   1      33.721  24.678  23.696  1.00  0.00    -0.012 A 
ATOM     19  C   UNL A   1      33.048  25.273  24.775  1.00  0.00     0.009 A 
ATOM     20  C   UNL A   1      35.023  24.196  23.898  1.00  0.00     0.017 A 
ATOM     21  C   UNL A   1      33.643  25.365  26.029  1.00  0.00     0.001 A 
ATOM     22  C   UNL A   1      35.604  24.203  25.181  1.00  0.00    -0.018 A 
ATOM     23  C   UNL A   1      34.907  24.817  26.234  1.00  0.00     0.009 A 
BRANCH  22  24
ATOM     24  C   UNL A   1      36.845  23.459  25.438  1.00  0.00    -0.018 A 
ATOM     25  C   UNL A   1      37.865  24.051  26.207  1.00  0.00     0.010 A 
ATOM     26  C   UNL A   1      37.021  22.140  24.995  1.00  0.00     0.010 A 
ATOM     27  C   UNL A   1      39.025  23.350  26.532  1.00  0.00     0.021 A 
ATOM     28  C   UNL A   1      38.185  21.431  25.306  1.00  0.00     0.021 A 
ATOM     29  C   UNL A   1      39.182  22.044  26.069  1.00  0.00     0.067 A 
BRANCH  29  30
ATOM     30  S   UNL A   1      40.658  21.154  26.491  1.00  0.00     0.175 S 
ATOM     31  C   UNL A   1      40.325  19.500  25.940  1.00  0.00     0.163 C 
ATOM     32  O   UNL A   1      41.732  21.700  25.685  1.00  0.00    -0.224 OA
ATOM     33  O   UNL A   1      40.757  21.121  27.939  1.00  0.00    -0.224 OA
ENDBRANCH  29  30
ENDBRANCH  22  24
ENDBRANCH   6  18
ENDBRANCH   3   6
ENDBRANCH   1   2
BRANCH   1  34
ATOM     34  C   UNL A   1      33.009  28.746  23.318  1.00  0.00     0.042 C 
BRANCH  34  35
ATOM     35  C   UNL A   1      33.344  29.017  24.786  1.00  0.00     0.118 C 
BRANCH  35  36
ATOM     36  N   UNL A   1      32.581  30.132  25.328  1.00  0.00    -0.352 N 
ATOM     37  C   UNL A   1      32.771  30.859  26.476  1.00  0.00     0.251 C 
ATOM     38  H   UNL A   1      31.807  30.408  24.785  1.00  0.00     0.163 HD
ATOM     39  O   UNL A   1      31.886  31.619  26.861  1.00  0.00    -0.269 OA
BRANCH  37  40
ATOM     40  C   UNL A   1      34.021  30.734  27.259  1.00  0.00     0.039 A 
ATOM     41  C   UNL A   1      34.390  29.470  27.731  1.00  0.00     0.014 A 
ATOM     42  C   UNL A   1      34.794  31.852  27.584  1.00  0.00     0.014 A 
ATOM     43  C   UNL A   1      35.558  29.320  28.483  1.00  0.00     0.010 A 
ATOM     44  C   UNL A   1      35.991  31.692  28.281  1.00  0.00     0.010 A 
ATOM     45  C   UNL A   1      36.383  30.426  28.742  1.00  0.00    -0.014 A 
BRANCH  45  46
ATOM     46  C   UNL A   1      37.654  30.275  29.494  1.00  0.00     0.031 A 
ATOM     47  C   UNL A   1      38.799  29.499  28.904  1.00  0.00     0.074 A 
ATOM     48  C   UNL A   1      37.757  30.787  30.736  1.00  0.00     0.049 A 
ATOM     49  N   UNL A   1      39.957  29.198  29.437  1.00  0.00    -0.248 NA
ATOM     50  C   UNL A   1      38.611  28.973  27.542  1.00  0.00     0.031 C 
ATOM     51  C   UNL A   1      36.704  31.523  31.437  1.00  0.00     0.029 A 
ATOM     52  N   UNL A   1      38.794  30.755  31.634  1.00  0.00    -0.354 N 
ATOM     53  C   UNL A   1      40.627  28.440  28.485  1.00  0.00     0.074 A 
ATOM     54  C   UNL A   1      39.728  28.286  27.360  1.00  0.00     0.031 C 
ATOM     55  C   UNL A   1      37.153  31.884  32.649  1.00  0.00     0.029 A 
ATOM     56  C   UNL A   1      38.510  31.378  32.825  1.00  0.00     0.049 A 
ATOM     57  H   UNL A   1      39.660  30.326  31.443  1.00  0.00     0.167 HD
ATOM     58  C   UNL A   1      41.883  27.935  28.535  1.00  0.00     0.037 A 
ATOM     59  C   UNL A   1      39.256  31.518  33.936  1.00  0.00     0.037 A 
ATOM     60  C   UNL A   1      42.783  28.105  29.645  1.00  0.00     0.049 A 
ATOM     61  C   UNL A   1      40.646  30.948  33.967  1.00  0.00     0.074 A 
ATOM     62  C   UNL A   1      44.092  27.670  29.771  1.00  0.00     0.029 A 
ATOM     63  N   UNL A   1      42.467  28.765  30.822  1.00  0.00    -0.354 N 
ATOM     64  N   UNL A   1      41.286  30.281  33.037  1.00  0.00    -0.248 NA
ATOM     65  C   UNL A   1      41.423  31.159  35.196  1.00  0.00     0.031 C 
ATOM     66  C   UNL A   1      44.555  28.038  31.038  1.00  0.00     0.029 A 
ATOM     67  C   UNL A   1      43.551  28.739  31.685  1.00  0.00     0.049 A 
ATOM     68  H   UNL A   1      41.600  29.191  31.017  1.00  0.00     0.167 HD
ATOM     69  C   UNL A   1      42.545  30.014  33.559  1.00  0.00     0.074 A 
ATOM     70  C   UNL A   1      42.584  30.605  34.880  1.00  0.00     0.031 C 
ATOM     71  C   UNL A   1      43.576  29.338  32.994  1.00  0.00     0.037 A 
BRANCH  58  72
ATOM     72  C   UNL A   1      42.360  27.154  27.344  1.00  0.00     0.057 A 
ATOM     73  C   UNL A   1      42.194  25.766  27.260  1.00  0.00     0.134 A 
ATOM     74  C   UNL A   1      42.962  27.799  26.257  1.00  0.00     0.134 A 
ATOM     75  F   UNL A   1      41.635  25.085  28.272  1.00  0.00    -0.206 F 
ATOM     76  C   UNL A   1      42.633  25.043  26.149  1.00  0.00     0.040 A 
ATOM     77  C   UNL A   1      43.383  27.091  25.129  1.00  0.00     0.040 A 
ATOM     78  F   UNL A   1      43.145  29.128  26.268  1.00  0.00    -0.206 F 
ATOM     79  C   UNL A   1      43.224  25.708  25.076  1.00  0.00     0.006 A 
ENDBRANCH  58  72
BRANCH  59  80
ATOM     80  C   UNL A   1      38.709  32.242  35.110  1.00  0.00     0.057 A 
ATOM     81  C   UNL A   1      38.749  33.640  35.178  1.00  0.00     0.134 A 
ATOM     82  C   UNL A   1      38.140  31.559  36.191  1.00  0.00     0.134 A 
ATOM     83  F   UNL A   1      39.298  34.348  34.179  1.00  0.00    -0.206 F 
ATOM     84  C   UNL A   1      38.260  34.332  36.286  1.00  0.00     0.040 A 
ATOM     85  C   UNL A   1      37.625  32.241  37.295  1.00  0.00     0.040 A 
ATOM     86  F   UNL A   1      38.064  30.221  36.183  1.00  0.00    -0.206 F 
ATOM     87  C   UNL A   1      37.692  33.632  37.347  1.00  0.00     0.006 A 
ENDBRANCH  59  80
BRANCH  71  88
ATOM     88  C   UNL A   1      44.842  29.233  33.791  1.00  0.00     0.057 A 
ATOM     89  C   UNL A   1      45.848  30.204  33.711  1.00  0.00     0.134 A 
ATOM     90  C   UNL A   1      45.041  28.164  34.673  1.00  0.00     0.134 A 
ATOM     91  F   UNL A   1      45.723  31.245  32.874  1.00  0.00    -0.206 F 
ATOM     92  C   UNL A   1      47.018  30.104  34.465  1.00  0.00     0.040 A 
ATOM     93  C   UNL A   1      46.197  28.066  35.450  1.00  0.00     0.040 A 
ATOM     94  F   UNL A   1      44.113  27.204  34.801  1.00  0.00    -0.206 F 
ATOM     95  C   UNL A   1      47.192  29.035  35.342  1.00  0.00     0.006 A 
ENDBRANCH  71  88
ENDBRANCH  45  46
ENDBRANCH  37  40
ENDBRANCH  35  36
ENDBRANCH  34  35
ENDBRANCH   1  34
TORSDOF 15
ENDMDL
MODEL 2
REMARK VINA RESULT:     -13.2      6.709     12.627
REMARK SMILES CS(=O)(=O)c1ccc(/C=C(/C(=O)NCCCNC(=O)c2ccc(-c3c4nc(c(-c5c(F)cccc5F)c5ccc([nH]5)c(-c5c(F)cccc5F)c5nc(c(-c6c(F)cccc6F)c6ccc3[nH]6)C=C5)C=C4)cc2)c2cccc(-c3ccc(S(C)(=O)=O)cc3)c2)cc1
REMARK SMILES IDX 14 1 13 2 11 3 12 4 10 6 9 7 8 8 5 9 6 10 91 11 7 12 90 13
REMARK SMILES IDX 2 14 1 15 3 16 4 17 74 18 75 19 89 20 76 21 78 22 77 23
REMARK SMILES IDX 79 24 80 25 88 26 81 27 87 28 82 29 83 30 84 31 85 32 86 33
REMARK SMILES IDX 15 34 16 35 17 36 18 37 19 39 20 40 21 41 73 42 22 43 72 44
REMARK SMILES IDX 23 45 24 46 25 47 66 48 26 49 71 50 65 51 67 52 27 53 70 54
REMARK SMILES IDX 64 55 63 56 28 58 54 59 37 60 53 61 38 62 41 63 52 64 68 65
REMARK SMILES IDX 39 66 40 67 51 69 69 70 42 71 29 72 30 73 35 74 31 75 32 76
REMARK SMILES IDX 34 77 36 78 33 79 55 80 56 81 61 82 57 83 58 84 60 85 62 86
REMARK SMILES IDX 59 87 43 88 44 89 49 90 45 91 46 92 48 93 50 94 47 95
REMARK H PARENT 13 5 17 38 67 57 41 68
REMARK Flexibility Score: inf
ROOT
ATOM      1  C   UNL A   1      39.239  26.704  28.818  1.00  0.00     0.118 C 
ENDROOT
BRANCH   1   2
ATOM      2  N   UNL A   1      39.552  27.718  27.829  1.00  0.00    -0.352 N 
ATOM      3  C   UNL A   1      39.229  29.029  27.675  1.00  0.00     0.251 C 
ATOM      4  O   UNL A   1      39.673  29.567  26.658  1.00  0.00    -0.269 OA
ATOM      5  H   UNL A   1      40.130  27.381  27.108  1.00  0.00     0.163 HD
BRANCH   3   6
ATOM      6  C   UNL A   1      38.452  29.831  28.697  1.00  0.00     0.047 C 
ATOM      7  C   UNL A   1      38.910  30.003  29.959  1.00  0.00     0.022 C 
BRANCH   7   8
ATOM      8  C   UNL A   1      38.360  30.814  31.073  1.00  0.00    -0.025 A 
ATOM      9  C   UNL A   1      37.305  32.531  33.037  1.00  0.00     0.067 A 
ATOM     10  C   UNL A   1      36.823  31.227  32.914  1.00  0.00     0.021 A 
ATOM     11  C   UNL A   1      38.344  32.974  32.221  1.00  0.00     0.021 A 
ATOM     12  C   UNL A   1      37.375  30.365  31.962  1.00  0.00     0.009 A 
ATOM     13  C   UNL A   1      38.861  32.117  31.241  1.00  0.00     0.009 A 
BRANCH   9  14
ATOM     14  S   UNL A   1      36.558  33.601  34.245  1.00  0.00     0.175 S 
ATOM     15  C   UNL A   1      37.396  33.290  35.778  1.00  0.00     0.163 C 
ATOM     16  O   UNL A   1      35.184  33.162  34.384  1.00  0.00    -0.224 OA
ATOM     17  O   UNL A   1      36.875  34.963  33.854  1.00  0.00    -0.224 OA
ENDBRANCH   9  14
ENDBRANCH   7   8
BRANCH   6  18
ATOM     18  C   UNL A   1      37.082  30.267  28.312  1.00  0.00    -0.012 A 
ATOM     19  C   UNL A   1      36.245  29.365  27.637  1.00  0.00     0.009 A 
ATOM     20  C   UNL A   1      36.551  31.500  28.722  1.00  0.00     0.017 A 
ATOM     21  C   UNL A   1      34.908  29.668  27.396  1.00  0.00     0.001 A 
ATOM     22  C   UNL A   1      35.181  31.784  28.564  1.00  0.00    -0.018 A 
ATOM     23  C   UNL A   1      34.376  30.863  27.873  1.00  0.00     0.009 A 
BRANCH  22  24
ATOM     24  C   UNL A   1      34.582  32.948  29.231  1.00  0.00    -0.018 A 
ATOM     25  C   UNL A   1      34.797  33.148  30.608  1.00  0.00     0.010 A 
ATOM     26  C   UNL A   1      33.851  33.911  28.521  1.00  0.00     0.010 A 
ATOM     27  C   UNL A   1      34.304  34.278  31.260  1.00  0.00     0.021 A 
ATOM     28  C   UNL A   1      33.343  35.043  29.167  1.00  0.00     0.021 A 
ATOM     29  C   UNL A   1      33.570  35.215  30.535  1.00  0.00     0.067 A 
BRANCH  29  30
ATOM     30  S   UNL A   1      32.950  36.654  31.369  1.00  0.00     0.175 S 
ATOM     31  C   UNL A   1      34.145  36.948  32.647  1.00  0.00     0.163 C 
ATOM     32  O   UNL A   1      33.006  37.753  30.425  1.00  0.00    -0.224 OA
ATOM     33  O   UNL A   1      31.701  36.289  32.012  1.00  0.00    -0.224 OA
ENDBRANCH  29  30
ENDBRANCH  22  24
ENDBRANCH   6  18
ENDBRANCH   3   6
ENDBRANCH   1   2
BRANCH   1  34
ATOM     34  C   UNL A   1      39.879  25.365  28.442  1.00  0.00     0.042 C 
BRANCH  34  35
ATOM     35  C   UNL A   1      39.867  25.075  26.941  1.00  0.00     0.118 C 
BRANCH  35  36
ATOM     36  N   UNL A   1      40.540  23.827  26.614  1.00  0.00    -0.352 N 
ATOM     37  C   UNL A   1      41.825  23.599  26.189  1.00  0.00     0.251 C 
ATOM     38  H   UNL A   1      39.987  23.019  26.714  1.00  0.00     0.163 HD
ATOM     39  O   UNL A   1      42.130  22.490  25.760  1.00  0.00    -0.269 OA
BRANCH  37  40
ATOM     40  C   UNL A   1      42.843  24.672  26.233  1.00  0.00     0.039 A 
ATOM     41  C   UNL A   1      43.469  24.951  27.453  1.00  0.00     0.014 A 
ATOM     42  C   UNL A   1      43.141  25.443  25.106  1.00  0.00     0.014 A 
ATOM     43  C   UNL A   1      44.426  25.966  27.530  1.00  0.00     0.010 A 
ATOM     44  C   UNL A   1      44.141  26.413  25.170  1.00  0.00     0.010 A 
ATOM     45  C   UNL A   1      44.790  26.688  26.383  1.00  0.00    -0.014 A 
BRANCH  45  46
ATOM     46  C   UNL A   1      45.843  27.733  26.437  1.00  0.00     0.031 A 
ATOM     47  C   UNL A   1      45.471  29.180  26.602  1.00  0.00     0.074 A 
ATOM     48  C   UNL A   1      47.135  27.385  26.277  1.00  0.00     0.049 A 
ATOM     49  N   UNL A   1      46.242  30.239  26.599  1.00  0.00    -0.248 NA
ATOM     50  C   UNL A   1      44.040  29.480  26.773  1.00  0.00     0.031 C 
ATOM     51  C   UNL A   1      47.623  26.021  26.066  1.00  0.00     0.029 A 
ATOM     52  N   UNL A   1      48.272  28.151  26.255  1.00  0.00    -0.354 N 
ATOM     53  C   UNL A   1      45.391  31.327  26.752  1.00  0.00     0.074 A 
ATOM     54  C   UNL A   1      44.042  30.805  26.798  1.00  0.00     0.031 C 
ATOM     55  C   UNL A   1      48.959  26.046  25.950  1.00  0.00     0.029 A 
ATOM     56  C   UNL A   1      49.421  27.427  26.044  1.00  0.00     0.049 A 
ATOM     57  H   UNL A   1      48.266  29.128  26.379  1.00  0.00     0.167 HD
ATOM     58  C   UNL A   1      45.707  32.640  26.865  1.00  0.00     0.037 A 
ATOM     59  C   UNL A   1      50.699  27.831  25.929  1.00  0.00     0.037 A 
ATOM     60  C   UNL A   1      47.051  33.157  26.839  1.00  0.00     0.049 A 
ATOM     61  C   UNL A   1      51.023  29.293  26.058  1.00  0.00     0.074 A 
ATOM     62  C   UNL A   1      47.475  34.466  26.992  1.00  0.00     0.029 A 
ATOM     63  N   UNL A   1      48.188  32.388  26.650  1.00  0.00    -0.354 N 
ATOM     64  N   UNL A   1      50.214  30.304  26.258  1.00  0.00    -0.248 NA
ATOM     65  C   UNL A   1      52.440  29.669  25.955  1.00  0.00     0.031 C 
ATOM     66  C   UNL A   1      48.868  34.492  26.860  1.00  0.00     0.029 A 
ATOM     67  C   UNL A   1      49.314  33.195  26.668  1.00  0.00     0.049 A 
ATOM     68  H   UNL A   1      48.195  31.411  26.521  1.00  0.00     0.167 HD
ATOM     69  C   UNL A   1      51.022  31.430  26.329  1.00  0.00     0.074 A 
ATOM     70  C   UNL A   1      52.388  30.977  26.165  1.00  0.00     0.031 C 
ATOM     71  C   UNL A   1      50.666  32.726  26.511  1.00  0.00     0.037 A 
BRANCH  58  72
ATOM     72  C   UNL A   1      44.574  33.610  27.036  1.00  0.00     0.057 A 
ATOM     73  C   UNL A   1      43.982  34.250  25.939  1.00  0.00     0.134 A 
ATOM     74  C   UNL A   1      44.047  33.882  28.304  1.00  0.00     0.134 A 
ATOM     75  F   UNL A   1      44.447  34.042  24.698  1.00  0.00    -0.206 F 
ATOM     76  C   UNL A   1      42.924  35.148  26.101  1.00  0.00     0.040 A 
ATOM     77  C   UNL A   1      42.972  34.758  28.476  1.00  0.00     0.040 A 
ATOM     78  F   UNL A   1      44.561  33.297  29.396  1.00  0.00    -0.206 F 
ATOM     79  C   UNL A   1      42.412  35.398  27.372  1.00  0.00     0.006 A 
ENDBRANCH  58  72
BRANCH  59  80
ATOM     80  C   UNL A   1      51.773  26.835  25.694  1.00  0.00     0.057 A 
ATOM     81  C   UNL A   1      52.213  26.540  24.399  1.00  0.00     0.134 A 
ATOM     82  C   UNL A   1      52.382  26.152  26.754  1.00  0.00     0.134 A 
ATOM     83  F   UNL A   1      51.655  27.149  23.342  1.00  0.00    -0.206 F 
ATOM     84  C   UNL A   1      53.205  25.588  24.162  1.00  0.00     0.040 A 
ATOM     85  C   UNL A   1      53.392  25.215  26.534  1.00  0.00     0.040 A 
ATOM     86  F   UNL A   1      52.011  26.397  28.019  1.00  0.00    -0.206 F 
ATOM     87  C   UNL A   1      53.801  24.925  25.233  1.00  0.00     0.006 A 
ENDBRANCH  59  80
BRANCH  71  88
ATOM     88  C   UNL A   1      51.773  33.737  26.577  1.00  0.00     0.057 A 
ATOM     89  C   UNL A   1      52.410  34.056  27.782  1.00  0.00     0.134 A 
ATOM     90  C   UNL A   1      52.226  34.372  25.415  1.00  0.00     0.134 A 
ATOM     91  F   UNL A   1      52.012  33.492  28.933  1.00  0.00    -0.206 F 
ATOM     92  C   UNL A   1      53.446  34.989  27.833  1.00  0.00     0.040 A 
ATOM     93  C   UNL A   1      53.278  35.289  25.449  1.00  0.00     0.040 A 
ATOM     94  F   UNL A   1      51.662  34.104  24.227  1.00  0.00    -0.206 F 
ATOM     95  C   UNL A   1      53.887  35.604  26.662  1.00  0.00     0.006 A 
ENDBRANCH  71  88
ENDBRANCH  45  46
ENDBRANCH  37  40
ENDBRANCH  35  36
ENDBRANCH  34  35
ENDBRANCH   1  34
TORSDOF 15
ENDMDL
MODEL 3
REMARK VINA RESULT:     -12.8      6.697     11.615
REMARK SMILES CS(=O)(=O)c1ccc(/C=C(/C(=O)NCCCNC(=O)c2ccc(-c3c4nc(c(-c5c(F)cccc5F)c5ccc([nH]5)c(-c5c(F)cccc5F)c5nc(c(-c6c(F)cccc6F)c6ccc3[nH]6)C=C5)C=C4)cc2)c2cccc(-c3ccc(S(C)(=O)=O)cc3)c2)cc1
REMARK SMILES IDX 14 1 13 2 11 3 12 4 10 6 9 7 8 8 5 9 6 10 91 11 7 12 90 13
REMARK SMILES IDX 2 14 1 15 3 16 4 17 74 18 75 19 89 20 76 21 78 22 77 23
REMARK SMILES IDX 79 24 80 25 88 26 81 27 87 28 82 29 83 30 84 31 85 32 86 33
REMARK SMILES IDX 15 34 16 35 17 36 18 37 19 39 20 40 21 41 73 42 22 43 72 44
REMARK SMILES IDX 23 45 24 46 25 47 66 48 26 49 71 50 65 51 67 52 27 53 70 54
REMARK SMILES IDX 64 55 63 56 28 58 54 59 37 60 53 61 38 62 41 63 52 64 68 65
REMARK SMILES IDX 39 66 40 67 51 69 69 70 42 71 29 72 30 73 35 74 31 75 32 76
REMARK SMILES IDX 34 77 36 78 33 79 55 80 56 81 61 82 57 83 58 84 60 85 62 86
REMARK SMILES IDX 59 87 43 88 44 89 49 90 45 91 46 92 48 93 50 94 47 95
REMARK H PARENT 13 5 17 38 67 57 41 68
REMARK Flexibility Score: inf
ROOT
ATOM      1  C   UNL A   1      39.004  26.654  28.721  1.00  0.00     0.118 C 
ENDROOT
BRANCH   1   2
ATOM      2  N   UNL A   1      39.514  27.646  27.794  1.00  0.00    -0.352 N 
ATOM      3  C   UNL A   1      39.362  28.989  27.657  1.00  0.00     0.251 C 
ATOM      4  O   UNL A   1      39.949  29.494  26.697  1.00  0.00    -0.269 OA
ATOM      5  H   UNL A   1      40.106  27.259  27.109  1.00  0.00     0.163 HD
BRANCH   3   6
ATOM      6  C   UNL A   1      38.604  29.855  28.640  1.00  0.00     0.047 C 
ATOM      7  C   UNL A   1      39.084  30.107  29.881  1.00  0.00     0.022 C 
BRANCH   7   8
ATOM      8  C   UNL A   1      38.555  30.988  30.950  1.00  0.00    -0.025 A 
ATOM      9  C   UNL A   1      37.584  32.485  33.126  1.00  0.00     0.067 A 
ATOM     10  C   UNL A   1      38.461  33.068  32.210  1.00  0.00     0.021 A 
ATOM     11  C   UNL A   1      37.147  31.175  32.941  1.00  0.00     0.021 A 
ATOM     12  C   UNL A   1      38.911  32.333  31.109  1.00  0.00     0.009 A 
ATOM     13  C   UNL A   1      37.638  30.432  31.860  1.00  0.00     0.009 A 
BRANCH   9  14
ATOM     14  S   UNL A   1      37.053  33.447  34.524  1.00  0.00     0.175 S 
ATOM     15  C   UNL A   1      37.804  32.712  35.954  1.00  0.00     0.163 C 
ATOM     16  O   UNL A   1      35.619  33.265  34.623  1.00  0.00    -0.224 OA
ATOM     17  O   UNL A   1      37.633  34.769  34.369  1.00  0.00    -0.224 OA
ENDBRANCH   9  14
ENDBRANCH   7   8
BRANCH   6  18
ATOM     18  C   UNL A   1      37.226  30.267  28.254  1.00  0.00    -0.012 A 
ATOM     19  C   UNL A   1      36.408  29.352  27.572  1.00  0.00     0.009 A 
ATOM     20  C   UNL A   1      36.670  31.487  28.669  1.00  0.00     0.017 A 
ATOM     21  C   UNL A   1      35.066  29.630  27.330  1.00  0.00     0.001 A 
ATOM     22  C   UNL A   1      35.295  31.745  28.508  1.00  0.00    -0.018 A 
ATOM     23  C   UNL A   1      34.510  30.812  27.810  1.00  0.00     0.009 A 
BRANCH  22  24
ATOM     24  C   UNL A   1      34.672  32.894  29.179  1.00  0.00    -0.018 A 
ATOM     25  C   UNL A   1      34.869  33.085  30.560  1.00  0.00     0.010 A 
ATOM     26  C   UNL A   1      33.935  33.853  28.470  1.00  0.00     0.010 A 
ATOM     27  C   UNL A   1      34.353  34.201  31.217  1.00  0.00     0.021 A 
ATOM     28  C   UNL A   1      33.404  34.971  29.121  1.00  0.00     0.021 A 
ATOM     29  C   UNL A   1      33.613  35.134  30.492  1.00  0.00     0.067 A 
BRANCH  29  30
ATOM     30  S   UNL A   1      32.964  36.556  31.333  1.00  0.00     0.175 S 
ATOM     31  C   UNL A   1      34.167  36.887  32.595  1.00  0.00     0.163 C 
ATOM     32  O   UNL A   1      32.975  37.654  30.386  1.00  0.00    -0.224 OA
ATOM     33  O   UNL A   1      31.735  36.156  31.994  1.00  0.00    -0.224 OA
ENDBRANCH  29  30
ENDBRANCH  22  24
ENDBRANCH   6  18
ENDBRANCH   3   6
ENDBRANCH   1   2
BRANCH   1  34
ATOM     34  C   UNL A   1      39.594  25.275  28.418  1.00  0.00     0.042 C 
BRANCH  34  35
ATOM     35  C   UNL A   1      39.890  25.042  26.936  1.00  0.00     0.118 C 
BRANCH  35  36
ATOM     36  N   UNL A   1      40.587  23.786  26.702  1.00  0.00    -0.352 N 
ATOM     37  C   UNL A   1      41.888  23.550  26.336  1.00  0.00     0.251 C 
ATOM     38  H   UNL A   1      40.037  22.978  26.828  1.00  0.00     0.163 HD
ATOM     39  O   UNL A   1      42.218  22.422  25.980  1.00  0.00    -0.269 OA
BRANCH  37  40
ATOM     40  C   UNL A   1      42.893  24.636  26.355  1.00  0.00     0.039 A 
ATOM     41  C   UNL A   1      43.332  25.162  25.136  1.00  0.00     0.014 A 
ATOM     42  C   UNL A   1      43.450  25.094  27.552  1.00  0.00     0.014 A 
ATOM     43  C   UNL A   1      44.289  26.180  25.119  1.00  0.00     0.010 A 
ATOM     44  C   UNL A   1      44.359  26.151  27.537  1.00  0.00     0.010 A 
ATOM     45  C   UNL A   1      44.791  26.702  26.322  1.00  0.00    -0.014 A 
BRANCH  45  46
ATOM     46  C   UNL A   1      45.769  27.819  26.323  1.00  0.00     0.031 A 
ATOM     47  C   UNL A   1      47.243  27.540  26.224  1.00  0.00     0.074 A 
ATOM     48  C   UNL A   1      45.333  29.085  26.473  1.00  0.00     0.049 A 
ATOM     49  N   UNL A   1      48.250  28.376  26.281  1.00  0.00    -0.248 NA
ATOM     50  C   UNL A   1      47.641  26.133  26.059  1.00  0.00     0.031 C 
ATOM     51  C   UNL A   1      43.932  29.484  26.622  1.00  0.00     0.029 A 
ATOM     52  N   UNL A   1      46.024  30.269  26.537  1.00  0.00    -0.354 N 
ATOM     53  C   UNL A   1      49.395  27.597  26.174  1.00  0.00     0.074 A 
ATOM     54  C   UNL A   1      48.962  26.218  26.096  1.00  0.00     0.031 C 
ATOM     55  C   UNL A   1      43.867  30.819  26.747  1.00  0.00     0.029 A 
ATOM     56  C   UNL A   1      45.219  31.367  26.721  1.00  0.00     0.049 A 
ATOM     57  H   UNL A   1      47.004  30.325  26.460  1.00  0.00     0.167 HD
ATOM     58  C   UNL A   1      50.690  27.996  26.125  1.00  0.00     0.037 A 
ATOM     59  C   UNL A   1      45.536  32.667  26.862  1.00  0.00     0.037 A 
ATOM     60  C   UNL A   1      51.119  29.369  26.182  1.00  0.00     0.049 A 
ATOM     61  C   UNL A   1      46.979  33.084  26.804  1.00  0.00     0.074 A 
ATOM     62  C   UNL A   1      52.404  29.877  26.094  1.00  0.00     0.029 A 
ATOM     63  N   UNL A   1      50.271  30.454  26.342  1.00  0.00    -0.354 N 
ATOM     64  N   UNL A   1      48.048  32.342  26.647  1.00  0.00    -0.248 NA
ATOM     65  C   UNL A   1      47.260  34.521  26.933  1.00  0.00     0.031 C 
ATOM     66  C   UNL A   1      52.336  31.267  26.235  1.00  0.00     0.029 A 
ATOM     67  C   UNL A   1      51.005  31.629  26.368  1.00  0.00     0.049 A 
ATOM     68  H   UNL A   1      49.291  30.399  26.425  1.00  0.00     0.167 HD
ATOM     69  C   UNL A   1      49.122  33.220  26.634  1.00  0.00     0.074 A 
ATOM     70  C   UNL A   1      48.576  34.553  26.783  1.00  0.00     0.031 C 
ATOM     71  C   UNL A   1      50.445  32.948  26.510  1.00  0.00     0.037 A 
BRANCH  58  72
ATOM     72  C   UNL A   1      51.736  26.928  25.993  1.00  0.00     0.057 A 
ATOM     73  C   UNL A   1      52.364  26.371  27.115  1.00  0.00     0.134 A 
ATOM     74  C   UNL A   1      52.097  26.427  24.737  1.00  0.00     0.134 A 
ATOM     75  F   UNL A   1      52.072  26.814  28.348  1.00  0.00    -0.206 F 
ATOM     76  C   UNL A   1      53.333  25.373  26.990  1.00  0.00     0.040 A 
ATOM     77  C   UNL A   1      53.046  25.411  24.600  1.00  0.00     0.040 A 
ATOM     78  F   UNL A   1      51.530  26.910  23.621  1.00  0.00    -0.206 F 
ATOM     79  C   UNL A   1      53.671  24.886  25.730  1.00  0.00     0.006 A 
ENDBRANCH  58  72
BRANCH  59  80
ATOM     80  C   UNL A   1      44.464  33.675  27.056  1.00  0.00     0.057 A 
ATOM     81  C   UNL A   1      43.890  34.336  25.964  1.00  0.00     0.134 A 
ATOM     82  C   UNL A   1      43.992  34.004  28.332  1.00  0.00     0.134 A 
ATOM     83  F   UNL A   1      44.313  34.074  24.718  1.00  0.00    -0.206 F 
ATOM     84  C   UNL A   1      42.898  35.302  26.134  1.00  0.00     0.040 A 
ATOM     85  C   UNL A   1      42.984  34.952  28.514  1.00  0.00     0.040 A 
ATOM     86  F   UNL A   1      44.496  33.400  29.417  1.00  0.00    -0.206 F 
ATOM     87  C   UNL A   1      42.439  35.609  27.413  1.00  0.00     0.006 A 
ENDBRANCH  59  80
BRANCH  71  88
ATOM     88  C   UNL A   1      51.386  34.116  26.498  1.00  0.00     0.057 A 
ATOM     89  C   UNL A   1      51.742  34.765  25.310  1.00  0.00     0.134 A 
ATOM     90  C   UNL A   1      51.914  34.617  27.695  1.00  0.00     0.134 A 
ATOM     91  F   UNL A   1      51.282  34.324  24.130  1.00  0.00    -0.206 F 
ATOM     92  C   UNL A   1      52.609  35.858  25.309  1.00  0.00     0.040 A 
ATOM     93  C   UNL A   1      52.762  35.725  27.709  1.00  0.00     0.040 A 
ATOM     94  F   UNL A   1      51.605  34.045  28.868  1.00  0.00    -0.206 F 
ATOM     95  C   UNL A   1      53.117  36.345  26.512  1.00  0.00     0.006 A 
ENDBRANCH  71  88
ENDBRANCH  45  46
ENDBRANCH  37  40
ENDBRANCH  35  36
ENDBRANCH  34  35
ENDBRANCH   1  34
TORSDOF 15
ENDMDL
