MODEL 1
REMARK VINA RESULT:     -11.0      0.000      0.000
REMARK SMILES CCn1ccc([C@@H](C)NC(=O)[C@H](C)n2ccc(C(=O)NCCCNC(=O)c3ccc(-c4c5nc(c(-c6c(F)cccc6F)c6ccc([nH]6)c(-c6c(F)cccc6F)c6nc(c(-c7c(F)cccc7F)c7ccc4[nH]7)C=C6)C=C5)cc3)n2)n1
REMARK SMILES IDX 18 1 19 2 20 3 17 5 14 6 15 7 81 8 16 9 12 10 13 11 10 12
REMARK SMILES IDX 9 13 11 15 7 16 8 17 6 18 3 19 4 20 82 21 5 22 2 23 1 24
REMARK SMILES IDX 21 25 22 26 23 27 24 28 25 29 26 31 27 32 28 33 80 34 29 35
REMARK SMILES IDX 79 36 30 37 31 38 32 39 73 40 33 41 78 42 72 43 74 44 34 45
REMARK SMILES IDX 77 46 71 47 70 48 35 50 61 51 44 52 60 53 45 54 48 55 59 56
REMARK SMILES IDX 75 57 46 58 47 59 58 61 76 62 49 63 36 64 37 65 42 66 38 67
REMARK SMILES IDX 39 68 41 69 43 70 40 71 62 72 63 73 68 74 64 75 65 76 67 77
REMARK SMILES IDX 69 78 66 79 50 80 51 81 56 82 52 83 53 84 55 85 57 86 54 87
REMARK H PARENT 20 4 9 14 24 30 74 49 48 60
REMARK Flexibility Score: inf
ROOT
ATOM      1  C   UNL A   1      31.163  29.217  24.280  1.00  0.00     0.271 C 
ATOM      2  O   UNL A   1      30.283  30.059  24.079  1.00  0.00    -0.267 OA
ATOM      3  N   UNL A   1      32.308  29.640  24.929  1.00  0.00    -0.351 N 
ATOM      4  H   UNL A   1      32.336  30.605  25.125  1.00  0.00     0.163 HD
ENDROOT
BRANCH   1   5
ATOM      5  C   UNL A   1      30.993  27.815  23.863  1.00  0.00     0.150 A 
ATOM      6  N   UNL A   1      31.365  25.927  22.922  1.00  0.00    -0.260 N 
ATOM      7  C   UNL A   1      30.225  25.729  23.642  1.00  0.00     0.110 A 
ATOM      8  N   UNL A   1      31.847  27.174  23.055  1.00  0.00    -0.167 NA
ATOM      9  C   UNL A   1      29.940  26.937  24.239  1.00  0.00     0.056 A 
BRANCH   6  10
ATOM     10  C   UNL A   1      32.164  24.985  22.147  1.00  0.00     0.193 C 
ATOM     11  C   UNL A   1      32.598  25.407  20.742  1.00  0.00     0.044 C 
BRANCH  10  12
ATOM     12  C   UNL A   1      33.319  24.440  22.993  1.00  0.00     0.245 C 
ATOM     13  N   UNL A   1      33.171  23.369  23.822  1.00  0.00    -0.346 N 
ATOM     14  H   UNL A   1      33.998  23.064  24.260  1.00  0.00     0.164 HD
ATOM     15  O   UNL A   1      34.432  24.977  22.968  1.00  0.00    -0.273 OA
BRANCH  13  16
ATOM     16  C   UNL A   1      31.976  22.607  24.161  1.00  0.00     0.130 C 
ATOM     17  C   UNL A   1      31.370  23.167  25.445  1.00  0.00     0.038 C 
BRANCH  16  18
ATOM     18  C   UNL A   1      32.320  21.149  24.268  1.00  0.00     0.084 A 
ATOM     19  N   UNL A   1      32.597  19.147  23.626  1.00  0.00    -0.273 N 
ATOM     20  C   UNL A   1      32.930  19.131  24.949  1.00  0.00     0.109 A 
ATOM     21  N   UNL A   1      32.194  20.354  23.195  1.00  0.00    -0.176 NA
ATOM     22  C   UNL A   1      32.761  20.418  25.399  1.00  0.00     0.047 A 
BRANCH  19  23
ATOM     23  C   UNL A   1      32.667  18.034  22.698  1.00  0.00     0.141 C 
ATOM     24  C   UNL A   1      33.722  17.013  23.087  1.00  0.00     0.029 C 
ENDBRANCH  19  23
ENDBRANCH  16  18
ENDBRANCH  13  16
ENDBRANCH  10  12
ENDBRANCH   6  10
ENDBRANCH   1   5
BRANCH   3  25
ATOM     25  C   UNL A   1      33.481  28.893  25.370  1.00  0.00     0.118 C 
BRANCH  25  26
ATOM     26  C   UNL A   1      33.673  28.923  26.891  1.00  0.00     0.042 C 
BRANCH  26  27
ATOM     27  C   UNL A   1      35.138  29.097  27.277  1.00  0.00     0.118 C 
BRANCH  27  28
ATOM     28  N   UNL A   1      35.315  29.880  28.507  1.00  0.00    -0.352 N 
ATOM     29  C   UNL A   1      36.356  29.853  29.411  1.00  0.00     0.251 C 
ATOM     30  H   UNL A   1      34.590  30.512  28.715  1.00  0.00     0.163 HD
ATOM     31  O   UNL A   1      36.226  30.320  30.542  1.00  0.00    -0.269 OA
BRANCH  29  32
ATOM     32  C   UNL A   1      37.633  29.243  29.011  1.00  0.00     0.039 A 
ATOM     33  C   UNL A   1      38.344  29.705  27.900  1.00  0.00     0.014 A 
ATOM     34  C   UNL A   1      38.143  28.223  29.805  1.00  0.00     0.014 A 
ATOM     35  C   UNL A   1      39.621  29.200  27.664  1.00  0.00     0.010 A 
ATOM     36  C   UNL A   1      39.458  27.857  29.676  1.00  0.00     0.010 A 
ATOM     37  C   UNL A   1      40.191  28.298  28.580  1.00  0.00    -0.014 A 
BRANCH  37  38
ATOM     38  C   UNL A   1      41.593  27.905  28.467  1.00  0.00     0.031 A 
ATOM     39  C   UNL A   1      41.828  26.636  27.722  1.00  0.00     0.074 A 
ATOM     40  C   UNL A   1      42.627  28.704  28.813  1.00  0.00     0.049 A 
ATOM     41  N   UNL A   1      42.295  25.525  28.186  1.00  0.00    -0.248 NA
ATOM     42  C   UNL A   1      41.378  26.554  26.322  1.00  0.00     0.031 C 
ATOM     43  C   UNL A   1      42.597  30.097  29.275  1.00  0.00     0.029 A 
ATOM     44  N   UNL A   1      43.963  28.452  28.728  1.00  0.00    -0.354 N 
ATOM     45  C   UNL A   1      42.388  24.660  27.100  1.00  0.00     0.074 A 
ATOM     46  C   UNL A   1      41.663  25.284  26.022  1.00  0.00     0.031 C 
ATOM     47  C   UNL A   1      43.838  30.629  29.206  1.00  0.00     0.029 A 
ATOM     48  C   UNL A   1      44.774  29.571  28.879  1.00  0.00     0.049 A 
ATOM     49  H   UNL A   1      44.325  27.550  28.574  1.00  0.00     0.167 HD
ATOM     50  C   UNL A   1      43.251  23.607  27.109  1.00  0.00     0.037 A 
ATOM     51  C   UNL A   1      46.122  29.627  28.744  1.00  0.00     0.037 A 
ATOM     52  C   UNL A   1      43.690  23.302  28.448  1.00  0.00     0.049 A 
ATOM     53  C   UNL A   1      46.634  28.245  28.878  1.00  0.00     0.074 A 
ATOM     54  C   UNL A   1      43.053  22.944  29.621  1.00  0.00     0.029 A 
ATOM     55  N   UNL A   1      44.940  23.725  28.825  1.00  0.00    -0.354 N 
ATOM     56  N   UNL A   1      46.625  27.573  29.993  1.00  0.00    -0.248 NA
ATOM     57  C   UNL A   1      46.755  27.448  27.668  1.00  0.00     0.031 C 
ATOM     58  C   UNL A   1      43.755  23.644  30.648  1.00  0.00     0.029 A 
ATOM     59  C   UNL A   1      44.816  24.325  30.052  1.00  0.00     0.049 A 
ATOM     60  H   UNL A   1      45.773  23.618  28.309  1.00  0.00     0.167 HD
ATOM     61  C   UNL A   1      46.282  26.283  29.619  1.00  0.00     0.074 A 
ATOM     62  C   UNL A   1      46.478  26.243  28.171  1.00  0.00     0.031 C 
ATOM     63  C   UNL A   1      45.600  25.463  30.472  1.00  0.00     0.037 A 
BRANCH  50  64
ATOM     64  C   UNL A   1      43.982  23.101  25.889  1.00  0.00     0.057 A 
ATOM     65  C   UNL A   1      43.959  21.727  25.588  1.00  0.00     0.134 A 
ATOM     66  C   UNL A   1      44.935  23.855  25.174  1.00  0.00     0.134 A 
ATOM     67  F   UNL A   1      43.114  20.899  26.219  1.00  0.00    -0.206 F 
ATOM     68  C   UNL A   1      44.862  21.140  24.692  1.00  0.00     0.040 A 
ATOM     69  C   UNL A   1      45.805  23.288  24.239  1.00  0.00     0.040 A 
ATOM     70  F   UNL A   1      45.147  25.154  25.413  1.00  0.00    -0.206 F 
ATOM     71  C   UNL A   1      45.792  21.921  24.017  1.00  0.00     0.006 A 
ENDBRANCH  50  64
BRANCH  51  72
ATOM     72  C   UNL A   1      46.984  30.736  28.284  1.00  0.00     0.057 A 
ATOM     73  C   UNL A   1      46.845  31.271  26.995  1.00  0.00     0.134 A 
ATOM     74  C   UNL A   1      47.748  31.491  29.189  1.00  0.00     0.134 A 
ATOM     75  F   UNL A   1      46.109  30.638  26.070  1.00  0.00    -0.206 F 
ATOM     76  C   UNL A   1      47.396  32.508  26.639  1.00  0.00     0.040 A 
ATOM     77  C   UNL A   1      48.309  32.725  28.845  1.00  0.00     0.040 A 
ATOM     78  F   UNL A   1      47.894  31.101  30.464  1.00  0.00    -0.206 F 
ATOM     79  C   UNL A   1      48.117  33.248  27.571  1.00  0.00     0.006 A 
ENDBRANCH  51  72
BRANCH  63  80
ATOM     80  C   UNL A   1      45.465  25.907  31.906  1.00  0.00     0.057 A 
ATOM     81  C   UNL A   1      46.452  25.733  32.889  1.00  0.00     0.134 A 
ATOM     82  C   UNL A   1      44.333  26.639  32.280  1.00  0.00     0.134 A 
ATOM     83  F   UNL A   1      47.618  25.138  32.608  1.00  0.00    -0.206 F 
ATOM     84  C   UNL A   1      46.293  26.209  34.195  1.00  0.00     0.040 A 
ATOM     85  C   UNL A   1      44.176  27.151  33.571  1.00  0.00     0.040 A 
ATOM     86  F   UNL A   1      43.369  26.899  31.382  1.00  0.00    -0.206 F 
ATOM     87  C   UNL A   1      45.151  26.925  34.538  1.00  0.00     0.006 A 
ENDBRANCH  63  80
ENDBRANCH  37  38
ENDBRANCH  29  32
ENDBRANCH  27  28
ENDBRANCH  26  27
ENDBRANCH  25  26
ENDBRANCH   3  25
TORSDOF 15
ENDMDL
MODEL 2
REMARK VINA RESULT:     -11.0      1.732      2.662
REMARK SMILES CCn1ccc([C@@H](C)NC(=O)[C@H](C)n2ccc(C(=O)NCCCNC(=O)c3ccc(-c4c5nc(c(-c6c(F)cccc6F)c6ccc([nH]6)c(-c6c(F)cccc6F)c6nc(c(-c7c(F)cccc7F)c7ccc4[nH]7)C=C6)C=C5)cc3)n2)n1
REMARK SMILES IDX 18 1 19 2 20 3 17 5 14 6 15 7 81 8 16 9 12 10 13 11 10 12
REMARK SMILES IDX 9 13 11 15 7 16 8 17 6 18 3 19 4 20 82 21 5 22 2 23 1 24
REMARK SMILES IDX 21 25 22 26 23 27 24 28 25 29 26 31 27 32 28 33 80 34 29 35
REMARK SMILES IDX 79 36 30 37 31 38 32 39 73 40 33 41 78 42 72 43 74 44 34 45
REMARK SMILES IDX 77 46 71 47 70 48 35 50 61 51 44 52 60 53 45 54 48 55 59 56
REMARK SMILES IDX 75 57 46 58 47 59 58 61 76 62 49 63 36 64 37 65 42 66 38 67
REMARK SMILES IDX 39 68 41 69 43 70 40 71 62 72 63 73 68 74 64 75 65 76 67 77
REMARK SMILES IDX 69 78 66 79 50 80 51 81 56 82 52 83 53 84 55 85 57 86 54 87
REMARK H PARENT 20 4 9 14 24 30 74 49 48 60
REMARK Flexibility Score: inf
ROOT
ATOM      1  C   UNL A   1      31.018  26.336  25.469  1.00  0.00     0.271 C 
ATOM      2  O   UNL A   1      29.877  26.578  25.063  1.00  0.00    -0.267 OA
ATOM      3  N   UNL A   1      31.766  27.404  25.928  1.00  0.00    -0.351 N 
ATOM      4  H   UNL A   1      31.330  28.281  25.836  1.00  0.00     0.163 HD
ENDROOT
BRANCH   1   5
ATOM      5  C   UNL A   1      31.552  24.964  25.482  1.00  0.00     0.150 A 
ATOM      6  N   UNL A   1      32.427  23.129  24.804  1.00  0.00    -0.260 N 
ATOM      7  C   UNL A   1      32.255  22.949  26.144  1.00  0.00     0.110 A 
ATOM      8  N   UNL A   1      32.021  24.342  24.392  1.00  0.00    -0.167 NA
ATOM      9  C   UNL A   1      31.664  24.104  26.608  1.00  0.00     0.056 A 
BRANCH   6  10
ATOM     10  C   UNL A   1      33.064  22.270  23.813  1.00  0.00     0.193 C 
ATOM     11  C   UNL A   1      32.168  21.601  22.770  1.00  0.00     0.044 C 
BRANCH  10  12
ATOM     12  C   UNL A   1      34.280  22.971  23.199  1.00  0.00     0.245 C 
ATOM     13  N   UNL A   1      35.447  23.134  23.882  1.00  0.00    -0.346 N 
ATOM     14  H   UNL A   1      36.181  23.535  23.361  1.00  0.00     0.164 HD
ATOM     15  O   UNL A   1      34.231  23.440  22.056  1.00  0.00    -0.273 OA
BRANCH  13  16
ATOM     16  C   UNL A   1      35.776  22.809  25.263  1.00  0.00     0.130 C 
ATOM     17  C   UNL A   1      36.089  24.095  26.021  1.00  0.00     0.038 C 
BRANCH  16  18
ATOM     18  C   UNL A   1      36.909  21.825  25.295  1.00  0.00     0.084 A 
ATOM     19  N   UNL A   1      38.876  21.108  25.637  1.00  0.00    -0.273 N 
ATOM     20  C   UNL A   1      38.202  20.031  25.141  1.00  0.00     0.109 A 
ATOM     21  N   UNL A   1      38.122  22.218  25.712  1.00  0.00    -0.176 NA
ATOM     22  C   UNL A   1      36.918  20.462  24.908  1.00  0.00     0.047 A 
BRANCH  19  23
ATOM     23  C   UNL A   1      40.255  21.139  26.088  1.00  0.00     0.141 C 
ATOM     24  C   UNL A   1      40.416  21.828  27.432  1.00  0.00     0.029 C 
ENDBRANCH  19  23
ENDBRANCH  16  18
ENDBRANCH  13  16
ENDBRANCH  10  12
ENDBRANCH   6  10
ENDBRANCH   1   5
BRANCH   3  25
ATOM     25  C   UNL A   1      33.097  27.444  26.526  1.00  0.00     0.118 C 
BRANCH  25  26
ATOM     26  C   UNL A   1      33.712  28.848  26.523  1.00  0.00     0.042 C 
BRANCH  26  27
ATOM     27  C   UNL A   1      35.123  28.853  27.100  1.00  0.00     0.118 C 
BRANCH  27  28
ATOM     28  N   UNL A   1      35.247  29.697  28.296  1.00  0.00    -0.352 N 
ATOM     29  C   UNL A   1      36.277  29.758  29.212  1.00  0.00     0.251 C 
ATOM     30  H   UNL A   1      34.491  30.303  28.468  1.00  0.00     0.163 HD
ATOM     31  O   UNL A   1      36.111  30.268  30.319  1.00  0.00    -0.269 OA
BRANCH  29  32
ATOM     32  C   UNL A   1      37.586  29.191  28.854  1.00  0.00     0.039 A 
ATOM     33  C   UNL A   1      38.295  29.645  27.739  1.00  0.00     0.014 A 
ATOM     34  C   UNL A   1      38.126  28.222  29.691  1.00  0.00     0.014 A 
ATOM     35  C   UNL A   1      39.596  29.189  27.541  1.00  0.00     0.010 A 
ATOM     36  C   UNL A   1      39.457  27.910  29.595  1.00  0.00     0.010 A 
ATOM     37  C   UNL A   1      40.189  28.345  28.496  1.00  0.00    -0.014 A 
BRANCH  37  38
ATOM     38  C   UNL A   1      41.609  28.010  28.419  1.00  0.00     0.031 A 
ATOM     39  C   UNL A   1      41.914  26.747  27.690  1.00  0.00     0.074 A 
ATOM     40  C   UNL A   1      42.600  28.854  28.784  1.00  0.00     0.049 A 
ATOM     41  N   UNL A   1      42.416  25.660  28.174  1.00  0.00    -0.248 NA
ATOM     42  C   UNL A   1      41.501  26.637  26.281  1.00  0.00     0.031 C 
ATOM     43  C   UNL A   1      42.502  30.247  29.234  1.00  0.00     0.029 A 
ATOM     44  N   UNL A   1      43.947  28.657  28.732  1.00  0.00    -0.354 N 
ATOM     45  C   UNL A   1      42.570  24.792  27.097  1.00  0.00     0.074 A 
ATOM     46  C   UNL A   1      41.845  25.377  25.998  1.00  0.00     0.031 C 
ATOM     47  C   UNL A   1      43.720  30.831  29.190  1.00  0.00     0.029 A 
ATOM     48  C   UNL A   1      44.707  29.811  28.893  1.00  0.00     0.049 A 
ATOM     49  H   UNL A   1      44.349  27.771  28.593  1.00  0.00     0.167 HD
ATOM     50  C   UNL A   1      43.476  23.776  27.134  1.00  0.00     0.037 A 
ATOM     51  C   UNL A   1      46.054  29.922  28.790  1.00  0.00     0.037 A 
ATOM     52  C   UNL A   1      43.895  23.498  28.486  1.00  0.00     0.049 A 
ATOM     53  C   UNL A   1      46.621  28.563  28.946  1.00  0.00     0.074 A 
ATOM     54  C   UNL A   1      43.246  23.122  29.646  1.00  0.00     0.029 A 
ATOM     55  N   UNL A   1      45.118  23.976  28.888  1.00  0.00    -0.354 N 
ATOM     56  N   UNL A   1      46.613  27.899  30.066  1.00  0.00    -0.248 NA
ATOM     57  C   UNL A   1      46.803  27.764  27.745  1.00  0.00     0.031 C 
ATOM     58  C   UNL A   1      43.893  23.858  30.684  1.00  0.00     0.029 A 
ATOM     59  C   UNL A   1      44.939  24.578  30.108  1.00  0.00     0.049 A 
ATOM     60  H   UNL A   1      45.966  23.901  28.393  1.00  0.00     0.167 HD
ATOM     61  C   UNL A   1      46.333  26.594  29.694  1.00  0.00     0.074 A 
ATOM     62  C   UNL A   1      46.564  26.552  28.252  1.00  0.00     0.031 C 
ATOM     63  C   UNL A   1      45.665  25.752  30.537  1.00  0.00     0.037 A 
BRANCH  50  64
ATOM     64  C   UNL A   1      44.256  23.293  25.936  1.00  0.00     0.057 A 
ATOM     65  C   UNL A   1      44.316  21.915  25.658  1.00  0.00     0.134 A 
ATOM     66  C   UNL A   1      45.178  24.088  25.224  1.00  0.00     0.134 A 
ATOM     67  F   UNL A   1      43.508  21.050  26.288  1.00  0.00    -0.206 F 
ATOM     68  C   UNL A   1      45.267  21.366  24.787  1.00  0.00     0.040 A 
ATOM     69  C   UNL A   1      46.095  23.557  24.314  1.00  0.00     0.040 A 
ATOM     70  F   UNL A   1      45.312  25.401  25.445  1.00  0.00    -0.206 F 
ATOM     71  C   UNL A   1      46.164  22.188  24.116  1.00  0.00     0.006 A 
ENDBRANCH  50  64
BRANCH  51  72
ATOM     72  C   UNL A   1      46.881  31.062  28.341  1.00  0.00     0.057 A 
ATOM     73  C   UNL A   1      46.834  31.509  27.013  1.00  0.00     0.134 A 
ATOM     74  C   UNL A   1      47.497  31.924  29.263  1.00  0.00     0.134 A 
ATOM     75  F   UNL A   1      46.239  30.769  26.066  1.00  0.00    -0.206 F 
ATOM     76  C   UNL A   1      47.332  32.760  26.630  1.00  0.00     0.040 A 
ATOM     77  C   UNL A   1      48.004  33.175  28.893  1.00  0.00     0.040 A 
ATOM     78  F   UNL A   1      47.541  31.622  30.570  1.00  0.00    -0.206 F 
ATOM     79  C   UNL A   1      47.904  33.606  27.575  1.00  0.00     0.006 A 
ENDBRANCH  51  72
BRANCH  63  80
ATOM     80  C   UNL A   1      45.477  26.199  31.964  1.00  0.00     0.057 A 
ATOM     81  C   UNL A   1      44.347  26.881  32.442  1.00  0.00     0.134 A 
ATOM     82  C   UNL A   1      46.431  25.825  32.917  1.00  0.00     0.134 A 
ATOM     83  F   UNL A   1      43.328  27.193  31.632  1.00  0.00    -0.206 F 
ATOM     84  C   UNL A   1      44.203  27.229  33.789  1.00  0.00     0.040 A 
ATOM     85  C   UNL A   1      46.283  26.135  34.272  1.00  0.00     0.040 A 
ATOM     86  F   UNL A   1      47.513  25.120  32.550  1.00  0.00    -0.206 F 
ATOM     87  C   UNL A   1      45.174  26.851  34.711  1.00  0.00     0.006 A 
ENDBRANCH  63  80
ENDBRANCH  37  38
ENDBRANCH  29  32
ENDBRANCH  27  28
ENDBRANCH  26  27
ENDBRANCH  25  26
ENDBRANCH   3  25
TORSDOF 15
ENDMDL
MODEL 3
REMARK VINA RESULT:     -10.9      2.767      7.938
REMARK SMILES CCn1ccc([C@@H](C)NC(=O)[C@H](C)n2ccc(C(=O)NCCCNC(=O)c3ccc(-c4c5nc(c(-c6c(F)cccc6F)c6ccc([nH]6)c(-c6c(F)cccc6F)c6nc(c(-c7c(F)cccc7F)c7ccc4[nH]7)C=C6)C=C5)cc3)n2)n1
REMARK SMILES IDX 18 1 19 2 20 3 17 5 14 6 15 7 81 8 16 9 12 10 13 11 10 12
REMARK SMILES IDX 9 13 11 15 7 16 8 17 6 18 3 19 4 20 82 21 5 22 2 23 1 24
REMARK SMILES IDX 21 25 22 26 23 27 24 28 25 29 26 31 27 32 28 33 80 34 29 35
REMARK SMILES IDX 79 36 30 37 31 38 32 39 73 40 33 41 78 42 72 43 74 44 34 45
REMARK SMILES IDX 77 46 71 47 70 48 35 50 61 51 44 52 60 53 45 54 48 55 59 56
REMARK SMILES IDX 75 57 46 58 47 59 58 61 76 62 49 63 36 64 37 65 42 66 38 67
REMARK SMILES IDX 39 68 41 69 43 70 40 71 62 72 63 73 68 74 64 75 65 76 67 77
REMARK SMILES IDX 69 78 66 79 50 80 51 81 56 82 52 83 53 84 55 85 57 86 54 87
REMARK H PARENT 20 4 9 14 24 30 74 49 48 60
REMARK Flexibility Score: inf
ROOT
ATOM      1  C   UNL A   1      34.308  19.925  25.168  1.00  0.00     0.271 C 
ATOM      2  O   UNL A   1      33.496  19.052  24.848  1.00  0.00    -0.267 OA
ATOM      3  N   UNL A   1      35.643  19.669  24.919  1.00  0.00    -0.351 N 
ATOM      4  H   UNL A   1      35.829  18.775  24.552  1.00  0.00     0.163 HD
ENDROOT
BRANCH   1   5
ATOM      5  C   UNL A   1      33.871  21.194  25.773  1.00  0.00     0.150 A 
ATOM      6  N   UNL A   1      33.074  23.174  25.962  1.00  0.00    -0.260 N 
ATOM      7  C   UNL A   1      33.358  22.798  27.242  1.00  0.00     0.110 A 
ATOM      8  N   UNL A   1      33.365  22.215  25.068  1.00  0.00    -0.167 NA
ATOM      9  C   UNL A   1      33.902  21.535  27.153  1.00  0.00     0.056 A 
BRANCH   6  10
ATOM     10  C   UNL A   1      32.425  24.378  25.458  1.00  0.00     0.193 C 
ATOM     11  C   UNL A   1      31.518  25.152  26.415  1.00  0.00     0.044 C 
BRANCH  10  12
ATOM     12  C   UNL A   1      33.438  25.272  24.737  1.00  0.00     0.245 C 
ATOM     13  N   UNL A   1      33.103  26.024  23.653  1.00  0.00    -0.346 N 
ATOM     14  H   UNL A   1      33.818  26.613  23.317  1.00  0.00     0.164 HD
ATOM     15  O   UNL A   1      34.618  25.319  25.108  1.00  0.00    -0.273 OA
BRANCH  13  16
ATOM     16  C   UNL A   1      31.850  26.092  22.913  1.00  0.00     0.130 C 
ATOM     17  C   UNL A   1      32.117  25.777  21.444  1.00  0.00     0.038 C 
BRANCH  16  18
ATOM     18  C   UNL A   1      31.216  27.438  23.113  1.00  0.00     0.084 A 
ATOM     19  N   UNL A   1      30.084  29.165  22.627  1.00  0.00    -0.273 N 
ATOM     20  C   UNL A   1      30.511  29.384  23.904  1.00  0.00     0.109 A 
ATOM     21  N   UNL A   1      30.523  28.004  22.112  1.00  0.00    -0.176 NA
ATOM     22  C   UNL A   1      31.250  28.279  24.252  1.00  0.00     0.047 A 
BRANCH  19  23
ATOM     23  C   UNL A   1      29.221  30.024  21.839  1.00  0.00     0.141 C 
ATOM     24  C   UNL A   1      28.855  31.309  22.563  1.00  0.00     0.029 C 
ENDBRANCH  19  23
ENDBRANCH  16  18
ENDBRANCH  13  16
ENDBRANCH  10  12
ENDBRANCH   6  10
ENDBRANCH   1   5
BRANCH   3  25
ATOM     25  C   UNL A   1      36.823  20.506  25.112  1.00  0.00     0.118 C 
BRANCH  25  26
ATOM     26  C   UNL A   1      38.134  19.772  24.809  1.00  0.00     0.042 C 
BRANCH  26  27
ATOM     27  C   UNL A   1      39.207  20.069  25.850  1.00  0.00     0.118 C 
BRANCH  27  28
ATOM     28  N   UNL A   1      40.381  19.195  25.725  1.00  0.00    -0.352 N 
ATOM     29  C   UNL A   1      41.718  19.516  25.836  1.00  0.00     0.251 C 
ATOM     30  H   UNL A   1      40.187  18.249  25.537  1.00  0.00     0.163 HD
ATOM     31  O   UNL A   1      42.588  18.764  25.400  1.00  0.00    -0.269 OA
BRANCH  29  32
ATOM     32  C   UNL A   1      42.097  20.785  26.475  1.00  0.00     0.039 A 
ATOM     33  C   UNL A   1      42.316  21.942  25.723  1.00  0.00     0.014 A 
ATOM     34  C   UNL A   1      42.178  20.816  27.863  1.00  0.00     0.014 A 
ATOM     35  C   UNL A   1      42.512  23.148  26.391  1.00  0.00     0.010 A 
ATOM     36  C   UNL A   1      42.195  22.022  28.513  1.00  0.00     0.010 A 
ATOM     37  C   UNL A   1      42.414  23.190  27.792  1.00  0.00    -0.014 A 
BRANCH  37  38
ATOM     38  C   UNL A   1      42.419  24.466  28.505  1.00  0.00     0.031 A 
ATOM     39  C   UNL A   1      41.198  25.296  28.306  1.00  0.00     0.074 A 
ATOM     40  C   UNL A   1      43.340  24.801  29.436  1.00  0.00     0.049 A 
ATOM     41  N   UNL A   1      41.113  26.442  27.716  1.00  0.00    -0.248 NA
ATOM     42  C   UNL A   1      39.897  24.733  28.705  1.00  0.00     0.031 C 
ATOM     43  C   UNL A   1      44.434  23.989  29.981  1.00  0.00     0.029 A 
ATOM     44  N   UNL A   1      43.427  25.943  30.173  1.00  0.00    -0.354 N 
ATOM     45  C   UNL A   1      39.786  26.843  27.840  1.00  0.00     0.074 A 
ATOM     46  C   UNL A   1      39.056  25.692  28.306  1.00  0.00     0.031 C 
ATOM     47  C   UNL A   1      44.916  24.565  31.105  1.00  0.00     0.029 A 
ATOM     48  C   UNL A   1      44.302  25.871  31.252  1.00  0.00     0.049 A 
ATOM     49  H   UNL A   1      42.912  26.754  29.960  1.00  0.00     0.167 HD
ATOM     50  C   UNL A   1      39.438  28.158  27.769  1.00  0.00     0.037 A 
ATOM     51  C   UNL A   1      44.508  26.816  32.201  1.00  0.00     0.037 A 
ATOM     52  C   UNL A   1      40.486  28.945  27.171  1.00  0.00     0.049 A 
ATOM     53  C   UNL A   1      44.018  28.102  31.654  1.00  0.00     0.074 A 
ATOM     54  C   UNL A   1      41.139  28.929  25.953  1.00  0.00     0.029 A 
ATOM     55  N   UNL A   1      41.286  29.687  28.005  1.00  0.00    -0.354 N 
ATOM     56  N   UNL A   1      44.597  28.743  30.679  1.00  0.00    -0.248 NA
ATOM     57  C   UNL A   1      42.630  28.456  31.900  1.00  0.00     0.031 C 
ATOM     58  C   UNL A   1      42.503  29.215  26.263  1.00  0.00     0.029 A 
ATOM     59  C   UNL A   1      42.587  29.459  27.634  1.00  0.00     0.049 A 
ATOM     60  H   UNL A   1      40.981  30.275  28.735  1.00  0.00     0.167 HD
ATOM     61  C   UNL A   1      43.549  29.228  29.913  1.00  0.00     0.074 A 
ATOM     62  C   UNL A   1      42.369  29.112  30.767  1.00  0.00     0.031 C 
ATOM     63  C   UNL A   1      43.689  29.407  28.566  1.00  0.00     0.037 A 
BRANCH  50  64
ATOM     64  C   UNL A   1      38.322  28.781  28.571  1.00  0.00     0.057 A 
ATOM     65  C   UNL A   1      37.463  29.712  27.957  1.00  0.00     0.134 A 
ATOM     66  C   UNL A   1      38.238  28.728  29.977  1.00  0.00     0.134 A 
ATOM     67  F   UNL A   1      37.466  29.876  26.625  1.00  0.00    -0.206 F 
ATOM     68  C   UNL A   1      36.635  30.569  28.693  1.00  0.00     0.040 A 
ATOM     69  C   UNL A   1      37.376  29.541  30.718  1.00  0.00     0.040 A 
ATOM     70  F   UNL A   1      39.053  27.966  30.715  1.00  0.00    -0.206 F 
ATOM     71  C   UNL A   1      36.593  30.488  30.079  1.00  0.00     0.006 A 
ENDBRANCH  50  64
BRANCH  51  72
ATOM     72  C   UNL A   1      44.881  26.667  33.623  1.00  0.00     0.057 A 
ATOM     73  C   UNL A   1      45.945  27.399  34.171  1.00  0.00     0.134 A 
ATOM     74  C   UNL A   1      44.022  26.042  34.542  1.00  0.00     0.134 A 
ATOM     75  F   UNL A   1      46.801  28.056  33.375  1.00  0.00    -0.206 F 
ATOM     76  C   UNL A   1      46.120  27.538  35.553  1.00  0.00     0.040 A 
ATOM     77  C   UNL A   1      44.188  26.168  35.925  1.00  0.00     0.040 A 
ATOM     78  F   UNL A   1      42.939  25.368  34.127  1.00  0.00    -0.206 F 
ATOM     79  C   UNL A   1      45.229  26.936  36.436  1.00  0.00     0.006 A 
ENDBRANCH  51  72
BRANCH  63  80
ATOM     80  C   UNL A   1      45.079  29.310  27.991  1.00  0.00     0.057 A 
ATOM     81  C   UNL A   1      45.671  28.120  27.538  1.00  0.00     0.134 A 
ATOM     82  C   UNL A   1      45.805  30.488  27.785  1.00  0.00     0.134 A 
ATOM     83  F   UNL A   1      45.019  26.953  27.592  1.00  0.00    -0.206 F 
ATOM     84  C   UNL A   1      46.947  28.097  26.966  1.00  0.00     0.040 A 
ATOM     85  C   UNL A   1      47.066  30.484  27.182  1.00  0.00     0.040 A 
ATOM     86  F   UNL A   1      45.284  31.674  28.138  1.00  0.00    -0.206 F 
ATOM     87  C   UNL A   1      47.648  29.284  26.784  1.00  0.00     0.006 A 
ENDBRANCH  63  80
ENDBRANCH  37  38
ENDBRANCH  29  32
ENDBRANCH  27  28
ENDBRANCH  26  27
ENDBRANCH  25  26
ENDBRANCH   3  25
TORSDOF 15
ENDMDL
