MODEL 1
REMARK VINA RESULT:     -11.8      0.000      0.000
REMARK SMILES CCc1cc(OC(F)(F)F)cc2c1O[C@@H](C(F)(F)F)C(C(=O)NCCCNC(=O)c1ccc(-c3c4nc(c(-c5c(F)cccc5F)c5ccc([nH]5)c(-c5c(F)cccc5F)c5nc(c(-c6c(F)cccc6F)c6ccc3[nH]6)C=C5)C=C4)cc1)=C2
REMARK SMILES IDX 25 1 24 2 23 3 21 4 22 5 20 7 3 8 4 9 13 10 5 11 12 12 14 13
REMARK SMILES IDX 11 14 84 15 15 16 2 17 1 18 6 19 7 20 8 21 9 22 10 23 16 24
REMARK SMILES IDX 17 25 18 26 19 27 26 28 27 29 28 30 29 32 30 33 31 34 83 35
REMARK SMILES IDX 32 36 82 37 33 38 34 39 35 40 76 41 36 42 81 43 75 44 77 45
REMARK SMILES IDX 37 46 80 47 74 48 73 49 38 51 64 52 47 53 63 54 48 55 51 56
REMARK SMILES IDX 62 57 78 58 49 59 50 60 61 62 79 63 52 64 39 65 40 66 45 67
REMARK SMILES IDX 41 68 42 69 44 70 46 71 43 72 65 73 66 74 71 75 67 76 68 77
REMARK SMILES IDX 70 78 72 79 69 80 53 81 54 82 59 83 55 84 56 85 58 86 60 87
REMARK SMILES IDX 57 88
REMARK H PARENT 23 6 27 31 77 50 51 61
REMARK Flexibility Score: inf
ROOT
ATOM      1  C   UNL A   1      31.709  31.162  25.962  1.00  0.00     0.042 C 
ENDROOT
BRANCH   1   2
ATOM      2  C   UNL A   1      32.021  29.712  25.581  1.00  0.00     0.118 C 
BRANCH   2   3
ATOM      3  N   UNL A   1      31.626  28.813  26.655  1.00  0.00    -0.352 N 
ATOM      4  C   UNL A   1      31.616  27.459  26.777  1.00  0.00     0.251 C 
ATOM      5  O   UNL A   1      31.054  26.981  27.758  1.00  0.00    -0.270 OA
ATOM      6  H   UNL A   1      31.299  29.280  27.457  1.00  0.00     0.163 HD
BRANCH   4   7
ATOM      7  C   UNL A   1      32.310  26.554  25.825  1.00  0.00     0.067 C 
ATOM      8  C   UNL A   1      33.927  23.706  23.179  1.00  0.00    -0.002 A 
ATOM      9  C   UNL A   1      35.206  23.179  23.456  1.00  0.00     0.054 A 
ATOM     10  C   UNL A   1      33.392  24.684  24.032  1.00  0.00     0.131 A 
ATOM     11  C   UNL A   1      35.950  23.636  24.542  1.00  0.00     0.130 A 
ATOM     12  C   UNL A   1      34.136  25.149  25.113  1.00  0.00     0.021 A 
ATOM     13  O   UNL A   1      32.112  25.095  23.803  1.00  0.00    -0.475 OA
ATOM     14  C   UNL A   1      35.411  24.628  25.362  1.00  0.00     0.058 A 
ATOM     15  C   UNL A   1      33.556  26.108  26.036  1.00  0.00     0.025 C 
ATOM     16  C   UNL A   1      31.605  26.269  24.502  1.00  0.00     0.314 C 
BRANCH   8  17
ATOM     17  C   UNL A   1      33.172  23.200  21.969  1.00  0.00     0.036 C 
ATOM     18  C   UNL A   1      32.388  21.931  22.280  1.00  0.00     0.009 C 
ENDBRANCH   8  17
BRANCH  11  19
ATOM     19  O   UNL A   1      37.187  23.205  24.925  1.00  0.00    -0.406 OA
BRANCH  19  20
ATOM     20  C   UNL A   1      37.307  21.872  25.392  1.00  0.00     0.573 C 
ATOM     21  F   UNL A   1      36.223  21.508  26.109  1.00  0.00    -0.132 F 
ATOM     22  F   UNL A   1      37.482  21.012  24.367  1.00  0.00    -0.132 F 
ATOM     23  F   UNL A   1      38.389  21.794  26.197  1.00  0.00    -0.132 F 
ENDBRANCH  19  20
ENDBRANCH  11  19
BRANCH  16  24
ATOM     24  C   UNL A   1      30.064  26.141  24.540  1.00  0.00     0.429 C 
ATOM     25  F   UNL A   1      29.431  27.322  24.362  1.00  0.00    -0.167 F 
ATOM     26  F   UNL A   1      29.621  25.341  23.531  1.00  0.00    -0.167 F 
ATOM     27  F   UNL A   1      29.621  25.590  25.694  1.00  0.00    -0.167 F 
ENDBRANCH  16  24
ENDBRANCH   4   7
ENDBRANCH   2   3
ENDBRANCH   1   2
BRANCH   1  28
ATOM     28  C   UNL A   1      32.598  31.681  27.088  1.00  0.00     0.118 C 
BRANCH  28  29
ATOM     29  N   UNL A   1      32.324  33.080  27.389  1.00  0.00    -0.352 N 
ATOM     30  C   UNL A   1      32.993  33.940  28.226  1.00  0.00     0.251 C 
ATOM     31  H   UNL A   1      31.545  33.464  26.927  1.00  0.00     0.163 HD
ATOM     32  O   UNL A   1      32.482  35.005  28.549  1.00  0.00    -0.269 OA
BRANCH  30  33
ATOM     33  C   UNL A   1      34.327  33.569  28.741  1.00  0.00     0.039 A 
ATOM     34  C   UNL A   1      34.427  32.941  29.986  1.00  0.00     0.014 A 
ATOM     35  C   UNL A   1      35.474  33.852  27.998  1.00  0.00     0.014 A 
ATOM     36  C   UNL A   1      35.678  32.533  30.453  1.00  0.00     0.010 A 
ATOM     37  C   UNL A   1      36.707  33.379  28.429  1.00  0.00     0.010 A 
ATOM     38  C   UNL A   1      36.822  32.714  29.659  1.00  0.00    -0.014 A 
BRANCH  38  39
ATOM     39  C   UNL A   1      38.156  32.218  30.079  1.00  0.00     0.031 A 
ATOM     40  C   UNL A   1      38.667  30.909  29.546  1.00  0.00     0.074 A 
ATOM     41  C   UNL A   1      38.855  32.891  31.014  1.00  0.00     0.049 A 
ATOM     42  N   UNL A   1      39.720  30.223  29.907  1.00  0.00    -0.248 NA
ATOM     43  C   UNL A   1      37.866  30.272  28.489  1.00  0.00     0.031 C 
ATOM     44  C   UNL A   1      38.449  34.156  31.627  1.00  0.00     0.029 A 
ATOM     45  N   UNL A   1      40.041  32.587  31.633  1.00  0.00    -0.354 N 
ATOM     46  C   UNL A   1      39.697  29.066  29.137  1.00  0.00     0.074 A 
ATOM     47  C   UNL A   1      38.500  29.119  28.328  1.00  0.00     0.031 C 
ATOM     48  C   UNL A   1      39.376  34.527  32.525  1.00  0.00     0.029 A 
ATOM     49  C   UNL A   1      40.411  33.500  32.591  1.00  0.00     0.049 A 
ATOM     50  H   UNL A   1      40.577  31.792  31.411  1.00  0.00     0.167 HD
ATOM     51  C   UNL A   1      40.603  28.061  29.097  1.00  0.00     0.037 A 
ATOM     52  C   UNL A   1      41.455  33.497  33.441  1.00  0.00     0.037 A 
ATOM     53  C   UNL A   1      41.800  28.023  29.894  1.00  0.00     0.049 A 
ATOM     54  C   UNL A   1      42.428  32.352  33.403  1.00  0.00     0.074 A 
ATOM     55  C   UNL A   1      42.807  27.074  29.895  1.00  0.00     0.029 A 
ATOM     56  N   UNL A   1      42.149  28.978  30.840  1.00  0.00    -0.354 N 
ATOM     57  N   UNL A   1      42.424  31.289  32.635  1.00  0.00    -0.248 NA
ATOM     58  C   UNL A   1      43.553  32.403  34.348  1.00  0.00     0.031 C 
ATOM     59  C   UNL A   1      43.738  27.426  30.876  1.00  0.00     0.029 A 
ATOM     60  C   UNL A   1      43.344  28.627  31.444  1.00  0.00     0.049 A 
ATOM     61  H   UNL A   1      41.625  29.785  31.048  1.00  0.00     0.167 HD
ATOM     62  C   UNL A   1      43.562  30.568  32.975  1.00  0.00     0.074 A 
ATOM     63  C   UNL A   1      44.234  31.316  34.016  1.00  0.00     0.031 C 
ATOM     64  C   UNL A   1      44.010  29.394  32.466  1.00  0.00     0.037 A 
BRANCH  51  65
ATOM     65  C   UNL A   1      40.329  26.917  28.163  1.00  0.00     0.057 A 
ATOM     66  C   UNL A   1      39.491  25.852  28.520  1.00  0.00     0.134 A 
ATOM     67  C   UNL A   1      40.886  26.894  26.877  1.00  0.00     0.134 A 
ATOM     68  F   UNL A   1      38.935  25.805  29.740  1.00  0.00    -0.206 F 
ATOM     69  C   UNL A   1      39.242  24.791  27.647  1.00  0.00     0.040 A 
ATOM     70  C   UNL A   1      40.618  25.855  25.984  1.00  0.00     0.040 A 
ATOM     71  F   UNL A   1      41.691  27.885  26.465  1.00  0.00    -0.206 F 
ATOM     72  C   UNL A   1      39.802  24.796  26.371  1.00  0.00     0.006 A 
ENDBRANCH  51  65
BRANCH  52  73
ATOM     73  C   UNL A   1      41.642  34.620  34.397  1.00  0.00     0.057 A 
ATOM     74  C   UNL A   1      42.343  35.773  34.024  1.00  0.00     0.134 A 
ATOM     75  C   UNL A   1      41.135  34.568  35.701  1.00  0.00     0.134 A 
ATOM     76  F   UNL A   1      42.866  35.875  32.794  1.00  0.00    -0.206 F 
ATOM     77  C   UNL A   1      42.555  36.822  34.920  1.00  0.00     0.040 A 
ATOM     78  C   UNL A   1      41.315  35.622  36.599  1.00  0.00     0.040 A 
ATOM     79  F   UNL A   1      40.444  33.497  36.119  1.00  0.00    -0.206 F 
ATOM     80  C   UNL A   1      42.035  36.750  36.211  1.00  0.00     0.006 A 
ENDBRANCH  52  73
BRANCH  64  81
ATOM     81  C   UNL A   1      45.319  28.870  32.983  1.00  0.00     0.057 A 
ATOM     82  C   UNL A   1      46.546  29.245  32.423  1.00  0.00     0.134 A 
ATOM     83  C   UNL A   1      45.349  28.026  34.101  1.00  0.00     0.134 A 
ATOM     84  F   UNL A   1      46.586  30.041  31.344  1.00  0.00    -0.206 F 
ATOM     85  C   UNL A   1      47.756  28.788  32.948  1.00  0.00     0.040 A 
ATOM     86  C   UNL A   1      46.553  27.585  34.653  1.00  0.00     0.040 A 
ATOM     87  F   UNL A   1      44.209  27.635  34.691  1.00  0.00    -0.206 F 
ATOM     88  C   UNL A   1      47.761  27.964  34.073  1.00  0.00     0.006 A 
ENDBRANCH  64  81
ENDBRANCH  38  39
ENDBRANCH  30  33
ENDBRANCH  28  29
ENDBRANCH   1  28
TORSDOF 14
ENDMDL
MODEL 2
REMARK VINA RESULT:     -11.7      3.620      8.663
REMARK SMILES CCc1cc(OC(F)(F)F)cc2c1O[C@@H](C(F)(F)F)C(C(=O)NCCCNC(=O)c1ccc(-c3c4nc(c(-c5c(F)cccc5F)c5ccc([nH]5)c(-c5c(F)cccc5F)c5nc(c(-c6c(F)cccc6F)c6ccc3[nH]6)C=C5)C=C4)cc1)=C2
REMARK SMILES IDX 25 1 24 2 23 3 21 4 22 5 20 7 3 8 4 9 13 10 5 11 12 12 14 13
REMARK SMILES IDX 11 14 84 15 15 16 2 17 1 18 6 19 7 20 8 21 9 22 10 23 16 24
REMARK SMILES IDX 17 25 18 26 19 27 26 28 27 29 28 30 29 32 30 33 31 34 83 35
REMARK SMILES IDX 32 36 82 37 33 38 34 39 35 40 76 41 36 42 81 43 75 44 77 45
REMARK SMILES IDX 37 46 80 47 74 48 73 49 38 51 64 52 47 53 63 54 48 55 51 56
REMARK SMILES IDX 62 57 78 58 49 59 50 60 61 62 79 63 52 64 39 65 40 66 45 67
REMARK SMILES IDX 41 68 42 69 44 70 46 71 43 72 65 73 66 74 71 75 67 76 68 77
REMARK SMILES IDX 70 78 72 79 69 80 53 81 54 82 59 83 55 84 56 85 58 86 60 87
REMARK SMILES IDX 57 88
REMARK H PARENT 23 6 27 31 77 50 51 61
REMARK Flexibility Score: inf
ROOT
ATOM      1  C   UNL A   1      37.169  20.177  25.387  1.00  0.00     0.042 C 
ENDROOT
BRANCH   1   2
ATOM      2  C   UNL A   1      36.112  21.281  25.299  1.00  0.00     0.118 C 
BRANCH   2   3
ATOM      3  N   UNL A   1      36.277  22.039  24.068  1.00  0.00    -0.352 N 
ATOM      4  C   UNL A   1      35.568  23.047  23.495  1.00  0.00     0.251 C 
ATOM      5  O   UNL A   1      35.863  23.370  22.348  1.00  0.00    -0.270 OA
ATOM      6  H   UNL A   1      37.063  21.766  23.542  1.00  0.00     0.163 HD
BRANCH   4   7
ATOM      7  C   UNL A   1      34.517  23.811  24.216  1.00  0.00     0.067 C 
ATOM      8  C   UNL A   1      31.321  26.002  25.864  1.00  0.00    -0.002 A 
ATOM      9  C   UNL A   1      31.605  27.223  26.512  1.00  0.00     0.054 A 
ATOM     10  C   UNL A   1      32.380  25.243  25.343  1.00  0.00     0.131 A 
ATOM     11  C   UNL A   1      32.917  27.665  26.665  1.00  0.00     0.130 A 
ATOM     12  C   UNL A   1      33.694  25.677  25.503  1.00  0.00     0.021 A 
ATOM     13  O   UNL A   1      32.069  24.123  24.628  1.00  0.00    -0.475 OA
ATOM     14  C   UNL A   1      33.957  26.882  26.164  1.00  0.00     0.058 A 
ATOM     15  C   UNL A   1      34.784  24.930  24.902  1.00  0.00     0.025 C 
ATOM     16  C   UNL A   1      33.127  23.183  24.281  1.00  0.00     0.314 C 
BRANCH   8  17
ATOM     17  C   UNL A   1      29.881  25.549  25.751  1.00  0.00     0.036 C 
ATOM     18  C   UNL A   1      29.177  26.190  24.561  1.00  0.00     0.009 C 
ENDBRANCH   8  17
BRANCH  11  19
ATOM     19  O   UNL A   1      33.324  28.825  27.257  1.00  0.00    -0.406 OA
BRANCH  19  20
ATOM     20  C   UNL A   1      33.024  30.045  26.600  1.00  0.00     0.573 C 
ATOM     21  F   UNL A   1      33.862  31.027  26.992  1.00  0.00    -0.132 F 
ATOM     22  F   UNL A   1      33.088  29.902  25.260  1.00  0.00    -0.132 F 
ATOM     23  F   UNL A   1      31.765  30.410  26.927  1.00  0.00    -0.132 F 
ENDBRANCH  19  20
ENDBRANCH  11  19
BRANCH  16  24
ATOM     24  C   UNL A   1      32.647  22.407  23.031  1.00  0.00     0.429 C 
ATOM     25  F   UNL A   1      33.036  21.113  23.033  1.00  0.00    -0.167 F 
ATOM     26  F   UNL A   1      31.288  22.373  22.977  1.00  0.00    -0.167 F 
ATOM     27  F   UNL A   1      33.068  22.976  21.879  1.00  0.00    -0.167 F 
ENDBRANCH  16  24
ENDBRANCH   4   7
ENDBRANCH   2   3
ENDBRANCH   1   2
BRANCH   1  28
ATOM     28  C   UNL A   1      38.571  20.721  25.647  1.00  0.00     0.118 C 
BRANCH  28  29
ATOM     29  N   UNL A   1      39.555  19.650  25.745  1.00  0.00    -0.352 N 
ATOM     30  C   UNL A   1      40.895  19.720  26.037  1.00  0.00     0.251 C 
ATOM     31  H   UNL A   1      39.208  18.745  25.575  1.00  0.00     0.163 HD
ATOM     32  O   UNL A   1      41.620  18.754  25.835  1.00  0.00    -0.269 OA
BRANCH  30  33
ATOM     33  C   UNL A   1      41.459  20.969  26.588  1.00  0.00     0.039 A 
ATOM     34  C   UNL A   1      41.939  21.947  25.711  1.00  0.00     0.014 A 
ATOM     35  C   UNL A   1      41.521  21.167  27.968  1.00  0.00     0.014 A 
ATOM     36  C   UNL A   1      42.418  23.155  26.221  1.00  0.00     0.010 A 
ATOM     37  C   UNL A   1      41.927  22.397  28.470  1.00  0.00     0.010 A 
ATOM     38  C   UNL A   1      42.378  23.404  27.603  1.00  0.00    -0.014 A 
BRANCH  38  39
ATOM     39  C   UNL A   1      42.796  24.706  28.178  1.00  0.00     0.031 A 
ATOM     40  C   UNL A   1      41.768  25.772  28.436  1.00  0.00     0.074 A 
ATOM     41  C   UNL A   1      44.104  24.963  28.368  1.00  0.00     0.049 A 
ATOM     42  N   UNL A   1      41.940  27.023  28.776  1.00  0.00    -0.248 NA
ATOM     43  C   UNL A   1      40.360  25.385  28.254  1.00  0.00     0.031 C 
ATOM     44  C   UNL A   1      45.197  24.019  28.127  1.00  0.00     0.029 A 
ATOM     45  N   UNL A   1      44.739  26.107  28.782  1.00  0.00    -0.354 N 
ATOM     46  C   UNL A   1      40.667  27.577  28.828  1.00  0.00     0.074 A 
ATOM     47  C   UNL A   1      39.737  26.541  28.435  1.00  0.00     0.031 C 
ATOM     48  C   UNL A   1      46.365  24.618  28.408  1.00  0.00     0.029 A 
ATOM     49  C   UNL A   1      46.109  26.001  28.796  1.00  0.00     0.049 A 
ATOM     50  H   UNL A   1      44.259  26.925  29.045  1.00  0.00     0.167 HD
ATOM     51  C   UNL A   1      40.306  28.831  29.189  1.00  0.00     0.037 A 
ATOM     52  C   UNL A   1      47.052  26.923  29.067  1.00  0.00     0.037 A 
ATOM     53  C   UNL A   1      41.237  29.851  29.594  1.00  0.00     0.049 A 
ATOM     54  C   UNL A   1      46.628  28.320  29.430  1.00  0.00     0.074 A 
ATOM     55  C   UNL A   1      40.971  31.139  30.023  1.00  0.00     0.029 A 
ATOM     56  N   UNL A   1      42.617  29.699  29.613  1.00  0.00    -0.354 N 
ATOM     57  N   UNL A   1      45.419  28.818  29.527  1.00  0.00    -0.248 NA
ATOM     58  C   UNL A   1      47.698  29.284  29.724  1.00  0.00     0.031 C 
ATOM     59  C   UNL A   1      42.191  31.783  30.252  1.00  0.00     0.029 A 
ATOM     60  C   UNL A   1      43.215  30.878  30.025  1.00  0.00     0.049 A 
ATOM     61  H   UNL A   1      43.097  28.875  29.369  1.00  0.00     0.167 HD
ATOM     62  C   UNL A   1      45.581  30.138  29.930  1.00  0.00     0.074 A 
ATOM     63  C   UNL A   1      47.005  30.362  30.063  1.00  0.00     0.031 C 
ATOM     64  C   UNL A   1      44.634  31.077  30.172  1.00  0.00     0.037 A 
BRANCH  51  65
ATOM     65  C   UNL A   1      38.843  29.169  29.156  1.00  0.00     0.057 A 
ATOM     66  C   UNL A   1      38.200  29.568  27.977  1.00  0.00     0.134 A 
ATOM     67  C   UNL A   1      38.059  29.064  30.313  1.00  0.00     0.134 A 
ATOM     68  F   UNL A   1      38.894  29.700  26.836  1.00  0.00    -0.206 F 
ATOM     69  C   UNL A   1      36.840  29.882  27.955  1.00  0.00     0.040 A 
ATOM     70  C   UNL A   1      36.691  29.344  30.296  1.00  0.00     0.040 A 
ATOM     71  F   UNL A   1      38.606  28.680  31.476  1.00  0.00    -0.206 F 
ATOM     72  C   UNL A   1      36.080  29.763  29.116  1.00  0.00     0.006 A 
ENDBRANCH  51  65
BRANCH  52  73
ATOM     73  C   UNL A   1      48.491  26.556  29.016  1.00  0.00     0.057 A 
ATOM     74  C   UNL A   1      49.240  26.741  27.847  1.00  0.00     0.134 A 
ATOM     75  C   UNL A   1      49.150  26.007  30.122  1.00  0.00     0.134 A 
ATOM     76  F   UNL A   1      48.661  27.247  26.749  1.00  0.00    -0.206 F 
ATOM     77  C   UNL A   1      50.584  26.371  27.773  1.00  0.00     0.040 A 
ATOM     78  C   UNL A   1      50.501  25.659  30.071  1.00  0.00     0.040 A 
ATOM     79  F   UNL A   1      48.493  25.815  31.277  1.00  0.00    -0.206 F 
ATOM     80  C   UNL A   1      51.220  25.833  28.890  1.00  0.00     0.006 A 
ENDBRANCH  52  73
BRANCH  64  81
ATOM     81  C   UNL A   1      45.098  32.419  30.662  1.00  0.00     0.057 A 
ATOM     82  C   UNL A   1      45.361  33.481  29.789  1.00  0.00     0.134 A 
ATOM     83  C   UNL A   1      45.220  32.664  32.036  1.00  0.00     0.134 A 
ATOM     84  F   UNL A   1      45.274  33.308  28.462  1.00  0.00    -0.206 F 
ATOM     85  C   UNL A   1      45.742  34.736  30.265  1.00  0.00     0.040 A 
ATOM     86  C   UNL A   1      45.573  33.922  32.526  1.00  0.00     0.040 A 
ATOM     87  F   UNL A   1      44.975  31.691  32.927  1.00  0.00    -0.206 F 
ATOM     88  C   UNL A   1      45.839  34.962  31.638  1.00  0.00     0.006 A 
ENDBRANCH  64  81
ENDBRANCH  38  39
ENDBRANCH  30  33
ENDBRANCH  28  29
ENDBRANCH   1  28
TORSDOF 14
ENDMDL
MODEL 3
REMARK VINA RESULT:     -11.7      3.629      8.563
REMARK SMILES CCc1cc(OC(F)(F)F)cc2c1O[C@@H](C(F)(F)F)C(C(=O)NCCCNC(=O)c1ccc(-c3c4nc(c(-c5c(F)cccc5F)c5ccc([nH]5)c(-c5c(F)cccc5F)c5nc(c(-c6c(F)cccc6F)c6ccc3[nH]6)C=C5)C=C4)cc1)=C2
REMARK SMILES IDX 25 1 24 2 23 3 21 4 22 5 20 7 3 8 4 9 13 10 5 11 12 12 14 13
REMARK SMILES IDX 11 14 84 15 15 16 2 17 1 18 6 19 7 20 8 21 9 22 10 23 16 24
REMARK SMILES IDX 17 25 18 26 19 27 26 28 27 29 28 30 29 32 30 33 31 34 83 35
REMARK SMILES IDX 32 36 82 37 33 38 34 39 35 40 76 41 36 42 81 43 75 44 77 45
REMARK SMILES IDX 37 46 80 47 74 48 73 49 38 51 64 52 47 53 63 54 48 55 51 56
REMARK SMILES IDX 62 57 78 58 49 59 50 60 61 62 79 63 52 64 39 65 40 66 45 67
REMARK SMILES IDX 41 68 42 69 44 70 46 71 43 72 65 73 66 74 71 75 67 76 68 77
REMARK SMILES IDX 70 78 72 79 69 80 53 81 54 82 59 83 55 84 56 85 58 86 60 87
REMARK SMILES IDX 57 88
REMARK H PARENT 23 6 27 31 77 50 51 61
REMARK Flexibility Score: inf
ROOT
ATOM      1  C   UNL A   1      37.264  20.294  25.046  1.00  0.00     0.042 C 
ENDROOT
BRANCH   1   2
ATOM      2  C   UNL A   1      36.190  21.386  25.070  1.00  0.00     0.118 C 
BRANCH   2   3
ATOM      3  N   UNL A   1      35.151  21.048  26.032  1.00  0.00    -0.352 N 
ATOM      4  C   UNL A   1      34.061  21.715  26.493  1.00  0.00     0.251 C 
ATOM      5  O   UNL A   1      33.459  21.230  27.447  1.00  0.00    -0.270 OA
ATOM      6  H   UNL A   1      35.260  20.155  26.429  1.00  0.00     0.163 HD
BRANCH   4   7
ATOM      7  C   UNL A   1      33.532  22.948  25.853  1.00  0.00     0.067 C 
ATOM      8  C   UNL A   1      32.188  26.274  23.649  1.00  0.00    -0.002 A 
ATOM      9  C   UNL A   1      32.653  27.555  24.012  1.00  0.00     0.054 A 
ATOM     10  C   UNL A   1      32.598  25.160  24.398  1.00  0.00     0.131 A 
ATOM     11  C   UNL A   1      33.485  27.729  25.116  1.00  0.00     0.130 A 
ATOM     12  C   UNL A   1      33.422  25.332  25.508  1.00  0.00     0.021 A 
ATOM     13  O   UNL A   1      32.221  23.924  23.960  1.00  0.00    -0.475 OA
ATOM     14  C   UNL A   1      33.859  26.612  25.863  1.00  0.00     0.058 A 
ATOM     15  C   UNL A   1      33.905  24.175  26.240  1.00  0.00     0.025 C 
ATOM     16  C   UNL A   1      32.414  22.771  24.830  1.00  0.00     0.314 C 
BRANCH   8  17
ATOM     17  C   UNL A   1      31.259  26.140  22.461  1.00  0.00     0.036 C 
ATOM     18  C   UNL A   1      32.026  25.910  21.164  1.00  0.00     0.009 C 
ENDBRANCH   8  17
BRANCH  11  19
ATOM     19  O   UNL A   1      34.012  28.905  25.564  1.00  0.00    -0.406 OA
BRANCH  19  20
ATOM     20  C   UNL A   1      33.142  29.813  26.219  1.00  0.00     0.573 C 
ATOM     21  F   UNL A   1      33.833  30.818  26.797  1.00  0.00    -0.132 F 
ATOM     22  F   UNL A   1      32.235  30.322  25.359  1.00  0.00    -0.132 F 
ATOM     23  F   UNL A   1      32.477  29.148  27.189  1.00  0.00    -0.132 F 
ENDBRANCH  19  20
ENDBRANCH  11  19
BRANCH  16  24
ATOM     24  C   UNL A   1      32.490  21.525  23.915  1.00  0.00     0.429 C 
ATOM     25  F   UNL A   1      32.171  20.379  24.557  1.00  0.00    -0.167 F 
ATOM     26  F   UNL A   1      31.598  21.624  22.892  1.00  0.00    -0.167 F 
ATOM     27  F   UNL A   1      33.710  21.373  23.352  1.00  0.00    -0.167 F 
ENDBRANCH  16  24
ENDBRANCH   4   7
ENDBRANCH   2   3
ENDBRANCH   1   2
BRANCH   1  28
ATOM     28  C   UNL A   1      38.645  20.816  25.431  1.00  0.00     0.118 C 
BRANCH  28  29
ATOM     29  N   UNL A   1      39.608  19.733  25.582  1.00  0.00    -0.352 N 
ATOM     30  C   UNL A   1      40.928  19.784  25.958  1.00  0.00     0.251 C 
ATOM     31  H   UNL A   1      39.262  18.833  25.386  1.00  0.00     0.163 HD
ATOM     32  O   UNL A   1      41.652  18.810  25.795  1.00  0.00    -0.269 OA
BRANCH  30  33
ATOM     33  C   UNL A   1      41.472  21.023  26.550  1.00  0.00     0.039 A 
ATOM     34  C   UNL A   1      42.039  21.989  25.714  1.00  0.00     0.014 A 
ATOM     35  C   UNL A   1      41.430  21.222  27.932  1.00  0.00     0.014 A 
ATOM     36  C   UNL A   1      42.501  23.188  26.259  1.00  0.00     0.010 A 
ATOM     37  C   UNL A   1      41.820  22.445  28.463  1.00  0.00     0.010 A 
ATOM     38  C   UNL A   1      42.358  23.441  27.633  1.00  0.00    -0.014 A 
BRANCH  38  39
ATOM     39  C   UNL A   1      42.755  24.736  28.239  1.00  0.00     0.031 A 
ATOM     40  C   UNL A   1      41.719  25.799  28.474  1.00  0.00     0.074 A 
ATOM     41  C   UNL A   1      44.057  24.990  28.478  1.00  0.00     0.049 A 
ATOM     42  N   UNL A   1      41.879  27.045  28.835  1.00  0.00    -0.248 NA
ATOM     43  C   UNL A   1      40.319  25.415  28.238  1.00  0.00     0.031 C 
ATOM     44  C   UNL A   1      45.157  24.048  28.264  1.00  0.00     0.029 A 
ATOM     45  N   UNL A   1      44.676  26.128  28.928  1.00  0.00    -0.354 N 
ATOM     46  C   UNL A   1      40.606  27.599  28.850  1.00  0.00     0.074 A 
ATOM     47  C   UNL A   1      39.690  26.568  28.412  1.00  0.00     0.031 C 
ATOM     48  C   UNL A   1      46.315  24.643  28.592  1.00  0.00     0.029 A 
ATOM     49  C   UNL A   1      46.045  26.021  28.988  1.00  0.00     0.049 A 
ATOM     50  H   UNL A   1      44.187  26.943  29.184  1.00  0.00     0.167 HD
ATOM     51  C   UNL A   1      40.232  28.849  29.213  1.00  0.00     0.037 A 
ATOM     52  C   UNL A   1      46.978  26.940  29.303  1.00  0.00     0.037 A 
ATOM     53  C   UNL A   1      41.148  29.863  29.663  1.00  0.00     0.049 A 
ATOM     54  C   UNL A   1      46.542  28.332  29.669  1.00  0.00     0.074 A 
ATOM     55  C   UNL A   1      40.868  31.146  30.099  1.00  0.00     0.029 A 
ATOM     56  N   UNL A   1      42.527  29.711  29.728  1.00  0.00    -0.354 N 
ATOM     57  N   UNL A   1      45.331  28.829  29.729  1.00  0.00    -0.248 NA
ATOM     58  C   UNL A   1      47.601  29.292  30.011  1.00  0.00     0.031 C 
ATOM     59  C   UNL A   1      42.079  31.787  30.378  1.00  0.00     0.029 A 
ATOM     60  C   UNL A   1      43.110  30.884  30.176  1.00  0.00     0.049 A 
ATOM     61  H   UNL A   1      43.015  28.889  29.491  1.00  0.00     0.167 HD
ATOM     62  C   UNL A   1      45.478  30.144  30.154  1.00  0.00     0.074 A 
ATOM     63  C   UNL A   1      46.897  30.365  30.339  1.00  0.00     0.031 C 
ATOM     64  C   UNL A   1      44.524  31.080  30.374  1.00  0.00     0.037 A 
BRANCH  51  65
ATOM     65  C   UNL A   1      38.772  29.188  29.134  1.00  0.00     0.057 A 
ATOM     66  C   UNL A   1      37.939  29.150  30.261  1.00  0.00     0.134 A 
ATOM     67  C   UNL A   1      38.195  29.588  27.921  1.00  0.00     0.134 A 
ATOM     68  F   UNL A   1      38.424  28.765  31.451  1.00  0.00    -0.206 F 
ATOM     69  C   UNL A   1      36.581  29.466  30.179  1.00  0.00     0.040 A 
ATOM     70  C   UNL A   1      36.846  29.937  27.834  1.00  0.00     0.040 A 
ATOM     71  F   UNL A   1      38.934  29.654  26.803  1.00  0.00    -0.206 F 
ATOM     72  C   UNL A   1      36.033  29.867  28.963  1.00  0.00     0.006 A 
ENDBRANCH  51  65
BRANCH  52  73
ATOM     73  C   UNL A   1      48.418  26.572  29.298  1.00  0.00     0.057 A 
ATOM     74  C   UNL A   1      49.015  25.984  30.419  1.00  0.00     0.134 A 
ATOM     75  C   UNL A   1      49.233  26.806  28.183  1.00  0.00     0.134 A 
ATOM     76  F   UNL A   1      48.291  25.750  31.523  1.00  0.00    -0.206 F 
ATOM     77  C   UNL A   1      50.373  25.663  30.441  1.00  0.00     0.040 A 
ATOM     78  C   UNL A   1      50.586  26.464  28.181  1.00  0.00     0.040 A 
ATOM     79  F   UNL A   1      48.721  27.357  27.072  1.00  0.00    -0.206 F 
ATOM     80  C   UNL A   1      51.162  25.898  29.317  1.00  0.00     0.006 A 
ENDBRANCH  52  73
BRANCH  64  81
ATOM     81  C   UNL A   1      44.970  32.416  30.897  1.00  0.00     0.057 A 
ATOM     82  C   UNL A   1      45.116  32.668  32.267  1.00  0.00     0.134 A 
ATOM     83  C   UNL A   1      45.320  33.441  30.008  1.00  0.00     0.134 A 
ATOM     84  F   UNL A   1      44.787  31.733  33.170  1.00  0.00    -0.206 F 
ATOM     85  C   UNL A   1      45.581  33.899  32.734  1.00  0.00     0.040 A 
ATOM     86  C   UNL A   1      45.812  34.665  30.462  1.00  0.00     0.040 A 
ATOM     87  F   UNL A   1      45.210  33.261  28.684  1.00  0.00    -0.206 F 
ATOM     88  C   UNL A   1      45.940  34.898  31.829  1.00  0.00     0.006 A 
ENDBRANCH  64  81
ENDBRANCH  38  39
ENDBRANCH  30  33
ENDBRANCH  28  29
ENDBRANCH   1  28
TORSDOF 14
ENDMDL
