MODEL 1
REMARK VINA RESULT:     -13.3      0.000      0.000
REMARK SMILES Cc1cc(C)n(C)c(=O)c1C(=O)N1CCC2(CC1)C[NH2+][C@@H](C(=O)NCCCNC(=O)c1ccc(-c3c4nc(c(-c5c(F)cccc5F)c5ccc([nH]5)c(-c5c(F)cccc5F)c5nc(c(-c6c(F)cccc6F)c6ccc3[nH]6)C=C5)C=C4)cc1)C2
REMARK SMILES IDX 26 1 25 2 24 3 22 4 23 5 21 7 11 8 12 9 13 10 14 11 18 12
REMARK SMILES IDX 15 13 17 14 16 15 19 16 85 17 20 18 10 21 1 22 2 23 3 24
REMARK SMILES IDX 4 25 8 26 5 27 6 28 9 29 7 30 27 31 28 32 29 33 30 35 31 36
REMARK SMILES IDX 32 37 84 38 33 39 83 40 34 41 35 42 36 43 77 44 37 45 82 46
REMARK SMILES IDX 76 47 78 48 38 49 81 50 75 51 74 52 39 54 65 55 48 56 64 57
REMARK SMILES IDX 49 58 52 59 63 60 79 61 50 62 51 63 62 65 80 66 53 67 40 68
REMARK SMILES IDX 41 69 46 70 42 71 43 72 45 73 47 74 44 75 66 76 67 77 72 78
REMARK SMILES IDX 68 79 69 80 71 81 73 82 70 83 54 84 55 85 60 86 56 87 57 88
REMARK SMILES IDX 59 89 61 90 58 91
REMARK H PARENT 24 6 20 19 20 20 28 34 78 53 52 64
REMARK Flexibility Score: inf
ROOT
ATOM      1  C   UNL A   1      37.530  19.680  25.000  1.00  0.00     0.042 C 
ENDROOT
BRANCH   1   2
ATOM      2  C   UNL A   1      36.467  20.747  24.785  1.00  0.00     0.118 C 
BRANCH   2   3
ATOM      3  N   UNL A   1      35.123  20.240  25.009  1.00  0.00    -0.351 N 
ATOM      4  C   UNL A   1      34.008  20.876  25.471  1.00  0.00     0.278 C 
ATOM      5  O   UNL A   1      32.965  20.219  25.549  1.00  0.00    -0.268 OA
ATOM      6  H   UNL A   1      34.999  19.288  24.792  1.00  0.00     0.163 HD
BRANCH   4   7
ATOM      7  C   UNL A   1      34.040  22.341  25.919  1.00  0.00     0.273 C 
ATOM      8  C   UNL A   1      32.584  28.259  23.454  1.00  0.00     0.259 C 
ATOM      9  O   UNL A   1      33.574  28.902  23.091  1.00  0.00    -0.269 OA
ATOM     10  N   UNL A   1      32.736  26.917  23.782  1.00  0.00    -0.338 N 
ATOM     11  C   UNL A   1      34.072  26.481  24.156  1.00  0.00     0.120 C 
ATOM     12  C   UNL A   1      31.799  25.827  23.532  1.00  0.00     0.120 C 
ATOM     13  C   UNL A   1      33.985  25.766  25.491  1.00  0.00     0.034 C 
ATOM     14  C   UNL A   1      31.728  24.818  24.697  1.00  0.00     0.034 C 
ATOM     15  C   UNL A   1      33.069  24.527  25.439  1.00  0.00     0.029 C 
ATOM     16  C   UNL A   1      32.820  24.068  26.899  1.00  0.00     0.268 C 
ATOM     17  C   UNL A   1      33.804  23.335  24.787  1.00  0.00     0.088 C 
ATOM     18  N   UNL A   1      32.989  22.626  26.907  1.00  0.00    -0.336 N 
ATOM     19  H   UNL A   1      32.118  22.164  26.644  1.00  0.00     0.346 HD
ATOM     20  H   UNL A   1      33.242  22.282  27.834  1.00  0.00     0.346 HD
BRANCH   8  21
ATOM     21  C   UNL A   1      31.294  29.009  23.691  1.00  0.00     0.108 A 
ATOM     22  C   UNL A   1      31.968  30.240  25.839  1.00  0.00     0.045 C 
ATOM     23  C   UNL A   1      31.066  29.884  24.699  1.00  0.00    -0.031 A 
ATOM     24  C   UNL A   1      29.885  30.727  24.698  1.00  0.00     0.026 A 
ATOM     25  C   UNL A   1      29.124  30.877  23.608  1.00  0.00     0.018 A 
ATOM     26  C   UNL A   1      30.290  29.013  22.546  1.00  0.00     0.263 A 
ATOM     27  C   UNL A   1      28.022  31.901  23.629  1.00  0.00     0.064 C 
ATOM     28  N   UNL A   1      29.363  30.070  22.504  1.00  0.00    -0.315 N 
ATOM     29  O   UNL A   1      30.301  28.126  21.692  1.00  0.00    -0.268 OA
ATOM     30  C   UNL A   1      28.604  30.253  21.273  1.00  0.00     0.153 C 
ENDBRANCH   8  21
ENDBRANCH   4   7
ENDBRANCH   2   3
ENDBRANCH   1   2
BRANCH   1  31
ATOM     31  C   UNL A   1      38.746  20.173  25.768  1.00  0.00     0.118 C 
BRANCH  31  32
ATOM     32  N   UNL A   1      39.809  19.180  25.817  1.00  0.00    -0.352 N 
ATOM     33  C   UNL A   1      41.155  19.343  26.006  1.00  0.00     0.251 C 
ATOM     34  H   UNL A   1      39.515  18.248  25.695  1.00  0.00     0.163 HD
ATOM     35  O   UNL A   1      41.918  18.394  25.807  1.00  0.00    -0.269 OA
BRANCH  33  36
ATOM     36  C   UNL A   1      41.702  20.646  26.431  1.00  0.00     0.039 A 
ATOM     37  C   UNL A   1      42.070  21.575  25.452  1.00  0.00     0.014 A 
ATOM     38  C   UNL A   1      41.884  20.945  27.784  1.00  0.00     0.014 A 
ATOM     39  C   UNL A   1      42.569  22.822  25.832  1.00  0.00     0.010 A 
ATOM     40  C   UNL A   1      42.306  22.213  28.163  1.00  0.00     0.010 A 
ATOM     41  C   UNL A   1      42.663  23.159  27.191  1.00  0.00    -0.014 A 
BRANCH  41  42
ATOM     42  C   UNL A   1      43.151  24.489  27.625  1.00  0.00     0.031 A 
ATOM     43  C   UNL A   1      42.171  25.543  28.053  1.00  0.00     0.074 A 
ATOM     44  C   UNL A   1      44.464  24.772  27.558  1.00  0.00     0.049 A 
ATOM     45  N   UNL A   1      42.386  26.795  28.363  1.00  0.00    -0.248 NA
ATOM     46  C   UNL A   1      40.757  25.141  28.118  1.00  0.00     0.031 C 
ATOM     47  C   UNL A   1      45.509  23.841  27.128  1.00  0.00     0.029 A 
ATOM     48  N   UNL A   1      45.145  25.931  27.836  1.00  0.00    -0.354 N 
ATOM     49  C   UNL A   1      41.137  27.335  28.639  1.00  0.00     0.074 A 
ATOM     50  C   UNL A   1      40.164  26.287  28.416  1.00  0.00     0.031 C 
ATOM     51  C   UNL A   1      46.697  24.460  27.183  1.00  0.00     0.029 A 
ATOM     52  C   UNL A   1      46.494  25.842  27.608  1.00  0.00     0.049 A 
ATOM     53  H   UNL A   1      44.705  26.747  28.166  1.00  0.00     0.167 HD
ATOM     54  C   UNL A   1      40.831  28.585  29.059  1.00  0.00     0.037 A 
ATOM     55  C   UNL A   1      47.462  26.774  27.715  1.00  0.00     0.037 A 
ATOM     56  C   UNL A   1      41.808  29.616  29.298  1.00  0.00     0.049 A 
ATOM     57  C   UNL A   1      47.100  28.159  28.168  1.00  0.00     0.074 A 
ATOM     58  C   UNL A   1      41.606  30.895  29.783  1.00  0.00     0.029 A 
ATOM     59  N   UNL A   1      43.169  29.486  29.063  1.00  0.00    -0.354 N 
ATOM     60  N   UNL A   1      45.922  28.644  28.479  1.00  0.00    -0.248 NA
ATOM     61  C   UNL A   1      48.200  29.125  28.292  1.00  0.00     0.031 C 
ATOM     62  C   UNL A   1      42.838  31.559  29.792  1.00  0.00     0.029 A 
ATOM     63  C   UNL A   1      43.815  30.673  29.365  1.00  0.00     0.049 A 
ATOM     64  H   UNL A   1      43.609  28.672  28.730  1.00  0.00     0.167 HD
ATOM     65  C   UNL A   1      46.138  29.965  28.849  1.00  0.00     0.074 A 
ATOM     66  C   UNL A   1      47.564  30.199  28.741  1.00  0.00     0.031 C 
ATOM     67  C   UNL A   1      45.236  30.897  29.244  1.00  0.00     0.037 A 
BRANCH  54  68
ATOM     68  C   UNL A   1      39.381  28.908  29.279  1.00  0.00     0.057 A 
ATOM     69  C   UNL A   1      38.571  29.417  28.255  1.00  0.00     0.134 A 
ATOM     70  C   UNL A   1      38.780  28.675  30.522  1.00  0.00     0.134 A 
ATOM     71  F   UNL A   1      39.086  29.676  27.044  1.00  0.00    -0.206 F 
ATOM     72  C   UNL A   1      37.222  29.706  28.468  1.00  0.00     0.040 A 
ATOM     73  C   UNL A   1      37.425  28.932  30.738  1.00  0.00     0.040 A 
ATOM     74  F   UNL A   1      39.496  28.185  31.545  1.00  0.00    -0.206 F 
ATOM     75  C   UNL A   1      36.643  29.456  29.710  1.00  0.00     0.006 A 
ENDBRANCH  54  68
BRANCH  55  76
ATOM     76  C   UNL A   1      48.864  26.401  27.407  1.00  0.00     0.057 A 
ATOM     77  C   UNL A   1      49.689  25.835  28.384  1.00  0.00     0.134 A 
ATOM     78  C   UNL A   1      49.392  26.543  26.118  1.00  0.00     0.134 A 
ATOM     79  F   UNL A   1      49.243  25.688  29.641  1.00  0.00    -0.206 F 
ATOM     80  C   UNL A   1      50.989  25.419  28.092  1.00  0.00     0.040 A 
ATOM     81  C   UNL A   1      50.682  26.111  25.806  1.00  0.00     0.040 A 
ATOM     82  F   UNL A   1      48.647  27.070  25.135  1.00  0.00    -0.206 F 
ATOM     83  C   UNL A   1      51.485  25.547  26.795  1.00  0.00     0.006 A 
ENDBRANCH  55  76
BRANCH  67  84
ATOM     84  C   UNL A   1      45.760  32.258  29.599  1.00  0.00     0.057 A 
ATOM     85  C   UNL A   1      45.790  33.304  28.670  1.00  0.00     0.134 A 
ATOM     86  C   UNL A   1      46.183  32.542  30.906  1.00  0.00     0.134 A 
ATOM     87  F   UNL A   1      45.408  33.097  27.401  1.00  0.00    -0.206 F 
ATOM     88  C   UNL A   1      46.239  34.579  29.020  1.00  0.00     0.040 A 
ATOM     89  C   UNL A   1      46.607  33.818  31.275  1.00  0.00     0.040 A 
ATOM     90  F   UNL A   1      46.169  31.588  31.849  1.00  0.00    -0.206 F 
ATOM     91  C   UNL A   1      46.640  34.841  30.328  1.00  0.00     0.006 A 
ENDBRANCH  67  84
ENDBRANCH  41  42
ENDBRANCH  33  36
ENDBRANCH  31  32
ENDBRANCH   1  31
TORSDOF 11
ENDMDL
MODEL 2
REMARK VINA RESULT:     -13.2      4.218     10.184
REMARK SMILES Cc1cc(C)n(C)c(=O)c1C(=O)N1CCC2(CC1)C[NH2+][C@@H](C(=O)NCCCNC(=O)c1ccc(-c3c4nc(c(-c5c(F)cccc5F)c5ccc([nH]5)c(-c5c(F)cccc5F)c5nc(c(-c6c(F)cccc6F)c6ccc3[nH]6)C=C5)C=C4)cc1)C2
REMARK SMILES IDX 26 1 25 2 24 3 22 4 23 5 21 7 11 8 12 9 13 10 14 11 18 12
REMARK SMILES IDX 15 13 17 14 16 15 19 16 85 17 20 18 10 21 1 22 2 23 3 24
REMARK SMILES IDX 4 25 8 26 5 27 6 28 9 29 7 30 27 31 28 32 29 33 30 35 31 36
REMARK SMILES IDX 32 37 84 38 33 39 83 40 34 41 35 42 36 43 77 44 37 45 82 46
REMARK SMILES IDX 76 47 78 48 38 49 81 50 75 51 74 52 39 54 65 55 48 56 64 57
REMARK SMILES IDX 49 58 52 59 63 60 79 61 50 62 51 63 62 65 80 66 53 67 40 68
REMARK SMILES IDX 41 69 46 70 42 71 43 72 45 73 47 74 44 75 66 76 67 77 72 78
REMARK SMILES IDX 68 79 69 80 71 81 73 82 70 83 54 84 55 85 60 86 56 87 57 88
REMARK SMILES IDX 59 89 61 90 58 91
REMARK H PARENT 24 6 20 19 20 20 28 34 78 53 52 64
REMARK Flexibility Score: inf
ROOT
ATOM      1  C   UNL A   1      31.319  31.452  26.168  1.00  0.00     0.042 C 
ENDROOT
BRANCH   1   2
ATOM      2  C   UNL A   1      31.518  29.998  25.763  1.00  0.00     0.118 C 
BRANCH   2   3
ATOM      3  N   UNL A   1      31.043  29.732  24.416  1.00  0.00    -0.351 N 
ATOM      4  C   UNL A   1      31.478  28.827  23.491  1.00  0.00     0.278 C 
ATOM      5  O   UNL A   1      30.881  28.780  22.411  1.00  0.00    -0.268 OA
ATOM      6  H   UNL A   1      30.288  30.293  24.124  1.00  0.00     0.163 HD
BRANCH   4   7
ATOM      7  C   UNL A   1      32.685  27.920  23.755  1.00  0.00     0.273 C 
ATOM      8  C   UNL A   1      33.891  21.933  26.186  1.00  0.00     0.259 C 
ATOM      9  O   UNL A   1      34.321  21.945  27.343  1.00  0.00    -0.269 OA
ATOM     10  N   UNL A   1      33.389  23.109  25.641  1.00  0.00    -0.338 N 
ATOM     11  C   UNL A   1      33.838  24.354  26.244  1.00  0.00     0.120 C 
ATOM     12  C   UNL A   1      32.258  23.259  24.731  1.00  0.00     0.120 C 
ATOM     13  C   UNL A   1      34.375  25.252  25.145  1.00  0.00     0.034 C 
ATOM     14  C   UNL A   1      32.502  24.325  23.642  1.00  0.00     0.034 C 
ATOM     15  C   UNL A   1      33.310  25.585  24.081  1.00  0.00     0.029 C 
ATOM     16  C   UNL A   1      34.038  26.238  22.879  1.00  0.00     0.268 C 
ATOM     17  C   UNL A   1      32.359  26.690  24.593  1.00  0.00     0.088 C 
ATOM     18  N   UNL A   1      33.247  27.394  22.501  1.00  0.00    -0.336 N 
ATOM     19  H   UNL A   1      32.499  27.121  21.863  1.00  0.00     0.346 HD
ATOM     20  H   UNL A   1      33.810  28.095  22.019  1.00  0.00     0.346 HD
BRANCH   8  21
ATOM     21  C   UNL A   1      34.095  20.682  25.362  1.00  0.00     0.108 A 
ATOM     22  C   UNL A   1      36.639  20.841  25.068  1.00  0.00     0.045 C 
ATOM     23  C   UNL A   1      35.288  20.211  24.927  1.00  0.00    -0.031 A 
ATOM     24  C   UNL A   1      35.398  18.883  24.354  1.00  0.00     0.026 A 
ATOM     25  C   UNL A   1      34.418  17.980  24.469  1.00  0.00     0.018 A 
ATOM     26  C   UNL A   1      32.914  19.725  25.276  1.00  0.00     0.263 A 
ATOM     27  C   UNL A   1      34.674  16.571  24.006  1.00  0.00     0.064 C 
ATOM     28  N   UNL A   1      33.194  18.376  24.990  1.00  0.00    -0.315 N 
ATOM     29  O   UNL A   1      31.763  20.123  25.458  1.00  0.00    -0.268 OA
ATOM     30  C   UNL A   1      32.127  17.406  25.199  1.00  0.00     0.153 C 
ENDBRANCH   8  21
ENDBRANCH   4   7
ENDBRANCH   2   3
ENDBRANCH   1   2
BRANCH   1  31
ATOM     31  C   UNL A   1      32.526  32.065  26.860  1.00  0.00     0.118 C 
BRANCH  31  32
ATOM     32  N   UNL A   1      32.304  33.455  27.232  1.00  0.00    -0.352 N 
ATOM     33  C   UNL A   1      32.948  34.231  28.158  1.00  0.00     0.251 C 
ATOM     34  H   UNL A   1      31.579  33.906  26.741  1.00  0.00     0.163 HD
ATOM     35  O   UNL A   1      32.475  35.325  28.471  1.00  0.00    -0.269 OA
BRANCH  33  36
ATOM     36  C   UNL A   1      34.194  33.762  28.794  1.00  0.00     0.039 A 
ATOM     37  C   UNL A   1      34.110  32.856  29.856  1.00  0.00     0.014 A 
ATOM     38  C   UNL A   1      35.440  34.233  28.372  1.00  0.00     0.014 A 
ATOM     39  C   UNL A   1      35.277  32.384  30.459  1.00  0.00     0.010 A 
ATOM     40  C   UNL A   1      36.603  33.704  28.919  1.00  0.00     0.010 A 
ATOM     41  C   UNL A   1      36.532  32.784  29.974  1.00  0.00    -0.014 A 
BRANCH  41  42
ATOM     42  C   UNL A   1      37.789  32.268  30.567  1.00  0.00     0.031 A 
ATOM     43  C   UNL A   1      38.462  31.068  29.966  1.00  0.00     0.074 A 
ATOM     44  C   UNL A   1      38.278  32.830  31.686  1.00  0.00     0.049 A 
ATOM     45  N   UNL A   1      39.502  30.401  30.397  1.00  0.00    -0.248 NA
ATOM     46  C   UNL A   1      37.872  30.530  28.730  1.00  0.00     0.031 C 
ATOM     47  C   UNL A   1      37.695  33.980  32.379  1.00  0.00     0.029 A 
ATOM     48  N   UNL A   1      39.370  32.500  32.449  1.00  0.00    -0.354 N 
ATOM     49  C   UNL A   1      39.678  29.357  29.498  1.00  0.00     0.074 A 
ATOM     50  C   UNL A   1      38.612  29.450  28.525  1.00  0.00     0.031 C 
ATOM     51  C   UNL A   1      38.440  34.267  33.456  1.00  0.00     0.029 A 
ATOM     52  C   UNL A   1      39.527  33.296  33.555  1.00  0.00     0.049 A 
ATOM     53  H   UNL A   1      39.980  31.761  32.224  1.00  0.00     0.167 HD
ATOM     54  C   UNL A   1      40.653  28.418  29.477  1.00  0.00     0.037 A 
ATOM     55  C   UNL A   1      40.436  33.243  34.548  1.00  0.00     0.037 A 
ATOM     56  C   UNL A   1      41.723  28.344  30.438  1.00  0.00     0.049 A 
ATOM     57  C   UNL A   1      41.499  32.184  34.514  1.00  0.00     0.074 A 
ATOM     58  C   UNL A   1      42.794  27.469  30.468  1.00  0.00     0.029 A 
ATOM     59  N   UNL A   1      41.853  29.175  31.542  1.00  0.00    -0.354 N 
ATOM     60  N   UNL A   1      41.689  31.234  33.630  1.00  0.00    -0.248 NA
ATOM     61  C   UNL A   1      42.478  32.191  35.609  1.00  0.00     0.031 C 
ATOM     62  C   UNL A   1      43.543  27.734  31.619  1.00  0.00     0.029 A 
ATOM     63  C   UNL A   1      42.971  28.812  32.276  1.00  0.00     0.049 A 
ATOM     64  H   UNL A   1      41.242  29.911  31.769  1.00  0.00     0.167 HD
ATOM     65  C   UNL A   1      42.816  30.540  34.052  1.00  0.00     0.074 A 
ATOM     66  C   UNL A   1      43.277  31.191  35.261  1.00  0.00     0.031 C 
ATOM     67  C   UNL A   1      43.414  29.462  33.486  1.00  0.00     0.037 A 
BRANCH  54  68
ATOM     68  C   UNL A   1      40.602  27.390  28.384  1.00  0.00     0.057 A 
ATOM     69  C   UNL A   1      39.789  26.252  28.472  1.00  0.00     0.134 A 
ATOM     70  C   UNL A   1      41.351  27.557  27.212  1.00  0.00     0.134 A 
ATOM     71  F   UNL A   1      39.056  26.024  29.572  1.00  0.00    -0.206 F 
ATOM     72  C   UNL A   1      39.741  25.307  27.446  1.00  0.00     0.040 A 
ATOM     73  C   UNL A   1      41.289  26.634  26.167  1.00  0.00     0.040 A 
ATOM     74  F   UNL A   1      42.148  28.626  27.058  1.00  0.00    -0.206 F 
ATOM     75  C   UNL A   1      40.487  25.500  26.285  1.00  0.00     0.006 A 
ENDBRANCH  54  68
BRANCH  55  76
ATOM     76  C   UNL A   1      40.377  34.248  35.638  1.00  0.00     0.057 A 
ATOM     77  C   UNL A   1      41.022  35.482  35.512  1.00  0.00     0.134 A 
ATOM     78  C   UNL A   1      39.628  34.024  36.799  1.00  0.00     0.134 A 
ATOM     79  F   UNL A   1      41.768  35.748  34.429  1.00  0.00    -0.206 F 
ATOM     80  C   UNL A   1      40.923  36.463  36.501  1.00  0.00     0.040 A 
ATOM     81  C   UNL A   1      39.501  35.004  37.786  1.00  0.00     0.040 A 
ATOM     82  F   UNL A   1      38.978  32.864  36.973  1.00  0.00    -0.206 F 
ATOM     83  C   UNL A   1      40.150  36.228  37.638  1.00  0.00     0.006 A 
ENDBRANCH  55  76
BRANCH  67  84
ATOM     84  C   UNL A   1      44.640  28.919  34.159  1.00  0.00     0.057 A 
ATOM     85  C   UNL A   1      45.918  29.418  33.881  1.00  0.00     0.134 A 
ATOM     86  C   UNL A   1      44.534  27.926  35.144  1.00  0.00     0.134 A 
ATOM     87  F   UNL A   1      46.090  30.362  32.944  1.00  0.00    -0.206 F 
ATOM     88  C   UNL A   1      47.049  28.937  34.543  1.00  0.00     0.040 A 
ATOM     89  C   UNL A   1      45.653  27.458  35.832  1.00  0.00     0.040 A 
ATOM     90  F   UNL A   1      43.338  27.413  35.467  1.00  0.00    -0.206 F 
ATOM     91  C   UNL A   1      46.917  27.961  35.528  1.00  0.00     0.006 A 
ENDBRANCH  67  84
ENDBRANCH  41  42
ENDBRANCH  33  36
ENDBRANCH  31  32
ENDBRANCH   1  31
TORSDOF 11
ENDMDL
MODEL 3
REMARK VINA RESULT:     -13.0      1.025      1.797
REMARK SMILES Cc1cc(C)n(C)c(=O)c1C(=O)N1CCC2(CC1)C[NH2+][C@@H](C(=O)NCCCNC(=O)c1ccc(-c3c4nc(c(-c5c(F)cccc5F)c5ccc([nH]5)c(-c5c(F)cccc5F)c5nc(c(-c6c(F)cccc6F)c6ccc3[nH]6)C=C5)C=C4)cc1)C2
REMARK SMILES IDX 26 1 25 2 24 3 22 4 23 5 21 7 11 8 12 9 13 10 14 11 18 12
REMARK SMILES IDX 15 13 17 14 16 15 19 16 85 17 20 18 10 21 1 22 2 23 3 24
REMARK SMILES IDX 4 25 8 26 5 27 6 28 9 29 7 30 27 31 28 32 29 33 30 35 31 36
REMARK SMILES IDX 32 37 84 38 33 39 83 40 34 41 35 42 36 43 77 44 37 45 82 46
REMARK SMILES IDX 76 47 78 48 38 49 81 50 75 51 74 52 39 54 65 55 48 56 64 57
REMARK SMILES IDX 49 58 52 59 63 60 79 61 50 62 51 63 62 65 80 66 53 67 40 68
REMARK SMILES IDX 41 69 46 70 42 71 43 72 45 73 47 74 44 75 66 76 67 77 72 78
REMARK SMILES IDX 68 79 69 80 71 81 73 82 70 83 54 84 55 85 60 86 56 87 57 88
REMARK SMILES IDX 59 89 61 90 58 91
REMARK H PARENT 24 6 20 19 20 20 28 34 78 53 52 64
REMARK Flexibility Score: inf
ROOT
ATOM      1  C   UNL A   1      38.084  19.635  24.789  1.00  0.00     0.042 C 
ENDROOT
BRANCH   1   2
ATOM      2  C   UNL A   1      36.699  20.192  25.085  1.00  0.00     0.118 C 
BRANCH   2   3
ATOM      3  N   UNL A   1      35.642  19.265  24.716  1.00  0.00    -0.351 N 
ATOM      4  C   UNL A   1      34.288  19.382  24.833  1.00  0.00     0.278 C 
ATOM      5  O   UNL A   1      33.594  18.449  24.416  1.00  0.00    -0.268 OA
ATOM      6  H   UNL A   1      35.953  18.419  24.319  1.00  0.00     0.163 HD
BRANCH   4   7
ATOM      7  C   UNL A   1      33.637  20.604  25.490  1.00  0.00     0.273 C 
ATOM      8  C   UNL A   1      32.157  26.814  23.921  1.00  0.00     0.259 C 
ATOM      9  O   UNL A   1      32.941  27.644  24.391  1.00  0.00    -0.269 OA
ATOM     10  N   UNL A   1      32.483  25.464  23.991  1.00  0.00    -0.338 N 
ATOM     11  C   UNL A   1      33.439  25.074  25.015  1.00  0.00     0.120 C 
ATOM     12  C   UNL A   1      32.212  24.430  22.999  1.00  0.00     0.120 C 
ATOM     13  C   UNL A   1      32.835  23.944  25.827  1.00  0.00     0.034 C 
ATOM     14  C   UNL A   1      31.800  23.085  23.633  1.00  0.00     0.034 C 
ATOM     15  C   UNL A   1      32.513  22.705  24.967  1.00  0.00     0.029 C 
ATOM     16  C   UNL A   1      31.639  21.755  25.826  1.00  0.00     0.268 C 
ATOM     17  C   UNL A   1      33.795  21.890  24.688  1.00  0.00     0.088 C 
ATOM     18  N   UNL A   1      32.185  20.423  25.644  1.00  0.00    -0.336 N 
ATOM     19  H   UNL A   1      31.790  19.987  24.811  1.00  0.00     0.346 HD
ATOM     20  H   UNL A   1      31.964  19.815  26.433  1.00  0.00     0.346 HD
BRANCH   8  21
ATOM     21  C   UNL A   1      30.803  27.296  23.453  1.00  0.00     0.108 A 
ATOM     22  C   UNL A   1      29.340  25.795  24.932  1.00  0.00     0.045 C 
ATOM     23  C   UNL A   1      29.608  26.874  23.929  1.00  0.00    -0.031 A 
ATOM     24  C   UNL A   1      28.383  27.570  23.585  1.00  0.00     0.026 A 
ATOM     25  C   UNL A   1      28.393  28.784  23.022  1.00  0.00     0.018 A 
ATOM     26  C   UNL A   1      30.789  28.563  22.607  1.00  0.00     0.263 A 
ATOM     27  C   UNL A   1      27.090  29.517  22.858  1.00  0.00     0.064 C 
ATOM     28  N   UNL A   1      29.601  29.316  22.590  1.00  0.00    -0.315 N 
ATOM     29  O   UNL A   1      31.785  28.910  21.971  1.00  0.00    -0.268 OA
ATOM     30  C   UNL A   1      29.664  30.663  22.040  1.00  0.00     0.153 C 
ENDBRANCH   8  21
ENDBRANCH   4   7
ENDBRANCH   2   3
ENDBRANCH   1   2
BRANCH   1  31
ATOM     31  C   UNL A   1      39.138  20.042  25.806  1.00  0.00     0.118 C 
BRANCH  31  32
ATOM     32  N   UNL A   1      40.226  19.079  25.891  1.00  0.00    -0.352 N 
ATOM     33  C   UNL A   1      41.562  19.279  26.114  1.00  0.00     0.251 C 
ATOM     34  H   UNL A   1      39.961  18.138  25.769  1.00  0.00     0.163 HD
ATOM     35  O   UNL A   1      42.355  18.350  25.944  1.00  0.00    -0.269 OA
BRANCH  33  36
ATOM     36  C   UNL A   1      42.061  20.600  26.543  1.00  0.00     0.039 A 
ATOM     37  C   UNL A   1      42.511  21.500  25.571  1.00  0.00     0.014 A 
ATOM     38  C   UNL A   1      42.120  20.943  27.897  1.00  0.00     0.014 A 
ATOM     39  C   UNL A   1      42.968  22.762  25.954  1.00  0.00     0.010 A 
ATOM     40  C   UNL A   1      42.500  22.227  28.270  1.00  0.00     0.010 A 
ATOM     41  C   UNL A   1      42.938  23.143  27.304  1.00  0.00    -0.014 A 
BRANCH  41  42
ATOM     42  C   UNL A   1      43.379  24.491  27.736  1.00  0.00     0.031 A 
ATOM     43  C   UNL A   1      42.359  25.539  28.076  1.00  0.00     0.074 A 
ATOM     44  C   UNL A   1      44.690  24.792  27.745  1.00  0.00     0.049 A 
ATOM     45  N   UNL A   1      42.536  26.801  28.368  1.00  0.00    -0.248 NA
ATOM     46  C   UNL A   1      40.949  25.116  28.060  1.00  0.00     0.031 C 
ATOM     47  C   UNL A   1      45.772  23.868  27.405  1.00  0.00     0.029 A 
ATOM     48  N   UNL A   1      45.334  25.968  28.038  1.00  0.00    -0.354 N 
ATOM     49  C   UNL A   1      41.264  27.327  28.551  1.00  0.00     0.074 A 
ATOM     50  C   UNL A   1      40.322  26.260  28.293  1.00  0.00     0.031 C 
ATOM     51  C   UNL A   1      46.946  24.507  27.519  1.00  0.00     0.029 A 
ATOM     52  C   UNL A   1      46.697  25.895  27.898  1.00  0.00     0.049 A 
ATOM     53  H   UNL A   1      44.863  26.785  28.320  1.00  0.00     0.167 HD
ATOM     54  C   UNL A   1      40.915  28.582  28.921  1.00  0.00     0.037 A 
ATOM     55  C   UNL A   1      47.642  26.844  28.044  1.00  0.00     0.037 A 
ATOM     56  C   UNL A   1      41.859  29.633  29.196  1.00  0.00     0.049 A 
ATOM     57  C   UNL A   1      47.233  28.233  28.440  1.00  0.00     0.074 A 
ATOM     58  C   UNL A   1      41.609  30.920  29.637  1.00  0.00     0.029 A 
ATOM     59  N   UNL A   1      43.234  29.519  29.052  1.00  0.00    -0.354 N 
ATOM     60  N   UNL A   1      46.031  28.707  28.663  1.00  0.00    -0.248 NA
ATOM     61  C   UNL A   1      48.309  29.219  28.609  1.00  0.00     0.031 C 
ATOM     62  C   UNL A   1      42.828  31.603  29.708  1.00  0.00     0.029 A 
ATOM     63  C   UNL A   1      43.843  30.723  29.366  1.00  0.00     0.049 A 
ATOM     64  H   UNL A   1      43.707  28.704  28.767  1.00  0.00     0.167 HD
ATOM     65  C   UNL A   1      46.204  30.039  29.014  1.00  0.00     0.074 A 
ATOM     66  C   UNL A   1      47.630  30.293  28.991  1.00  0.00     0.031 C 
ATOM     67  C   UNL A   1      45.265  30.966  29.329  1.00  0.00     0.037 A 
BRANCH  54  68
ATOM     68  C   UNL A   1      39.449  28.888  29.041  1.00  0.00     0.057 A 
ATOM     69  C   UNL A   1      38.759  28.746  30.252  1.00  0.00     0.134 A 
ATOM     70  C   UNL A   1      38.728  29.362  27.939  1.00  0.00     0.134 A 
ATOM     71  F   UNL A   1      39.387  28.283  31.343  1.00  0.00    -0.206 F 
ATOM     72  C   UNL A   1      37.398  29.041  30.355  1.00  0.00     0.040 A 
ATOM     73  C   UNL A   1      37.374  29.689  28.037  1.00  0.00     0.040 A 
ATOM     74  F   UNL A   1      39.327  29.526  26.749  1.00  0.00    -0.206 F 
ATOM     75  C   UNL A   1      36.704  29.522  29.247  1.00  0.00     0.006 A 
ENDBRANCH  54  68
BRANCH  55  76
ATOM     76  C   UNL A   1      49.066  26.486  27.834  1.00  0.00     0.057 A 
ATOM     77  C   UNL A   1      49.649  26.570  26.565  1.00  0.00     0.134 A 
ATOM     78  C   UNL A   1      49.892  26.112  28.901  1.00  0.00     0.134 A 
ATOM     79  F   UNL A   1      48.904  26.908  25.501  1.00  0.00    -0.206 F 
ATOM     80  C   UNL A   1      51.003  26.299  26.363  1.00  0.00     0.040 A 
ATOM     81  C   UNL A   1      51.253  25.860  28.717  1.00  0.00     0.040 A 
ATOM     82  F   UNL A   1      49.394  26.023  30.143  1.00  0.00    -0.206 F 
ATOM     83  C   UNL A   1      51.812  25.953  27.445  1.00  0.00     0.006 A 
ENDBRANCH  55  76
BRANCH  67  84
ATOM     84  C   UNL A   1      45.746  32.343  29.684  1.00  0.00     0.057 A 
ATOM     85  C   UNL A   1      45.863  33.355  28.724  1.00  0.00     0.134 A 
ATOM     86  C   UNL A   1      46.038  32.676  31.014  1.00  0.00     0.134 A 
ATOM     87  F   UNL A   1      45.608  33.100  27.433  1.00  0.00    -0.206 F 
ATOM     88  C   UNL A   1      46.270  34.645  29.070  1.00  0.00     0.040 A 
ATOM     89  C   UNL A   1      46.419  33.969  31.377  1.00  0.00     0.040 A 
ATOM     90  F   UNL A   1      45.935  31.757  31.986  1.00  0.00    -0.206 F 
ATOM     91  C   UNL A   1      46.540  34.957  30.401  1.00  0.00     0.006 A 
ENDBRANCH  67  84
ENDBRANCH  41  42
ENDBRANCH  33  36
ENDBRANCH  31  32
ENDBRANCH   1  31
TORSDOF 11
ENDMDL
