MODEL 1
REMARK VINA RESULT:     -12.5      0.000      0.000
REMARK SMILES Cc1cc(=O)n2nc(C)c(C(=O)NCCCNC(=O)c3ccc(-c4c5nc(c(-c6c(F)cccc6F)c6ccc([nH]6)c(-c6c(F)cccc6F)c6nc(c(-c7c(F)cccc7F)c7ccc4[nH]7)C=C6)C=C5)cc3)c2[nH]1
REMARK SMILES IDX 16 1 15 2 14 3 13 4 11 5 12 6 10 8 1 9 2 10 3 11 75 12 4 13
REMARK SMILES IDX 74 14 5 16 6 17 7 18 8 19 9 20 17 21 18 22 19 24 20 25 21 26
REMARK SMILES IDX 73 27 22 28 72 29 23 30 24 31 25 32 66 33 26 34 71 35 65 36
REMARK SMILES IDX 67 37 27 38 70 39 64 40 63 41 28 43 54 44 37 45 53 46 38 47
REMARK SMILES IDX 41 48 52 49 68 50 39 51 40 52 51 54 69 55 42 56 29 57 30 58
REMARK SMILES IDX 35 59 31 60 32 61 34 62 36 63 33 64 55 65 56 66 61 67 57 68
REMARK SMILES IDX 58 69 60 70 62 71 59 72 43 73 44 74 49 75 45 76 46 77 48 78
REMARK SMILES IDX 50 79 47 80
REMARK H PARENT 13 7 75 15 17 23 67 42 41 53
REMARK Flexibility Score: inf
ROOT
ATOM      1  C   UNL A   1      39.073  20.244  26.006  1.00  0.00     0.118 C 
ENDROOT
BRANCH   1   2
ATOM      2  C   UNL A   1      37.966  19.999  25.005  1.00  0.00     0.042 C 
BRANCH   2   3
ATOM      3  C   UNL A   1      37.123  21.255  24.756  1.00  0.00     0.118 C 
BRANCH   3   4
ATOM      4  N   UNL A   1      36.165  21.475  25.812  1.00  0.00    -0.352 N 
ATOM      5  C   UNL A   1      34.830  21.204  25.932  1.00  0.00     0.256 C 
ATOM      6  O   UNL A   1      34.368  21.429  27.058  1.00  0.00    -0.269 OA
ATOM      7  H   UNL A   1      36.550  21.908  26.607  1.00  0.00     0.163 HD
BRANCH   5   8
ATOM      8  C   UNL A   1      33.971  20.666  24.873  1.00  0.00     0.105 A 
ATOM      9  C   UNL A   1      35.405  15.880  25.172  1.00  0.00     0.064 C 
ATOM     10  C   UNL A   1      34.577  16.977  24.567  1.00  0.00     0.019 A 
ATOM     11  C   UNL A   1      33.704  16.702  23.581  1.00  0.00     0.095 A 
ATOM     12  N   UNL A   1      34.743  18.265  25.048  1.00  0.00    -0.343 N 
ATOM     13  C   UNL A   1      32.878  17.792  22.994  1.00  0.00     0.274 A 
ATOM     14  C   UNL A   1      34.026  19.310  24.561  1.00  0.00     0.150 A 
ATOM     15  H   UNL A   1      35.401  18.427  25.763  1.00  0.00     0.168 HD
ATOM     16  O   UNL A   1      32.054  17.616  22.114  1.00  0.00    -0.267 OA
ATOM     17  N   UNL A   1      33.126  19.054  23.559  1.00  0.00    -0.179 N 
ATOM     18  N   UNL A   1      32.470  20.163  23.180  1.00  0.00    -0.168 NA
ATOM     19  C   UNL A   1      32.936  21.130  23.983  1.00  0.00     0.075 A 
ATOM     20  C   UNL A   1      32.244  22.430  23.805  1.00  0.00     0.070 C 
ENDBRANCH   5   8
ENDBRANCH   3   4
ENDBRANCH   2   3
ENDBRANCH   1   2
BRANCH   1  21
ATOM     21  N   UNL A   1      40.207  19.334  25.796  1.00  0.00    -0.352 N 
ATOM     22  C   UNL A   1      41.556  19.636  25.779  1.00  0.00     0.251 C 
ATOM     23  H   UNL A   1      39.977  18.388  25.650  1.00  0.00     0.163 HD
ATOM     24  O   UNL A   1      42.371  18.879  25.269  1.00  0.00    -0.269 OA
BRANCH  22  25
ATOM     25  C   UNL A   1      41.984  20.897  26.400  1.00  0.00     0.039 A 
ATOM     26  C   UNL A   1      42.300  22.032  25.652  1.00  0.00     0.014 A 
ATOM     27  C   UNL A   1      41.978  20.932  27.789  1.00  0.00     0.014 A 
ATOM     28  C   UNL A   1      42.535  23.222  26.333  1.00  0.00     0.010 A 
ATOM     29  C   UNL A   1      41.941  22.136  28.422  1.00  0.00     0.010 A 
ATOM     30  C   UNL A   1      42.330  23.264  27.722  1.00  0.00    -0.014 A 
BRANCH  30  31
ATOM     31  C   UNL A   1      42.423  24.499  28.483  1.00  0.00     0.031 A 
ATOM     32  C   UNL A   1      41.262  25.403  28.297  1.00  0.00     0.074 A 
ATOM     33  C   UNL A   1      43.373  24.703  29.423  1.00  0.00     0.049 A 
ATOM     34  N   UNL A   1      41.247  26.521  27.654  1.00  0.00    -0.248 NA
ATOM     35  C   UNL A   1      39.928  24.933  28.707  1.00  0.00     0.031 C 
ATOM     36  C   UNL A   1      44.399  23.777  29.926  1.00  0.00     0.029 A 
ATOM     37  N   UNL A   1      43.567  25.798  30.204  1.00  0.00    -0.354 N 
ATOM     38  C   UNL A   1      39.954  27.014  27.777  1.00  0.00     0.074 A 
ATOM     39  C   UNL A   1      39.150  25.917  28.251  1.00  0.00     0.031 C 
ATOM     40  C   UNL A   1      44.939  24.262  31.066  1.00  0.00     0.029 A 
ATOM     41  C   UNL A   1      44.440  25.607  31.273  1.00  0.00     0.049 A 
ATOM     42  H   UNL A   1      43.126  26.659  30.028  1.00  0.00     0.167 HD
ATOM     43  C   UNL A   1      39.716  28.352  27.718  1.00  0.00     0.037 A 
ATOM     44  C   UNL A   1      44.712  26.503  32.255  1.00  0.00     0.037 A 
ATOM     45  C   UNL A   1      40.853  29.052  27.170  1.00  0.00     0.049 A 
ATOM     46  C   UNL A   1      44.327  27.839  31.730  1.00  0.00     0.074 A 
ATOM     47  C   UNL A   1      41.528  29.003  25.965  1.00  0.00     0.029 A 
ATOM     48  N   UNL A   1      41.713  29.654  28.057  1.00  0.00    -0.354 N 
ATOM     49  N   UNL A   1      44.944  28.428  30.742  1.00  0.00    -0.248 NA
ATOM     50  C   UNL A   1      42.958  28.275  31.967  1.00  0.00     0.031 C 
ATOM     51  C   UNL A   1      42.907  29.114  26.313  1.00  0.00     0.029 A 
ATOM     52  C   UNL A   1      42.991  29.316  27.691  1.00  0.00     0.049 A 
ATOM     53  H   UNL A   1      41.457  30.225  28.817  1.00  0.00     0.167 HD
ATOM     54  C   UNL A   1      43.929  28.976  29.972  1.00  0.00     0.074 A 
ATOM     55  C   UNL A   1      42.731  28.902  30.809  1.00  0.00     0.031 C 
ATOM     56  C   UNL A   1      44.082  29.158  28.627  1.00  0.00     0.037 A 
BRANCH  43  57
ATOM     57  C   UNL A   1      38.642  29.065  28.499  1.00  0.00     0.057 A 
ATOM     58  C   UNL A   1      38.565  28.869  29.890  1.00  0.00     0.134 A 
ATOM     59  C   UNL A   1      37.521  29.695  27.921  1.00  0.00     0.134 A 
ATOM     60  F   UNL A   1      39.561  28.266  30.557  1.00  0.00    -0.206 F 
ATOM     61  C   UNL A   1      37.428  29.203  30.634  1.00  0.00     0.040 A 
ATOM     62  C   UNL A   1      36.401  30.079  28.663  1.00  0.00     0.040 A 
ATOM     63  F   UNL A   1      37.398  29.877  26.602  1.00  0.00    -0.206 F 
ATOM     64  C   UNL A   1      36.337  29.804  30.018  1.00  0.00     0.006 A 
ENDBRANCH  43  57
BRANCH  44  65
ATOM     65  C   UNL A   1      44.937  26.263  33.701  1.00  0.00     0.057 A 
ATOM     66  C   UNL A   1      45.996  26.887  34.379  1.00  0.00     0.134 A 
ATOM     67  C   UNL A   1      43.950  25.677  34.512  1.00  0.00     0.134 A 
ATOM     68  F   UNL A   1      46.970  27.505  33.694  1.00  0.00    -0.206 F 
ATOM     69  C   UNL A   1      46.049  26.961  35.778  1.00  0.00     0.040 A 
ATOM     70  C   UNL A   1      43.993  25.740  35.910  1.00  0.00     0.040 A 
ATOM     71  F   UNL A   1      42.863  25.103  33.974  1.00  0.00    -0.206 F 
ATOM     72  C   UNL A   1      45.035  26.401  36.549  1.00  0.00     0.006 A 
ENDBRANCH  44  65
BRANCH  56  73
ATOM     73  C   UNL A   1      45.451  28.959  28.029  1.00  0.00     0.057 A 
ATOM     74  C   UNL A   1      45.913  27.745  27.495  1.00  0.00     0.134 A 
ATOM     75  C   UNL A   1      46.250  30.085  27.811  1.00  0.00     0.134 A 
ATOM     76  F   UNL A   1      45.183  26.627  27.575  1.00  0.00    -0.206 F 
ATOM     77  C   UNL A   1      47.123  27.657  26.797  1.00  0.00     0.040 A 
ATOM     78  C   UNL A   1      47.443  30.017  27.089  1.00  0.00     0.040 A 
ATOM     79  F   UNL A   1      45.850  31.289  28.248  1.00  0.00    -0.206 F 
ATOM     80  C   UNL A   1      47.886  28.799  26.581  1.00  0.00     0.006 A 
ENDBRANCH  56  73
ENDBRANCH  30  31
ENDBRANCH  22  25
ENDBRANCH   1  21
TORSDOF 10
ENDMDL
MODEL 2
REMARK VINA RESULT:     -12.3      2.536      6.605
REMARK SMILES Cc1cc(=O)n2nc(C)c(C(=O)NCCCNC(=O)c3ccc(-c4c5nc(c(-c6c(F)cccc6F)c6ccc([nH]6)c(-c6c(F)cccc6F)c6nc(c(-c7c(F)cccc7F)c7ccc4[nH]7)C=C6)C=C5)cc3)c2[nH]1
REMARK SMILES IDX 16 1 15 2 14 3 13 4 11 5 12 6 10 8 1 9 2 10 3 11 75 12 4 13
REMARK SMILES IDX 74 14 5 16 6 17 7 18 8 19 9 20 17 21 18 22 19 24 20 25 21 26
REMARK SMILES IDX 73 27 22 28 72 29 23 30 24 31 25 32 66 33 26 34 71 35 65 36
REMARK SMILES IDX 67 37 27 38 70 39 64 40 63 41 28 43 54 44 37 45 53 46 38 47
REMARK SMILES IDX 41 48 52 49 68 50 39 51 40 52 51 54 69 55 42 56 29 57 30 58
REMARK SMILES IDX 35 59 31 60 32 61 34 62 36 63 33 64 55 65 56 66 61 67 57 68
REMARK SMILES IDX 58 69 60 70 62 71 59 72 43 73 44 74 49 75 45 76 46 77 48 78
REMARK SMILES IDX 50 79 47 80
REMARK H PARENT 13 7 75 15 17 23 67 42 41 53
REMARK Flexibility Score: inf
ROOT
ATOM      1  C   UNL A   1      38.018  23.414  26.149  1.00  0.00     0.118 C 
ENDROOT
BRANCH   1   2
ATOM      2  C   UNL A   1      37.113  22.891  25.055  1.00  0.00     0.042 C 
BRANCH   2   3
ATOM      3  C   UNL A   1      36.609  21.474  25.351  1.00  0.00     0.118 C 
BRANCH   3   4
ATOM      4  N   UNL A   1      35.531  21.477  26.310  1.00  0.00    -0.352 N 
ATOM      5  C   UNL A   1      34.226  21.073  26.249  1.00  0.00     0.256 C 
ATOM      6  O   UNL A   1      33.633  21.118  27.334  1.00  0.00    -0.269 OA
ATOM      7  H   UNL A   1      35.788  21.845  27.187  1.00  0.00     0.163 HD
BRANCH   5   8
ATOM      8  C   UNL A   1      33.539  20.591  25.048  1.00  0.00     0.105 A 
ATOM      9  C   UNL A   1      35.165  15.859  25.162  1.00  0.00     0.064 C 
ATOM     10  C   UNL A   1      34.367  16.968  24.540  1.00  0.00     0.019 A 
ATOM     11  C   UNL A   1      33.642  16.741  23.429  1.00  0.00     0.095 A 
ATOM     12  N   UNL A   1      34.404  18.217  25.137  1.00  0.00    -0.343 N 
ATOM     13  C   UNL A   1      32.844  17.842  22.824  1.00  0.00     0.274 A 
ATOM     14  C   UNL A   1      33.703  19.270  24.642  1.00  0.00     0.150 A 
ATOM     15  H   UNL A   1      34.955  18.346  25.943  1.00  0.00     0.168 HD
ATOM     16  O   UNL A   1      32.150  17.707  21.832  1.00  0.00    -0.267 OA
ATOM     17  N   UNL A   1      32.953  19.062  23.513  1.00  0.00    -0.179 N 
ATOM     18  N   UNL A   1      32.295  20.170  23.138  1.00  0.00    -0.168 NA
ATOM     19  C   UNL A   1      32.604  21.086  24.068  1.00  0.00     0.075 A 
ATOM     20  C   UNL A   1      31.875  22.366  23.902  1.00  0.00     0.070 C 
ENDBRANCH   5   8
ENDBRANCH   3   4
ENDBRANCH   2   3
ENDBRANCH   1   2
BRANCH   1  21
ATOM     21  N   UNL A   1      39.188  22.550  26.347  1.00  0.00    -0.352 N 
ATOM     22  C   UNL A   1      40.511  22.920  26.503  1.00  0.00     0.251 C 
ATOM     23  H   UNL A   1      39.007  21.582  26.373  1.00  0.00     0.163 HD
ATOM     24  O   UNL A   1      41.421  22.121  26.323  1.00  0.00    -0.269 OA
BRANCH  22  25
ATOM     25  C   UNL A   1      40.793  24.306  26.897  1.00  0.00     0.039 A 
ATOM     26  C   UNL A   1      40.406  25.400  26.122  1.00  0.00     0.014 A 
ATOM     27  C   UNL A   1      41.396  24.482  28.136  1.00  0.00     0.014 A 
ATOM     28  C   UNL A   1      40.572  26.674  26.657  1.00  0.00     0.010 A 
ATOM     29  C   UNL A   1      41.306  25.692  28.753  1.00  0.00     0.010 A 
ATOM     30  C   UNL A   1      41.004  26.804  27.988  1.00  0.00    -0.014 A 
BRANCH  30  31
ATOM     31  C   UNL A   1      41.071  28.091  28.659  1.00  0.00     0.031 A 
ATOM     32  C   UNL A   1      42.249  28.905  28.272  1.00  0.00     0.074 A 
ATOM     33  C   UNL A   1      40.051  28.577  29.400  1.00  0.00     0.049 A 
ATOM     34  N   UNL A   1      43.282  29.165  28.998  1.00  0.00    -0.248 NA
ATOM     35  C   UNL A   1      42.386  29.326  26.868  1.00  0.00     0.031 C 
ATOM     36  C   UNL A   1      38.709  28.016  29.619  1.00  0.00     0.029 A 
ATOM     37  N   UNL A   1      39.980  29.758  30.070  1.00  0.00    -0.354 N 
ATOM     38  C   UNL A   1      44.099  29.979  28.222  1.00  0.00     0.074 A 
ATOM     39  C   UNL A   1      43.602  29.877  26.874  1.00  0.00     0.031 C 
ATOM     40  C   UNL A   1      37.900  28.952  30.163  1.00  0.00     0.029 A 
ATOM     41  C   UNL A   1      38.703  30.109  30.504  1.00  0.00     0.049 A 
ATOM     42  H   UNL A   1      40.769  30.321  30.236  1.00  0.00     0.167 HD
ATOM     43  C   UNL A   1      44.953  30.861  28.808  1.00  0.00     0.037 A 
ATOM     44  C   UNL A   1      38.351  31.281  31.091  1.00  0.00     0.037 A 
ATOM     45  C   UNL A   1      45.129  30.551  30.207  1.00  0.00     0.049 A 
ATOM     46  C   UNL A   1      39.601  31.880  31.626  1.00  0.00     0.074 A 
ATOM     47  C   UNL A   1      45.603  29.455  30.902  1.00  0.00     0.029 A 
ATOM     48  N   UNL A   1      44.397  31.281  31.114  1.00  0.00    -0.354 N 
ATOM     49  N   UNL A   1      40.285  31.359  32.609  1.00  0.00    -0.248 NA
ATOM     50  C   UNL A   1      40.346  32.763  30.740  1.00  0.00     0.031 C 
ATOM     51  C   UNL A   1      44.731  29.327  32.023  1.00  0.00     0.029 A 
ATOM     52  C   UNL A   1      43.837  30.399  32.002  1.00  0.00     0.049 A 
ATOM     53  H   UNL A   1      44.294  32.260  31.122  1.00  0.00     0.167 HD
ATOM     54  C   UNL A   1      41.610  31.489  32.222  1.00  0.00     0.074 A 
ATOM     55  C   UNL A   1      41.588  32.417  31.091  1.00  0.00     0.031 C 
ATOM     56  C   UNL A   1      42.561  30.608  32.650  1.00  0.00     0.037 A 
BRANCH  43  57
ATOM     57  C   UNL A   1      45.316  32.207  28.238  1.00  0.00     0.057 A 
ATOM     58  C   UNL A   1      44.308  33.174  28.071  1.00  0.00     0.134 A 
ATOM     59  C   UNL A   1      46.533  32.494  27.584  1.00  0.00     0.134 A 
ATOM     60  F   UNL A   1      43.099  33.011  28.630  1.00  0.00    -0.206 F 
ATOM     61  C   UNL A   1      44.472  34.299  27.256  1.00  0.00     0.040 A 
ATOM     62  C   UNL A   1      46.724  33.640  26.809  1.00  0.00     0.040 A 
ATOM     63  F   UNL A   1      47.561  31.639  27.571  1.00  0.00    -0.206 F 
ATOM     64  C   UNL A   1      45.683  34.531  26.614  1.00  0.00     0.006 A 
ENDBRANCH  43  57
BRANCH  44  65
ATOM     65  C   UNL A   1      37.112  32.075  30.919  1.00  0.00     0.057 A 
ATOM     66  C   UNL A   1      36.790  32.651  29.680  1.00  0.00     0.134 A 
ATOM     67  C   UNL A   1      36.070  32.027  31.862  1.00  0.00     0.134 A 
ATOM     68  F   UNL A   1      37.706  32.713  28.702  1.00  0.00    -0.206 F 
ATOM     69  C   UNL A   1      35.500  33.112  29.380  1.00  0.00     0.040 A 
ATOM     70  C   UNL A   1      34.779  32.487  31.577  1.00  0.00     0.040 A 
ATOM     71  F   UNL A   1      36.246  31.447  33.058  1.00  0.00    -0.206 F 
ATOM     72  C   UNL A   1      34.484  33.015  30.325  1.00  0.00     0.006 A 
ENDBRANCH  44  65
BRANCH  56  73
ATOM     73  C   UNL A   1      42.190  29.621  33.726  1.00  0.00     0.057 A 
ATOM     74  C   UNL A   1      41.729  28.317  33.481  1.00  0.00     0.134 A 
ATOM     75  C   UNL A   1      42.497  29.938  35.052  1.00  0.00     0.134 A 
ATOM     76  F   UNL A   1      41.488  27.887  32.237  1.00  0.00    -0.206 F 
ATOM     77  C   UNL A   1      41.564  27.383  34.511  1.00  0.00     0.040 A 
ATOM     78  C   UNL A   1      42.368  29.007  36.085  1.00  0.00     0.040 A 
ATOM     79  F   UNL A   1      42.990  31.148  35.358  1.00  0.00    -0.206 F 
ATOM     80  C   UNL A   1      41.896  27.724  35.818  1.00  0.00     0.006 A 
ENDBRANCH  56  73
ENDBRANCH  30  31
ENDBRANCH  22  25
ENDBRANCH   1  21
TORSDOF 10
ENDMDL
MODEL 3
REMARK VINA RESULT:     -12.2      4.708      8.732
REMARK SMILES Cc1cc(=O)n2nc(C)c(C(=O)NCCCNC(=O)c3ccc(-c4c5nc(c(-c6c(F)cccc6F)c6ccc([nH]6)c(-c6c(F)cccc6F)c6nc(c(-c7c(F)cccc7F)c7ccc4[nH]7)C=C6)C=C5)cc3)c2[nH]1
REMARK SMILES IDX 16 1 15 2 14 3 13 4 11 5 12 6 10 8 1 9 2 10 3 11 75 12 4 13
REMARK SMILES IDX 74 14 5 16 6 17 7 18 8 19 9 20 17 21 18 22 19 24 20 25 21 26
REMARK SMILES IDX 73 27 22 28 72 29 23 30 24 31 25 32 66 33 26 34 71 35 65 36
REMARK SMILES IDX 67 37 27 38 70 39 64 40 63 41 28 43 54 44 37 45 53 46 38 47
REMARK SMILES IDX 41 48 52 49 68 50 39 51 40 52 51 54 69 55 42 56 29 57 30 58
REMARK SMILES IDX 35 59 31 60 32 61 34 62 36 63 33 64 55 65 56 66 61 67 57 68
REMARK SMILES IDX 58 69 60 70 62 71 59 72 43 73 44 74 49 75 45 76 46 77 48 78
REMARK SMILES IDX 50 79 47 80
REMARK H PARENT 13 7 75 15 17 23 67 42 41 53
REMARK Flexibility Score: inf
ROOT
ATOM      1  C   UNL A   1      34.689  30.421  27.237  1.00  0.00     0.118 C 
ENDROOT
BRANCH   1   2
ATOM      2  C   UNL A   1      33.386  29.653  27.231  1.00  0.00     0.042 C 
BRANCH   2   3
ATOM      3  C   UNL A   1      32.470  30.077  26.077  1.00  0.00     0.118 C 
BRANCH   3   4
ATOM      4  N   UNL A   1      33.002  29.678  24.797  1.00  0.00    -0.352 N 
ATOM      5  C   UNL A   1      32.440  29.101  23.692  1.00  0.00     0.256 C 
ATOM      6  O   UNL A   1      33.201  29.024  22.719  1.00  0.00    -0.269 OA
ATOM      7  H   UNL A   1      33.964  29.860  24.698  1.00  0.00     0.163 HD
BRANCH   5   8
ATOM      8  C   UNL A   1      31.058  28.620  23.591  1.00  0.00     0.105 A 
ATOM      9  C   UNL A   1      28.809  33.062  23.075  1.00  0.00     0.064 C 
ATOM     10  C   UNL A   1      28.771  31.564  23.173  1.00  0.00     0.019 A 
ATOM     11  C   UNL A   1      27.599  30.908  23.090  1.00  0.00     0.095 A 
ATOM     12  N   UNL A   1      29.967  30.889  23.354  1.00  0.00    -0.343 N 
ATOM     13  C   UNL A   1      27.570  29.423  23.177  1.00  0.00     0.274 A 
ATOM     14  C   UNL A   1      30.018  29.534  23.443  1.00  0.00     0.150 A 
ATOM     15  H   UNL A   1      30.803  31.405  23.421  1.00  0.00     0.168 HD
ATOM     16  O   UNL A   1      26.551  28.761  23.091  1.00  0.00    -0.267 OA
ATOM     17  N   UNL A   1      28.837  28.844  23.356  1.00  0.00    -0.179 N 
ATOM     18  N   UNL A   1      29.026  27.517  23.438  1.00  0.00    -0.168 NA
ATOM     19  C   UNL A   1      30.354  27.363  23.541  1.00  0.00     0.075 A 
ATOM     20  C   UNL A   1      30.788  25.945  23.524  1.00  0.00     0.070 C 
ENDBRANCH   5   8
ENDBRANCH   3   4
ENDBRANCH   2   3
ENDBRANCH   1   2
BRANCH   1  21
ATOM     21  N   UNL A   1      34.600  31.638  28.054  1.00  0.00    -0.352 N 
ATOM     22  C   UNL A   1      35.220  31.908  29.260  1.00  0.00     0.251 C 
ATOM     23  H   UNL A   1      34.026  32.354  27.697  1.00  0.00     0.163 HD
ATOM     24  O   UNL A   1      34.813  32.795  29.999  1.00  0.00    -0.269 OA
BRANCH  22  25
ATOM     25  C   UNL A   1      36.388  31.098  29.627  1.00  0.00     0.039 A 
ATOM     26  C   UNL A   1      36.289  29.748  29.966  1.00  0.00     0.014 A 
ATOM     27  C   UNL A   1      37.624  31.725  29.536  1.00  0.00     0.014 A 
ATOM     28  C   UNL A   1      37.465  29.026  30.138  1.00  0.00     0.010 A 
ATOM     29  C   UNL A   1      38.749  30.965  29.439  1.00  0.00     0.010 A 
ATOM     30  C   UNL A   1      38.693  29.645  29.848  1.00  0.00    -0.014 A 
BRANCH  30  31
ATOM     31  C   UNL A   1      39.952  28.920  29.873  1.00  0.00     0.031 A 
ATOM     32  C   UNL A   1      40.537  28.784  31.229  1.00  0.00     0.074 A 
ATOM     33  C   UNL A   1      40.429  28.258  28.794  1.00  0.00     0.049 A 
ATOM     34  N   UNL A   1      41.583  29.386  31.684  1.00  0.00    -0.248 NA
ATOM     35  C   UNL A   1      39.781  28.046  32.253  1.00  0.00     0.031 C 
ATOM     36  C   UNL A   1      39.808  28.052  27.477  1.00  0.00     0.029 A 
ATOM     37  N   UNL A   1      41.579  27.541  28.683  1.00  0.00    -0.354 N 
ATOM     38  C   UNL A   1      41.753  28.923  32.983  1.00  0.00     0.074 A 
ATOM     39  C   UNL A   1      40.521  28.270  33.341  1.00  0.00     0.031 C 
ATOM     40  C   UNL A   1      40.468  27.087  26.801  1.00  0.00     0.029 A 
ATOM     41  C   UNL A   1      41.661  26.740  27.547  1.00  0.00     0.049 A 
ATOM     42  H   UNL A   1      42.297  27.584  29.354  1.00  0.00     0.167 HD
ATOM     43  C   UNL A   1      42.989  28.900  33.552  1.00  0.00     0.037 A 
ATOM     44  C   UNL A   1      42.647  25.851  27.263  1.00  0.00     0.037 A 
ATOM     45  C   UNL A   1      43.913  29.718  32.803  1.00  0.00     0.049 A 
ATOM     46  C   UNL A   1      43.820  26.240  28.088  1.00  0.00     0.074 A 
ATOM     47  C   UNL A   1      43.967  31.057  32.470  1.00  0.00     0.029 A 
ATOM     48  N   UNL A   1      44.752  29.078  31.921  1.00  0.00    -0.354 N 
ATOM     49  N   UNL A   1      44.488  27.347  27.911  1.00  0.00    -0.248 NA
ATOM     50  C   UNL A   1      43.923  25.648  29.414  1.00  0.00     0.031 C 
ATOM     51  C   UNL A   1      44.427  31.081  31.120  1.00  0.00     0.029 A 
ATOM     52  C   UNL A   1      44.715  29.770  30.737  1.00  0.00     0.049 A 
ATOM     53  H   UNL A   1      45.283  28.271  32.107  1.00  0.00     0.167 HD
ATOM     54  C   UNL A   1      44.733  27.818  29.192  1.00  0.00     0.074 A 
ATOM     55  C   UNL A   1      44.415  26.698  30.078  1.00  0.00     0.031 C 
ATOM     56  C   UNL A   1      44.875  29.153  29.439  1.00  0.00     0.037 A 
BRANCH  43  57
ATOM     57  C   UNL A   1      43.460  27.857  34.531  1.00  0.00     0.057 A 
ATOM     58  C   UNL A   1      43.591  26.524  34.100  1.00  0.00     0.134 A 
ATOM     59  C   UNL A   1      43.512  28.040  35.929  1.00  0.00     0.134 A 
ATOM     60  F   UNL A   1      43.543  26.215  32.794  1.00  0.00    -0.206 F 
ATOM     61  C   UNL A   1      43.687  25.451  34.992  1.00  0.00     0.040 A 
ATOM     62  C   UNL A   1      43.660  26.981  36.827  1.00  0.00     0.040 A 
ATOM     63  F   UNL A   1      43.318  29.231  36.506  1.00  0.00    -0.206 F 
ATOM     64  C   UNL A   1      43.715  25.677  36.363  1.00  0.00     0.006 A 
ENDBRANCH  43  57
BRANCH  44  65
ATOM     65  C   UNL A   1      42.545  24.517  26.623  1.00  0.00     0.057 A 
ATOM     66  C   UNL A   1      43.269  24.220  25.458  1.00  0.00     0.134 A 
ATOM     67  C   UNL A   1      41.992  23.417  27.300  1.00  0.00     0.134 A 
ATOM     68  F   UNL A   1      43.864  25.198  24.760  1.00  0.00    -0.206 F 
ATOM     69  C   UNL A   1      43.468  22.904  25.016  1.00  0.00     0.040 A 
ATOM     70  C   UNL A   1      42.181  22.099  26.867  1.00  0.00     0.040 A 
ATOM     71  F   UNL A   1      41.329  23.576  28.455  1.00  0.00    -0.206 F 
ATOM     72  C   UNL A   1      42.937  21.836  25.731  1.00  0.00     0.006 A 
ENDBRANCH  44  65
BRANCH  56  73
ATOM     73  C   UNL A   1      44.983  30.091  28.264  1.00  0.00     0.057 A 
ATOM     74  C   UNL A   1      43.894  30.761  27.683  1.00  0.00     0.134 A 
ATOM     75  C   UNL A   1      46.258  30.475  27.837  1.00  0.00     0.134 A 
ATOM     76  F   UNL A   1      42.640  30.528  28.084  1.00  0.00    -0.206 F 
ATOM     77  C   UNL A   1      44.069  31.751  26.709  1.00  0.00     0.040 A 
ATOM     78  C   UNL A   1      46.447  31.483  26.889  1.00  0.00     0.040 A 
ATOM     79  F   UNL A   1      47.348  29.915  28.382  1.00  0.00    -0.206 F 
ATOM     80  C   UNL A   1      45.350  32.124  26.318  1.00  0.00     0.006 A 
ENDBRANCH  56  73
ENDBRANCH  30  31
ENDBRANCH  22  25
ENDBRANCH   1  21
TORSDOF 10
ENDMDL
