MODEL 1
REMARK VINA RESULT:     -12.9      0.000      0.000
REMARK SMILES COc1ccc(-c2cc(=O)oc3cc(OCC(=O)N[C@@H](C)C(=O)NCCCNC(=O)c4ccc(-c5c6nc(c(-c7c(F)cccc7F)c7ccc([nH]7)c(-c7c(F)cccc7F)c7nc(c(-c8c(F)cccc8F)c8ccc5[nH]8)C=C7)C=C6)cc4)ccc23)cc1
REMARK SMILES IDX 22 1 23 2 24 3 20 5 21 6 19 7 17 8 18 9 16 11 15 12 14 13
REMARK SMILES IDX 7 14 8 15 87 16 9 17 12 18 86 19 10 20 11 21 13 22 85 23
REMARK SMILES IDX 6 24 3 25 4 26 89 27 5 28 88 29 2 30 1 31 25 32 26 33 27 34
REMARK SMILES IDX 28 35 29 36 30 38 31 39 32 40 84 41 33 42 83 43 34 44 35 45
REMARK SMILES IDX 36 46 77 47 37 48 82 49 76 50 78 51 38 52 81 53 75 54 74 55
REMARK SMILES IDX 39 57 65 58 48 59 64 60 49 61 52 62 63 63 79 64 50 65 51 66
REMARK SMILES IDX 62 68 80 69 53 70 40 71 41 72 46 73 42 74 43 75 45 76 47 77
REMARK SMILES IDX 44 78 66 79 67 80 72 81 68 82 69 83 71 84 73 85 70 86 54 87
REMARK SMILES IDX 55 88 60 89 56 90 57 91 59 92 61 93 58 94
REMARK H PARENT 24 4 19 10 28 37 78 56 52 67
REMARK Flexibility Score: inf
ROOT
ATOM      1  C   UNL A   1      30.676  29.329  23.947  1.00  0.00     0.242 C 
ATOM      2  O   UNL A   1      29.848  29.426  23.040  1.00  0.00    -0.273 OA
ATOM      3  N   UNL A   1      30.898  30.426  24.732  1.00  0.00    -0.354 N 
ATOM      4  H   UNL A   1      30.435  31.242  24.432  1.00  0.00     0.163 HD
ENDROOT
BRANCH   1   5
ATOM      5  C   UNL A   1      31.373  27.993  24.249  1.00  0.00     0.168 C 
ATOM      6  C   UNL A   1      32.081  27.493  22.989  1.00  0.00     0.041 C 
BRANCH   5   7
ATOM      7  N   UNL A   1      30.389  27.063  24.815  1.00  0.00    -0.342 N 
ATOM      8  C   UNL A   1      30.552  26.131  25.801  1.00  0.00     0.258 C 
ATOM      9  O   UNL A   1      29.552  25.572  26.255  1.00  0.00    -0.271 OA
ATOM     10  H   UNL A   1      29.485  27.117  24.430  1.00  0.00     0.164 HD
BRANCH   8  11
ATOM     11  C   UNL A   1      31.943  25.820  26.316  1.00  0.00     0.329 C 
BRANCH  11  12
ATOM     12  O   UNL A   1      32.102  24.422  26.139  1.00  0.00    -0.484 OA
BRANCH  12  13
ATOM     13  C   UNL A   1      33.117  23.996  25.338  1.00  0.00     0.123 A 
ATOM     14  C   UNL A   1      35.483  20.873  24.594  1.00  0.00    -0.000 A 
ATOM     15  C   UNL A   1      36.667  20.715  25.204  1.00  0.00     0.103 A 
ATOM     16  C   UNL A   1      35.003  22.259  24.390  1.00  0.00     0.026 A 
ATOM     17  C   UNL A   1      37.383  21.892  25.740  1.00  0.00     0.336 A 
ATOM     18  C   UNL A   1      35.342  23.120  25.422  1.00  0.00     0.142 A 
ATOM     19  C   UNL A   1      33.848  22.484  23.630  1.00  0.00     0.016 A 
ATOM     20  O   UNL A   1      38.572  21.836  26.035  1.00  0.00    -0.246 OA
ATOM     21  O   UNL A   1      36.580  22.985  26.068  1.00  0.00    -0.423 OA
ATOM     22  C   UNL A   1      34.384  23.976  25.933  1.00  0.00     0.094 A 
ATOM     23  C   UNL A   1      32.879  23.348  24.127  1.00  0.00     0.047 A 
BRANCH  14  24
ATOM     24  C   UNL A   1      34.485  19.780  24.730  1.00  0.00    -0.017 A 
ATOM     25  C   UNL A   1      33.099  17.481  25.460  1.00  0.00     0.118 A 
ATOM     26  C   UNL A   1      32.573  18.743  25.757  1.00  0.00     0.047 A 
ATOM     27  C   UNL A   1      34.245  17.354  24.689  1.00  0.00     0.047 A 
ATOM     28  C   UNL A   1      33.273  19.903  25.404  1.00  0.00     0.012 A 
ATOM     29  C   UNL A   1      34.930  18.501  24.322  1.00  0.00     0.012 A 
BRANCH  25  30
ATOM     30  O   UNL A   1      32.471  16.366  25.944  1.00  0.00    -0.497 OA
ATOM     31  C   UNL A   1      33.000  15.196  25.309  1.00  0.00     0.278 C 
ENDBRANCH  25  30
ENDBRANCH  14  24
ENDBRANCH  12  13
ENDBRANCH  11  12
ENDBRANCH   8  11
ENDBRANCH   5   7
ENDBRANCH   1   5
BRANCH   3  32
ATOM     32  C   UNL A   1      31.701  30.595  25.934  1.00  0.00     0.117 C 
BRANCH  32  33
ATOM     33  C   UNL A   1      31.389  31.897  26.658  1.00  0.00     0.042 C 
BRANCH  33  34
ATOM     34  C   UNL A   1      32.620  32.601  27.207  1.00  0.00     0.118 C 
BRANCH  34  35
ATOM     35  N   UNL A   1      32.372  34.000  27.521  1.00  0.00    -0.352 N 
ATOM     36  C   UNL A   1      32.978  34.812  28.447  1.00  0.00     0.251 C 
ATOM     37  H   UNL A   1      31.661  34.429  26.990  1.00  0.00     0.163 HD
ATOM     38  O   UNL A   1      32.502  35.914  28.697  1.00  0.00    -0.269 OA
BRANCH  36  39
ATOM     39  C   UNL A   1      34.187  34.347  29.156  1.00  0.00     0.039 A 
ATOM     40  C   UNL A   1      34.043  33.696  30.384  1.00  0.00     0.014 A 
ATOM     41  C   UNL A   1      35.458  34.556  28.615  1.00  0.00     0.014 A 
ATOM     42  C   UNL A   1      35.171  33.195  31.035  1.00  0.00     0.010 A 
ATOM     43  C   UNL A   1      36.568  33.981  29.220  1.00  0.00     0.010 A 
ATOM     44  C   UNL A   1      36.438  33.302  30.440  1.00  0.00    -0.014 A 
BRANCH  44  45
ATOM     45  C   UNL A   1      37.645  32.724  31.076  1.00  0.00     0.031 A 
ATOM     46  C   UNL A   1      38.323  31.535  30.455  1.00  0.00     0.074 A 
ATOM     47  C   UNL A   1      38.075  33.208  32.256  1.00  0.00     0.049 A 
ATOM     48  N   UNL A   1      39.316  30.816  30.912  1.00  0.00    -0.248 NA
ATOM     49  C   UNL A   1      37.785  31.068  29.167  1.00  0.00     0.031 C 
ATOM     50  C   UNL A   1      37.462  34.316  32.992  1.00  0.00     0.029 A 
ATOM     51  N   UNL A   1      39.118  32.814  33.055  1.00  0.00    -0.354 N 
ATOM     52  C   UNL A   1      39.502  29.800  29.984  1.00  0.00     0.074 A 
ATOM     53  C   UNL A   1      38.490  29.965  28.965  1.00  0.00     0.031 C 
ATOM     54  C   UNL A   1      38.147  34.519  34.130  1.00  0.00     0.029 A 
ATOM     55  C   UNL A   1      39.223  33.538  34.217  1.00  0.00     0.049 A 
ATOM     56  H   UNL A   1      39.732  32.081  32.818  1.00  0.00     0.167 HD
ATOM     57  C   UNL A   1      40.446  28.829  29.972  1.00  0.00     0.037 A 
ATOM     58  C   UNL A   1      40.085  33.417  35.243  1.00  0.00     0.037 A 
ATOM     59  C   UNL A   1      41.478  28.693  30.964  1.00  0.00     0.049 A 
ATOM     60  C   UNL A   1      41.151  32.359  35.188  1.00  0.00     0.074 A 
ATOM     61  C   UNL A   1      42.530  27.796  30.998  1.00  0.00     0.029 A 
ATOM     62  N   UNL A   1      41.586  29.481  32.101  1.00  0.00    -0.354 N 
ATOM     63  N   UNL A   1      41.362  31.449  34.269  1.00  0.00    -0.248 NA
ATOM     64  C   UNL A   1      42.101  32.317  36.308  1.00  0.00     0.031 C 
ATOM     65  C   UNL A   1      43.259  28.022  32.171  1.00  0.00     0.029 A 
ATOM     66  C   UNL A   1      42.679  29.082  32.850  1.00  0.00     0.049 A 
ATOM     67  H   UNL A   1      40.976  30.216  32.338  1.00  0.00     0.167 HD
ATOM     68  C   UNL A   1      42.477  30.736  34.689  1.00  0.00     0.074 A 
ATOM     69  C   UNL A   1      42.907  31.330  35.939  1.00  0.00     0.031 C 
ATOM     70  C   UNL A   1      43.090  29.685  34.092  1.00  0.00     0.037 A 
BRANCH  57  71
ATOM     71  C   UNL A   1      40.402  27.845  28.840  1.00  0.00     0.057 A 
ATOM     72  C   UNL A   1      39.638  26.673  28.910  1.00  0.00     0.134 A 
ATOM     73  C   UNL A   1      41.129  28.074  27.665  1.00  0.00     0.134 A 
ATOM     74  F   UNL A   1      38.930  26.388  30.014  1.00  0.00    -0.206 F 
ATOM     75  C   UNL A   1      39.623  25.748  27.865  1.00  0.00     0.040 A 
ATOM     76  C   UNL A   1      41.101  27.168  26.603  1.00  0.00     0.040 A 
ATOM     77  F   UNL A   1      41.879  29.178  27.532  1.00  0.00    -0.206 F 
ATOM     78  C   UNL A   1      40.354  25.997  26.705  1.00  0.00     0.006 A 
ENDBRANCH  57  71
BRANCH  58  79
ATOM     79  C   UNL A   1      39.985  34.341  36.398  1.00  0.00     0.057 A 
ATOM     80  C   UNL A   1      39.276  33.982  37.549  1.00  0.00     0.134 A 
ATOM     81  C   UNL A   1      40.613  35.592  36.387  1.00  0.00     0.134 A 
ATOM     82  F   UNL A   1      38.642  32.801  37.610  1.00  0.00    -0.206 F 
ATOM     83  C   UNL A   1      39.185  34.837  38.648  1.00  0.00     0.040 A 
ATOM     84  C   UNL A   1      40.547  36.450  37.486  1.00  0.00     0.040 A 
ATOM     85  F   UNL A   1      41.314  35.989  35.316  1.00  0.00    -0.206 F 
ATOM     86  C   UNL A   1      39.828  36.074  38.620  1.00  0.00     0.006 A 
ENDBRANCH  58  79
BRANCH  70  87
ATOM     87  C   UNL A   1      44.300  29.123  34.775  1.00  0.00     0.057 A 
ATOM     88  C   UNL A   1      45.586  29.609  34.509  1.00  0.00     0.134 A 
ATOM     89  C   UNL A   1      44.172  28.114  35.737  1.00  0.00     0.134 A 
ATOM     90  F   UNL A   1      45.774  30.565  33.587  1.00  0.00    -0.206 F 
ATOM     91  C   UNL A   1      46.706  29.098  35.165  1.00  0.00     0.040 A 
ATOM     92  C   UNL A   1      45.281  27.611  36.415  1.00  0.00     0.040 A 
ATOM     93  F   UNL A   1      42.965  27.612  36.041  1.00  0.00    -0.206 F 
ATOM     94  C   UNL A   1      46.553  28.100  36.127  1.00  0.00     0.006 A 
ENDBRANCH  70  87
ENDBRANCH  44  45
ENDBRANCH  36  39
ENDBRANCH  34  35
ENDBRANCH  33  34
ENDBRANCH  32  33
ENDBRANCH   3  32
TORSDOF 16
ENDMDL
MODEL 2
REMARK VINA RESULT:     -12.6      3.675      8.237
REMARK SMILES COc1ccc(-c2cc(=O)oc3cc(OCC(=O)N[C@@H](C)C(=O)NCCCNC(=O)c4ccc(-c5c6nc(c(-c7c(F)cccc7F)c7ccc([nH]7)c(-c7c(F)cccc7F)c7nc(c(-c8c(F)cccc8F)c8ccc5[nH]8)C=C7)C=C6)cc4)ccc23)cc1
REMARK SMILES IDX 22 1 23 2 24 3 20 5 21 6 19 7 17 8 18 9 16 11 15 12 14 13
REMARK SMILES IDX 7 14 8 15 87 16 9 17 12 18 86 19 10 20 11 21 13 22 85 23
REMARK SMILES IDX 6 24 3 25 4 26 89 27 5 28 88 29 2 30 1 31 25 32 26 33 27 34
REMARK SMILES IDX 28 35 29 36 30 38 31 39 32 40 84 41 33 42 83 43 34 44 35 45
REMARK SMILES IDX 36 46 77 47 37 48 82 49 76 50 78 51 38 52 81 53 75 54 74 55
REMARK SMILES IDX 39 57 65 58 48 59 64 60 49 61 52 62 63 63 79 64 50 65 51 66
REMARK SMILES IDX 62 68 80 69 53 70 40 71 41 72 46 73 42 74 43 75 45 76 47 77
REMARK SMILES IDX 44 78 66 79 67 80 72 81 68 82 69 83 71 84 73 85 70 86 54 87
REMARK SMILES IDX 55 88 60 89 56 90 57 91 59 92 61 93 58 94
REMARK H PARENT 24 4 19 10 28 37 78 56 52 67
REMARK Flexibility Score: inf
ROOT
ATOM      1  C   UNL A   1      36.117  33.861  28.706  1.00  0.00     0.242 C 
ATOM      2  O   UNL A   1      37.277  33.902  29.117  1.00  0.00    -0.273 OA
ATOM      3  N   UNL A   1      35.514  35.042  28.371  1.00  0.00    -0.354 N 
ATOM      4  H   UNL A   1      36.042  35.844  28.585  1.00  0.00     0.163 HD
ENDROOT
BRANCH   1   5
ATOM      5  C   UNL A   1      35.397  32.521  28.488  1.00  0.00     0.168 C 
ATOM      6  C   UNL A   1      34.540  32.200  29.714  1.00  0.00     0.041 C 
BRANCH   5   7
ATOM      7  N   UNL A   1      36.392  31.499  28.146  1.00  0.00    -0.342 N 
ATOM      8  C   UNL A   1      36.197  30.218  27.711  1.00  0.00     0.258 C 
ATOM      9  O   UNL A   1      37.169  29.578  27.308  1.00  0.00    -0.271 OA
ATOM     10  H   UNL A   1      37.332  31.774  28.243  1.00  0.00     0.164 HD
BRANCH   8  11
ATOM     11  C   UNL A   1      34.802  29.626  27.725  1.00  0.00     0.329 C 
BRANCH  11  12
ATOM     12  O   UNL A   1      34.326  29.761  26.396  1.00  0.00    -0.484 OA
BRANCH  12  13
ATOM     13  C   UNL A   1      33.882  28.639  25.765  1.00  0.00     0.123 A 
ATOM     14  C   UNL A   1      30.597  26.887  24.336  1.00  0.00    -0.000 A 
ATOM     15  C   UNL A   1      29.843  26.069  25.084  1.00  0.00     0.103 A 
ATOM     16  C   UNL A   1      32.043  26.953  24.648  1.00  0.00     0.026 A 
ATOM     17  C   UNL A   1      30.440  25.365  26.239  1.00  0.00     0.336 A 
ATOM     18  C   UNL A   1      32.324  26.838  26.000  1.00  0.00     0.142 A 
ATOM     19  C   UNL A   1      32.898  27.675  23.806  1.00  0.00     0.016 A 
ATOM     20  O   UNL A   1      29.882  24.407  26.761  1.00  0.00    -0.246 OA
ATOM     21  O   UNL A   1      31.559  25.980  26.804  1.00  0.00    -0.423 OA
ATOM     22  C   UNL A   1      33.225  27.711  26.582  1.00  0.00     0.094 A 
ATOM     23  C   UNL A   1      33.814  28.551  24.376  1.00  0.00     0.047 A 
BRANCH  14  24
ATOM     24  C   UNL A   1      29.938  28.073  23.731  1.00  0.00    -0.017 A 
ATOM     25  C   UNL A   1      28.226  30.181  23.128  1.00  0.00     0.118 A 
ATOM     26  C   UNL A   1      29.535  30.438  23.550  1.00  0.00     0.047 A 
ATOM     27  C   UNL A   1      27.802  28.884  22.880  1.00  0.00     0.047 A 
ATOM     28  C   UNL A   1      30.396  29.380  23.867  1.00  0.00     0.012 A 
ATOM     29  C   UNL A   1      28.659  27.836  23.176  1.00  0.00     0.012 A 
BRANCH  25  30
ATOM     30  O   UNL A   1      27.360  31.229  22.966  1.00  0.00    -0.497 OA
ATOM     31  C   UNL A   1      28.005  32.284  22.243  1.00  0.00     0.278 C 
ENDBRANCH  25  30
ENDBRANCH  14  24
ENDBRANCH  12  13
ENDBRANCH  11  12
ENDBRANCH   8  11
ENDBRANCH   5   7
ENDBRANCH   1   5
BRANCH   3  32
ATOM     32  C   UNL A   1      34.225  35.314  27.752  1.00  0.00     0.117 C 
BRANCH  32  33
ATOM     33  C   UNL A   1      33.124  35.523  28.781  1.00  0.00     0.042 C 
BRANCH  33  34
ATOM     34  C   UNL A   1      33.548  36.378  29.965  1.00  0.00     0.118 C 
BRANCH  34  35
ATOM     35  N   UNL A   1      32.554  36.398  31.026  1.00  0.00    -0.352 N 
ATOM     36  C   UNL A   1      32.543  35.739  32.230  1.00  0.00     0.251 C 
ATOM     37  H   UNL A   1      31.770  36.970  30.856  1.00  0.00     0.163 HD
ATOM     38  O   UNL A   1      31.526  35.734  32.915  1.00  0.00    -0.269 OA
BRANCH  36  39
ATOM     39  C   UNL A   1      33.749  35.019  32.688  1.00  0.00     0.039 A 
ATOM     40  C   UNL A   1      33.608  33.735  33.222  1.00  0.00     0.014 A 
ATOM     41  C   UNL A   1      35.012  35.608  32.594  1.00  0.00     0.014 A 
ATOM     42  C   UNL A   1      34.744  33.017  33.599  1.00  0.00     0.010 A 
ATOM     43  C   UNL A   1      36.145  34.860  32.887  1.00  0.00     0.010 A 
ATOM     44  C   UNL A   1      36.023  33.560  33.400  1.00  0.00    -0.014 A 
BRANCH  44  45
ATOM     45  C   UNL A   1      37.249  32.797  33.731  1.00  0.00     0.031 A 
ATOM     46  C   UNL A   1      38.016  33.117  34.984  1.00  0.00     0.074 A 
ATOM     47  C   UNL A   1      37.722  31.884  32.863  1.00  0.00     0.049 A 
ATOM     48  N   UNL A   1      39.166  32.646  35.393  1.00  0.00    -0.248 NA
ATOM     49  C   UNL A   1      37.429  34.130  35.875  1.00  0.00     0.031 C 
ATOM     50  C   UNL A   1      37.105  31.532  31.583  1.00  0.00     0.029 A 
ATOM     51  N   UNL A   1      38.847  31.101  32.916  1.00  0.00    -0.354 N 
ATOM     52  C   UNL A   1      39.452  33.325  36.571  1.00  0.00     0.074 A 
ATOM     53  C   UNL A   1      38.381  34.273  36.784  1.00  0.00     0.031 C 
ATOM     54  C   UNL A   1      37.853  30.595  30.977  1.00  0.00     0.029 A 
ATOM     55  C   UNL A   1      39.016  30.306  31.810  1.00  0.00     0.049 A 
ATOM     56  H   UNL A   1      39.474  31.109  33.676  1.00  0.00     0.167 HD
ATOM     57  C   UNL A   1      40.501  33.158  37.409  1.00  0.00     0.037 A 
ATOM     58  C   UNL A   1      40.004  29.447  31.497  1.00  0.00     0.037 A 
ATOM     59  C   UNL A   1      41.543  32.184  37.216  1.00  0.00     0.049 A 
ATOM     60  C   UNL A   1      41.137  29.246  32.463  1.00  0.00     0.074 A 
ATOM     61  C   UNL A   1      42.604  31.878  38.049  1.00  0.00     0.029 A 
ATOM     62  N   UNL A   1      41.650  31.356  36.108  1.00  0.00    -0.354 N 
ATOM     63  N   UNL A   1      41.359  29.842  33.609  1.00  0.00    -0.248 NA
ATOM     64  C   UNL A   1      42.152  28.249  32.095  1.00  0.00     0.031 C 
ATOM     65  C   UNL A   1      43.371  30.885  37.430  1.00  0.00     0.029 A 
ATOM     66  C   UNL A   1      42.769  30.549  36.228  1.00  0.00     0.049 A 
ATOM     67  H   UNL A   1      41.024  31.344  35.349  1.00  0.00     0.167 HD
ATOM     68  C   UNL A   1      42.527  29.282  34.108  1.00  0.00     0.074 A 
ATOM     69  C   UNL A   1      42.959  28.289  33.146  1.00  0.00     0.031 C 
ATOM     70  C   UNL A   1      43.182  29.566  35.260  1.00  0.00     0.037 A 
BRANCH  57  71
ATOM     71  C   UNL A   1      40.564  34.048  38.615  1.00  0.00     0.057 A 
ATOM     72  C   UNL A   1      41.258  35.264  38.600  1.00  0.00     0.134 A 
ATOM     73  C   UNL A   1      39.919  33.687  39.804  1.00  0.00     0.134 A 
ATOM     74  F   UNL A   1      41.910  35.661  37.495  1.00  0.00    -0.206 F 
ATOM     75  C   UNL A   1      41.336  36.075  39.733  1.00  0.00     0.040 A 
ATOM     76  C   UNL A   1      39.968  34.502  40.937  1.00  0.00     0.040 A 
ATOM     77  F   UNL A   1      39.233  32.536  39.886  1.00  0.00    -0.206 F 
ATOM     78  C   UNL A   1      40.686  35.695  40.905  1.00  0.00     0.006 A 
ENDBRANCH  57  71
BRANCH  58  79
ATOM     79  C   UNL A   1      39.946  28.697  30.220  1.00  0.00     0.057 A 
ATOM     80  C   UNL A   1      40.599  29.170  29.077  1.00  0.00     0.134 A 
ATOM     81  C   UNL A   1      39.259  27.482  30.117  1.00  0.00     0.134 A 
ATOM     82  F   UNL A   1      41.260  30.337  29.112  1.00  0.00    -0.206 F 
ATOM     83  C   UNL A   1      40.563  28.467  27.871  1.00  0.00     0.040 A 
ATOM     84  C   UNL A   1      39.231  26.759  28.924  1.00  0.00     0.040 A 
ATOM     85  F   UNL A   1      38.621  26.973  31.181  1.00  0.00    -0.206 F 
ATOM     86  C   UNL A   1      39.883  27.253  27.796  1.00  0.00     0.006 A 
ENDBRANCH  58  79
BRANCH  70  87
ATOM     87  C   UNL A   1      44.425  28.780  35.550  1.00  0.00     0.057 A 
ATOM     88  C   UNL A   1      44.381  27.573  36.258  1.00  0.00     0.134 A 
ATOM     89  C   UNL A   1      45.670  29.215  35.082  1.00  0.00     0.134 A 
ATOM     90  F   UNL A   1      43.219  27.112  36.744  1.00  0.00    -0.206 F 
ATOM     91  C   UNL A   1      45.538  26.833  36.504  1.00  0.00     0.040 A 
ATOM     92  C   UNL A   1      46.830  28.474  35.303  1.00  0.00     0.040 A 
ATOM     93  F   UNL A   1      45.776  30.361  34.391  1.00  0.00    -0.206 F 
ATOM     94  C   UNL A   1      46.767  27.281  36.019  1.00  0.00     0.006 A 
ENDBRANCH  70  87
ENDBRANCH  44  45
ENDBRANCH  36  39
ENDBRANCH  34  35
ENDBRANCH  33  34
ENDBRANCH  32  33
ENDBRANCH   3  32
TORSDOF 16
ENDMDL
MODEL 3
REMARK VINA RESULT:     -12.6      1.832      2.648
REMARK SMILES COc1ccc(-c2cc(=O)oc3cc(OCC(=O)N[C@@H](C)C(=O)NCCCNC(=O)c4ccc(-c5c6nc(c(-c7c(F)cccc7F)c7ccc([nH]7)c(-c7c(F)cccc7F)c7nc(c(-c8c(F)cccc8F)c8ccc5[nH]8)C=C7)C=C6)cc4)ccc23)cc1
REMARK SMILES IDX 22 1 23 2 24 3 20 5 21 6 19 7 17 8 18 9 16 11 15 12 14 13
REMARK SMILES IDX 7 14 8 15 87 16 9 17 12 18 86 19 10 20 11 21 13 22 85 23
REMARK SMILES IDX 6 24 3 25 4 26 89 27 5 28 88 29 2 30 1 31 25 32 26 33 27 34
REMARK SMILES IDX 28 35 29 36 30 38 31 39 32 40 84 41 33 42 83 43 34 44 35 45
REMARK SMILES IDX 36 46 77 47 37 48 82 49 76 50 78 51 38 52 81 53 75 54 74 55
REMARK SMILES IDX 39 57 65 58 48 59 64 60 49 61 52 62 63 63 79 64 50 65 51 66
REMARK SMILES IDX 62 68 80 69 53 70 40 71 41 72 46 73 42 74 43 75 45 76 47 77
REMARK SMILES IDX 44 78 66 79 67 80 72 81 68 82 69 83 71 84 73 85 70 86 54 87
REMARK SMILES IDX 55 88 60 89 56 90 57 91 59 92 61 93 58 94
REMARK H PARENT 24 4 19 10 28 37 78 56 52 67
REMARK Flexibility Score: inf
ROOT
ATOM      1  C   UNL A   1      30.600  27.802  22.664  1.00  0.00     0.242 C 
ATOM      2  O   UNL A   1      29.719  28.500  22.160  1.00  0.00    -0.273 OA
ATOM      3  N   UNL A   1      31.901  28.095  22.362  1.00  0.00    -0.354 N 
ATOM      4  H   UNL A   1      32.012  28.792  21.676  1.00  0.00     0.163 HD
ENDROOT
BRANCH   1   5
ATOM      5  C   UNL A   1      30.257  26.696  23.674  1.00  0.00     0.168 C 
ATOM      6  C   UNL A   1      28.762  26.381  23.595  1.00  0.00     0.041 C 
BRANCH   5   7
ATOM      7  N   UNL A   1      30.734  27.100  25.001  1.00  0.00    -0.342 N 
ATOM      8  C   UNL A   1      31.042  26.322  26.081  1.00  0.00     0.258 C 
ATOM      9  O   UNL A   1      31.597  26.847  27.048  1.00  0.00    -0.271 OA
ATOM     10  H   UNL A   1      30.847  28.069  25.133  1.00  0.00     0.164 HD
BRANCH   8  11
ATOM     11  C   UNL A   1      30.708  24.843  26.058  1.00  0.00     0.329 C 
BRANCH  11  12
ATOM     12  O   UNL A   1      31.868  24.191  26.551  1.00  0.00    -0.484 OA
BRANCH  12  13
ATOM     13  C   UNL A   1      32.826  23.836  25.651  1.00  0.00     0.123 A 
ATOM     14  C   UNL A   1      35.233  20.840  24.589  1.00  0.00    -0.000 A 
ATOM     15  C   UNL A   1      36.469  20.706  25.091  1.00  0.00     0.103 A 
ATOM     16  C   UNL A   1      34.688  22.212  24.482  1.00  0.00     0.026 A 
ATOM     17  C   UNL A   1      37.185  21.890  25.613  1.00  0.00     0.336 A 
ATOM     18  C   UNL A   1      35.081  23.047  25.515  1.00  0.00     0.142 A 
ATOM     19  C   UNL A   1      33.465  22.419  23.829  1.00  0.00     0.016 A 
ATOM     20  O   UNL A   1      38.396  21.870  25.806  1.00  0.00    -0.246 OA
ATOM     21  O   UNL A   1      36.373  22.938  26.050  1.00  0.00    -0.423 OA
ATOM     22  C   UNL A   1      34.138  23.845  26.138  1.00  0.00     0.094 A 
ATOM     23  C   UNL A   1      32.511  23.225  24.440  1.00  0.00     0.047 A 
BRANCH  14  24
ATOM     24  C   UNL A   1      34.291  19.704  24.763  1.00  0.00    -0.017 A 
ATOM     25  C   UNL A   1      33.041  17.344  25.541  1.00  0.00     0.118 A 
ATOM     26  C   UNL A   1      32.473  18.580  25.869  1.00  0.00     0.047 A 
ATOM     27  C   UNL A   1      34.155  17.270  24.719  1.00  0.00     0.047 A 
ATOM     28  C   UNL A   1      33.107  19.771  25.491  1.00  0.00     0.012 A 
ATOM     29  C   UNL A   1      34.773  18.447  24.328  1.00  0.00     0.012 A 
BRANCH  25  30
ATOM     30  O   UNL A   1      32.484  16.201  26.047  1.00  0.00    -0.497 OA
ATOM     31  C   UNL A   1      32.866  15.078  25.243  1.00  0.00     0.278 C 
ENDBRANCH  25  30
ENDBRANCH  14  24
ENDBRANCH  12  13
ENDBRANCH  11  12
ENDBRANCH   8  11
ENDBRANCH   5   7
ENDBRANCH   1   5
BRANCH   3  32
ATOM     32  C   UNL A   1      33.148  27.551  22.880  1.00  0.00     0.117 C 
BRANCH  32  33
ATOM     33  C   UNL A   1      34.018  28.620  23.526  1.00  0.00     0.042 C 
BRANCH  33  34
ATOM     34  C   UNL A   1      33.865  28.701  25.037  1.00  0.00     0.118 C 
BRANCH  34  35
ATOM     35  N   UNL A   1      33.008  29.801  25.454  1.00  0.00    -0.352 N 
ATOM     36  C   UNL A   1      33.107  30.622  26.550  1.00  0.00     0.251 C 
ATOM     37  H   UNL A   1      32.242  29.983  24.863  1.00  0.00     0.163 HD
ATOM     38  O   UNL A   1      32.181  31.373  26.836  1.00  0.00    -0.269 OA
BRANCH  36  39
ATOM     39  C   UNL A   1      34.318  30.582  27.395  1.00  0.00     0.039 A 
ATOM     40  C   UNL A   1      34.692  29.372  27.985  1.00  0.00     0.014 A 
ATOM     41  C   UNL A   1      35.078  31.734  27.608  1.00  0.00     0.014 A 
ATOM     42  C   UNL A   1      35.868  29.304  28.733  1.00  0.00     0.010 A 
ATOM     43  C   UNL A   1      36.292  31.645  28.279  1.00  0.00     0.010 A 
ATOM     44  C   UNL A   1      36.695  30.432  28.855  1.00  0.00    -0.014 A 
BRANCH  44  45
ATOM     45  C   UNL A   1      37.981  30.374  29.590  1.00  0.00     0.031 A 
ATOM     46  C   UNL A   1      39.152  29.644  28.994  1.00  0.00     0.074 A 
ATOM     47  C   UNL A   1      38.067  30.897  30.827  1.00  0.00     0.049 A 
ATOM     48  N   UNL A   1      40.320  29.384  29.522  1.00  0.00    -0.248 NA
ATOM     49  C   UNL A   1      38.969  29.100  27.640  1.00  0.00     0.031 C 
ATOM     50  C   UNL A   1      36.981  31.572  31.540  1.00  0.00     0.029 A 
ATOM     51  N   UNL A   1      39.113  30.921  31.714  1.00  0.00    -0.354 N 
ATOM     52  C   UNL A   1      40.998  28.624  28.578  1.00  0.00     0.074 A 
ATOM     53  C   UNL A   1      40.095  28.425  27.466  1.00  0.00     0.031 C 
ATOM     54  C   UNL A   1      37.421  31.953  32.751  1.00  0.00     0.029 A 
ATOM     55  C   UNL A   1      38.806  31.522  32.910  1.00  0.00     0.049 A 
ATOM     56  H   UNL A   1      40.000  30.543  31.512  1.00  0.00     0.167 HD
ATOM     57  C   UNL A   1      42.267  28.154  28.624  1.00  0.00     0.037 A 
ATOM     58  C   UNL A   1      39.554  31.697  34.014  1.00  0.00     0.037 A 
ATOM     59  C   UNL A   1      43.177  28.391  29.713  1.00  0.00     0.049 A 
ATOM     60  C   UNL A   1      40.973  31.204  34.027  1.00  0.00     0.074 A 
ATOM     61  C   UNL A   1      44.508  28.029  29.819  1.00  0.00     0.029 A 
ATOM     62  N   UNL A   1      42.846  29.053  30.886  1.00  0.00    -0.354 N 
ATOM     63  N   UNL A   1      41.627  30.551  33.099  1.00  0.00    -0.248 NA
ATOM     64  C   UNL A   1      41.759  31.480  35.238  1.00  0.00     0.031 C 
ATOM     65  C   UNL A   1      44.975  28.447  31.070  1.00  0.00     0.029 A 
ATOM     66  C   UNL A   1      43.943  29.098  31.728  1.00  0.00     0.049 A 
ATOM     67  H   UNL A   1      41.962  29.434  31.088  1.00  0.00     0.167 HD
ATOM     68  C   UNL A   1      42.905  30.351  33.602  1.00  0.00     0.074 A 
ATOM     69  C   UNL A   1      42.938  30.966  34.914  1.00  0.00     0.031 C 
ATOM     70  C   UNL A   1      43.956  29.715  33.030  1.00  0.00     0.037 A 
BRANCH  57  71
ATOM     71  C   UNL A   1      42.740  27.342  27.455  1.00  0.00     0.057 A 
ATOM     72  C   UNL A   1      42.578  25.952  27.407  1.00  0.00     0.134 A 
ATOM     73  C   UNL A   1      43.360  27.959  26.361  1.00  0.00     0.134 A 
ATOM     74  F   UNL A   1      42.005  25.299  28.430  1.00  0.00    -0.206 F 
ATOM     75  C   UNL A   1      43.046  25.198  26.329  1.00  0.00     0.040 A 
ATOM     76  C   UNL A   1      43.809  27.219  25.265  1.00  0.00     0.040 A 
ATOM     77  F   UNL A   1      43.543  29.288  26.340  1.00  0.00    -0.206 F 
ATOM     78  C   UNL A   1      43.660  25.834  25.251  1.00  0.00     0.006 A 
ENDBRANCH  57  71
BRANCH  58  79
ATOM     79  C   UNL A   1      38.976  32.392  35.189  1.00  0.00     0.057 A 
ATOM     80  C   UNL A   1      38.372  31.672  36.226  1.00  0.00     0.134 A 
ATOM     81  C   UNL A   1      39.033  33.784  35.315  1.00  0.00     0.134 A 
ATOM     82  F   UNL A   1      38.274  30.336  36.153  1.00  0.00    -0.206 F 
ATOM     83  C   UNL A   1      37.835  32.313  37.344  1.00  0.00     0.040 A 
ATOM     84  C   UNL A   1      38.518  34.437  36.435  1.00  0.00     0.040 A 
ATOM     85  F   UNL A   1      39.608  34.527  34.358  1.00  0.00    -0.206 F 
ATOM     86  C   UNL A   1      37.914  33.701  37.453  1.00  0.00     0.006 A 
ENDBRANCH  58  79
BRANCH  70  87
ATOM     87  C   UNL A   1      45.234  29.669  33.812  1.00  0.00     0.057 A 
ATOM     88  C   UNL A   1      45.530  28.607  34.674  1.00  0.00     0.134 A 
ATOM     89  C   UNL A   1      46.194  30.678  33.668  1.00  0.00     0.134 A 
ATOM     90  F   UNL A   1      44.643  27.619  34.864  1.00  0.00    -0.206 F 
ATOM     91  C   UNL A   1      46.732  28.558  35.381  1.00  0.00     0.040 A 
ATOM     92  C   UNL A   1      47.409  30.629  34.352  1.00  0.00     0.040 A 
ATOM     93  F   UNL A   1      45.973  31.719  32.851  1.00  0.00    -0.206 F 
ATOM     94  C   UNL A   1      47.679  29.568  35.214  1.00  0.00     0.006 A 
ENDBRANCH  70  87
ENDBRANCH  44  45
ENDBRANCH  36  39
ENDBRANCH  34  35
ENDBRANCH  33  34
ENDBRANCH  32  33
ENDBRANCH   3  32
TORSDOF 16
ENDMDL
