MODEL 1
REMARK VINA RESULT:     -12.7      0.000      0.000
REMARK SMILES O=C(NCCCNC(=O)c1ccccc1/C=C1\SC(=S)N(Cc2ccccc2)C1=O)c1ccc(-c2c3nc(c(-c4c(F)cccc4F)c4ccc([nH]4)c(-c4c(F)cccc4F)c4nc(c(-c5c(F)cccc5F)c5ccc2[nH]5)C=C4)C=C3)cc1
REMARK SMILES IDX 5 1 4 2 3 3 1 4 2 5 31 7 32 8 84 9 33 10 83 11 34 12 35 13
REMARK SMILES IDX 36 14 77 15 37 16 82 17 76 18 78 19 38 20 81 21 75 22 74 23
REMARK SMILES IDX 39 25 65 26 48 27 64 28 49 29 52 30 63 31 79 32 50 33 51 34
REMARK SMILES IDX 62 36 80 37 53 38 40 39 41 40 46 41 42 42 43 43 45 44 47 45
REMARK SMILES IDX 44 46 66 47 67 48 72 49 68 50 69 51 71 52 73 53 70 54 54 55
REMARK SMILES IDX 55 56 60 57 56 58 57 59 59 60 61 61 58 62 6 63 7 64 8 65
REMARK SMILES IDX 9 67 10 68 11 69 15 70 12 71 14 72 13 73 16 74 17 75 18 76
REMARK SMILES IDX 29 77 19 78 21 79 30 80 20 81 22 82 23 83 24 84 28 85 25 86
REMARK SMILES IDX 27 87 26 88
REMARK H PARENT 3 6 78 24 52 35 7 66
REMARK Flexibility Score: inf
ROOT
ATOM      1  C   UNL A   1      37.662  19.940  24.981  1.00  0.00     0.042 C 
ENDROOT
BRANCH   1   2
ATOM      2  C   UNL A   1      38.894  20.358  25.769  1.00  0.00     0.118 C 
BRANCH   2   3
ATOM      3  N   UNL A   1      39.986  19.392  25.724  1.00  0.00    -0.352 N 
ATOM      4  O   UNL A   1      42.091  18.595  25.889  1.00  0.00    -0.269 OA
ATOM      5  C   UNL A   1      41.311  19.526  26.069  1.00  0.00     0.251 C 
ATOM      6  H   UNL A   1      39.734  18.499  25.393  1.00  0.00     0.163 HD
BRANCH   5   7
ATOM      7  C   UNL A   1      41.813  20.808  26.610  1.00  0.00     0.039 A 
ATOM      8  C   UNL A   1      41.861  21.036  27.985  1.00  0.00     0.014 A 
ATOM      9  C   UNL A   1      42.216  21.810  25.723  1.00  0.00     0.014 A 
ATOM     10  C   UNL A   1      42.101  22.318  28.461  1.00  0.00     0.010 A 
ATOM     11  C   UNL A   1      42.577  23.069  26.213  1.00  0.00     0.010 A 
ATOM     12  C   UNL A   1      42.475  23.348  27.584  1.00  0.00    -0.014 A 
BRANCH  12  13
ATOM     13  C   UNL A   1      42.795  24.689  28.138  1.00  0.00     0.031 A 
ATOM     14  C   UNL A   1      44.210  25.088  28.454  1.00  0.00     0.074 A 
ATOM     15  C   UNL A   1      41.790  25.570  28.313  1.00  0.00     0.049 A 
ATOM     16  N   UNL A   1      44.656  26.222  28.934  1.00  0.00    -0.248 NA
ATOM     17  C   UNL A   1      45.260  24.088  28.213  1.00  0.00     0.031 C 
ATOM     18  C   UNL A   1      40.375  25.296  28.047  1.00  0.00     0.029 A 
ATOM     19  N   UNL A   1      41.802  26.876  28.729  1.00  0.00    -0.354 N 
ATOM     20  C   UNL A   1      46.029  26.064  29.079  1.00  0.00     0.074 A 
ATOM     21  C   UNL A   1      46.343  24.717  28.652  1.00  0.00     0.031 C 
ATOM     22  C   UNL A   1      39.665  26.414  28.249  1.00  0.00     0.029 A 
ATOM     23  C   UNL A   1      40.559  27.460  28.728  1.00  0.00     0.049 A 
ATOM     24  H   UNL A   1      42.621  27.348  29.002  1.00  0.00     0.167 HD
ATOM     25  C   UNL A   1      46.943  26.962  29.521  1.00  0.00     0.037 A 
ATOM     26  C   UNL A   1      40.173  28.695  29.092  1.00  0.00     0.037 A 
ATOM     27  C   UNL A   1      46.630  28.311  29.918  1.00  0.00     0.049 A 
ATOM     28  C   UNL A   1      41.203  29.664  29.588  1.00  0.00     0.074 A 
ATOM     29  C   UNL A   1      47.491  29.306  30.347  1.00  0.00     0.029 A 
ATOM     30  N   UNL A   1      45.353  28.854  29.934  1.00  0.00    -0.354 N 
ATOM     31  N   UNL A   1      42.498  29.501  29.705  1.00  0.00    -0.248 NA
ATOM     32  C   UNL A   1      40.718  30.983  30.014  1.00  0.00     0.031 C 
ATOM     33  C   UNL A   1      46.732  30.439  30.660  1.00  0.00     0.029 A 
ATOM     34  C   UNL A   1      45.402  30.163  30.385  1.00  0.00     0.049 A 
ATOM     35  H   UNL A   1      44.534  28.379  29.666  1.00  0.00     0.167 HD
ATOM     36  C   UNL A   1      42.986  30.698  30.208  1.00  0.00     0.074 A 
ATOM     37  C   UNL A   1      41.849  31.585  30.353  1.00  0.00     0.031 C 
ATOM     38  C   UNL A   1      44.260  31.030  30.527  1.00  0.00     0.037 A 
BRANCH  25  39
ATOM     39  C   UNL A   1      48.372  26.512  29.616  1.00  0.00     0.057 A 
ATOM     40  C   UNL A   1      49.296  26.750  28.591  1.00  0.00     0.134 A 
ATOM     41  C   UNL A   1      48.842  25.875  30.774  1.00  0.00     0.134 A 
ATOM     42  F   UNL A   1      48.910  27.345  27.453  1.00  0.00    -0.206 F 
ATOM     43  C   UNL A   1      50.631  26.354  28.706  1.00  0.00     0.040 A 
ATOM     44  C   UNL A   1      50.178  25.495  30.909  1.00  0.00     0.040 A 
ATOM     45  F   UNL A   1      48.011  25.624  31.796  1.00  0.00    -0.206 F 
ATOM     46  C   UNL A   1      51.076  25.731  29.870  1.00  0.00     0.006 A 
ENDBRANCH  25  39
BRANCH  26  47
ATOM     47  C   UNL A   1      38.741  29.070  29.007  1.00  0.00     0.057 A 
ATOM     48  C   UNL A   1      37.903  28.988  30.123  1.00  0.00     0.134 A 
ATOM     49  C   UNL A   1      38.186  29.548  27.813  1.00  0.00     0.134 A 
ATOM     50  F   UNL A   1      38.376  28.524  31.289  1.00  0.00    -0.206 F 
ATOM     51  C   UNL A   1      36.561  29.362  30.055  1.00  0.00     0.040 A 
ATOM     52  C   UNL A   1      36.852  29.950  27.738  1.00  0.00     0.040 A 
ATOM     53  F   UNL A   1      38.942  29.660  26.710  1.00  0.00    -0.206 F 
ATOM     54  C   UNL A   1      36.034  29.852  28.861  1.00  0.00     0.006 A 
ENDBRANCH  26  47
BRANCH  38  55
ATOM     55  C   UNL A   1      44.487  32.418  31.045  1.00  0.00     0.057 A 
ATOM     56  C   UNL A   1      44.459  32.704  32.415  1.00  0.00     0.134 A 
ATOM     57  C   UNL A   1      44.755  33.474  30.165  1.00  0.00     0.134 A 
ATOM     58  F   UNL A   1      44.191  31.739  33.307  1.00  0.00    -0.206 F 
ATOM     59  C   UNL A   1      44.668  34.000  32.892  1.00  0.00     0.040 A 
ATOM     60  C   UNL A   1      44.987  34.768  30.630  1.00  0.00     0.040 A 
ATOM     61  F   UNL A   1      44.799  33.262  28.841  1.00  0.00    -0.206 F 
ATOM     62  C   UNL A   1      44.938  35.034  31.998  1.00  0.00     0.006 A 
ENDBRANCH  38  55
ENDBRANCH  12  13
ENDBRANCH   5   7
ENDBRANCH   2   3
ENDBRANCH   1   2
BRANCH   1  63
ATOM     63  C   UNL A   1      36.642  21.047  24.797  1.00  0.00     0.118 C 
BRANCH  63  64
ATOM     64  N   UNL A   1      35.763  21.213  25.944  1.00  0.00    -0.352 N 
ATOM     65  C   UNL A   1      34.411  21.000  26.049  1.00  0.00     0.251 C 
ATOM     66  H   UNL A   1      36.203  21.524  26.767  1.00  0.00     0.163 HD
ATOM     67  O   UNL A   1      33.840  21.284  27.099  1.00  0.00    -0.269 OA
BRANCH  65  68
ATOM     68  C   UNL A   1      33.626  20.482  24.906  1.00  0.00     0.047 A 
ATOM     69  C   UNL A   1      33.289  19.122  24.966  1.00  0.00     0.014 A 
ATOM     70  C   UNL A   1      33.229  21.268  23.806  1.00  0.00    -0.012 A 
ATOM     71  C   UNL A   1      32.506  18.551  23.966  1.00  0.00     0.001 A 
ATOM     72  C   UNL A   1      32.433  20.679  22.813  1.00  0.00     0.009 A 
ATOM     73  C   UNL A   1      32.073  19.330  22.896  1.00  0.00     0.001 A 
BRANCH  70  74
ATOM     74  C   UNL A   1      33.474  22.712  23.724  1.00  0.00     0.030 C 
ATOM     75  C   UNL A   1      32.585  23.711  23.786  1.00  0.00     0.081 C 
ATOM     76  S   UNL A   1      30.943  23.695  24.253  1.00  0.00    -0.054 SA
ATOM     77  C   UNL A   1      32.959  25.051  23.273  1.00  0.00     0.266 C 
ATOM     78  C   UNL A   1      30.742  25.420  23.921  1.00  0.00     0.148 C 
ATOM     79  N   UNL A   1      31.915  25.940  23.417  1.00  0.00    -0.288 N 
ATOM     80  O   UNL A   1      34.024  25.261  22.698  1.00  0.00    -0.268 OA
ATOM     81  S   UNL A   1      29.296  26.206  24.196  1.00  0.00    -0.052 S 
BRANCH  79  82
ATOM     82  C   UNL A   1      32.103  27.312  22.940  1.00  0.00     0.163 C 
BRANCH  82  83
ATOM     83  C   UNL A   1      32.384  28.276  24.072  1.00  0.00    -0.028 A 
ATOM     84  C   UNL A   1      31.441  29.240  24.449  1.00  0.00     0.005 A 
ATOM     85  C   UNL A   1      33.590  28.196  24.788  1.00  0.00     0.005 A 
ATOM     86  C   UNL A   1      31.698  30.096  25.523  1.00  0.00     0.000 A 
ATOM     87  C   UNL A   1      33.836  29.037  25.872  1.00  0.00     0.000 A 
ATOM     88  C   UNL A   1      32.890  29.989  26.238  1.00  0.00     0.000 A 
ENDBRANCH  82  83
ENDBRANCH  79  82
ENDBRANCH  70  74
ENDBRANCH  65  68
ENDBRANCH  63  64
ENDBRANCH   1  63
TORSDOF 13
ENDMDL
MODEL 2
REMARK VINA RESULT:     -12.6      0.212      6.190
REMARK SMILES O=C(NCCCNC(=O)c1ccccc1/C=C1\SC(=S)N(Cc2ccccc2)C1=O)c1ccc(-c2c3nc(c(-c4c(F)cccc4F)c4ccc([nH]4)c(-c4c(F)cccc4F)c4nc(c(-c5c(F)cccc5F)c5ccc2[nH]5)C=C4)C=C3)cc1
REMARK SMILES IDX 5 1 4 2 3 3 1 4 2 5 31 7 32 8 84 9 33 10 83 11 34 12 35 13
REMARK SMILES IDX 36 14 77 15 37 16 82 17 76 18 78 19 38 20 81 21 75 22 74 23
REMARK SMILES IDX 39 25 65 26 48 27 64 28 49 29 52 30 63 31 79 32 50 33 51 34
REMARK SMILES IDX 62 36 80 37 53 38 40 39 41 40 46 41 42 42 43 43 45 44 47 45
REMARK SMILES IDX 44 46 66 47 67 48 72 49 68 50 69 51 71 52 73 53 70 54 54 55
REMARK SMILES IDX 55 56 60 57 56 58 57 59 59 60 61 61 58 62 6 63 7 64 8 65
REMARK SMILES IDX 9 67 10 68 11 69 15 70 12 71 14 72 13 73 16 74 17 75 18 76
REMARK SMILES IDX 29 77 19 78 21 79 30 80 20 81 22 82 23 83 24 84 28 85 25 86
REMARK SMILES IDX 27 87 26 88
REMARK H PARENT 3 6 78 24 52 35 7 66
REMARK Flexibility Score: inf
ROOT
ATOM      1  C   UNL A   1      37.664  19.945  24.981  1.00  0.00     0.042 C 
ENDROOT
BRANCH   1   2
ATOM      2  C   UNL A   1      38.902  20.377  25.751  1.00  0.00     0.118 C 
BRANCH   2   3
ATOM      3  N   UNL A   1      39.983  19.396  25.740  1.00  0.00    -0.352 N 
ATOM      4  O   UNL A   1      42.077  18.580  25.940  1.00  0.00    -0.269 OA
ATOM      5  C   UNL A   1      41.307  19.525  26.088  1.00  0.00     0.251 C 
ATOM      6  H   UNL A   1      39.722  18.498  25.434  1.00  0.00     0.163 HD
BRANCH   5   7
ATOM      7  C   UNL A   1      41.821  20.816  26.595  1.00  0.00     0.039 A 
ATOM      8  C   UNL A   1      41.837  21.095  27.960  1.00  0.00     0.014 A 
ATOM      9  C   UNL A   1      42.271  21.775  25.682  1.00  0.00     0.014 A 
ATOM     10  C   UNL A   1      42.091  22.389  28.395  1.00  0.00     0.010 A 
ATOM     11  C   UNL A   1      42.646  23.044  26.134  1.00  0.00     0.010 A 
ATOM     12  C   UNL A   1      42.511  23.377  27.490  1.00  0.00    -0.014 A 
BRANCH  12  13
ATOM     13  C   UNL A   1      42.846  24.731  28.002  1.00  0.00     0.031 A 
ATOM     14  C   UNL A   1      41.777  25.757  28.263  1.00  0.00     0.074 A 
ATOM     15  C   UNL A   1      44.135  25.017  28.274  1.00  0.00     0.049 A 
ATOM     16  N   UNL A   1      41.903  26.979  28.716  1.00  0.00    -0.248 NA
ATOM     17  C   UNL A   1      40.388  25.369  27.970  1.00  0.00     0.031 C 
ATOM     18  C   UNL A   1      45.262  24.105  28.056  1.00  0.00     0.029 A 
ATOM     19  N   UNL A   1      44.714  26.136  28.812  1.00  0.00    -0.354 N 
ATOM     20  C   UNL A   1      40.621  27.515  28.737  1.00  0.00     0.074 A 
ATOM     21  C   UNL A   1      39.731  26.490  28.234  1.00  0.00     0.031 C 
ATOM     22  C   UNL A   1      46.384  24.678  28.511  1.00  0.00     0.029 A 
ATOM     23  C   UNL A   1      46.071  26.020  28.983  1.00  0.00     0.049 A 
ATOM     24  H   UNL A   1      44.205  26.943  29.053  1.00  0.00     0.167 HD
ATOM     25  C   UNL A   1      40.224  28.745  29.144  1.00  0.00     0.037 A 
ATOM     26  C   UNL A   1      46.973  26.902  29.449  1.00  0.00     0.037 A 
ATOM     27  C   UNL A   1      41.112  29.752  29.670  1.00  0.00     0.049 A 
ATOM     28  C   UNL A   1      46.508  28.260  29.881  1.00  0.00     0.074 A 
ATOM     29  C   UNL A   1      40.799  31.015  30.141  1.00  0.00     0.029 A 
ATOM     30  N   UNL A   1      42.486  29.607  29.796  1.00  0.00    -0.354 N 
ATOM     31  N   UNL A   1      45.290  28.744  29.906  1.00  0.00    -0.248 NA
ATOM     32  C   UNL A   1      47.541  29.197  30.338  1.00  0.00     0.031 C 
ATOM     33  C   UNL A   1      41.989  31.650  30.515  1.00  0.00     0.029 A 
ATOM     34  C   UNL A   1      43.037  30.766  30.317  1.00  0.00     0.049 A 
ATOM     35  H   UNL A   1      42.994  28.801  29.550  1.00  0.00     0.167 HD
ATOM     36  C   UNL A   1      45.408  30.038  30.390  1.00  0.00     0.074 A 
ATOM     37  C   UNL A   1      46.814  30.255  30.666  1.00  0.00     0.031 C 
ATOM     38  C   UNL A   1      44.439  30.966  30.582  1.00  0.00     0.037 A 
BRANCH  25  39
ATOM     39  C   UNL A   1      38.767  29.083  29.021  1.00  0.00     0.057 A 
ATOM     40  C   UNL A   1      37.895  29.017  30.114  1.00  0.00     0.134 A 
ATOM     41  C   UNL A   1      38.240  29.530  27.801  1.00  0.00     0.134 A 
ATOM     42  F   UNL A   1      38.331  28.589  31.307  1.00  0.00    -0.206 F 
ATOM     43  C   UNL A   1      36.547  29.365  29.995  1.00  0.00     0.040 A 
ATOM     44  C   UNL A   1      36.901  29.901  27.674  1.00  0.00     0.040 A 
ATOM     45  F   UNL A   1      39.024  29.623  26.716  1.00  0.00    -0.206 F 
ATOM     46  C   UNL A   1      36.049  29.815  28.773  1.00  0.00     0.006 A 
ENDBRANCH  25  39
BRANCH  26  47
ATOM     47  C   UNL A   1      48.404  26.521  29.515  1.00  0.00     0.057 A 
ATOM     48  C   UNL A   1      49.286  26.837  28.477  1.00  0.00     0.134 A 
ATOM     49  C   UNL A   1      48.928  25.859  30.633  1.00  0.00     0.134 A 
ATOM     50  F   UNL A   1      48.838  27.457  27.376  1.00  0.00    -0.206 F 
ATOM     51  C   UNL A   1      50.639  26.502  28.543  1.00  0.00     0.040 A 
ATOM     52  C   UNL A   1      50.284  25.542  30.724  1.00  0.00     0.040 A 
ATOM     53  F   UNL A   1      48.134  25.539  31.665  1.00  0.00    -0.206 F 
ATOM     54  C   UNL A   1      51.142  25.860  29.674  1.00  0.00     0.006 A 
ENDBRANCH  26  47
BRANCH  38  55
ATOM     55  C   UNL A   1      44.872  32.290  31.135  1.00  0.00     0.057 A 
ATOM     56  C   UNL A   1      45.224  33.355  30.298  1.00  0.00     0.134 A 
ATOM     57  C   UNL A   1      44.918  32.506  32.518  1.00  0.00     0.134 A 
ATOM     58  F   UNL A   1      45.215  33.206  28.965  1.00  0.00    -0.206 F 
ATOM     59  C   UNL A   1      45.629  34.586  30.818  1.00  0.00     0.040 A 
ATOM     60  C   UNL A   1      45.300  33.737  33.049  1.00  0.00     0.040 A 
ATOM     61  F   UNL A   1      44.589  31.525  33.371  1.00  0.00    -0.206 F 
ATOM     62  C   UNL A   1      45.662  34.780  32.198  1.00  0.00     0.006 A 
ENDBRANCH  38  55
ENDBRANCH  12  13
ENDBRANCH   5   7
ENDBRANCH   2   3
ENDBRANCH   1   2
BRANCH   1  63
ATOM     63  C   UNL A   1      36.636  21.043  24.798  1.00  0.00     0.118 C 
BRANCH  63  64
ATOM     64  N   UNL A   1      35.753  21.199  25.943  1.00  0.00    -0.352 N 
ATOM     65  C   UNL A   1      34.405  20.965  26.048  1.00  0.00     0.251 C 
ATOM     66  H   UNL A   1      36.187  21.520  26.765  1.00  0.00     0.163 HD
ATOM     67  O   UNL A   1      33.828  21.243  27.096  1.00  0.00    -0.269 OA
BRANCH  65  68
ATOM     68  C   UNL A   1      33.629  20.430  24.906  1.00  0.00     0.047 A 
ATOM     69  C   UNL A   1      33.292  19.071  24.982  1.00  0.00     0.014 A 
ATOM     70  C   UNL A   1      33.240  21.200  23.791  1.00  0.00    -0.012 A 
ATOM     71  C   UNL A   1      32.518  18.486  23.984  1.00  0.00     0.001 A 
ATOM     72  C   UNL A   1      32.453  20.597  22.801  1.00  0.00     0.009 A 
ATOM     73  C   UNL A   1      32.093  19.249  22.900  1.00  0.00     0.001 A 
BRANCH  70  74
ATOM     74  C   UNL A   1      33.485  22.644  23.691  1.00  0.00     0.030 C 
ATOM     75  C   UNL A   1      32.604  23.646  23.796  1.00  0.00     0.081 C 
ATOM     76  S   UNL A   1      30.988  23.636  24.350  1.00  0.00    -0.054 SA
ATOM     77  C   UNL A   1      32.954  24.983  23.260  1.00  0.00     0.266 C 
ATOM     78  C   UNL A   1      30.775  25.360  24.022  1.00  0.00     0.148 C 
ATOM     79  N   UNL A   1      31.922  25.875  23.454  1.00  0.00    -0.288 N 
ATOM     80  O   UNL A   1      33.987  25.187  22.628  1.00  0.00    -0.268 OA
ATOM     81  S   UNL A   1      29.349  26.152  24.371  1.00  0.00    -0.052 S 
BRANCH  79  82
ATOM     82  C   UNL A   1      32.088  27.245  22.964  1.00  0.00     0.163 C 
BRANCH  82  83
ATOM     83  C   UNL A   1      32.391  28.219  24.081  1.00  0.00    -0.028 A 
ATOM     84  C   UNL A   1      31.488  29.235  24.417  1.00  0.00     0.005 A 
ATOM     85  C   UNL A   1      33.576  28.097  24.825  1.00  0.00     0.005 A 
ATOM     86  C   UNL A   1      31.763  30.102  25.478  1.00  0.00     0.000 A 
ATOM     87  C   UNL A   1      33.840  28.950  25.896  1.00  0.00     0.000 A 
ATOM     88  C   UNL A   1      32.933  29.953  26.222  1.00  0.00     0.000 A 
ENDBRANCH  82  83
ENDBRANCH  79  82
ENDBRANCH  70  74
ENDBRANCH  65  68
ENDBRANCH  63  64
ENDBRANCH   1  63
TORSDOF 13
ENDMDL
MODEL 3
REMARK VINA RESULT:     -12.5      3.630      9.216
REMARK SMILES O=C(NCCCNC(=O)c1ccccc1/C=C1\SC(=S)N(Cc2ccccc2)C1=O)c1ccc(-c2c3nc(c(-c4c(F)cccc4F)c4ccc([nH]4)c(-c4c(F)cccc4F)c4nc(c(-c5c(F)cccc5F)c5ccc2[nH]5)C=C4)C=C3)cc1
REMARK SMILES IDX 5 1 4 2 3 3 1 4 2 5 31 7 32 8 84 9 33 10 83 11 34 12 35 13
REMARK SMILES IDX 36 14 77 15 37 16 82 17 76 18 78 19 38 20 81 21 75 22 74 23
REMARK SMILES IDX 39 25 65 26 48 27 64 28 49 29 52 30 63 31 79 32 50 33 51 34
REMARK SMILES IDX 62 36 80 37 53 38 40 39 41 40 46 41 42 42 43 43 45 44 47 45
REMARK SMILES IDX 44 46 66 47 67 48 72 49 68 50 69 51 71 52 73 53 70 54 54 55
REMARK SMILES IDX 55 56 60 57 56 58 57 59 59 60 61 61 58 62 6 63 7 64 8 65
REMARK SMILES IDX 9 67 10 68 11 69 15 70 12 71 14 72 13 73 16 74 17 75 18 76
REMARK SMILES IDX 29 77 19 78 21 79 30 80 20 81 22 82 23 83 24 84 28 85 25 86
REMARK SMILES IDX 27 87 26 88
REMARK H PARENT 3 6 78 24 52 35 7 66
REMARK Flexibility Score: inf
ROOT
ATOM      1  C   UNL A   1      31.456  31.792  26.514  1.00  0.00     0.042 C 
ENDROOT
BRANCH   1   2
ATOM      2  C   UNL A   1      32.658  32.471  27.152  1.00  0.00     0.118 C 
BRANCH   2   3
ATOM      3  N   UNL A   1      32.402  33.836  27.602  1.00  0.00    -0.352 N 
ATOM      4  O   UNL A   1      32.680  35.747  28.770  1.00  0.00    -0.269 OA
ATOM      5  C   UNL A   1      33.109  34.637  28.469  1.00  0.00     0.251 C 
ATOM      6  H   UNL A   1      31.592  34.249  27.225  1.00  0.00     0.163 HD
BRANCH   5   7
ATOM      7  C   UNL A   1      34.363  34.145  29.080  1.00  0.00     0.039 A 
ATOM      8  C   UNL A   1      35.601  34.424  28.501  1.00  0.00     0.014 A 
ATOM      9  C   UNL A   1      34.296  33.368  30.241  1.00  0.00     0.014 A 
ATOM     10  C   UNL A   1      36.734  33.757  28.947  1.00  0.00     0.010 A 
ATOM     11  C   UNL A   1      35.460  32.795  30.763  1.00  0.00     0.010 A 
ATOM     12  C   UNL A   1      36.682  32.945  30.090  1.00  0.00    -0.014 A 
BRANCH  12  13
ATOM     13  C   UNL A   1      37.930  32.306  30.581  1.00  0.00     0.031 A 
ATOM     14  C   UNL A   1      38.676  32.852  31.768  1.00  0.00     0.074 A 
ATOM     15  C   UNL A   1      38.367  31.188  29.966  1.00  0.00     0.049 A 
ATOM     16  N   UNL A   1      39.774  32.406  32.325  1.00  0.00    -0.248 NA
ATOM     17  C   UNL A   1      38.128  34.057  32.409  1.00  0.00     0.031 C 
ATOM     18  C   UNL A   1      37.731  30.567  28.801  1.00  0.00     0.029 A 
ATOM     19  N   UNL A   1      39.425  30.364  30.245  1.00  0.00    -0.354 N 
ATOM     20  C   UNL A   1      40.065  33.287  33.359  1.00  0.00     0.074 A 
ATOM     21  C   UNL A   1      39.036  34.306  33.343  1.00  0.00     0.031 C 
ATOM     22  C   UNL A   1      38.376  29.431  28.502  1.00  0.00     0.029 A 
ATOM     23  C   UNL A   1      39.510  29.282  29.404  1.00  0.00     0.049 A 
ATOM     24  H   UNL A   1      40.062  30.532  30.976  1.00  0.00     0.167 HD
ATOM     25  C   UNL A   1      41.091  33.246  34.243  1.00  0.00     0.037 A 
ATOM     26  C   UNL A   1      40.412  28.286  29.348  1.00  0.00     0.037 A 
ATOM     27  C   UNL A   1      42.097  32.214  34.273  1.00  0.00     0.049 A 
ATOM     28  C   UNL A   1      41.543  28.271  30.331  1.00  0.00     0.074 A 
ATOM     29  C   UNL A   1      43.156  32.066  35.152  1.00  0.00     0.029 A 
ATOM     30  N   UNL A   1      42.166  31.152  33.383  1.00  0.00    -0.354 N 
ATOM     31  N   UNL A   1      41.794  29.105  31.310  1.00  0.00    -0.248 NA
ATOM     32  C   UNL A   1      42.522  27.186  30.194  1.00  0.00     0.031 C 
ATOM     33  C   UNL A   1      43.889  30.937  34.770  1.00  0.00     0.029 A 
ATOM     34  C   UNL A   1      43.262  30.357  33.679  1.00  0.00     0.049 A 
ATOM     35  H   UNL A   1      41.532  30.988  32.648  1.00  0.00     0.167 HD
ATOM     36  C   UNL A   1      42.954  28.642  31.913  1.00  0.00     0.074 A 
ATOM     37  C   UNL A   1      43.344  27.441  31.203  1.00  0.00     0.031 C 
ATOM     38  C   UNL A   1      43.637  29.168  32.958  1.00  0.00     0.037 A 
BRANCH  25  39
ATOM     39  C   UNL A   1      41.193  34.359  35.246  1.00  0.00     0.057 A 
ATOM     40  C   UNL A   1      41.902  35.536  34.979  1.00  0.00     0.134 A 
ATOM     41  C   UNL A   1      40.528  34.270  36.477  1.00  0.00     0.134 A 
ATOM     42  F   UNL A   1      42.569  35.681  33.825  1.00  0.00    -0.206 F 
ATOM     43  C   UNL A   1      41.963  36.578  35.908  1.00  0.00     0.040 A 
ATOM     44  C   UNL A   1      40.563  35.313  37.403  1.00  0.00     0.040 A 
ATOM     45  F   UNL A   1      39.824  33.172  36.793  1.00  0.00    -0.206 F 
ATOM     46  C   UNL A   1      41.286  36.470  37.121  1.00  0.00     0.006 A 
ENDBRANCH  25  39
BRANCH  26  47
ATOM     47  C   UNL A   1      40.277  27.232  28.313  1.00  0.00     0.057 A 
ATOM     48  C   UNL A   1      40.916  27.347  27.075  1.00  0.00     0.134 A 
ATOM     49  C   UNL A   1      39.528  26.072  28.552  1.00  0.00     0.134 A 
ATOM     50  F   UNL A   1      41.634  28.442  26.786  1.00  0.00    -0.206 F 
ATOM     51  C   UNL A   1      40.813  26.349  26.107  1.00  0.00     0.040 A 
ATOM     52  C   UNL A   1      39.438  25.054  27.602  1.00  0.00     0.040 A 
ATOM     53  F   UNL A   1      38.900  25.900  29.724  1.00  0.00    -0.206 F 
ATOM     54  C   UNL A   1      40.078  25.194  26.373  1.00  0.00     0.006 A 
ENDBRANCH  26  47
BRANCH  38  55
ATOM     55  C   UNL A   1      44.864  28.431  33.402  1.00  0.00     0.057 A 
ATOM     56  C   UNL A   1      46.133  28.749  32.903  1.00  0.00     0.134 A 
ATOM     57  C   UNL A   1      44.778  27.407  34.353  1.00  0.00     0.134 A 
ATOM     58  F   UNL A   1      46.279  29.709  31.977  1.00  0.00    -0.206 F 
ATOM     59  C   UNL A   1      47.272  28.057  33.317  1.00  0.00     0.040 A 
ATOM     60  C   UNL A   1      45.912  26.723  34.791  1.00  0.00     0.040 A 
ATOM     61  F   UNL A   1      43.590  27.059  34.872  1.00  0.00    -0.206 F 
ATOM     62  C   UNL A   1      47.163  27.045  34.268  1.00  0.00     0.006 A 
ENDBRANCH  38  55
ENDBRANCH  12  13
ENDBRANCH   5   7
ENDBRANCH   2   3
ENDBRANCH   1   2
BRANCH   1  63
ATOM     63  C   UNL A   1      31.633  30.303  26.294  1.00  0.00     0.118 C 
BRANCH  63  64
ATOM     64  N   UNL A   1      32.437  29.986  25.124  1.00  0.00    -0.352 N 
ATOM     65  C   UNL A   1      32.120  29.235  24.021  1.00  0.00     0.251 C 
ATOM     66  H   UNL A   1      33.344  30.369  25.124  1.00  0.00     0.163 HD
ATOM     67  O   UNL A   1      32.983  29.021  23.173  1.00  0.00    -0.269 OA
BRANCH  65  68
ATOM     68  C   UNL A   1      30.774  28.641  23.860  1.00  0.00     0.047 A 
ATOM     69  C   UNL A   1      29.836  29.433  23.181  1.00  0.00     0.014 A 
ATOM     70  C   UNL A   1      30.414  27.369  24.347  1.00  0.00    -0.012 A 
ATOM     71  C   UNL A   1      28.557  28.943  22.932  1.00  0.00     0.001 A 
ATOM     72  C   UNL A   1      29.125  26.887  24.078  1.00  0.00     0.009 A 
ATOM     73  C   UNL A   1      28.205  27.669  23.372  1.00  0.00     0.001 A 
BRANCH  70  74
ATOM     74  C   UNL A   1      31.369  26.457  24.986  1.00  0.00     0.030 C 
ATOM     75  C   UNL A   1      31.736  25.230  24.597  1.00  0.00     0.081 C 
ATOM     76  S   UNL A   1      31.462  24.417  23.120  1.00  0.00    -0.054 SA
ATOM     77  C   UNL A   1      32.376  24.317  25.574  1.00  0.00     0.266 C 
ATOM     78  C   UNL A   1      32.268  22.947  23.681  1.00  0.00     0.148 C 
ATOM     79  N   UNL A   1      32.673  23.104  24.990  1.00  0.00    -0.288 N 
ATOM     80  O   UNL A   1      32.495  24.605  26.762  1.00  0.00    -0.268 OA
ATOM     81  S   UNL A   1      32.447  21.612  22.697  1.00  0.00    -0.052 S 
BRANCH  79  82
ATOM     82  C   UNL A   1      33.292  22.068  25.820  1.00  0.00     0.163 C 
BRANCH  82  83
ATOM     83  C   UNL A   1      34.791  21.997  25.620  1.00  0.00    -0.028 A 
ATOM     84  C   UNL A   1      35.394  20.847  25.095  1.00  0.00     0.005 A 
ATOM     85  C   UNL A   1      35.600  23.103  25.928  1.00  0.00     0.005 A 
ATOM     86  C   UNL A   1      36.774  20.811  24.877  1.00  0.00     0.000 A 
ATOM     87  C   UNL A   1      36.974  23.072  25.691  1.00  0.00     0.000 A 
ATOM     88  C   UNL A   1      37.560  21.925  25.167  1.00  0.00     0.000 A 
ENDBRANCH  82  83
ENDBRANCH  79  82
ENDBRANCH  70  74
ENDBRANCH  65  68
ENDBRANCH  63  64
ENDBRANCH   1  63
TORSDOF 13
ENDMDL
