MODEL 1
REMARK VINA RESULT:     -11.0      0.000      0.000
REMARK SMILES CC[C@@](C)(NS(=O)(=O)Cc1ccccc1)C(=O)NCCCNC(=O)c1ccc(-c2c3nc(c(-c4c(F)cccc4F)c4ccc([nH]4)c(-c4c(F)cccc4F)c4nc(c(-c5c(F)cccc5F)c5ccc2[nH]5)C=C4)C=C3)cc1
REMARK SMILES IDX 19 1 18 2 16 3 17 4 3 6 4 7 2 8 1 9 5 10 6 12 7 13 8 14 9 15
REMARK SMILES IDX 10 16 11 17 15 18 12 19 14 20 13 21 20 22 21 23 22 24 23 25
REMARK SMILES IDX 24 27 25 28 26 29 78 30 27 31 77 32 28 33 29 34 30 35 71 36
REMARK SMILES IDX 31 37 76 38 70 39 72 40 32 41 75 42 69 43 68 44 33 46 59 47
REMARK SMILES IDX 42 48 58 49 43 50 46 51 57 52 73 53 44 54 45 55 56 57 74 58
REMARK SMILES IDX 47 59 34 60 35 61 40 62 36 63 37 64 39 65 41 66 38 67 60 68
REMARK SMILES IDX 61 69 66 70 62 71 63 72 65 73 67 74 64 75 48 76 49 77 54 78
REMARK SMILES IDX 50 79 51 80 53 81 55 82 52 83
REMARK H PARENT 18 5 5 11 22 26 72 45 46 56
REMARK Flexibility Score: inf
ROOT
ATOM      1  C   UNL A   1      36.504  20.786  24.811  1.00  0.00     0.117 C 
ENDROOT
BRANCH   1   2
ATOM      2  N   UNL A   1      35.207  20.274  25.244  1.00  0.00    -0.354 N 
ATOM      3  C   UNL A   1      33.963  20.761  25.492  1.00  0.00     0.240 C 
ATOM      4  O   UNL A   1      33.180  19.888  25.900  1.00  0.00    -0.273 OA
ATOM      5  H   UNL A   1      35.244  19.302  25.401  1.00  0.00     0.163 HD
BRANCH   3   6
ATOM      6  C   UNL A   1      33.497  22.244  25.416  1.00  0.00     0.108 C 
ATOM      7  C   UNL A   1      34.327  23.220  26.249  1.00  0.00     0.040 C 
BRANCH   6   8
ATOM      8  C   UNL A   1      33.597  22.708  23.909  1.00  0.00     0.030 C 
ATOM      9  C   UNL A   1      34.484  23.906  23.598  1.00  0.00     0.006 C 
ENDBRANCH   6   8
BRANCH   6  10
ATOM     10  N   UNL A   1      32.033  22.399  25.669  1.00  0.00    -0.200 NA
ATOM     11  H   UNL A   1      31.760  21.544  26.154  1.00  0.00     0.142 HD
BRANCH  10  12
ATOM     12  S   UNL A   1      31.278  23.612  26.496  1.00  0.00     0.216 S 
ATOM     13  O   UNL A   1      29.886  23.234  26.599  1.00  0.00    -0.212 OA
ATOM     14  O   UNL A   1      32.051  23.787  27.706  1.00  0.00    -0.212 OA
BRANCH  12  15
ATOM     15  C   UNL A   1      31.410  25.091  25.490  1.00  0.00     0.189 C 
BRANCH  15  16
ATOM     16  C   UNL A   1      32.040  26.275  26.159  1.00  0.00    -0.032 A 
ATOM     17  C   UNL A   1      33.381  26.614  25.928  1.00  0.00     0.005 A 
ATOM     18  C   UNL A   1      31.236  27.150  26.902  1.00  0.00     0.005 A 
ATOM     19  C   UNL A   1      33.895  27.819  26.411  1.00  0.00     0.000 A 
ATOM     20  C   UNL A   1      31.752  28.353  27.381  1.00  0.00     0.000 A 
ATOM     21  C   UNL A   1      33.079  28.691  27.129  1.00  0.00     0.000 A 
ENDBRANCH  15  16
ENDBRANCH  12  15
ENDBRANCH  10  12
ENDBRANCH   6  10
ENDBRANCH   3   6
ENDBRANCH   1   2
BRANCH   1  22
ATOM     22  C   UNL A   1      37.692  19.830  25.025  1.00  0.00     0.042 C 
BRANCH  22  23
ATOM     23  C   UNL A   1      38.928  20.387  25.738  1.00  0.00     0.118 C 
BRANCH  23  24
ATOM     24  N   UNL A   1      39.982  19.403  25.840  1.00  0.00    -0.352 N 
ATOM     25  C   UNL A   1      41.331  19.588  26.023  1.00  0.00     0.251 C 
ATOM     26  H   UNL A   1      39.692  18.465  25.767  1.00  0.00     0.163 HD
ATOM     27  O   UNL A   1      42.093  18.658  25.767  1.00  0.00    -0.269 OA
BRANCH  25  28
ATOM     28  C   UNL A   1      41.896  20.864  26.537  1.00  0.00     0.039 A 
ATOM     29  C   UNL A   1      41.876  21.079  27.920  1.00  0.00     0.014 A 
ATOM     30  C   UNL A   1      42.293  21.906  25.691  1.00  0.00     0.014 A 
ATOM     31  C   UNL A   1      42.220  22.329  28.449  1.00  0.00     0.010 A 
ATOM     32  C   UNL A   1      42.689  23.142  26.225  1.00  0.00     0.010 A 
ATOM     33  C   UNL A   1      42.615  23.380  27.608  1.00  0.00    -0.014 A 
BRANCH  33  34
ATOM     34  C   UNL A   1      42.866  24.737  28.177  1.00  0.00     0.031 A 
ATOM     35  C   UNL A   1      44.270  25.173  28.523  1.00  0.00     0.074 A 
ATOM     36  C   UNL A   1      41.846  25.599  28.352  1.00  0.00     0.049 A 
ATOM     37  N   UNL A   1      44.693  26.331  28.970  1.00  0.00    -0.248 NA
ATOM     38  C   UNL A   1      45.336  24.173  28.359  1.00  0.00     0.031 C 
ATOM     39  C   UNL A   1      40.439  25.308  28.081  1.00  0.00     0.029 A 
ATOM     40  N   UNL A   1      41.839  26.902  28.794  1.00  0.00    -0.354 N 
ATOM     41  C   UNL A   1      46.067  26.196  29.142  1.00  0.00     0.074 A 
ATOM     42  C   UNL A   1      46.397  24.828  28.805  1.00  0.00     0.031 C 
ATOM     43  C   UNL A   1      39.708  26.406  28.333  1.00  0.00     0.029 A 
ATOM     44  C   UNL A   1      40.587  27.471  28.809  1.00  0.00     0.049 A 
ATOM     45  H   UNL A   1      42.652  27.381  29.071  1.00  0.00     0.167 HD
ATOM     46  C   UNL A   1      46.976  27.128  29.520  1.00  0.00     0.037 A 
ATOM     47  C   UNL A   1      40.191  28.710  29.162  1.00  0.00     0.037 A 
ATOM     48  C   UNL A   1      46.657  28.496  29.842  1.00  0.00     0.049 A 
ATOM     49  C   UNL A   1      41.218  29.723  29.595  1.00  0.00     0.074 A 
ATOM     50  C   UNL A   1      47.516  29.522  30.197  1.00  0.00     0.029 A 
ATOM     51  N   UNL A   1      45.376  29.027  29.853  1.00  0.00    -0.354 N 
ATOM     52  N   UNL A   1      42.519  29.596  29.691  1.00  0.00    -0.248 NA
ATOM     53  C   UNL A   1      40.719  31.058  29.958  1.00  0.00     0.031 C 
ATOM     54  C   UNL A   1      46.751  30.661  30.471  1.00  0.00     0.029 A 
ATOM     55  C   UNL A   1      45.421  30.361  30.229  1.00  0.00     0.049 A 
ATOM     56  H   UNL A   1      44.556  28.531  29.627  1.00  0.00     0.167 HD
ATOM     57  C   UNL A   1      42.995  30.840  30.087  1.00  0.00     0.074 A 
ATOM     58  C   UNL A   1      41.845  31.711  30.203  1.00  0.00     0.031 C 
ATOM     59  C   UNL A   1      44.272  31.225  30.330  1.00  0.00     0.037 A 
BRANCH  46  60
ATOM     60  C   UNL A   1      48.414  26.698  29.611  1.00  0.00     0.057 A 
ATOM     61  C   UNL A   1      48.929  26.073  30.756  1.00  0.00     0.134 A 
ATOM     62  C   UNL A   1      49.286  26.876  28.530  1.00  0.00     0.134 A 
ATOM     63  F   UNL A   1      48.152  25.877  31.831  1.00  0.00    -0.206 F 
ATOM     64  C   UNL A   1      50.264  25.670  30.831  1.00  0.00     0.040 A 
ATOM     65  C   UNL A   1      50.615  26.450  28.582  1.00  0.00     0.040 A 
ATOM     66  F   UNL A   1      48.859  27.456  27.397  1.00  0.00    -0.206 F 
ATOM     67  C   UNL A   1      51.109  25.853  29.739  1.00  0.00     0.006 A 
ENDBRANCH  46  60
BRANCH  47  68
ATOM     68  C   UNL A   1      38.754  29.078  29.096  1.00  0.00     0.057 A 
ATOM     69  C   UNL A   1      38.173  29.532  27.905  1.00  0.00     0.134 A 
ATOM     70  C   UNL A   1      37.930  29.006  30.226  1.00  0.00     0.134 A 
ATOM     71  F   UNL A   1      38.914  29.644  26.792  1.00  0.00    -0.206 F 
ATOM     72  C   UNL A   1      36.833  29.922  27.845  1.00  0.00     0.040 A 
ATOM     73  C   UNL A   1      36.582  29.366  30.174  1.00  0.00     0.040 A 
ATOM     74  F   UNL A   1      38.424  28.576  31.397  1.00  0.00    -0.206 F 
ATOM     75  C   UNL A   1      36.032  29.833  28.982  1.00  0.00     0.006 A 
ENDBRANCH  47  68
BRANCH  59  76
ATOM     76  C   UNL A   1      44.504  32.664  30.697  1.00  0.00     0.057 A 
ATOM     77  C   UNL A   1      44.537  33.098  32.029  1.00  0.00     0.134 A 
ATOM     78  C   UNL A   1      44.726  33.625  29.701  1.00  0.00     0.134 A 
ATOM     79  F   UNL A   1      44.320  32.233  33.032  1.00  0.00    -0.206 F 
ATOM     80  C   UNL A   1      44.753  34.439  32.355  1.00  0.00     0.040 A 
ATOM     81  C   UNL A   1      44.973  34.962  30.016  1.00  0.00     0.040 A 
ATOM     82  F   UNL A   1      44.719  33.277  28.406  1.00  0.00    -0.206 F 
ATOM     83  C   UNL A   1      44.979  35.373  31.346  1.00  0.00     0.006 A 
ENDBRANCH  59  76
ENDBRANCH  33  34
ENDBRANCH  25  28
ENDBRANCH  23  24
ENDBRANCH  22  23
ENDBRANCH   1  22
TORSDOF 15
ENDMDL
MODEL 2
REMARK VINA RESULT:     -10.9      5.083      9.560
REMARK SMILES CC[C@@](C)(NS(=O)(=O)Cc1ccccc1)C(=O)NCCCNC(=O)c1ccc(-c2c3nc(c(-c4c(F)cccc4F)c4ccc([nH]4)c(-c4c(F)cccc4F)c4nc(c(-c5c(F)cccc5F)c5ccc2[nH]5)C=C4)C=C3)cc1
REMARK SMILES IDX 19 1 18 2 16 3 17 4 3 6 4 7 2 8 1 9 5 10 6 12 7 13 8 14 9 15
REMARK SMILES IDX 10 16 11 17 15 18 12 19 14 20 13 21 20 22 21 23 22 24 23 25
REMARK SMILES IDX 24 27 25 28 26 29 78 30 27 31 77 32 28 33 29 34 30 35 71 36
REMARK SMILES IDX 31 37 76 38 70 39 72 40 32 41 75 42 69 43 68 44 33 46 59 47
REMARK SMILES IDX 42 48 58 49 43 50 46 51 57 52 73 53 44 54 45 55 56 57 74 58
REMARK SMILES IDX 47 59 34 60 35 61 40 62 36 63 37 64 39 65 41 66 38 67 60 68
REMARK SMILES IDX 61 69 66 70 62 71 63 72 65 73 67 74 64 75 48 76 49 77 54 78
REMARK SMILES IDX 50 79 51 80 53 81 55 82 52 83
REMARK H PARENT 18 5 5 11 22 26 72 45 46 56
REMARK Flexibility Score: inf
ROOT
ATOM      1  C   UNL A   1      31.404  30.553  25.600  1.00  0.00     0.117 C 
ENDROOT
BRANCH   1   2
ATOM      2  N   UNL A   1      32.744  30.036  25.340  1.00  0.00    -0.354 N 
ATOM      3  C   UNL A   1      33.314  28.873  24.925  1.00  0.00     0.240 C 
ATOM      4  O   UNL A   1      34.554  28.929  24.908  1.00  0.00    -0.273 OA
ATOM      5  H   UNL A   1      33.429  30.722  25.515  1.00  0.00     0.163 HD
BRANCH   3   6
ATOM      6  C   UNL A   1      32.594  27.534  24.597  1.00  0.00     0.108 C 
ATOM      7  C   UNL A   1      33.346  26.623  23.626  1.00  0.00     0.040 C 
BRANCH   6   8
ATOM      8  C   UNL A   1      32.416  26.734  25.949  1.00  0.00     0.030 C 
ATOM      9  C   UNL A   1      31.278  27.152  26.870  1.00  0.00     0.006 C 
ENDBRANCH   6   8
BRANCH   6  10
ATOM     10  N   UNL A   1      31.171  27.732  24.190  1.00  0.00    -0.200 NA
ATOM     11  H   UNL A   1      30.799  28.404  24.860  1.00  0.00     0.142 HD
BRANCH  10  12
ATOM     12  S   UNL A   1      30.607  28.242  22.724  1.00  0.00     0.216 S 
ATOM     13  O   UNL A   1      31.365  29.426  22.383  1.00  0.00    -0.212 OA
ATOM     14  O   UNL A   1      30.686  27.084  21.861  1.00  0.00    -0.212 OA
BRANCH  12  15
ATOM     15  C   UNL A   1      28.888  28.694  22.955  1.00  0.00     0.189 C 
BRANCH  15  16
ATOM     16  C   UNL A   1      28.530  30.100  22.573  1.00  0.00    -0.032 A 
ATOM     17  C   UNL A   1      28.612  31.149  23.498  1.00  0.00     0.005 A 
ATOM     18  C   UNL A   1      28.263  30.397  21.229  1.00  0.00     0.005 A 
ATOM     19  C   UNL A   1      28.455  32.471  23.078  1.00  0.00     0.000 A 
ATOM     20  C   UNL A   1      28.110  31.718  20.812  1.00  0.00     0.000 A 
ATOM     21  C   UNL A   1      28.213  32.755  21.736  1.00  0.00     0.000 A 
ENDBRANCH  15  16
ENDBRANCH  12  15
ENDBRANCH  10  12
ENDBRANCH   6  10
ENDBRANCH   3   6
ENDBRANCH   1   2
BRANCH   1  22
ATOM     22  C   UNL A   1      31.338  31.755  26.559  1.00  0.00     0.042 C 
BRANCH  22  23
ATOM     23  C   UNL A   1      32.665  32.369  27.016  1.00  0.00     0.118 C 
BRANCH  23  24
ATOM     24  N   UNL A   1      32.521  33.762  27.374  1.00  0.00    -0.352 N 
ATOM     25  C   UNL A   1      33.063  34.450  28.432  1.00  0.00     0.251 C 
ATOM     26  H   UNL A   1      31.953  34.296  26.772  1.00  0.00     0.163 HD
ATOM     27  O   UNL A   1      32.574  35.534  28.741  1.00  0.00    -0.269 OA
BRANCH  25  28
ATOM     28  C   UNL A   1      34.228  33.937  29.200  1.00  0.00     0.039 A 
ATOM     29  C   UNL A   1      35.509  34.307  28.773  1.00  0.00     0.014 A 
ATOM     30  C   UNL A   1      34.098  32.986  30.220  1.00  0.00     0.014 A 
ATOM     31  C   UNL A   1      36.644  33.712  29.336  1.00  0.00     0.010 A 
ATOM     32  C   UNL A   1      35.238  32.430  30.820  1.00  0.00     0.010 A 
ATOM     33  C   UNL A   1      36.523  32.755  30.355  1.00  0.00    -0.014 A 
BRANCH  33  34
ATOM     34  C   UNL A   1      37.735  32.047  30.863  1.00  0.00     0.031 A 
ATOM     35  C   UNL A   1      38.261  32.330  32.250  1.00  0.00     0.074 A 
ATOM     36  C   UNL A   1      38.351  31.122  30.101  1.00  0.00     0.049 A 
ATOM     37  N   UNL A   1      39.262  31.773  32.888  1.00  0.00    -0.248 NA
ATOM     38  C   UNL A   1      37.580  33.385  33.016  1.00  0.00     0.031 C 
ATOM     39  C   UNL A   1      37.966  30.761  28.737  1.00  0.00     0.029 A 
ATOM     40  N   UNL A   1      39.426  30.309  30.371  1.00  0.00    -0.354 N 
ATOM     41  C   UNL A   1      39.332  32.411  34.122  1.00  0.00     0.074 A 
ATOM     42  C   UNL A   1      38.308  33.434  34.122  1.00  0.00     0.031 C 
ATOM     43  C   UNL A   1      38.773  29.781  28.299  1.00  0.00     0.029 A 
ATOM     44  C   UNL A   1      39.749  29.460  29.338  1.00  0.00     0.049 A 
ATOM     45  H   UNL A   1      39.917  30.332  31.223  1.00  0.00     0.167 HD
ATOM     46  C   UNL A   1      40.153  32.156  35.170  1.00  0.00     0.037 A 
ATOM     47  C   UNL A   1      40.716  28.528  29.239  1.00  0.00     0.037 A 
ATOM     48  C   UNL A   1      41.164  31.130  35.184  1.00  0.00     0.049 A 
ATOM     49  C   UNL A   1      41.627  28.274  30.411  1.00  0.00     0.074 A 
ATOM     50  C   UNL A   1      42.017  30.771  36.214  1.00  0.00     0.029 A 
ATOM     51  N   UNL A   1      41.462  30.299  34.113  1.00  0.00    -0.354 N 
ATOM     52  N   UNL A   1      41.637  28.843  31.592  1.00  0.00    -0.248 NA
ATOM     53  C   UNL A   1      42.655  27.236  30.238  1.00  0.00     0.031 C 
ATOM     54  C   UNL A   1      42.863  29.758  35.752  1.00  0.00     0.029 A 
ATOM     55  C   UNL A   1      42.500  29.445  34.453  1.00  0.00     0.049 A 
ATOM     56  H   UNL A   1      41.005  30.315  33.242  1.00  0.00     0.167 HD
ATOM     57  C   UNL A   1      42.643  28.209  32.312  1.00  0.00     0.074 A 
ATOM     58  C   UNL A   1      43.213  27.205  31.440  1.00  0.00     0.031 C 
ATOM     59  C   UNL A   1      43.054  28.439  33.583  1.00  0.00     0.037 A 
BRANCH  46  60
ATOM     60  C   UNL A   1      39.995  33.008  36.399  1.00  0.00     0.057 A 
ATOM     61  C   UNL A   1      39.082  32.683  37.413  1.00  0.00     0.134 A 
ATOM     62  C   UNL A   1      40.788  34.146  36.590  1.00  0.00     0.134 A 
ATOM     63  F   UNL A   1      38.286  31.611  37.293  1.00  0.00    -0.206 F 
ATOM     64  C   UNL A   1      38.945  33.475  38.556  1.00  0.00     0.040 A 
ATOM     65  C   UNL A   1      40.681  34.929  37.742  1.00  0.00     0.040 A 
ATOM     66  F   UNL A   1      41.691  34.511  35.667  1.00  0.00    -0.206 F 
ATOM     67  C   UNL A   1      39.752  34.599  38.725  1.00  0.00     0.006 A 
ENDBRANCH  46  60
BRANCH  47  68
ATOM     68  C   UNL A   1      40.862  27.737  27.990  1.00  0.00     0.057 A 
ATOM     69  C   UNL A   1      40.238  26.492  27.839  1.00  0.00     0.134 A 
ATOM     70  C   UNL A   1      41.644  28.197  26.923  1.00  0.00     0.134 A 
ATOM     71  F   UNL A   1      39.492  25.987  28.832  1.00  0.00    -0.206 F 
ATOM     72  C   UNL A   1      40.405  25.724  26.685  1.00  0.00     0.040 A 
ATOM     73  C   UNL A   1      41.798  27.452  25.753  1.00  0.00     0.040 A 
ATOM     74  F   UNL A   1      42.266  29.383  27.002  1.00  0.00    -0.206 F 
ATOM     75  C   UNL A   1      41.183  26.208  25.635  1.00  0.00     0.006 A 
ENDBRANCH  47  68
BRANCH  59  76
ATOM     76  C   UNL A   1      44.141  27.556  34.129  1.00  0.00     0.057 A 
ATOM     77  C   UNL A   1      45.492  27.924  34.089  1.00  0.00     0.134 A 
ATOM     78  C   UNL A   1      43.825  26.330  34.732  1.00  0.00     0.134 A 
ATOM     79  F   UNL A   1      45.865  29.079  33.516  1.00  0.00    -0.206 F 
ATOM     80  C   UNL A   1      46.490  27.093  34.601  1.00  0.00     0.040 A 
ATOM     81  C   UNL A   1      44.812  25.505  35.274  1.00  0.00     0.040 A 
ATOM     82  F   UNL A   1      42.551  25.920  34.815  1.00  0.00    -0.206 F 
ATOM     83  C   UNL A   1      46.150  25.883  35.202  1.00  0.00     0.006 A 
ENDBRANCH  59  76
ENDBRANCH  33  34
ENDBRANCH  25  28
ENDBRANCH  23  24
ENDBRANCH  22  23
ENDBRANCH   1  22
TORSDOF 15
ENDMDL
MODEL 3
REMARK VINA RESULT:     -10.9      4.240      9.188
REMARK SMILES CC[C@@](C)(NS(=O)(=O)Cc1ccccc1)C(=O)NCCCNC(=O)c1ccc(-c2c3nc(c(-c4c(F)cccc4F)c4ccc([nH]4)c(-c4c(F)cccc4F)c4nc(c(-c5c(F)cccc5F)c5ccc2[nH]5)C=C4)C=C3)cc1
REMARK SMILES IDX 19 1 18 2 16 3 17 4 3 6 4 7 2 8 1 9 5 10 6 12 7 13 8 14 9 15
REMARK SMILES IDX 10 16 11 17 15 18 12 19 14 20 13 21 20 22 21 23 22 24 23 25
REMARK SMILES IDX 24 27 25 28 26 29 78 30 27 31 77 32 28 33 29 34 30 35 71 36
REMARK SMILES IDX 31 37 76 38 70 39 72 40 32 41 75 42 69 43 68 44 33 46 59 47
REMARK SMILES IDX 42 48 58 49 43 50 46 51 57 52 73 53 44 54 45 55 56 57 74 58
REMARK SMILES IDX 47 59 34 60 35 61 40 62 36 63 37 64 39 65 41 66 38 67 60 68
REMARK SMILES IDX 61 69 66 70 62 71 63 72 65 73 67 74 64 75 48 76 49 77 54 78
REMARK SMILES IDX 50 79 51 80 53 81 55 82 52 83
REMARK H PARENT 18 5 5 11 22 26 72 45 46 56
REMARK Flexibility Score: inf
ROOT
ATOM      1  C   UNL A   1      31.491  30.281  26.017  1.00  0.00     0.117 C 
ENDROOT
BRANCH   1   2
ATOM      2  N   UNL A   1      31.685  30.072  24.586  1.00  0.00    -0.354 N 
ATOM      3  C   UNL A   1      31.516  29.073  23.680  1.00  0.00     0.240 C 
ATOM      4  O   UNL A   1      31.887  29.394  22.539  1.00  0.00    -0.273 OA
ATOM      5  H   UNL A   1      32.039  30.884  24.154  1.00  0.00     0.163 HD
BRANCH   3   6
ATOM      6  C   UNL A   1      31.031  27.621  23.956  1.00  0.00     0.108 C 
ATOM      7  C   UNL A   1      31.089  27.194  25.423  1.00  0.00     0.040 C 
BRANCH   6   8
ATOM      8  C   UNL A   1      29.523  27.516  23.495  1.00  0.00     0.030 C 
ATOM      9  C   UNL A   1      28.733  26.293  23.939  1.00  0.00     0.006 C 
ENDBRANCH   6   8
BRANCH   6  10
ATOM     10  N   UNL A   1      31.678  26.619  23.057  1.00  0.00    -0.200 NA
ATOM     11  H   UNL A   1      31.478  26.948  22.113  1.00  0.00     0.142 HD
BRANCH  10  12
ATOM     12  S   UNL A   1      33.269  26.179  23.022  1.00  0.00     0.216 S 
ATOM     13  O   UNL A   1      33.653  26.141  21.627  1.00  0.00    -0.212 OA
ATOM     14  O   UNL A   1      33.939  27.103  23.910  1.00  0.00    -0.212 OA
BRANCH  12  15
ATOM     15  C   UNL A   1      33.369  24.523  23.702  1.00  0.00     0.189 C 
BRANCH  15  16
ATOM     16  C   UNL A   1      34.744  24.060  24.079  1.00  0.00    -0.032 A 
ATOM     17  C   UNL A   1      35.265  24.292  25.359  1.00  0.00     0.005 A 
ATOM     18  C   UNL A   1      35.458  23.242  23.192  1.00  0.00     0.005 A 
ATOM     19  C   UNL A   1      36.467  23.696  25.748  1.00  0.00     0.000 A 
ATOM     20  C   UNL A   1      36.654  22.645  23.584  1.00  0.00     0.000 A 
ATOM     21  C   UNL A   1      37.155  22.866  24.865  1.00  0.00     0.000 A 
ENDBRANCH  15  16
ENDBRANCH  12  15
ENDBRANCH  10  12
ENDBRANCH   6  10
ENDBRANCH   3   6
ENDBRANCH   1   2
BRANCH   1  22
ATOM     22  C   UNL A   1      31.416  31.753  26.463  1.00  0.00     0.042 C 
BRANCH  22  23
ATOM     23  C   UNL A   1      32.590  32.306  27.277  1.00  0.00     0.118 C 
BRANCH  23  24
ATOM     24  N   UNL A   1      32.443  33.718  27.546  1.00  0.00    -0.352 N 
ATOM     25  C   UNL A   1      33.082  34.497  28.480  1.00  0.00     0.251 C 
ATOM     26  H   UNL A   1      31.792  34.191  26.979  1.00  0.00     0.163 HD
ATOM     27  O   UNL A   1      32.597  35.590  28.765  1.00  0.00    -0.269 OA
BRANCH  25  28
ATOM     28  C   UNL A   1      34.345  34.072  29.139  1.00  0.00     0.039 A 
ATOM     29  C   UNL A   1      35.544  34.259  28.441  1.00  0.00     0.014 A 
ATOM     30  C   UNL A   1      34.362  33.359  30.344  1.00  0.00     0.014 A 
ATOM     31  C   UNL A   1      36.740  33.715  28.926  1.00  0.00     0.010 A 
ATOM     32  C   UNL A   1      35.569  32.860  30.856  1.00  0.00     0.010 A 
ATOM     33  C   UNL A   1      36.765  32.995  30.130  1.00  0.00    -0.014 A 
BRANCH  33  34
ATOM     34  C   UNL A   1      38.023  32.324  30.572  1.00  0.00     0.031 A 
ATOM     35  C   UNL A   1      38.817  32.877  31.731  1.00  0.00     0.074 A 
ATOM     36  C   UNL A   1      38.441  31.197  29.964  1.00  0.00     0.049 A 
ATOM     37  N   UNL A   1      39.900  32.400  32.298  1.00  0.00    -0.248 NA
ATOM     38  C   UNL A   1      38.341  34.137  32.322  1.00  0.00     0.031 C 
ATOM     39  C   UNL A   1      37.786  30.562  28.821  1.00  0.00     0.029 A 
ATOM     40  N   UNL A   1      39.515  30.380  30.230  1.00  0.00    -0.354 N 
ATOM     41  C   UNL A   1      40.233  33.301  33.304  1.00  0.00     0.074 A 
ATOM     42  C   UNL A   1      39.271  34.379  33.235  1.00  0.00     0.031 C 
ATOM     43  C   UNL A   1      38.453  29.440  28.501  1.00  0.00     0.029 A 
ATOM     44  C   UNL A   1      39.597  29.289  29.397  1.00  0.00     0.049 A 
ATOM     45  H   UNL A   1      40.162  30.559  30.949  1.00  0.00     0.167 HD
ATOM     46  C   UNL A   1      41.230  33.228  34.220  1.00  0.00     0.037 A 
ATOM     47  C   UNL A   1      40.488  28.279  29.360  1.00  0.00     0.037 A 
ATOM     48  C   UNL A   1      42.182  32.150  34.305  1.00  0.00     0.049 A 
ATOM     49  C   UNL A   1      41.598  28.229  30.377  1.00  0.00     0.074 A 
ATOM     50  C   UNL A   1      43.203  31.970  35.224  1.00  0.00     0.029 A 
ATOM     51  N   UNL A   1      42.234  31.070  33.437  1.00  0.00    -0.354 N 
ATOM     52  N   UNL A   1      41.859  29.055  31.361  1.00  0.00    -0.248 NA
ATOM     53  C   UNL A   1      42.529  27.095  30.285  1.00  0.00     0.031 C 
ATOM     54  C   UNL A   1      43.902  30.808  34.882  1.00  0.00     0.029 A 
ATOM     55  C   UNL A   1      43.282  30.233  33.786  1.00  0.00     0.049 A 
ATOM     56  H   UNL A   1      41.618  30.921  32.684  1.00  0.00     0.167 HD
ATOM     57  C   UNL A   1      42.958  28.523  32.024  1.00  0.00     0.074 A 
ATOM     58  C   UNL A   1      43.307  27.297  31.338  1.00  0.00     0.031 C 
ATOM     59  C   UNL A   1      43.616  29.007  33.106  1.00  0.00     0.037 A 
BRANCH  46  60
ATOM     60  C   UNL A   1      41.347  34.354  35.210  1.00  0.00     0.057 A 
ATOM     61  C   UNL A   1      40.676  34.331  36.441  1.00  0.00     0.134 A 
ATOM     62  C   UNL A   1      42.168  35.458  34.947  1.00  0.00     0.134 A 
ATOM     63  F   UNL A   1      39.868  33.307  36.756  1.00  0.00    -0.206 F 
ATOM     64  C   UNL A   1      40.795  35.376  37.359  1.00  0.00     0.040 A 
ATOM     65  C   UNL A   1      42.318  36.496  35.870  1.00  0.00     0.040 A 
ATOM     66  F   UNL A   1      42.849  35.542  33.794  1.00  0.00    -0.206 F 
ATOM     67  C   UNL A   1      41.623  36.460  37.076  1.00  0.00     0.006 A 
ENDBRANCH  46  60
BRANCH  47  68
ATOM     68  C   UNL A   1      40.357  27.209  28.338  1.00  0.00     0.057 A 
ATOM     69  C   UNL A   1      41.016  27.297  27.105  1.00  0.00     0.134 A 
ATOM     70  C   UNL A   1      39.554  26.083  28.559  1.00  0.00     0.134 A 
ATOM     71  F   UNL A   1      41.782  28.361  26.823  1.00  0.00    -0.206 F 
ATOM     72  C   UNL A   1      40.863  26.317  26.121  1.00  0.00     0.040 A 
ATOM     73  C   UNL A   1      39.415  25.083  27.596  1.00  0.00     0.040 A 
ATOM     74  F   UNL A   1      38.899  25.937  29.720  1.00  0.00    -0.206 F 
ATOM     75  C   UNL A   1      40.065  25.202  26.369  1.00  0.00     0.006 A 
ENDBRANCH  47  68
BRANCH  59  76
ATOM     76  C   UNL A   1      44.751  28.186  33.650  1.00  0.00     0.057 A 
ATOM     77  C   UNL A   1      46.075  28.371  33.229  1.00  0.00     0.134 A 
ATOM     78  C   UNL A   1      44.519  27.215  34.633  1.00  0.00     0.134 A 
ATOM     79  F   UNL A   1      46.367  29.276  32.282  1.00  0.00    -0.206 F 
ATOM     80  C   UNL A   1      47.119  27.601  33.744  1.00  0.00     0.040 A 
ATOM     81  C   UNL A   1      45.558  26.459  35.177  1.00  0.00     0.040 A 
ATOM     82  F   UNL A   1      43.277  26.992  35.090  1.00  0.00    -0.206 F 
ATOM     83  C   UNL A   1      46.863  26.646  34.726  1.00  0.00     0.006 A 
ENDBRANCH  59  76
ENDBRANCH  33  34
ENDBRANCH  25  28
ENDBRANCH  23  24
ENDBRANCH  22  23
ENDBRANCH   1  22
TORSDOF 15
ENDMDL
