MODEL 1
REMARK VINA RESULT:     -12.7      0.000      0.000
REMARK SMILES C[C@@H]1CN(C(=O)Nc2ccc(O)c(C(=O)NCCCNC(=O)c3ccc(-c4c5nc(c(-c6c(F)cccc6F)c6ccc([nH]6)c(-c6c(F)cccc6F)c6nc(c(-c7c(F)cccc7F)c7ccc4[nH]7)C=C6)C=C5)cc3)c2)C[C@@H]1C
REMARK SMILES IDX 18 1 17 2 16 3 14 4 15 5 13 7 8 8 9 9 77 10 10 11 11 12 7 13
REMARK SMILES IDX 5 14 6 15 4 17 1 18 2 19 3 20 79 21 78 22 80 23 12 24 19 26
REMARK SMILES IDX 20 27 21 28 22 30 23 31 24 32 76 33 25 34 75 35 26 36 27 37
REMARK SMILES IDX 28 38 69 39 29 40 74 41 68 42 70 43 30 44 73 45 67 46 66 47
REMARK SMILES IDX 31 49 57 50 40 51 56 52 41 53 44 54 55 55 71 56 42 57 43 58
REMARK SMILES IDX 54 60 72 61 45 62 32 63 33 64 38 65 34 66 35 67 37 68 39 69
REMARK SMILES IDX 36 70 58 71 59 72 64 73 60 74 61 75 63 76 65 77 62 78 46 79
REMARK SMILES IDX 47 80 52 81 48 82 49 83 51 84 53 85 50 86
REMARK H PARENT 16 6 7 16 12 25 20 29 70 48 44 59
REMARK Flexibility Score: inf
ROOT
ATOM      1  C   UNL A   1      31.404  32.113  26.521  1.00  0.00     0.042 C 
ENDROOT
BRANCH   1   2
ATOM      2  C   UNL A   1      31.488  30.598  26.335  1.00  0.00     0.118 C 
BRANCH   2   3
ATOM      3  N   UNL A   1      32.429  30.245  25.290  1.00  0.00    -0.352 N 
ATOM      4  C   UNL A   1      32.472  29.212  24.393  1.00  0.00     0.255 C 
ATOM      5  O   UNL A   1      33.420  29.205  23.602  1.00  0.00    -0.269 OA
ATOM      6  H   UNL A   1      33.185  30.871  25.211  1.00  0.00     0.163 HD
BRANCH   4   7
ATOM      7  C   UNL A   1      31.426  28.164  24.236  1.00  0.00     0.083 A 
ATOM      8  C   UNL A   1      30.357  26.272  25.346  1.00  0.00     0.043 A 
ATOM      9  C   UNL A   1      29.439  26.171  24.308  1.00  0.00     0.030 A 
ATOM     10  C   UNL A   1      31.288  27.310  25.348  1.00  0.00     0.044 A 
ATOM     11  C   UNL A   1      29.546  27.013  23.206  1.00  0.00     0.049 A 
ATOM     12  C   UNL A   1      30.552  27.985  23.157  1.00  0.00     0.128 A 
BRANCH   8  13
ATOM     13  N   UNL A   1      30.376  25.361  26.403  1.00  0.00    -0.308 N 
ATOM     14  C   UNL A   1      30.799  24.067  26.466  1.00  0.00     0.321 C 
ATOM     15  O   UNL A   1      30.361  23.372  27.386  1.00  0.00    -0.248 OA
ATOM     16  H   UNL A   1      30.022  25.716  27.250  1.00  0.00     0.171 HD
BRANCH  14  17
ATOM     17  N   UNL A   1      31.797  23.616  25.635  1.00  0.00    -0.324 N 
ATOM     18  C   UNL A   1      33.337  23.231  22.280  1.00  0.00     0.010 C 
ATOM     19  C   UNL A   1      33.172  23.040  23.779  1.00  0.00     0.010 C 
ATOM     20  C   UNL A   1      31.726  23.233  24.229  1.00  0.00     0.125 C 
ATOM     21  C   UNL A   1      33.949  23.984  24.703  1.00  0.00     0.010 C 
ATOM     22  C   UNL A   1      33.190  23.802  26.026  1.00  0.00     0.125 C 
ATOM     23  C   UNL A   1      33.943  25.446  24.253  1.00  0.00     0.010 C 
ENDBRANCH  14  17
ENDBRANCH   8  13
BRANCH  12  24
ATOM     24  O   UNL A   1      30.606  28.759  22.038  1.00  0.00    -0.507 OA
ATOM     25  H   UNL A   1      30.511  28.366  21.193  1.00  0.00     0.293 HD
ENDBRANCH  12  24
ENDBRANCH   4   7
ENDBRANCH   2   3
ENDBRANCH   1   2
BRANCH   1  26
ATOM     26  C   UNL A   1      32.603  32.728  27.234  1.00  0.00     0.118 C 
BRANCH  26  27
ATOM     27  N   UNL A   1      32.385  34.122  27.588  1.00  0.00    -0.352 N 
ATOM     28  C   UNL A   1      32.992  34.899  28.544  1.00  0.00     0.251 C 
ATOM     29  H   UNL A   1      31.693  34.581  27.058  1.00  0.00     0.163 HD
ATOM     30  O   UNL A   1      32.515  35.996  28.821  1.00  0.00    -0.269 OA
BRANCH  28  31
ATOM     31  C   UNL A   1      34.199  34.427  29.264  1.00  0.00     0.039 A 
ATOM     32  C   UNL A   1      34.042  33.862  30.535  1.00  0.00     0.014 A 
ATOM     33  C   UNL A   1      35.480  34.571  28.725  1.00  0.00     0.014 A 
ATOM     34  C   UNL A   1      35.154  33.374  31.227  1.00  0.00     0.010 A 
ATOM     35  C   UNL A   1      36.581  34.025  29.386  1.00  0.00     0.010 A 
ATOM     36  C   UNL A   1      36.428  33.415  30.639  1.00  0.00    -0.014 A 
BRANCH  36  37
ATOM     37  C   UNL A   1      37.604  32.791  31.299  1.00  0.00     0.031 A 
ATOM     38  C   UNL A   1      38.259  31.576  30.708  1.00  0.00     0.074 A 
ATOM     39  C   UNL A   1      38.031  33.276  32.482  1.00  0.00     0.049 A 
ATOM     40  N   UNL A   1      39.229  30.842  31.193  1.00  0.00    -0.248 NA
ATOM     41  C   UNL A   1      37.745  31.114  29.410  1.00  0.00     0.031 C 
ATOM     42  C   UNL A   1      37.456  34.429  33.179  1.00  0.00     0.029 A 
ATOM     43  N   UNL A   1      39.034  32.851  33.316  1.00  0.00    -0.354 N 
ATOM     44  C   UNL A   1      39.432  29.825  30.268  1.00  0.00     0.074 A 
ATOM     45  C   UNL A   1      38.460  30.014  29.213  1.00  0.00     0.031 C 
ATOM     46  C   UNL A   1      38.123  34.625  34.326  1.00  0.00     0.029 A 
ATOM     47  C   UNL A   1      39.142  33.591  34.468  1.00  0.00     0.049 A 
ATOM     48  H   UNL A   1      39.621  32.089  33.107  1.00  0.00     0.167 HD
ATOM     49  C   UNL A   1      40.356  28.834  30.291  1.00  0.00     0.037 A 
ATOM     50  C   UNL A   1      39.956  33.442  35.529  1.00  0.00     0.037 A 
ATOM     51  C   UNL A   1      41.335  28.658  31.331  1.00  0.00     0.049 A 
ATOM     52  C   UNL A   1      40.946  32.312  35.548  1.00  0.00     0.074 A 
ATOM     53  C   UNL A   1      42.362  27.733  31.403  1.00  0.00     0.029 A 
ATOM     54  N   UNL A   1      41.400  29.419  32.490  1.00  0.00    -0.354 N 
ATOM     55  N   UNL A   1      41.170  31.398  34.637  1.00  0.00    -0.248 NA
ATOM     56  C   UNL A   1      41.787  32.187  36.747  1.00  0.00     0.031 C 
ATOM     57  C   UNL A   1      43.022  27.905  32.625  1.00  0.00     0.029 A 
ATOM     58  C   UNL A   1      42.428  28.961  33.298  1.00  0.00     0.049 A 
ATOM     59  H   UNL A   1      40.804  30.172  32.705  1.00  0.00     0.167 HD
ATOM     60  C   UNL A   1      42.184  30.597  35.144  1.00  0.00     0.074 A 
ATOM     61  C   UNL A   1      42.544  31.143  36.436  1.00  0.00     0.031 C 
ATOM     62  C   UNL A   1      42.765  29.506  34.588  1.00  0.00     0.037 A 
BRANCH  49  63
ATOM     63  C   UNL A   1      40.350  27.859  29.150  1.00  0.00     0.057 A 
ATOM     64  C   UNL A   1      39.538  26.716  29.161  1.00  0.00     0.134 A 
ATOM     65  C   UNL A   1      41.136  28.082  28.013  1.00  0.00     0.134 A 
ATOM     66  F   UNL A   1      38.767  26.440  30.223  1.00  0.00    -0.206 F 
ATOM     67  C   UNL A   1      39.530  25.818  28.092  1.00  0.00     0.040 A 
ATOM     68  C   UNL A   1      41.119  27.203  26.929  1.00  0.00     0.040 A 
ATOM     69  F   UNL A   1      41.930  29.160  27.935  1.00  0.00    -0.206 F 
ATOM     70  C   UNL A   1      40.317  26.064  26.969  1.00  0.00     0.006 A 
ENDBRANCH  49  63
BRANCH  50  71
ATOM     71  C   UNL A   1      39.868  34.392  36.665  1.00  0.00     0.057 A 
ATOM     72  C   UNL A   1      40.568  35.603  36.645  1.00  0.00     0.134 A 
ATOM     73  C   UNL A   1      39.077  34.121  37.787  1.00  0.00     0.134 A 
ATOM     74  F   UNL A   1      41.357  35.908  35.605  1.00  0.00    -0.206 F 
ATOM     75  C   UNL A   1      40.491  36.509  37.703  1.00  0.00     0.040 A 
ATOM     76  C   UNL A   1      38.974  35.026  38.844  1.00  0.00     0.040 A 
ATOM     77  F   UNL A   1      38.377  32.979  37.863  1.00  0.00    -0.206 F 
ATOM     78  C   UNL A   1      39.685  36.224  38.805  1.00  0.00     0.006 A 
ENDBRANCH  50  71
BRANCH  62  79
ATOM     79  C   UNL A   1      43.846  28.831  35.376  1.00  0.00     0.057 A 
ATOM     80  C   UNL A   1      43.553  27.827  36.309  1.00  0.00     0.134 A 
ATOM     81  C   UNL A   1      45.192  29.157  35.175  1.00  0.00     0.134 A 
ATOM     82  F   UNL A   1      42.282  27.482  36.558  1.00  0.00    -0.206 F 
ATOM     83  C   UNL A   1      44.563  27.181  37.023  1.00  0.00     0.040 A 
ATOM     84  C   UNL A   1      46.212  28.504  35.867  1.00  0.00     0.040 A 
ATOM     85  F   UNL A   1      45.538  30.107  34.292  1.00  0.00    -0.206 F 
ATOM     86  C   UNL A   1      45.897  27.515  36.798  1.00  0.00     0.006 A 
ENDBRANCH  62  79
ENDBRANCH  36  37
ENDBRANCH  28  31
ENDBRANCH  26  27
ENDBRANCH   1  26
TORSDOF 13
ENDMDL
MODEL 2
REMARK VINA RESULT:     -12.7      0.053      1.601
REMARK SMILES C[C@@H]1CN(C(=O)Nc2ccc(O)c(C(=O)NCCCNC(=O)c3ccc(-c4c5nc(c(-c6c(F)cccc6F)c6ccc([nH]6)c(-c6c(F)cccc6F)c6nc(c(-c7c(F)cccc7F)c7ccc4[nH]7)C=C6)C=C5)cc3)c2)C[C@@H]1C
REMARK SMILES IDX 18 1 17 2 16 3 14 4 15 5 13 7 8 8 9 9 77 10 10 11 11 12 7 13
REMARK SMILES IDX 5 14 6 15 4 17 1 18 2 19 3 20 79 21 78 22 80 23 12 24 19 26
REMARK SMILES IDX 20 27 21 28 22 30 23 31 24 32 76 33 25 34 75 35 26 36 27 37
REMARK SMILES IDX 28 38 69 39 29 40 74 41 68 42 70 43 30 44 73 45 67 46 66 47
REMARK SMILES IDX 31 49 57 50 40 51 56 52 41 53 44 54 55 55 71 56 42 57 43 58
REMARK SMILES IDX 54 60 72 61 45 62 32 63 33 64 38 65 34 66 35 67 37 68 39 69
REMARK SMILES IDX 36 70 58 71 59 72 64 73 60 74 61 75 63 76 65 77 62 78 46 79
REMARK SMILES IDX 47 80 52 81 48 82 49 83 51 84 53 85 50 86
REMARK H PARENT 16 6 7 16 12 25 20 29 70 48 44 59
REMARK Flexibility Score: inf
ROOT
ATOM      1  C   UNL A   1      31.384  32.158  26.470  1.00  0.00     0.042 C 
ENDROOT
BRANCH   1   2
ATOM      2  C   UNL A   1      31.448  30.640  26.296  1.00  0.00     0.118 C 
BRANCH   2   3
ATOM      3  N   UNL A   1      32.413  30.265  25.281  1.00  0.00    -0.352 N 
ATOM      4  C   UNL A   1      32.474  29.215  24.405  1.00  0.00     0.255 C 
ATOM      5  O   UNL A   1      33.440  29.190  23.637  1.00  0.00    -0.269 OA
ATOM      6  H   UNL A   1      33.172  30.888  25.206  1.00  0.00     0.163 HD
BRANCH   4   7
ATOM      7  C   UNL A   1      31.430  28.165  24.244  1.00  0.00     0.083 A 
ATOM      8  C   UNL A   1      30.361  26.272  25.351  1.00  0.00     0.043 A 
ATOM      9  C   UNL A   1      29.446  26.169  24.310  1.00  0.00     0.030 A 
ATOM     10  C   UNL A   1      31.290  27.311  25.356  1.00  0.00     0.044 A 
ATOM     11  C   UNL A   1      29.556  27.011  23.208  1.00  0.00     0.049 A 
ATOM     12  C   UNL A   1      30.560  27.985  23.163  1.00  0.00     0.128 A 
BRANCH   8  13
ATOM     13  N   UNL A   1      30.378  25.361  26.409  1.00  0.00    -0.308 N 
ATOM     14  C   UNL A   1      30.793  24.065  26.471  1.00  0.00     0.321 C 
ATOM     15  O   UNL A   1      30.354  23.372  27.393  1.00  0.00    -0.248 OA
ATOM     16  H   UNL A   1      30.028  25.718  27.257  1.00  0.00     0.171 HD
BRANCH  14  17
ATOM     17  N   UNL A   1      31.787  23.608  25.638  1.00  0.00    -0.324 N 
ATOM     18  C   UNL A   1      33.302  23.190  22.275  1.00  0.00     0.010 C 
ATOM     19  C   UNL A   1      33.150  23.016  23.777  1.00  0.00     0.010 C 
ATOM     20  C   UNL A   1      31.706  23.209  24.236  1.00  0.00     0.125 C 
ATOM     21  C   UNL A   1      33.930  23.973  24.685  1.00  0.00     0.010 C 
ATOM     22  C   UNL A   1      33.182  23.803  26.016  1.00  0.00     0.125 C 
ATOM     23  C   UNL A   1      33.915  25.430  24.218  1.00  0.00     0.010 C 
ENDBRANCH  14  17
ENDBRANCH   8  13
BRANCH  12  24
ATOM     24  O   UNL A   1      30.617  28.758  22.044  1.00  0.00    -0.507 OA
ATOM     25  H   UNL A   1      30.182  28.482  21.262  1.00  0.00     0.293 HD
ENDBRANCH  12  24
ENDBRANCH   4   7
ENDBRANCH   2   3
ENDBRANCH   1   2
BRANCH   1  26
ATOM     26  C   UNL A   1      32.566  32.757  27.222  1.00  0.00     0.118 C 
BRANCH  26  27
ATOM     27  N   UNL A   1      32.351  34.151  27.578  1.00  0.00    -0.352 N 
ATOM     28  C   UNL A   1      32.964  34.928  28.530  1.00  0.00     0.251 C 
ATOM     29  H   UNL A   1      31.656  34.610  27.053  1.00  0.00     0.163 HD
ATOM     30  O   UNL A   1      32.489  36.025  28.810  1.00  0.00    -0.269 OA
BRANCH  28  31
ATOM     31  C   UNL A   1      34.175  34.455  29.243  1.00  0.00     0.039 A 
ATOM     32  C   UNL A   1      34.029  33.912  30.524  1.00  0.00     0.014 A 
ATOM     33  C   UNL A   1      35.451  34.578  28.685  1.00  0.00     0.014 A 
ATOM     34  C   UNL A   1      35.145  33.423  31.210  1.00  0.00     0.010 A 
ATOM     35  C   UNL A   1      36.555  34.032  29.341  1.00  0.00     0.010 A 
ATOM     36  C   UNL A   1      36.412  33.442  30.606  1.00  0.00    -0.014 A 
BRANCH  36  37
ATOM     37  C   UNL A   1      37.589  32.818  31.261  1.00  0.00     0.031 A 
ATOM     38  C   UNL A   1      38.242  31.603  30.667  1.00  0.00     0.074 A 
ATOM     39  C   UNL A   1      38.021  33.302  32.443  1.00  0.00     0.049 A 
ATOM     40  N   UNL A   1      39.213  30.867  31.148  1.00  0.00    -0.248 NA
ATOM     41  C   UNL A   1      37.722  31.142  29.370  1.00  0.00     0.031 C 
ATOM     42  C   UNL A   1      37.449  34.455  33.142  1.00  0.00     0.029 A 
ATOM     43  N   UNL A   1      39.027  32.875  33.272  1.00  0.00    -0.354 N 
ATOM     44  C   UNL A   1      39.412  29.851  30.221  1.00  0.00     0.074 A 
ATOM     45  C   UNL A   1      38.436  30.041  29.170  1.00  0.00     0.031 C 
ATOM     46  C   UNL A   1      38.120  34.650  34.288  1.00  0.00     0.029 A 
ATOM     47  C   UNL A   1      39.140  33.614  34.425  1.00  0.00     0.049 A 
ATOM     48  H   UNL A   1      39.613  32.113  33.061  1.00  0.00     0.167 HD
ATOM     49  C   UNL A   1      40.335  28.860  30.240  1.00  0.00     0.037 A 
ATOM     50  C   UNL A   1      39.957  33.464  35.483  1.00  0.00     0.037 A 
ATOM     51  C   UNL A   1      41.318  28.682  31.277  1.00  0.00     0.049 A 
ATOM     52  C   UNL A   1      40.946  32.334  35.498  1.00  0.00     0.074 A 
ATOM     53  C   UNL A   1      42.345  27.757  31.344  1.00  0.00     0.029 A 
ATOM     54  N   UNL A   1      41.388  29.442  32.435  1.00  0.00    -0.354 N 
ATOM     55  N   UNL A   1      41.167  31.421  34.585  1.00  0.00    -0.248 NA
ATOM     56  C   UNL A   1      41.792  32.208  36.693  1.00  0.00     0.031 C 
ATOM     57  C   UNL A   1      43.010  27.928  32.564  1.00  0.00     0.029 A 
ATOM     58  C   UNL A   1      42.419  28.983  33.239  1.00  0.00     0.049 A 
ATOM     59  H   UNL A   1      40.794  30.195  32.654  1.00  0.00     0.167 HD
ATOM     60  C   UNL A   1      42.183  30.619  35.087  1.00  0.00     0.074 A 
ATOM     61  C   UNL A   1      42.547  31.164  36.378  1.00  0.00     0.031 C 
ATOM     62  C   UNL A   1      42.760  29.527  34.529  1.00  0.00     0.037 A 
BRANCH  49  63
ATOM     63  C   UNL A   1      40.324  27.885  29.099  1.00  0.00     0.057 A 
ATOM     64  C   UNL A   1      41.121  28.072  27.961  1.00  0.00     0.134 A 
ATOM     65  C   UNL A   1      39.536  26.729  29.153  1.00  0.00     0.134 A 
ATOM     66  F   UNL A   1      41.893  29.162  27.844  1.00  0.00    -0.206 F 
ATOM     67  C   UNL A   1      41.114  27.156  26.907  1.00  0.00     0.040 A 
ATOM     68  C   UNL A   1      39.537  25.795  28.115  1.00  0.00     0.040 A 
ATOM     69  F   UNL A   1      38.755  26.486  30.216  1.00  0.00    -0.206 F 
ATOM     70  C   UNL A   1      40.325  26.011  26.985  1.00  0.00     0.006 A 
ENDBRANCH  49  63
BRANCH  50  71
ATOM     71  C   UNL A   1      39.874  34.413  36.620  1.00  0.00     0.057 A 
ATOM     72  C   UNL A   1      39.087  34.126  37.740  1.00  0.00     0.134 A 
ATOM     73  C   UNL A   1      40.585  35.619  36.621  1.00  0.00     0.134 A 
ATOM     74  F   UNL A   1      38.368  32.995  37.787  1.00  0.00    -0.206 F 
ATOM     75  C   UNL A   1      39.003  35.007  38.819  1.00  0.00     0.040 A 
ATOM     76  C   UNL A   1      40.527  36.499  37.702  1.00  0.00     0.040 A 
ATOM     77  F   UNL A   1      41.362  35.948  35.579  1.00  0.00    -0.206 F 
ATOM     78  C   UNL A   1      39.730  36.196  38.805  1.00  0.00     0.006 A 
ENDBRANCH  50  71
BRANCH  62  79
ATOM     79  C   UNL A   1      43.844  28.851  35.313  1.00  0.00     0.057 A 
ATOM     80  C   UNL A   1      45.193  29.181  35.131  1.00  0.00     0.134 A 
ATOM     81  C   UNL A   1      43.536  27.890  36.283  1.00  0.00     0.134 A 
ATOM     82  F   UNL A   1      45.553  30.081  34.205  1.00  0.00    -0.206 F 
ATOM     83  C   UNL A   1      46.199  28.569  35.881  1.00  0.00     0.040 A 
ATOM     84  C   UNL A   1      44.530  27.287  37.054  1.00  0.00     0.040 A 
ATOM     85  F   UNL A   1      42.262  27.534  36.509  1.00  0.00    -0.206 F 
ATOM     86  C   UNL A   1      45.867  27.624  36.849  1.00  0.00     0.006 A 
ENDBRANCH  62  79
ENDBRANCH  36  37
ENDBRANCH  28  31
ENDBRANCH  26  27
ENDBRANCH   1  26
TORSDOF 13
ENDMDL
MODEL 3
REMARK VINA RESULT:     -12.5      4.323     10.261
REMARK SMILES C[C@@H]1CN(C(=O)Nc2ccc(O)c(C(=O)NCCCNC(=O)c3ccc(-c4c5nc(c(-c6c(F)cccc6F)c6ccc([nH]6)c(-c6c(F)cccc6F)c6nc(c(-c7c(F)cccc7F)c7ccc4[nH]7)C=C6)C=C5)cc3)c2)C[C@@H]1C
REMARK SMILES IDX 18 1 17 2 16 3 14 4 15 5 13 7 8 8 9 9 77 10 10 11 11 12 7 13
REMARK SMILES IDX 5 14 6 15 4 17 1 18 2 19 3 20 79 21 78 22 80 23 12 24 19 26
REMARK SMILES IDX 20 27 21 28 22 30 23 31 24 32 76 33 25 34 75 35 26 36 27 37
REMARK SMILES IDX 28 38 69 39 29 40 74 41 68 42 70 43 30 44 73 45 67 46 66 47
REMARK SMILES IDX 31 49 57 50 40 51 56 52 41 53 44 54 55 55 71 56 42 57 43 58
REMARK SMILES IDX 54 60 72 61 45 62 32 63 33 64 38 65 34 66 35 67 37 68 39 69
REMARK SMILES IDX 36 70 58 71 59 72 64 73 60 74 61 75 63 76 65 77 62 78 46 79
REMARK SMILES IDX 47 80 52 81 48 82 49 83 51 84 53 85 50 86
REMARK H PARENT 16 6 7 16 12 25 20 29 70 48 44 59
REMARK Flexibility Score: inf
ROOT
ATOM      1  C   UNL A   1      35.172  33.261  27.944  1.00  0.00     0.042 C 
ENDROOT
BRANCH   1   2
ATOM      2  C   UNL A   1      35.285  34.712  28.415  1.00  0.00     0.118 C 
BRANCH   2   3
ATOM      3  N   UNL A   1      33.996  35.374  28.400  1.00  0.00    -0.352 N 
ATOM      4  C   UNL A   1      33.211  35.894  29.393  1.00  0.00     0.255 C 
ATOM      5  O   UNL A   1      32.151  36.421  29.042  1.00  0.00    -0.269 OA
ATOM      6  H   UNL A   1      33.610  35.468  27.499  1.00  0.00     0.163 HD
BRANCH   4   7
ATOM      7  C   UNL A   1      33.576  35.958  30.836  1.00  0.00     0.083 A 
ATOM      8  C   UNL A   1      34.523  34.673  32.682  1.00  0.00     0.043 A 
ATOM      9  C   UNL A   1      34.504  35.803  33.490  1.00  0.00     0.030 A 
ATOM     10  C   UNL A   1      34.140  34.771  31.344  1.00  0.00     0.044 A 
ATOM     11  C   UNL A   1      33.964  36.990  33.004  1.00  0.00     0.049 A 
ATOM     12  C   UNL A   1      33.477  37.059  31.694  1.00  0.00     0.128 A 
BRANCH   8  13
ATOM     13  N   UNL A   1      34.923  33.428  33.168  1.00  0.00    -0.308 N 
ATOM     14  C   UNL A   1      36.146  32.828  33.202  1.00  0.00     0.321 C 
ATOM     15  O   UNL A   1      36.172  31.600  33.323  1.00  0.00    -0.248 OA
ATOM     16  H   UNL A   1      34.194  32.889  33.553  1.00  0.00     0.171 HD
BRANCH  14  17
ATOM     17  N   UNL A   1      37.294  33.582  33.268  1.00  0.00    -0.324 N 
ATOM     18  C   UNL A   1      40.015  35.236  35.174  1.00  0.00     0.010 C 
ATOM     19  C   UNL A   1      39.188  34.847  33.960  1.00  0.00     0.010 C 
ATOM     20  C   UNL A   1      37.759  34.463  34.335  1.00  0.00     0.125 C 
ATOM     21  C   UNL A   1      39.663  33.646  33.135  1.00  0.00     0.010 C 
ATOM     22  C   UNL A   1      38.389  33.299  32.348  1.00  0.00     0.125 C 
ATOM     23  C   UNL A   1      40.140  32.459  33.974  1.00  0.00     0.010 C 
ENDBRANCH  14  17
ENDBRANCH   8  13
BRANCH  12  24
ATOM     24  O   UNL A   1      32.947  38.248  31.296  1.00  0.00    -0.507 OA
ATOM     25  H   UNL A   1      32.902  38.459  30.385  1.00  0.00     0.293 HD
ENDBRANCH  12  24
ENDBRANCH   4   7
ENDBRANCH   2   3
ENDBRANCH   1   2
BRANCH   1  26
ATOM     26  C   UNL A   1      34.573  32.309  28.973  1.00  0.00     0.118 C 
BRANCH  26  27
ATOM     27  N   UNL A   1      34.043  31.097  28.366  1.00  0.00    -0.352 N 
ATOM     28  C   UNL A   1      34.690  29.963  27.940  1.00  0.00     0.251 C 
ATOM     29  H   UNL A   1      33.066  31.088  28.243  1.00  0.00     0.163 HD
ATOM     30  O   UNL A   1      34.080  29.139  27.266  1.00  0.00    -0.269 OA
BRANCH  28  31
ATOM     31  C   UNL A   1      36.119  29.728  28.261  1.00  0.00     0.039 A 
ATOM     32  C   UNL A   1      36.452  29.276  29.543  1.00  0.00     0.014 A 
ATOM     33  C   UNL A   1      37.132  29.986  27.333  1.00  0.00     0.014 A 
ATOM     34  C   UNL A   1      37.785  29.010  29.867  1.00  0.00     0.010 A 
ATOM     35  C   UNL A   1      38.454  29.658  27.635  1.00  0.00     0.010 A 
ATOM     36  C   UNL A   1      38.793  29.161  28.902  1.00  0.00    -0.014 A 
BRANCH  36  37
ATOM     37  C   UNL A   1      40.197  28.766  29.183  1.00  0.00     0.031 A 
ATOM     38  C   UNL A   1      41.144  29.726  29.844  1.00  0.00     0.074 A 
ATOM     39  C   UNL A   1      40.641  27.564  28.767  1.00  0.00     0.049 A 
ATOM     40  N   UNL A   1      42.426  29.593  30.080  1.00  0.00    -0.248 NA
ATOM     41  C   UNL A   1      40.583  31.014  30.280  1.00  0.00     0.031 C 
ATOM     42  C   UNL A   1      39.830  26.555  28.082  1.00  0.00     0.029 A 
ATOM     43  N   UNL A   1      41.886  26.993  28.843  1.00  0.00    -0.354 N 
ATOM     44  C   UNL A   1      42.826  30.781  30.678  1.00  0.00     0.074 A 
ATOM     45  C   UNL A   1      41.661  31.638  30.734  1.00  0.00     0.031 C 
ATOM     46  C   UNL A   1      40.594  25.487  27.811  1.00  0.00     0.029 A 
ATOM     47  C   UNL A   1      41.957  25.749  28.264  1.00  0.00     0.049 A 
ATOM     48  H   UNL A   1      42.655  27.432  29.272  1.00  0.00     0.167 HD
ATOM     49  C   UNL A   1      44.050  31.119  31.151  1.00  0.00     0.037 A 
ATOM     50  C   UNL A   1      43.004  24.921  28.097  1.00  0.00     0.037 A 
ATOM     51  C   UNL A   1      45.203  30.258  31.111  1.00  0.00     0.049 A 
ATOM     52  C   UNL A   1      44.360  25.334  28.595  1.00  0.00     0.074 A 
ATOM     53  C   UNL A   1      46.464  30.480  31.636  1.00  0.00     0.029 A 
ATOM     54  N   UNL A   1      45.237  29.013  30.501  1.00  0.00    -0.354 N 
ATOM     55  N   UNL A   1      44.708  26.433  29.218  1.00  0.00    -0.248 NA
ATOM     56  C   UNL A   1      45.467  24.398  28.359  1.00  0.00     0.031 C 
ATOM     57  C   UNL A   1      47.275  29.388  31.305  1.00  0.00     0.029 A 
ATOM     58  C   UNL A   1      46.508  28.470  30.606  1.00  0.00     0.049 A 
ATOM     59  H   UNL A   1      44.473  28.579  30.059  1.00  0.00     0.167 HD
ATOM     60  C   UNL A   1      46.071  26.317  29.459  1.00  0.00     0.074 A 
ATOM     61  C   UNL A   1      46.482  25.033  28.931  1.00  0.00     0.031 C 
ATOM     62  C   UNL A   1      46.906  27.197  30.062  1.00  0.00     0.037 A 
BRANCH  49  63
ATOM     63  C   UNL A   1      44.204  32.484  31.754  1.00  0.00     0.057 A 
ATOM     64  C   UNL A   1      44.627  33.583  30.994  1.00  0.00     0.134 A 
ATOM     65  C   UNL A   1      43.891  32.711  33.100  1.00  0.00     0.134 A 
ATOM     66  F   UNL A   1      44.949  33.431  29.701  1.00  0.00    -0.206 F 
ATOM     67  C   UNL A   1      44.759  34.853  31.559  1.00  0.00     0.040 A 
ATOM     68  C   UNL A   1      43.998  33.981  33.670  1.00  0.00     0.040 A 
ATOM     69  F   UNL A   1      43.474  31.704  33.882  1.00  0.00    -0.206 F 
ATOM     70  C   UNL A   1      44.438  35.056  32.900  1.00  0.00     0.006 A 
ENDBRANCH  49  63
BRANCH  50  71
ATOM     71  C   UNL A   1      42.810  23.612  27.425  1.00  0.00     0.057 A 
ATOM     72  C   UNL A   1      42.446  22.477  28.156  1.00  0.00     0.134 A 
ATOM     73  C   UNL A   1      42.970  23.468  26.042  1.00  0.00     0.134 A 
ATOM     74  F   UNL A   1      42.298  22.550  29.487  1.00  0.00    -0.206 F 
ATOM     75  C   UNL A   1      42.255  21.240  27.538  1.00  0.00     0.040 A 
ATOM     76  C   UNL A   1      42.761  22.243  25.408  1.00  0.00     0.040 A 
ATOM     77  F   UNL A   1      43.311  24.522  25.286  1.00  0.00    -0.206 F 
ATOM     78  C   UNL A   1      42.406  21.123  26.157  1.00  0.00     0.006 A 
ENDBRANCH  50  71
BRANCH  62  79
ATOM     79  C   UNL A   1      48.346  26.801  30.181  1.00  0.00     0.057 A 
ATOM     80  C   UNL A   1      48.803  26.015  31.247  1.00  0.00     0.134 A 
ATOM     81  C   UNL A   1      49.277  27.174  29.204  1.00  0.00     0.134 A 
ATOM     82  F   UNL A   1      47.964  25.641  32.223  1.00  0.00    -0.206 F 
ATOM     83  C   UNL A   1      50.140  25.626  31.342  1.00  0.00     0.040 A 
ATOM     84  C   UNL A   1      50.611  26.773  29.277  1.00  0.00     0.040 A 
ATOM     85  F   UNL A   1      48.901  27.922  28.155  1.00  0.00    -0.206 F 
ATOM     86  C   UNL A   1      51.046  25.999  30.352  1.00  0.00     0.006 A 
ENDBRANCH  62  79
ENDBRANCH  36  37
ENDBRANCH  28  31
ENDBRANCH  26  27
ENDBRANCH   1  26
TORSDOF 13
ENDMDL
