MODEL 1
REMARK VINA RESULT:     -11.6      0.000      0.000
REMARK SMILES CCOc1ccccc1N1CCN(c2ncc(N)cc2C(=O)NCCCNC(=O)c2ccc(-c3c4nc(c(-c5c(F)cccc5F)c5ccc([nH]5)c(-c5c(F)cccc5F)c5nc(c(-c6c(F)cccc6F)c6ccc3[nH]6)C=C5)C=C4)cc2)CC1
REMARK SMILES IDX 24 1 23 2 21 3 22 4 20 6 14 7 15 8 16 9 19 10 17 11 13 12
REMARK SMILES IDX 10 13 11 14 85 15 12 16 84 17 9 18 4 19 5 20 6 21 8 22 7 23
REMARK SMILES IDX 3 24 2 25 1 26 18 27 25 30 26 31 27 32 28 33 29 35 30 36
REMARK SMILES IDX 31 37 83 38 32 39 82 40 33 41 34 42 35 43 76 44 36 45 81 46
REMARK SMILES IDX 75 47 77 48 37 49 80 50 74 51 73 52 38 54 64 55 47 56 63 57
REMARK SMILES IDX 48 58 51 59 62 60 78 61 49 62 50 63 61 65 79 66 52 67 39 68
REMARK SMILES IDX 40 69 45 70 41 71 42 72 44 73 46 74 43 75 65 76 66 77 71 78
REMARK SMILES IDX 67 79 68 80 70 81 72 82 69 83 53 84 54 85 59 86 55 87 56 88
REMARK SMILES IDX 58 89 60 90 57 91
REMARK H PARENT 23 5 18 28 18 29 27 34 77 53 51 64
REMARK Flexibility Score: inf
ROOT
ATOM      1  C   UNL A   1      37.405  21.592  24.841  1.00  0.00     0.118 C 
ENDROOT
BRANCH   1   2
ATOM      2  N   UNL A   1      36.441  21.660  25.913  1.00  0.00    -0.352 N 
ATOM      3  C   UNL A   1      35.120  21.374  26.103  1.00  0.00     0.255 C 
ATOM      4  O   UNL A   1      34.771  21.606  27.263  1.00  0.00    -0.269 OA
ATOM      5  H   UNL A   1      36.850  22.011  26.737  1.00  0.00     0.163 HD
BRANCH   3   6
ATOM      6  C   UNL A   1      34.170  20.810  25.078  1.00  0.00     0.084 A 
ATOM      7  C   UNL A   1      33.124  21.627  24.597  1.00  0.00     0.141 A 
ATOM      8  N   UNL A   1      32.124  21.147  23.812  1.00  0.00    -0.236 NA
ATOM      9  C   UNL A   1      32.166  19.848  23.453  1.00  0.00     0.139 A 
ATOM     10  C   UNL A   1      34.188  19.484  24.627  1.00  0.00     0.044 A 
ATOM     11  C   UNL A   1      33.162  18.965  23.835  1.00  0.00     0.051 A 
BRANCH   7  12
ATOM     12  N   UNL A   1      33.080  22.977  24.863  1.00  0.00    -0.352 N 
ATOM     13  N   UNL A   1      32.815  25.778  25.209  1.00  0.00    -0.365 N 
ATOM     14  C   UNL A   1      32.266  24.856  26.215  1.00  0.00     0.138 C 
ATOM     15  C   UNL A   1      34.014  25.272  24.513  1.00  0.00     0.138 C 
ATOM     16  C   UNL A   1      31.914  23.506  25.559  1.00  0.00     0.139 C 
ATOM     17  C   UNL A   1      33.765  23.868  23.915  1.00  0.00     0.139 C 
BRANCH  13  18
ATOM     18  C   UNL A   1      32.675  27.148  25.356  1.00  0.00     0.079 A 
ATOM     19  C   UNL A   1      31.880  27.905  24.472  1.00  0.00     0.142 A 
ATOM     20  C   UNL A   1      31.700  29.282  24.644  1.00  0.00     0.048 A 
ATOM     21  C   UNL A   1      32.304  29.932  25.717  1.00  0.00     0.004 A 
ATOM     22  C   UNL A   1      33.287  27.836  26.416  1.00  0.00     0.030 A 
ATOM     23  C   UNL A   1      33.106  29.211  26.596  1.00  0.00     0.002 A 
BRANCH  19  24
ATOM     24  O   UNL A   1      31.292  27.306  23.381  1.00  0.00    -0.492 OA
BRANCH  24  25
ATOM     25  C   UNL A   1      29.871  27.474  23.385  1.00  0.00     0.226 C 
ATOM     26  C   UNL A   1      29.216  26.336  24.145  1.00  0.00     0.049 C 
ENDBRANCH  24  25
ENDBRANCH  19  24
ENDBRANCH  13  18
ENDBRANCH   7  12
BRANCH  11  27
ATOM     27  N   UNL A   1      33.214  17.660  23.372  1.00  0.00    -0.397 N 
ATOM     28  H   UNL A   1      32.389  17.127  23.305  1.00  0.00     0.156 HD
ATOM     29  H   UNL A   1      34.076  17.265  23.109  1.00  0.00     0.156 HD
ENDBRANCH  11  27
ENDBRANCH   3   6
ENDBRANCH   1   2
BRANCH   1  30
ATOM     30  C   UNL A   1      38.178  20.280  24.860  1.00  0.00     0.042 C 
BRANCH  30  31
ATOM     31  C   UNL A   1      38.934  20.052  26.172  1.00  0.00     0.118 C 
BRANCH  31  32
ATOM     32  N   UNL A   1      40.164  19.291  25.970  1.00  0.00    -0.352 N 
ATOM     33  C   UNL A   1      41.466  19.711  25.896  1.00  0.00     0.251 C 
ATOM     34  H   UNL A   1      40.036  18.320  25.870  1.00  0.00     0.163 HD
ATOM     35  O   UNL A   1      42.312  18.993  25.375  1.00  0.00    -0.269 OA
BRANCH  33  36
ATOM     36  C   UNL A   1      41.855  21.017  26.460  1.00  0.00     0.039 A 
ATOM     37  C   UNL A   1      42.248  22.045  25.598  1.00  0.00     0.014 A 
ATOM     38  C   UNL A   1      41.896  21.205  27.843  1.00  0.00     0.014 A 
ATOM     39  C   UNL A   1      42.631  23.279  26.126  1.00  0.00     0.010 A 
ATOM     40  C   UNL A   1      42.197  22.456  28.364  1.00  0.00     0.010 A 
ATOM     41  C   UNL A   1      42.581  23.501  27.512  1.00  0.00    -0.014 A 
BRANCH  41  42
ATOM     42  C   UNL A   1      42.936  24.814  28.101  1.00  0.00     0.031 A 
ATOM     43  C   UNL A   1      41.867  25.840  28.349  1.00  0.00     0.074 A 
ATOM     44  C   UNL A   1      44.231  25.111  28.318  1.00  0.00     0.049 A 
ATOM     45  N   UNL A   1      41.987  27.077  28.756  1.00  0.00    -0.248 NA
ATOM     46  C   UNL A   1      40.481  25.434  28.065  1.00  0.00     0.031 C 
ATOM     47  C   UNL A   1      45.361  24.219  28.051  1.00  0.00     0.029 A 
ATOM     48  N   UNL A   1      44.816  26.257  28.793  1.00  0.00    -0.354 N 
ATOM     49  C   UNL A   1      40.702  27.604  28.749  1.00  0.00     0.074 A 
ATOM     50  C   UNL A   1      39.823  26.569  28.250  1.00  0.00     0.031 C 
ATOM     51  C   UNL A   1      46.501  24.846  28.377  1.00  0.00     0.029 A 
ATOM     52  C   UNL A   1      46.187  26.193  28.841  1.00  0.00     0.049 A 
ATOM     53  H   UNL A   1      44.302  27.050  29.072  1.00  0.00     0.167 HD
ATOM     54  C   UNL A   1      40.289  28.833  29.140  1.00  0.00     0.037 A 
ATOM     55  C   UNL A   1      47.089  27.121  29.210  1.00  0.00     0.037 A 
ATOM     56  C   UNL A   1      41.167  29.842  29.671  1.00  0.00     0.049 A 
ATOM     57  C   UNL A   1      46.606  28.465  29.677  1.00  0.00     0.074 A 
ATOM     58  C   UNL A   1      40.841  31.086  30.183  1.00  0.00     0.029 A 
ATOM     59  N   UNL A   1      42.546  29.723  29.755  1.00  0.00    -0.354 N 
ATOM     60  N   UNL A   1      45.378  28.922  29.747  1.00  0.00    -0.248 NA
ATOM     61  C   UNL A   1      47.629  29.418  30.127  1.00  0.00     0.031 C 
ATOM     62  C   UNL A   1      42.028  31.736  30.537  1.00  0.00     0.029 A 
ATOM     63  C   UNL A   1      43.090  30.880  30.289  1.00  0.00     0.049 A 
ATOM     64  H   UNL A   1      43.063  28.933  29.476  1.00  0.00     0.167 HD
ATOM     65  C   UNL A   1      45.478  30.205  30.267  1.00  0.00     0.074 A 
ATOM     66  C   UNL A   1      46.887  30.447  30.509  1.00  0.00     0.031 C 
ATOM     67  C   UNL A   1      44.494  31.102  30.521  1.00  0.00     0.037 A 
BRANCH  54  68
ATOM     68  C   UNL A   1      38.828  29.149  29.007  1.00  0.00     0.057 A 
ATOM     69  C   UNL A   1      37.944  29.046  30.090  1.00  0.00     0.134 A 
ATOM     70  C   UNL A   1      38.299  29.577  27.783  1.00  0.00     0.134 A 
ATOM     71  F   UNL A   1      38.382  28.631  31.288  1.00  0.00    -0.206 F 
ATOM     72  C   UNL A   1      36.583  29.327  29.952  1.00  0.00     0.040 A 
ATOM     73  C   UNL A   1      36.946  29.888  27.640  1.00  0.00     0.040 A 
ATOM     74  F   UNL A   1      39.088  29.703  26.705  1.00  0.00    -0.206 F 
ATOM     75  C   UNL A   1      36.081  29.754  28.725  1.00  0.00     0.006 A 
ENDBRANCH  54  68
BRANCH  55  76
ATOM     76  C   UNL A   1      48.535  26.795  29.173  1.00  0.00     0.057 A 
ATOM     77  C   UNL A   1      49.323  27.133  28.067  1.00  0.00     0.134 A 
ATOM     78  C   UNL A   1      49.169  26.161  30.248  1.00  0.00     0.134 A 
ATOM     79  F   UNL A   1      48.769  27.729  27.001  1.00  0.00    -0.206 F 
ATOM     80  C   UNL A   1      50.687  26.841  28.024  1.00  0.00     0.040 A 
ATOM     81  C   UNL A   1      50.537  25.884  30.229  1.00  0.00     0.040 A 
ATOM     82  F   UNL A   1      48.471  25.823  31.342  1.00  0.00    -0.206 F 
ATOM     83  C   UNL A   1      51.300  26.220  29.112  1.00  0.00     0.006 A 
ENDBRANCH  55  76
BRANCH  67  84
ATOM     84  C   UNL A   1      44.904  32.417  31.113  1.00  0.00     0.057 A 
ATOM     85  C   UNL A   1      45.007  32.603  32.497  1.00  0.00     0.134 A 
ATOM     86  C   UNL A   1      45.242  33.497  30.287  1.00  0.00     0.134 A 
ATOM     87  F   UNL A   1      44.685  31.612  33.343  1.00  0.00    -0.206 F 
ATOM     88  C   UNL A   1      45.411  33.824  33.040  1.00  0.00     0.040 A 
ATOM     89  C   UNL A   1      45.672  34.713  30.817  1.00  0.00     0.040 A 
ATOM     90  F   UNL A   1      45.172  33.380  28.952  1.00  0.00    -0.206 F 
ATOM     91  C   UNL A   1      45.753  34.881  32.197  1.00  0.00     0.006 A 
ENDBRANCH  67  84
ENDBRANCH  41  42
ENDBRANCH  33  36
ENDBRANCH  31  32
ENDBRANCH  30  31
ENDBRANCH   1  30
TORSDOF 15
ENDMDL
MODEL 2
REMARK VINA RESULT:     -11.5      2.506      7.862
REMARK SMILES CCOc1ccccc1N1CCN(c2ncc(N)cc2C(=O)NCCCNC(=O)c2ccc(-c3c4nc(c(-c5c(F)cccc5F)c5ccc([nH]5)c(-c5c(F)cccc5F)c5nc(c(-c6c(F)cccc6F)c6ccc3[nH]6)C=C5)C=C4)cc2)CC1
REMARK SMILES IDX 24 1 23 2 21 3 22 4 20 6 14 7 15 8 16 9 19 10 17 11 13 12
REMARK SMILES IDX 10 13 11 14 85 15 12 16 84 17 9 18 4 19 5 20 6 21 8 22 7 23
REMARK SMILES IDX 3 24 2 25 1 26 18 27 25 30 26 31 27 32 28 33 29 35 30 36
REMARK SMILES IDX 31 37 83 38 32 39 82 40 33 41 34 42 35 43 76 44 36 45 81 46
REMARK SMILES IDX 75 47 77 48 37 49 80 50 74 51 73 52 38 54 64 55 47 56 63 57
REMARK SMILES IDX 48 58 51 59 62 60 78 61 49 62 50 63 61 65 79 66 52 67 39 68
REMARK SMILES IDX 40 69 45 70 41 71 42 72 44 73 46 74 43 75 65 76 66 77 71 78
REMARK SMILES IDX 67 79 68 80 70 81 72 82 69 83 53 84 54 85 59 86 55 87 56 88
REMARK SMILES IDX 58 89 60 90 57 91
REMARK H PARENT 23 5 18 28 18 29 27 34 77 53 51 64
REMARK Flexibility Score: inf
ROOT
ATOM      1  C   UNL A   1      32.914  29.747  25.732  1.00  0.00     0.118 C 
ENDROOT
BRANCH   1   2
ATOM      2  N   UNL A   1      33.111  29.327  24.364  1.00  0.00    -0.352 N 
ATOM      3  C   UNL A   1      32.470  28.545  23.446  1.00  0.00     0.255 C 
ATOM      4  O   UNL A   1      33.073  28.530  22.369  1.00  0.00    -0.269 OA
ATOM      5  H   UNL A   1      33.936  29.711  23.990  1.00  0.00     0.163 HD
BRANCH   3   6
ATOM      6  C   UNL A   1      31.174  27.805  23.650  1.00  0.00     0.084 A 
ATOM      7  C   UNL A   1      31.216  26.419  23.915  1.00  0.00     0.141 A 
ATOM      8  N   UNL A   1      30.101  25.644  23.936  1.00  0.00    -0.236 NA
ATOM      9  C   UNL A   1      28.909  26.241  23.733  1.00  0.00     0.139 A 
ATOM     10  C   UNL A   1      29.904  28.375  23.501  1.00  0.00     0.044 A 
ATOM     11  C   UNL A   1      28.746  27.596  23.501  1.00  0.00     0.051 A 
BRANCH   7  12
ATOM     12  N   UNL A   1      32.397  25.775  24.214  1.00  0.00    -0.352 N 
ATOM     13  N   UNL A   1      34.686  24.223  24.833  1.00  0.00    -0.365 N 
ATOM     14  C   UNL A   1      34.545  24.828  23.500  1.00  0.00     0.138 C 
ATOM     15  C   UNL A   1      34.053  24.995  25.919  1.00  0.00     0.138 C 
ATOM     16  C   UNL A   1      33.052  25.013  23.158  1.00  0.00     0.139 C 
ATOM     17  C   UNL A   1      32.574  25.309  25.596  1.00  0.00     0.139 C 
BRANCH  13  18
ATOM     18  C   UNL A   1      35.791  23.446  25.142  1.00  0.00     0.079 A 
ATOM     19  C   UNL A   1      35.841  22.076  24.813  1.00  0.00     0.142 A 
ATOM     20  C   UNL A   1      36.972  21.299  25.083  1.00  0.00     0.048 A 
ATOM     21  C   UNL A   1      38.088  21.880  25.679  1.00  0.00     0.004 A 
ATOM     22  C   UNL A   1      36.923  23.999  25.760  1.00  0.00     0.030 A 
ATOM     23  C   UNL A   1      38.060  23.227  26.027  1.00  0.00     0.002 A 
BRANCH  19  24
ATOM     24  O   UNL A   1      34.747  21.456  24.253  1.00  0.00    -0.492 OA
BRANCH  24  25
ATOM     25  C   UNL A   1      34.228  20.426  25.100  1.00  0.00     0.226 C 
ATOM     26  C   UNL A   1      33.523  21.041  26.294  1.00  0.00     0.049 C 
ENDBRANCH  24  25
ENDBRANCH  19  24
ENDBRANCH  13  18
ENDBRANCH   7  12
BRANCH  11  27
ATOM     27  N   UNL A   1      27.496  28.183  23.384  1.00  0.00    -0.397 N 
ATOM     28  H   UNL A   1      27.130  28.393  22.494  1.00  0.00     0.156 HD
ATOM     29  H   UNL A   1      26.972  28.390  24.192  1.00  0.00     0.156 HD
ENDBRANCH  11  27
ENDBRANCH   3   6
ENDBRANCH   1   2
BRANCH   1  30
ATOM     30  C   UNL A   1      33.337  28.668  26.718  1.00  0.00     0.042 C 
BRANCH  30  31
ATOM     31  C   UNL A   1      34.748  28.886  27.273  1.00  0.00     0.118 C 
BRANCH  31  32
ATOM     32  N   UNL A   1      34.790  29.968  28.253  1.00  0.00    -0.352 N 
ATOM     33  C   UNL A   1      35.778  30.337  29.126  1.00  0.00     0.251 C 
ATOM     34  H   UNL A   1      33.976  30.521  28.290  1.00  0.00     0.163 HD
ATOM     35  O   UNL A   1      35.506  31.029  30.101  1.00  0.00    -0.269 OA
BRANCH  33  36
ATOM     36  C   UNL A   1      37.172  29.919  28.887  1.00  0.00     0.039 A 
ATOM     37  C   UNL A   1      37.929  29.415  29.949  1.00  0.00     0.014 A 
ATOM     38  C   UNL A   1      37.752  30.086  27.627  1.00  0.00     0.014 A 
ATOM     39  C   UNL A   1      39.253  29.031  29.731  1.00  0.00     0.010 A 
ATOM     40  C   UNL A   1      39.041  29.628  27.392  1.00  0.00     0.010 A 
ATOM     41  C   UNL A   1      39.809  29.109  28.444  1.00  0.00    -0.014 A 
BRANCH  41  42
ATOM     42  C   UNL A   1      41.196  28.665  28.170  1.00  0.00     0.031 A 
ATOM     43  C   UNL A   1      41.475  27.223  27.850  1.00  0.00     0.074 A 
ATOM     44  C   UNL A   1      42.209  29.542  28.306  1.00  0.00     0.049 A 
ATOM     45  N   UNL A   1      42.624  26.621  27.685  1.00  0.00    -0.248 NA
ATOM     46  C   UNL A   1      40.308  26.332  27.741  1.00  0.00     0.031 C 
ATOM     47  C   UNL A   1      42.064  30.951  28.679  1.00  0.00     0.029 A 
ATOM     48  N   UNL A   1      43.562  29.371  28.168  1.00  0.00    -0.354 N 
ATOM     49  C   UNL A   1      42.321  25.280  27.481  1.00  0.00     0.074 A 
ATOM     50  C   UNL A   1      40.885  25.149  27.593  1.00  0.00     0.031 C 
ATOM     51  C   UNL A   1      43.279  31.518  28.728  1.00  0.00     0.029 A 
ATOM     52  C   UNL A   1      44.288  30.508  28.425  1.00  0.00     0.049 A 
ATOM     53  H   UNL A   1      43.974  28.515  27.909  1.00  0.00     0.167 HD
ATOM     54  C   UNL A   1      43.163  24.256  27.207  1.00  0.00     0.037 A 
ATOM     55  C   UNL A   1      45.618  30.710  28.427  1.00  0.00     0.037 A 
ATOM     56  C   UNL A   1      44.586  24.404  27.060  1.00  0.00     0.049 A 
ATOM     57  C   UNL A   1      46.531  29.567  28.083  1.00  0.00     0.074 A 
ATOM     58  C   UNL A   1      45.520  23.451  26.692  1.00  0.00     0.029 A 
ATOM     59  N   UNL A   1      45.283  25.584  27.277  1.00  0.00    -0.354 N 
ATOM     60  N   UNL A   1      46.226  28.321  27.807  1.00  0.00    -0.248 NA
ATOM     61  C   UNL A   1      47.970  29.859  28.038  1.00  0.00     0.031 C 
ATOM     62  C   UNL A   1      46.787  24.045  26.730  1.00  0.00     0.029 A 
ATOM     63  C   UNL A   1      46.638  25.379  27.075  1.00  0.00     0.049 A 
ATOM     64  H   UNL A   1      44.875  26.441  27.537  1.00  0.00     0.167 HD
ATOM     65  C   UNL A   1      47.430  27.686  27.535  1.00  0.00     0.074 A 
ATOM     66  C   UNL A   1      48.468  28.688  27.665  1.00  0.00     0.031 C 
ATOM     67  C   UNL A   1      47.655  26.389  27.209  1.00  0.00     0.037 A 
BRANCH  54  68
ATOM     68  C   UNL A   1      42.563  22.889  27.050  1.00  0.00     0.057 A 
ATOM     69  C   UNL A   1      42.145  22.130  28.152  1.00  0.00     0.134 A 
ATOM     70  C   UNL A   1      42.387  22.328  25.779  1.00  0.00     0.134 A 
ATOM     71  F   UNL A   1      42.295  22.602  29.399  1.00  0.00    -0.206 F 
ATOM     72  C   UNL A   1      41.603  20.852  27.998  1.00  0.00     0.040 A 
ATOM     73  C   UNL A   1      41.821  21.064  25.610  1.00  0.00     0.040 A 
ATOM     74  F   UNL A   1      42.760  23.000  24.679  1.00  0.00    -0.206 F 
ATOM     75  C   UNL A   1      41.435  20.318  26.723  1.00  0.00     0.006 A 
ENDBRANCH  54  68
BRANCH  55  76
ATOM     76  C   UNL A   1      46.156  32.055  28.742  1.00  0.00     0.057 A 
ATOM     77  C   UNL A   1      46.491  32.409  30.054  1.00  0.00     0.134 A 
ATOM     78  C   UNL A   1      46.371  33.009  27.741  1.00  0.00     0.134 A 
ATOM     79  F   UNL A   1      46.295  31.542  31.058  1.00  0.00    -0.206 F 
ATOM     80  C   UNL A   1      47.009  33.668  30.362  1.00  0.00     0.040 A 
ATOM     81  C   UNL A   1      46.910  34.264  28.031  1.00  0.00     0.040 A 
ATOM     82  F   UNL A   1      46.082  32.726  26.462  1.00  0.00    -0.206 F 
ATOM     83  C   UNL A   1      47.226  34.598  29.346  1.00  0.00     0.006 A 
ENDBRANCH  55  76
BRANCH  67  84
ATOM     84  C   UNL A   1      49.076  25.988  26.945  1.00  0.00     0.057 A 
ATOM     85  C   UNL A   1      49.646  26.089  25.670  1.00  0.00     0.134 A 
ATOM     86  C   UNL A   1      49.895  25.538  27.988  1.00  0.00     0.134 A 
ATOM     87  F   UNL A   1      48.910  26.501  24.625  1.00  0.00    -0.206 F 
ATOM     88  C   UNL A   1      50.976  25.735  25.437  1.00  0.00     0.040 A 
ATOM     89  C   UNL A   1      51.233  25.207  27.772  1.00  0.00     0.040 A 
ATOM     90  F   UNL A   1      49.411  25.428  29.234  1.00  0.00    -0.206 F 
ATOM     91  C   UNL A   1      51.776  25.300  26.493  1.00  0.00     0.006 A 
ENDBRANCH  67  84
ENDBRANCH  41  42
ENDBRANCH  33  36
ENDBRANCH  31  32
ENDBRANCH  30  31
ENDBRANCH   1  30
TORSDOF 15
ENDMDL
MODEL 3
REMARK VINA RESULT:     -11.5      4.150      5.813
REMARK SMILES CCOc1ccccc1N1CCN(c2ncc(N)cc2C(=O)NCCCNC(=O)c2ccc(-c3c4nc(c(-c5c(F)cccc5F)c5ccc([nH]5)c(-c5c(F)cccc5F)c5nc(c(-c6c(F)cccc6F)c6ccc3[nH]6)C=C5)C=C4)cc2)CC1
REMARK SMILES IDX 24 1 23 2 21 3 22 4 20 6 14 7 15 8 16 9 19 10 17 11 13 12
REMARK SMILES IDX 10 13 11 14 85 15 12 16 84 17 9 18 4 19 5 20 6 21 8 22 7 23
REMARK SMILES IDX 3 24 2 25 1 26 18 27 25 30 26 31 27 32 28 33 29 35 30 36
REMARK SMILES IDX 31 37 83 38 32 39 82 40 33 41 34 42 35 43 76 44 36 45 81 46
REMARK SMILES IDX 75 47 77 48 37 49 80 50 74 51 73 52 38 54 64 55 47 56 63 57
REMARK SMILES IDX 48 58 51 59 62 60 78 61 49 62 50 63 61 65 79 66 52 67 39 68
REMARK SMILES IDX 40 69 45 70 41 71 42 72 44 73 46 74 43 75 65 76 66 77 71 78
REMARK SMILES IDX 67 79 68 80 70 81 72 82 69 83 53 84 54 85 59 86 55 87 56 88
REMARK SMILES IDX 58 89 60 90 57 91
REMARK H PARENT 23 5 18 28 18 29 27 34 77 53 51 64
REMARK Flexibility Score: inf
ROOT
ATOM      1  C   UNL A   1      36.988  22.152  25.496  1.00  0.00     0.118 C 
ENDROOT
BRANCH   1   2
ATOM      2  N   UNL A   1      35.945  21.934  26.470  1.00  0.00    -0.352 N 
ATOM      3  C   UNL A   1      34.673  21.437  26.494  1.00  0.00     0.255 C 
ATOM      4  O   UNL A   1      34.204  21.457  27.635  1.00  0.00    -0.269 OA
ATOM      5  H   UNL A   1      36.229  22.226  27.367  1.00  0.00     0.163 HD
BRANCH   3   6
ATOM      6  C   UNL A   1      33.906  20.885  25.322  1.00  0.00     0.084 A 
ATOM      7  C   UNL A   1      32.937  21.701  24.697  1.00  0.00     0.141 A 
ATOM      8  N   UNL A   1      32.081  21.228  23.755  1.00  0.00    -0.236 NA
ATOM      9  C   UNL A   1      32.197  19.937  23.381  1.00  0.00     0.139 A 
ATOM     10  C   UNL A   1      34.013  19.570  24.852  1.00  0.00     0.044 A 
ATOM     11  C   UNL A   1      33.133  19.057  23.898  1.00  0.00     0.051 A 
BRANCH   7  12
ATOM     12  N   UNL A   1      32.833  23.044  24.979  1.00  0.00    -0.352 N 
ATOM     13  N   UNL A   1      32.465  25.831  25.342  1.00  0.00    -0.365 N 
ATOM     14  C   UNL A   1      31.832  24.879  26.266  1.00  0.00     0.138 C 
ATOM     15  C   UNL A   1      33.744  25.365  24.774  1.00  0.00     0.138 C 
ATOM     16  C   UNL A   1      31.585  23.534  25.552  1.00  0.00     0.139 C 
ATOM     17  C   UNL A   1      33.596  23.968  24.128  1.00  0.00     0.139 C 
BRANCH  13  18
ATOM     18  C   UNL A   1      32.278  27.196  25.497  1.00  0.00     0.079 A 
ATOM     19  C   UNL A   1      31.537  27.946  24.561  1.00  0.00     0.142 A 
ATOM     20  C   UNL A   1      31.307  29.315  24.737  1.00  0.00     0.048 A 
ATOM     21  C   UNL A   1      31.805  29.963  25.864  1.00  0.00     0.004 A 
ATOM     22  C   UNL A   1      32.783  27.881  26.612  1.00  0.00     0.030 A 
ATOM     23  C   UNL A   1      32.552  29.249  26.796  1.00  0.00     0.002 A 
BRANCH  19  24
ATOM     24  O   UNL A   1      31.055  27.350  23.418  1.00  0.00    -0.492 OA
BRANCH  24  25
ATOM     25  C   UNL A   1      29.659  27.602  23.235  1.00  0.00     0.226 C 
ATOM     26  C   UNL A   1      28.841  26.531  23.933  1.00  0.00     0.049 C 
ENDBRANCH  24  25
ENDBRANCH  19  24
ENDBRANCH  13  18
ENDBRANCH   7  12
BRANCH  11  27
ATOM     27  N   UNL A   1      33.275  17.763  23.423  1.00  0.00    -0.397 N 
ATOM     28  H   UNL A   1      33.035  16.999  23.995  1.00  0.00     0.156 HD
ATOM     29  H   UNL A   1      33.617  17.608  22.513  1.00  0.00     0.156 HD
ENDBRANCH  11  27
ENDBRANCH   3   6
ENDBRANCH   1   2
BRANCH   1  30
ATOM     30  C   UNL A   1      37.403  23.615  25.432  1.00  0.00     0.042 C 
BRANCH  30  31
ATOM     31  C   UNL A   1      38.418  23.995  26.514  1.00  0.00     0.118 C 
BRANCH  31  32
ATOM     32  N   UNL A   1      39.749  24.227  25.959  1.00  0.00    -0.352 N 
ATOM     33  C   UNL A   1      40.598  25.291  26.104  1.00  0.00     0.251 C 
ATOM     34  H   UNL A   1      40.089  23.500  25.390  1.00  0.00     0.163 HD
ATOM     35  O   UNL A   1      41.502  25.468  25.294  1.00  0.00    -0.269 OA
BRANCH  33  36
ATOM     36  C   UNL A   1      40.439  26.215  27.243  1.00  0.00     0.039 A 
ATOM     37  C   UNL A   1      39.653  25.830  28.332  1.00  0.00     0.014 A 
ATOM     38  C   UNL A   1      41.013  27.488  27.204  1.00  0.00     0.014 A 
ATOM     39  C   UNL A   1      39.487  26.706  29.407  1.00  0.00     0.010 A 
ATOM     40  C   UNL A   1      40.916  28.325  28.307  1.00  0.00     0.010 A 
ATOM     41  C   UNL A   1      40.141  27.949  29.413  1.00  0.00    -0.014 A 
BRANCH  41  42
ATOM     42  C   UNL A   1      40.023  28.882  30.559  1.00  0.00     0.031 A 
ATOM     43  C   UNL A   1      38.992  29.975  30.535  1.00  0.00     0.074 A 
ATOM     44  C   UNL A   1      40.907  28.800  31.570  1.00  0.00     0.049 A 
ATOM     45  N   UNL A   1      38.801  30.950  31.386  1.00  0.00    -0.248 NA
ATOM     46  C   UNL A   1      38.079  29.999  29.380  1.00  0.00     0.031 C 
ATOM     47  C   UNL A   1      41.993  27.823  31.669  1.00  0.00     0.029 A 
ATOM     48  N   UNL A   1      41.046  29.567  32.698  1.00  0.00    -0.354 N 
ATOM     49  C   UNL A   1      37.770  31.717  30.856  1.00  0.00     0.074 A 
ATOM     50  C   UNL A   1      37.410  31.123  29.587  1.00  0.00     0.031 C 
ATOM     51  C   UNL A   1      42.679  28.042  32.801  1.00  0.00     0.029 A 
ATOM     52  C   UNL A   1      42.105  29.193  33.489  1.00  0.00     0.049 A 
ATOM     53  H   UNL A   1      40.444  30.314  32.920  1.00  0.00     0.167 HD
ATOM     54  C   UNL A   1      37.166  32.805  31.390  1.00  0.00     0.037 A 
ATOM     55  C   UNL A   1      42.567  29.727  34.635  1.00  0.00     0.037 A 
ATOM     56  C   UNL A   1      37.507  33.364  32.671  1.00  0.00     0.049 A 
ATOM     57  C   UNL A   1      41.857  30.911  35.227  1.00  0.00     0.074 A 
ATOM     58  C   UNL A   1      36.898  34.407  33.346  1.00  0.00     0.029 A 
ATOM     59  N   UNL A   1      38.553  32.926  33.470  1.00  0.00    -0.354 N 
ATOM     60  N   UNL A   1      40.827  31.575  34.760  1.00  0.00    -0.248 NA
ATOM     61  C   UNL A   1      42.365  31.413  36.511  1.00  0.00     0.031 C 
ATOM     62  C   UNL A   1      37.604  34.628  34.534  1.00  0.00     0.029 A 
ATOM     63  C   UNL A   1      38.622  33.693  34.621  1.00  0.00     0.049 A 
ATOM     64  H   UNL A   1      39.157  32.180  33.251  1.00  0.00     0.167 HD
ATOM     65  C   UNL A   1      40.550  32.559  35.699  1.00  0.00     0.074 A 
ATOM     66  C   UNL A   1      41.511  32.393  36.771  1.00  0.00     0.031 C 
ATOM     67  C   UNL A   1      39.587  33.513  35.676  1.00  0.00     0.037 A 
BRANCH  54  68
ATOM     68  C   UNL A   1      36.079  33.458  30.586  1.00  0.00     0.057 A 
ATOM     69  C   UNL A   1      34.727  33.346  30.937  1.00  0.00     0.134 A 
ATOM     70  C   UNL A   1      36.389  34.223  29.455  1.00  0.00     0.134 A 
ATOM     71  F   UNL A   1      34.359  32.618  32.003  1.00  0.00    -0.206 F 
ATOM     72  C   UNL A   1      33.721  33.944  30.174  1.00  0.00     0.040 A 
ATOM     73  C   UNL A   1      35.396  34.849  28.701  1.00  0.00     0.040 A 
ATOM     74  F   UNL A   1      37.664  34.377  29.064  1.00  0.00    -0.206 F 
ATOM     75  C   UNL A   1      34.055  34.702  29.055  1.00  0.00     0.006 A 
ENDBRANCH  54  68
BRANCH  55  76
ATOM     76  C   UNL A   1      43.745  29.123  35.303  1.00  0.00     0.057 A 
ATOM     77  C   UNL A   1      45.043  29.552  35.001  1.00  0.00     0.134 A 
ATOM     78  C   UNL A   1      43.604  28.124  36.273  1.00  0.00     0.134 A 
ATOM     79  F   UNL A   1      45.243  30.496  34.070  1.00  0.00    -0.206 F 
ATOM     80  C   UNL A   1      46.160  29.000  35.630  1.00  0.00     0.040 A 
ATOM     81  C   UNL A   1      44.711  27.580  36.928  1.00  0.00     0.040 A 
ATOM     82  F   UNL A   1      42.386  27.680  36.615  1.00  0.00    -0.206 F 
ATOM     83  C   UNL A   1      45.994  28.015  36.603  1.00  0.00     0.006 A 
ENDBRANCH  55  76
BRANCH  67  84
ATOM     84  C   UNL A   1      39.510  34.435  36.856  1.00  0.00     0.057 A 
ATOM     85  C   UNL A   1      40.109  35.701  36.844  1.00  0.00     0.134 A 
ATOM     86  C   UNL A   1      38.792  34.068  38.002  1.00  0.00     0.134 A 
ATOM     87  F   UNL A   1      40.822  36.106  35.781  1.00  0.00    -0.206 F 
ATOM     88  C   UNL A   1      40.013  36.562  37.938  1.00  0.00     0.040 A 
ATOM     89  C   UNL A   1      38.668  34.930  39.091  1.00  0.00     0.040 A 
ATOM     90  F   UNL A   1      38.189  32.872  38.073  1.00  0.00    -0.206 F 
ATOM     91  C   UNL A   1      39.284  36.180  39.063  1.00  0.00     0.006 A 
ENDBRANCH  67  84
ENDBRANCH  41  42
ENDBRANCH  33  36
ENDBRANCH  31  32
ENDBRANCH  30  31
ENDBRANCH   1  30
TORSDOF 15
ENDMDL
