MODEL 1
REMARK VINA RESULT:     -11.3      0.000      0.000
REMARK SMILES CC[C@H]1CCCC[C@@H]1Sc1csc(C(=O)NCCCNC(=O)c2ccc(-c3c4nc(c(-c5c(F)cccc5F)c5ccc([nH]5)c(-c5c(F)cccc5F)c5nc(c(-c6c(F)cccc6F)c6ccc3[nH]6)C=C5)C=C4)cc2)c1
REMARK SMILES IDX 17 1 16 2 14 3 15 4 13 6 10 7 11 8 77 9 12 10 9 11 8 12 3 13
REMARK SMILES IDX 4 14 5 15 7 16 6 17 2 18 1 19 18 20 19 21 20 22 21 23 22 25
REMARK SMILES IDX 23 26 24 27 76 28 25 29 75 30 26 31 27 32 28 33 69 34 29 35
REMARK SMILES IDX 74 36 68 37 70 38 30 39 73 40 67 41 66 42 31 44 57 45 40 46
REMARK SMILES IDX 56 47 41 48 44 49 55 50 71 51 42 52 43 53 54 55 72 56 45 57
REMARK SMILES IDX 32 58 33 59 38 60 34 61 35 62 37 63 39 64 36 65 58 66 59 67
REMARK SMILES IDX 64 68 60 69 61 70 63 71 65 72 62 73 46 74 47 75 52 76 48 77
REMARK SMILES IDX 49 78 51 79 53 80 50 81
REMARK H PARENT 16 5 20 24 70 43 44 54
REMARK Flexibility Score: inf
ROOT
ATOM      1  C   UNL A   1      37.995  22.898  26.074  1.00  0.00     0.118 C 
ENDROOT
BRANCH   1   2
ATOM      2  N   UNL A   1      37.721  22.859  24.648  1.00  0.00    -0.351 N 
ATOM      3  C   UNL A   1      36.573  23.122  23.932  1.00  0.00     0.261 C 
ATOM      4  O   UNL A   1      36.694  23.103  22.706  1.00  0.00    -0.268 OA
ATOM      5  H   UNL A   1      38.492  22.597  24.094  1.00  0.00     0.163 HD
BRANCH   3   6
ATOM      6  C   UNL A   1      35.327  23.433  24.614  1.00  0.00     0.093 A 
ATOM      7  C   UNL A   1      33.487  24.527  25.559  1.00  0.00     0.019 A 
ATOM      8  C   UNL A   1      33.034  23.231  25.546  1.00  0.00     0.080 A 
ATOM      9  C   UNL A   1      34.830  24.625  25.104  1.00  0.00     0.040 A 
ATOM     10  S   UNL A   1      34.222  22.153  24.942  1.00  0.00    -0.137 S 
BRANCH   7  11
ATOM     11  S   UNL A   1      32.613  25.984  25.973  1.00  0.00    -0.122 SA
BRANCH  11  12
ATOM     12  C   UNL A   1      33.777  27.374  25.695  1.00  0.00     0.055 C 
ATOM     13  C   UNL A   1      33.662  28.331  26.919  1.00  0.00     0.002 C 
ATOM     14  C   UNL A   1      32.319  29.096  26.905  1.00  0.00     0.005 C 
ATOM     15  C   UNL A   1      32.054  29.815  25.585  1.00  0.00     0.000 C 
ATOM     16  C   UNL A   1      33.497  28.120  24.380  1.00  0.00     0.015 C 
ATOM     17  C   UNL A   1      32.175  28.884  24.384  1.00  0.00     0.001 C 
BRANCH  13  18
ATOM     18  C   UNL A   1      34.883  29.279  26.991  1.00  0.00     0.001 C 
ATOM     19  C   UNL A   1      34.616  30.549  27.791  1.00  0.00     0.004 C 
ENDBRANCH  13  18
ENDBRANCH  11  12
ENDBRANCH   7  11
ENDBRANCH   3   6
ENDBRANCH   1   2
BRANCH   1  20
ATOM     20  C   UNL A   1      39.369  22.312  26.399  1.00  0.00     0.042 C 
BRANCH  20  21
ATOM     21  C   UNL A   1      40.321  23.321  27.039  1.00  0.00     0.118 C 
BRANCH  21  22
ATOM     22  N   UNL A   1      41.126  24.021  26.047  1.00  0.00    -0.352 N 
ATOM     23  C   UNL A   1      41.478  25.343  25.963  1.00  0.00     0.251 C 
ATOM     24  H   UNL A   1      41.473  23.453  25.321  1.00  0.00     0.163 HD
ATOM     25  O   UNL A   1      41.996  25.766  24.934  1.00  0.00    -0.269 OA
BRANCH  23  26
ATOM     26  C   UNL A   1      41.232  26.269  27.090  1.00  0.00     0.039 A 
ATOM     27  C   UNL A   1      40.228  25.953  28.012  1.00  0.00     0.014 A 
ATOM     28  C   UNL A   1      41.941  27.467  27.215  1.00  0.00     0.014 A 
ATOM     29  C   UNL A   1      39.970  26.810  29.084  1.00  0.00     0.010 A 
ATOM     30  C   UNL A   1      41.726  28.291  28.320  1.00  0.00     0.010 A 
ATOM     31  C   UNL A   1      40.736  27.972  29.263  1.00  0.00    -0.014 A 
BRANCH  31  32
ATOM     32  C   UNL A   1      40.519  28.867  30.427  1.00  0.00     0.031 A 
ATOM     33  C   UNL A   1      39.448  29.922  30.382  1.00  0.00     0.074 A 
ATOM     34  C   UNL A   1      41.328  28.772  31.500  1.00  0.00     0.049 A 
ATOM     35  N   UNL A   1      39.170  30.857  31.255  1.00  0.00    -0.248 NA
ATOM     36  C   UNL A   1      38.590  29.943  29.187  1.00  0.00     0.031 C 
ATOM     37  C   UNL A   1      42.423  27.813  31.653  1.00  0.00     0.029 A 
ATOM     38  N   UNL A   1      41.362  29.502  32.662  1.00  0.00    -0.354 N 
ATOM     39  C   UNL A   1      38.120  31.584  30.710  1.00  0.00     0.074 A 
ATOM     40  C   UNL A   1      37.837  31.009  29.412  1.00  0.00     0.031 C 
ATOM     41  C   UNL A   1      43.012  28.003  32.844  1.00  0.00     0.029 A 
ATOM     42  C   UNL A   1      42.363  29.120  33.523  1.00  0.00     0.049 A 
ATOM     43  H   UNL A   1      40.729  30.229  32.860  1.00  0.00     0.167 HD
ATOM     44  C   UNL A   1      37.440  32.623  31.250  1.00  0.00     0.037 A 
ATOM     45  C   UNL A   1      42.722  29.622  34.719  1.00  0.00     0.037 A 
ATOM     46  C   UNL A   1      37.704  33.178  32.552  1.00  0.00     0.049 A 
ATOM     47  C   UNL A   1      41.957  30.783  35.291  1.00  0.00     0.074 A 
ATOM     48  C   UNL A   1      37.041  34.202  33.205  1.00  0.00     0.029 A 
ATOM     49  N   UNL A   1      38.712  32.749  33.402  1.00  0.00    -0.354 N 
ATOM     50  N   UNL A   1      40.936  31.430  34.784  1.00  0.00    -0.248 NA
ATOM     51  C   UNL A   1      42.391  31.281  36.604  1.00  0.00     0.031 C 
ATOM     52  C   UNL A   1      37.668  34.415  34.436  1.00  0.00     0.029 A 
ATOM     53  C   UNL A   1      38.697  33.497  34.567  1.00  0.00     0.049 A 
ATOM     54  H   UNL A   1      39.345  32.021  33.205  1.00  0.00     0.167 HD
ATOM     55  C   UNL A   1      40.588  32.389  35.726  1.00  0.00     0.074 A 
ATOM     56  C   UNL A   1      41.499  32.232  36.840  1.00  0.00     0.031 C 
ATOM     57  C   UNL A   1      39.602  33.316  35.673  1.00  0.00     0.037 A 
BRANCH  44  58
ATOM     58  C   UNL A   1      36.333  33.227  30.435  1.00  0.00     0.057 A 
ATOM     59  C   UNL A   1      36.597  34.085  29.360  1.00  0.00     0.134 A 
ATOM     60  C   UNL A   1      34.994  32.911  30.698  1.00  0.00     0.134 A 
ATOM     61  F   UNL A   1      37.857  34.436  29.063  1.00  0.00    -0.206 F 
ATOM     62  C   UNL A   1      35.566  34.626  28.588  1.00  0.00     0.040 A 
ATOM     63  C   UNL A   1      33.957  33.426  29.919  1.00  0.00     0.040 A 
ATOM     64  F   UNL A   1      34.673  32.089  31.708  1.00  0.00    -0.206 F 
ATOM     65  C   UNL A   1      34.242  34.291  28.863  1.00  0.00     0.006 A 
ENDBRANCH  44  58
BRANCH  45  66
ATOM     66  C   UNL A   1      43.854  29.022  35.470  1.00  0.00     0.057 A 
ATOM     67  C   UNL A   1      45.168  29.454  35.257  1.00  0.00     0.134 A 
ATOM     68  C   UNL A   1      43.653  27.995  36.400  1.00  0.00     0.134 A 
ATOM     69  F   UNL A   1      45.424  30.421  34.363  1.00  0.00    -0.206 F 
ATOM     70  C   UNL A   1      46.245  28.873  35.926  1.00  0.00     0.040 A 
ATOM     71  C   UNL A   1      44.719  27.422  37.094  1.00  0.00     0.040 A 
ATOM     72  F   UNL A   1      42.417  27.542  36.654  1.00  0.00    -0.206 F 
ATOM     73  C   UNL A   1      46.021  27.855  36.851  1.00  0.00     0.006 A 
ENDBRANCH  45  66
BRANCH  57  74
ATOM     74  C   UNL A   1      39.432  34.204  36.869  1.00  0.00     0.057 A 
ATOM     75  C   UNL A   1      38.756  33.773  38.018  1.00  0.00     0.134 A 
ATOM     76  C   UNL A   1      39.984  35.491  36.885  1.00  0.00     0.134 A 
ATOM     77  F   UNL A   1      38.194  32.556  38.060  1.00  0.00    -0.206 F 
ATOM     78  C   UNL A   1      38.619  34.601  39.134  1.00  0.00     0.040 A 
ATOM     79  C   UNL A   1      39.874  36.318  38.003  1.00  0.00     0.040 A 
ATOM     80  F   UNL A   1      40.649  35.959  35.818  1.00  0.00    -0.206 F 
ATOM     81  C   UNL A   1      39.185  35.874  39.130  1.00  0.00     0.006 A 
ENDBRANCH  57  74
ENDBRANCH  31  32
ENDBRANCH  23  26
ENDBRANCH  21  22
ENDBRANCH  20  21
ENDBRANCH   1  20
TORSDOF 13
ENDMDL
MODEL 2
REMARK VINA RESULT:     -11.1      4.404      9.138
REMARK SMILES CC[C@H]1CCCC[C@@H]1Sc1csc(C(=O)NCCCNC(=O)c2ccc(-c3c4nc(c(-c5c(F)cccc5F)c5ccc([nH]5)c(-c5c(F)cccc5F)c5nc(c(-c6c(F)cccc6F)c6ccc3[nH]6)C=C5)C=C4)cc2)c1
REMARK SMILES IDX 17 1 16 2 14 3 15 4 13 6 10 7 11 8 77 9 12 10 9 11 8 12 3 13
REMARK SMILES IDX 4 14 5 15 7 16 6 17 2 18 1 19 18 20 19 21 20 22 21 23 22 25
REMARK SMILES IDX 23 26 24 27 76 28 25 29 75 30 26 31 27 32 28 33 69 34 29 35
REMARK SMILES IDX 74 36 68 37 70 38 30 39 73 40 67 41 66 42 31 44 57 45 40 46
REMARK SMILES IDX 56 47 41 48 44 49 55 50 71 51 42 52 43 53 54 55 72 56 45 57
REMARK SMILES IDX 32 58 33 59 38 60 34 61 35 62 37 63 39 64 36 65 58 66 59 67
REMARK SMILES IDX 64 68 60 69 61 70 63 71 65 72 62 73 46 74 47 75 52 76 48 77
REMARK SMILES IDX 49 78 51 79 53 80 50 81
REMARK H PARENT 16 5 20 24 70 43 44 54
REMARK Flexibility Score: inf
ROOT
ATOM      1  C   UNL A   1      31.834  28.249  25.859  1.00  0.00     0.118 C 
ENDROOT
BRANCH   1   2
ATOM      2  N   UNL A   1      32.662  28.908  24.864  1.00  0.00    -0.351 N 
ATOM      3  C   UNL A   1      33.148  28.475  23.649  1.00  0.00     0.261 C 
ATOM      4  O   UNL A   1      33.743  29.322  22.980  1.00  0.00    -0.268 OA
ATOM      5  H   UNL A   1      32.924  29.828  25.099  1.00  0.00     0.163 HD
BRANCH   3   6
ATOM      6  C   UNL A   1      32.922  27.108  23.203  1.00  0.00     0.093 A 
ATOM      7  C   UNL A   1      33.071  24.801  22.845  1.00  0.00     0.019 A 
ATOM      8  C   UNL A   1      31.801  25.048  22.387  1.00  0.00     0.080 A 
ATOM      9  C   UNL A   1      33.739  25.995  23.232  1.00  0.00     0.040 A 
ATOM     10  S   UNL A   1      31.413  26.716  22.472  1.00  0.00    -0.137 S 
BRANCH   7  11
ATOM     11  S   UNL A   1      33.872  23.262  23.065  1.00  0.00    -0.122 SA
BRANCH  11  12
ATOM     12  C   UNL A   1      34.536  23.270  24.774  1.00  0.00     0.055 C 
ATOM     13  C   UNL A   1      36.089  23.339  24.671  1.00  0.00     0.002 C 
ATOM     14  C   UNL A   1      36.674  22.003  24.160  1.00  0.00     0.005 C 
ATOM     15  C   UNL A   1      36.204  20.796  24.968  1.00  0.00     0.000 C 
ATOM     16  C   UNL A   1      34.089  22.042  25.583  1.00  0.00     0.015 C 
ATOM     17  C   UNL A   1      34.684  20.731  25.079  1.00  0.00     0.001 C 
BRANCH  13  18
ATOM     18  C   UNL A   1      36.710  23.781  26.018  1.00  0.00     0.001 C 
ATOM     19  C   UNL A   1      38.226  23.626  26.064  1.00  0.00     0.004 C 
ENDBRANCH  13  18
ENDBRANCH  11  12
ENDBRANCH   7  11
ENDBRANCH   3   6
ENDBRANCH   1   2
BRANCH   1  20
ATOM     20  C   UNL A   1      32.563  28.111  27.195  1.00  0.00     0.042 C 
BRANCH  20  21
ATOM     21  C   UNL A   1      33.930  28.793  27.211  1.00  0.00     0.118 C 
BRANCH  21  22
ATOM     22  N   UNL A   1      33.865  30.138  27.764  1.00  0.00    -0.352 N 
ATOM     23  C   UNL A   1      34.773  30.830  28.523  1.00  0.00     0.251 C 
ATOM     24  H   UNL A   1      33.036  30.629  27.559  1.00  0.00     0.163 HD
ATOM     25  O   UNL A   1      34.436  31.883  29.057  1.00  0.00    -0.269 OA
BRANCH  23  26
ATOM     26  C   UNL A   1      36.149  30.322  28.715  1.00  0.00     0.039 A 
ATOM     27  C   UNL A   1      37.055  30.420  27.652  1.00  0.00     0.014 A 
ATOM     28  C   UNL A   1      36.537  29.703  29.906  1.00  0.00     0.014 A 
ATOM     29  C   UNL A   1      38.360  29.946  27.802  1.00  0.00     0.010 A 
ATOM     30  C   UNL A   1      37.857  29.285  30.076  1.00  0.00     0.010 A 
ATOM     31  C   UNL A   1      38.780  29.400  29.024  1.00  0.00    -0.014 A 
BRANCH  31  32
ATOM     32  C   UNL A   1      40.178  28.942  29.224  1.00  0.00     0.031 A 
ATOM     33  C   UNL A   1      41.200  29.869  29.822  1.00  0.00     0.074 A 
ATOM     34  C   UNL A   1      40.542  27.714  28.808  1.00  0.00     0.049 A 
ATOM     35  N   UNL A   1      42.486  29.687  29.987  1.00  0.00    -0.248 NA
ATOM     36  C   UNL A   1      40.717  31.183  30.276  1.00  0.00     0.031 C 
ATOM     37  C   UNL A   1      39.652  26.733  28.184  1.00  0.00     0.029 A 
ATOM     38  N   UNL A   1      41.761  27.085  28.836  1.00  0.00    -0.354 N 
ATOM     39  C   UNL A   1      42.967  30.864  30.545  1.00  0.00     0.074 A 
ATOM     40  C   UNL A   1      41.843  31.770  30.653  1.00  0.00     0.031 C 
ATOM     41  C   UNL A   1      40.351  25.622  27.901  1.00  0.00     0.029 A 
ATOM     42  C   UNL A   1      41.744  25.825  28.288  1.00  0.00     0.049 A 
ATOM     43  H   UNL A   1      42.572  27.497  29.214  1.00  0.00     0.167 HD
ATOM     44  C   UNL A   1      44.225  31.157  30.950  1.00  0.00     0.037 A 
ATOM     45  C   UNL A   1      42.741  24.939  28.109  1.00  0.00     0.037 A 
ATOM     46  C   UNL A   1      45.338  30.246  30.866  1.00  0.00     0.049 A 
ATOM     47  C   UNL A   1      44.131  25.293  28.558  1.00  0.00     0.074 A 
ATOM     48  C   UNL A   1      46.641  30.434  31.291  1.00  0.00     0.029 A 
ATOM     49  N   UNL A   1      45.274  28.972  30.325  1.00  0.00    -0.354 N 
ATOM     50  N   UNL A   1      44.561  26.393  29.127  1.00  0.00    -0.248 NA
ATOM     51  C   UNL A   1      45.176  24.280  28.342  1.00  0.00     0.031 C 
ATOM     52  C   UNL A   1      47.374  29.286  30.976  1.00  0.00     0.029 A 
ATOM     53  C   UNL A   1      46.518  28.368  30.392  1.00  0.00     0.049 A 
ATOM     54  H   UNL A   1      44.463  28.558  29.948  1.00  0.00     0.167 HD
ATOM     55  C   UNL A   1      45.915  26.193  29.365  1.00  0.00     0.074 A 
ATOM     56  C   UNL A   1      46.232  24.864  28.888  1.00  0.00     0.031 C 
ATOM     57  C   UNL A   1      46.813  27.037  29.927  1.00  0.00     0.037 A 
BRANCH  44  58
ATOM     58  C   UNL A   1      44.468  32.520  31.530  1.00  0.00     0.057 A 
ATOM     59  C   UNL A   1      44.833  33.607  30.725  1.00  0.00     0.134 A 
ATOM     60  C   UNL A   1      44.292  32.758  32.899  1.00  0.00     0.134 A 
ATOM     61  F   UNL A   1      45.029  33.442  29.409  1.00  0.00    -0.206 F 
ATOM     62  C   UNL A   1      45.035  34.878  31.265  1.00  0.00     0.040 A 
ATOM     63  C   UNL A   1      44.467  34.030  33.446  1.00  0.00     0.040 A 
ATOM     64  F   UNL A   1      43.936  31.763  33.724  1.00  0.00    -0.206 F 
ATOM     65  C   UNL A   1      44.846  35.094  32.628  1.00  0.00     0.006 A 
ENDBRANCH  44  58
BRANCH  45  66
ATOM     66  C   UNL A   1      42.462  23.619  27.488  1.00  0.00     0.057 A 
ATOM     67  C   UNL A   1      42.159  22.503  28.276  1.00  0.00     0.134 A 
ATOM     68  C   UNL A   1      42.509  23.437  26.101  1.00  0.00     0.134 A 
ATOM     69  F   UNL A   1      42.119  22.611  29.612  1.00  0.00    -0.206 F 
ATOM     70  C   UNL A   1      41.934  21.248  27.710  1.00  0.00     0.040 A 
ATOM     71  C   UNL A   1      42.263  22.194  25.519  1.00  0.00     0.040 A 
ATOM     72  F   UNL A   1      42.788  24.469  25.291  1.00  0.00    -0.206 F 
ATOM     73  C   UNL A   1      41.982  21.092  26.326  1.00  0.00     0.006 A 
ENDBRANCH  45  66
BRANCH  57  74
ATOM     74  C   UNL A   1      48.214  26.531  30.096  1.00  0.00     0.057 A 
ATOM     75  C   UNL A   1      48.614  25.831  31.240  1.00  0.00     0.134 A 
ATOM     76  C   UNL A   1      49.164  26.715  29.082  1.00  0.00     0.134 A 
ATOM     77  F   UNL A   1      47.755  25.634  32.252  1.00  0.00    -0.206 F 
ATOM     78  C   UNL A   1      49.916  25.348  31.380  1.00  0.00     0.040 A 
ATOM     79  C   UNL A   1      50.462  26.215  29.200  1.00  0.00     0.040 A 
ATOM     80  F   UNL A   1      48.841  27.371  27.958  1.00  0.00    -0.206 F 
ATOM     81  C   UNL A   1      50.842  25.534  30.355  1.00  0.00     0.006 A 
ENDBRANCH  57  74
ENDBRANCH  31  32
ENDBRANCH  23  26
ENDBRANCH  21  22
ENDBRANCH  20  21
ENDBRANCH   1  20
TORSDOF 13
ENDMDL
MODEL 3
REMARK VINA RESULT:     -11.1      3.391      5.738
REMARK SMILES CC[C@H]1CCCC[C@@H]1Sc1csc(C(=O)NCCCNC(=O)c2ccc(-c3c4nc(c(-c5c(F)cccc5F)c5ccc([nH]5)c(-c5c(F)cccc5F)c5nc(c(-c6c(F)cccc6F)c6ccc3[nH]6)C=C5)C=C4)cc2)c1
REMARK SMILES IDX 17 1 16 2 14 3 15 4 13 6 10 7 11 8 77 9 12 10 9 11 8 12 3 13
REMARK SMILES IDX 4 14 5 15 7 16 6 17 2 18 1 19 18 20 19 21 20 22 21 23 22 25
REMARK SMILES IDX 23 26 24 27 76 28 25 29 75 30 26 31 27 32 28 33 69 34 29 35
REMARK SMILES IDX 74 36 68 37 70 38 30 39 73 40 67 41 66 42 31 44 57 45 40 46
REMARK SMILES IDX 56 47 41 48 44 49 55 50 71 51 42 52 43 53 54 55 72 56 45 57
REMARK SMILES IDX 32 58 33 59 38 60 34 61 35 62 37 63 39 64 36 65 58 66 59 67
REMARK SMILES IDX 64 68 60 69 61 70 63 71 65 72 62 73 46 74 47 75 52 76 48 77
REMARK SMILES IDX 49 78 51 79 53 80 50 81
REMARK H PARENT 16 5 20 24 70 43 44 54
REMARK Flexibility Score: inf
ROOT
ATOM      1  C   UNL A   1      41.221  21.092  26.101  1.00  0.00     0.118 C 
ENDROOT
BRANCH   1   2
ATOM      2  N   UNL A   1      41.522  19.671  26.072  1.00  0.00    -0.351 N 
ATOM      3  C   UNL A   1      42.700  18.993  25.842  1.00  0.00     0.261 C 
ATOM      4  O   UNL A   1      42.649  17.771  25.993  1.00  0.00    -0.268 OA
ATOM      5  H   UNL A   1      40.748  19.088  26.246  1.00  0.00     0.163 HD
BRANCH   3   6
ATOM      6  C   UNL A   1      43.912  19.710  25.480  1.00  0.00     0.093 A 
ATOM      7  C   UNL A   1      45.540  21.356  25.138  1.00  0.00     0.019 A 
ATOM      8  C   UNL A   1      46.288  20.219  24.966  1.00  0.00     0.080 A 
ATOM      9  C   UNL A   1      44.164  21.062  25.348  1.00  0.00     0.040 A 
ATOM     10  S   UNL A   1      45.328  18.805  25.105  1.00  0.00    -0.137 S 
BRANCH   7  11
ATOM     11  S   UNL A   1      46.079  23.019  25.203  1.00  0.00    -0.122 SA
BRANCH  11  12
ATOM     12  C   UNL A   1      45.836  23.568  26.935  1.00  0.00     0.055 C 
ATOM     13  C   UNL A   1      44.516  24.393  26.982  1.00  0.00     0.002 C 
ATOM     14  C   UNL A   1      44.688  25.762  26.286  1.00  0.00     0.005 C 
ATOM     15  C   UNL A   1      45.882  26.555  26.812  1.00  0.00     0.000 C 
ATOM     16  C   UNL A   1      47.023  24.391  27.461  1.00  0.00     0.015 C 
ATOM     17  C   UNL A   1      47.174  25.747  26.777  1.00  0.00     0.001 C 
BRANCH  13  18
ATOM     18  C   UNL A   1      44.004  24.529  28.436  1.00  0.00     0.001 C 
ATOM     19  C   UNL A   1      44.029  23.216  29.211  1.00  0.00     0.004 C 
ENDBRANCH  13  18
ENDBRANCH  11  12
ENDBRANCH   7  11
ENDBRANCH   3   6
ENDBRANCH   1   2
BRANCH   1  20
ATOM     20  C   UNL A   1      41.063  21.602  27.534  1.00  0.00     0.042 C 
BRANCH  20  21
ATOM     21  C   UNL A   1      40.620  23.062  27.609  1.00  0.00     0.118 C 
BRANCH  21  22
ATOM     22  N   UNL A   1      41.007  23.814  26.423  1.00  0.00    -0.352 N 
ATOM     23  C   UNL A   1      41.021  25.167  26.197  1.00  0.00     0.251 C 
ATOM     24  H   UNL A   1      41.306  23.264  25.664  1.00  0.00     0.163 HD
ATOM     25  O   UNL A   1      41.190  25.585  25.055  1.00  0.00    -0.269 OA
BRANCH  23  26
ATOM     26  C   UNL A   1      40.825  26.127  27.305  1.00  0.00     0.039 A 
ATOM     27  C   UNL A   1      39.804  25.884  28.231  1.00  0.00     0.014 A 
ATOM     28  C   UNL A   1      41.596  27.288  27.407  1.00  0.00     0.014 A 
ATOM     29  C   UNL A   1      39.592  26.773  29.286  1.00  0.00     0.010 A 
ATOM     30  C   UNL A   1      41.424  28.144  28.494  1.00  0.00     0.010 A 
ATOM     31  C   UNL A   1      40.419  27.897  29.442  1.00  0.00    -0.014 A 
BRANCH  31  32
ATOM     32  C   UNL A   1      40.248  28.825  30.588  1.00  0.00     0.031 A 
ATOM     33  C   UNL A   1      39.217  29.918  30.531  1.00  0.00     0.074 A 
ATOM     34  C   UNL A   1      41.066  28.725  31.653  1.00  0.00     0.049 A 
ATOM     35  N   UNL A   1      38.984  30.882  31.385  1.00  0.00    -0.248 NA
ATOM     36  C   UNL A   1      38.345  29.944  29.345  1.00  0.00     0.031 C 
ATOM     37  C   UNL A   1      42.127  27.729  31.816  1.00  0.00     0.029 A 
ATOM     38  N   UNL A   1      41.142  29.478  32.798  1.00  0.00    -0.354 N 
ATOM     39  C   UNL A   1      37.955  31.635  30.835  1.00  0.00     0.074 A 
ATOM     40  C   UNL A   1      37.635  31.042  29.554  1.00  0.00     0.031 C 
ATOM     41  C   UNL A   1      42.738  27.924  32.996  1.00  0.00     0.029 A 
ATOM     42  C   UNL A   1      42.138  29.080  33.655  1.00  0.00     0.049 A 
ATOM     43  H   UNL A   1      40.538  30.233  32.986  1.00  0.00     0.167 HD
ATOM     44  C   UNL A   1      37.320  32.711  31.359  1.00  0.00     0.037 A 
ATOM     45  C   UNL A   1      42.530  29.595  34.836  1.00  0.00     0.037 A 
ATOM     46  C   UNL A   1      37.620  33.284  32.645  1.00  0.00     0.049 A 
ATOM     47  C   UNL A   1      41.815  30.796  35.389  1.00  0.00     0.074 A 
ATOM     48  C   UNL A   1      37.003  34.347  33.282  1.00  0.00     0.029 A 
ATOM     49  N   UNL A   1      38.622  32.838  33.493  1.00  0.00    -0.354 N 
ATOM     50  N   UNL A   1      40.813  31.468  34.879  1.00  0.00    -0.248 NA
ATOM     51  C   UNL A   1      42.284  31.307  36.686  1.00  0.00     0.031 C 
ATOM     52  C   UNL A   1      37.653  34.564  34.501  1.00  0.00     0.029 A 
ATOM     53  C   UNL A   1      38.649  33.612  34.640  1.00  0.00     0.049 A 
ATOM     54  H   UNL A   1      39.226  32.082  33.305  1.00  0.00     0.167 HD
ATOM     55  C   UNL A   1      40.512  32.461  35.803  1.00  0.00     0.074 A 
ATOM     56  C   UNL A   1      41.430  32.295  36.910  1.00  0.00     0.031 C 
ATOM     57  C   UNL A   1      39.560  33.423  35.740  1.00  0.00     0.037 A 
BRANCH  44  58
ATOM     58  C   UNL A   1      36.226  33.336  30.543  1.00  0.00     0.057 A 
ATOM     59  C   UNL A   1      34.874  33.134  30.848  1.00  0.00     0.134 A 
ATOM     60  C   UNL A   1      36.528  34.184  29.469  1.00  0.00     0.134 A 
ATOM     61  F   UNL A   1      34.519  32.325  31.857  1.00  0.00    -0.206 F 
ATOM     62  C   UNL A   1      33.860  33.737  30.102  1.00  0.00     0.040 A 
ATOM     63  C   UNL A   1      35.523  34.810  28.731  1.00  0.00     0.040 A 
ATOM     64  F   UNL A   1      37.802  34.425  29.128  1.00  0.00    -0.206 F 
ATOM     65  C   UNL A   1      34.183  34.583  29.043  1.00  0.00     0.006 A 
ENDBRANCH  44  58
BRANCH  45  66
ATOM     66  C   UNL A   1      43.648  28.970  35.587  1.00  0.00     0.057 A 
ATOM     67  C   UNL A   1      43.415  27.918  36.481  1.00  0.00     0.134 A 
ATOM     68  C   UNL A   1      44.967  29.417  35.445  1.00  0.00     0.134 A 
ATOM     69  F   UNL A   1      42.169  27.460  36.673  1.00  0.00    -0.206 F 
ATOM     70  C   UNL A   1      44.449  27.348  37.224  1.00  0.00     0.040 A 
ATOM     71  C   UNL A   1      46.014  28.840  36.163  1.00  0.00     0.040 A 
ATOM     72  F   UNL A   1      45.256  30.417  34.600  1.00  0.00    -0.206 F 
ATOM     73  C   UNL A   1      45.754  27.807  37.063  1.00  0.00     0.006 A 
ENDBRANCH  45  66
BRANCH  57  74
ATOM     74  C   UNL A   1      39.437  34.343  36.917  1.00  0.00     0.057 A 
ATOM     75  C   UNL A   1      38.740  33.973  38.074  1.00  0.00     0.134 A 
ATOM     76  C   UNL A   1      40.057  35.599  36.907  1.00  0.00     0.134 A 
ATOM     77  F   UNL A   1      38.113  32.788  38.141  1.00  0.00    -0.206 F 
ATOM     78  C   UNL A   1      38.646  34.829  39.172  1.00  0.00     0.040 A 
ATOM     79  C   UNL A   1      39.991  36.454  38.008  1.00  0.00     0.040 A 
ATOM     80  F   UNL A   1      40.746  36.009  35.832  1.00  0.00    -0.206 F 
ATOM     81  C   UNL A   1      39.279  36.071  39.143  1.00  0.00     0.006 A 
ENDBRANCH  57  74
ENDBRANCH  31  32
ENDBRANCH  23  26
ENDBRANCH  21  22
ENDBRANCH  20  21
ENDBRANCH   1  20
TORSDOF 13
ENDMDL
