MODEL 1
REMARK VINA RESULT:      -9.4      0.000      0.000
REMARK SMILES CC[C@H](C)[C@H](NC(=O)N1CCc2cc(OC)c(OC)cc2[C@@H]1c1ccc(F)cc1)C(=O)NCCCNC(=O)c1ccc(-c2c3nc(c(-c4c(F)cccc4F)c4ccc([nH]4)c(-c4c(F)cccc4F)c4nc(c(-c5c(F)cccc5F)c5ccc2[nH]5)C=C4)C=C3)cc1
REMARK SMILES IDX 33 1 32 2 30 3 31 4 5 6 3 7 4 8 2 9 1 10 6 11 7 12 8 14 9 15
REMARK SMILES IDX 10 16 22 17 11 18 21 19 12 20 20 21 13 22 17 23 14 24 23 25
REMARK SMILES IDX 24 26 29 27 25 28 28 29 26 30 27 31 18 32 19 33 15 34 16 35
REMARK SMILES IDX 34 36 35 37 36 38 37 39 38 41 39 42 40 43 92 44 41 45 91 46
REMARK SMILES IDX 42 47 43 48 44 49 85 50 45 51 90 52 84 53 86 54 46 55 89 56
REMARK SMILES IDX 83 57 82 58 47 60 73 61 56 62 72 63 57 64 60 65 71 66 87 67
REMARK SMILES IDX 58 68 59 69 70 71 88 72 61 73 48 74 49 75 54 76 50 77 51 78
REMARK SMILES IDX 53 79 55 80 52 81 74 82 75 83 80 84 76 85 77 86 79 87 81 88
REMARK SMILES IDX 78 89 62 90 63 91 68 92 64 93 65 94 67 95 69 96 66 97
REMARK H PARENT 32 5 6 13 36 40 86 59 60 70
REMARK Flexibility Score: inf
ROOT
ATOM      1  C   UNL A   1      42.978  21.155  26.567  1.00  0.00     0.117 C 
ENDROOT
BRANCH   1   2
ATOM      2  N   UNL A   1      44.237  21.188  25.848  1.00  0.00    -0.354 N 
ATOM      3  C   UNL A   1      45.227  22.123  25.823  1.00  0.00     0.242 C 
ATOM      4  O   UNL A   1      46.307  21.766  25.337  1.00  0.00    -0.273 OA
ATOM      5  H   UNL A   1      44.405  20.400  25.282  1.00  0.00     0.163 HD
BRANCH   3   6
ATOM      6  C   UNL A   1      45.091  23.534  26.446  1.00  0.00     0.176 C 
BRANCH   6   7
ATOM      7  C   UNL A   1      44.639  23.503  27.948  1.00  0.00     0.018 C 
ATOM      8  C   UNL A   1      45.705  24.180  28.819  1.00  0.00     0.010 C 
BRANCH   7   9
ATOM      9  C   UNL A   1      43.253  24.102  28.260  1.00  0.00     0.002 C 
ATOM     10  C   UNL A   1      42.471  23.377  29.351  1.00  0.00     0.004 C 
ENDBRANCH   7   9
ENDBRANCH   6   7
BRANCH   6  11
ATOM     11  N   UNL A   1      44.341  24.446  25.585  1.00  0.00    -0.326 N 
ATOM     12  C   UNL A   1      44.341  25.783  25.412  1.00  0.00     0.318 C 
ATOM     13  H   UNL A   1      43.696  23.983  25.004  1.00  0.00     0.166 HD
ATOM     14  O   UNL A   1      43.400  26.228  24.749  1.00  0.00    -0.249 OA
BRANCH  12  15
ATOM     15  N   UNL A   1      45.260  26.595  26.017  1.00  0.00    -0.313 N 
ATOM     16  C   UNL A   1      44.951  27.522  27.119  1.00  0.00     0.127 C 
ATOM     17  C   UNL A   1      46.682  26.206  25.837  1.00  0.00     0.148 C 
ATOM     18  C   UNL A   1      46.070  28.534  27.406  1.00  0.00     0.057 C 
ATOM     19  C   UNL A   1      47.584  26.600  27.005  1.00  0.00    -0.014 A 
ATOM     20  C   UNL A   1      47.342  27.786  27.702  1.00  0.00    -0.037 A 
ATOM     21  C   UNL A   1      48.704  25.820  27.347  1.00  0.00     0.057 A 
ATOM     22  C   UNL A   1      48.275  28.234  28.641  1.00  0.00     0.054 A 
ATOM     23  C   UNL A   1      49.624  26.237  28.322  1.00  0.00     0.161 A 
ATOM     24  C   UNL A   1      49.423  27.480  28.949  1.00  0.00     0.161 A 
BRANCH  17  25
ATOM     25  C   UNL A   1      47.234  26.774  24.513  1.00  0.00    -0.021 A 
ATOM     26  C   UNL A   1      48.348  26.180  23.892  1.00  0.00     0.009 A 
ATOM     27  C   UNL A   1      46.669  27.908  23.899  1.00  0.00     0.009 A 
ATOM     28  C   UNL A   1      48.861  26.694  22.697  1.00  0.00     0.039 A 
ATOM     29  C   UNL A   1      47.163  28.407  22.694  1.00  0.00     0.039 A 
ATOM     30  C   UNL A   1      48.256  27.794  22.104  1.00  0.00     0.123 A 
ATOM     31  F   UNL A   1      48.735  28.273  20.949  1.00  0.00    -0.207 F 
ENDBRANCH  17  25
BRANCH  23  32
ATOM     32  O   UNL A   1      50.720  25.496  28.672  1.00  0.00    -0.493 OA
ATOM     33  C   UNL A   1      51.854  25.517  27.815  1.00  0.00     0.278 C 
ENDBRANCH  23  32
BRANCH  24  34
ATOM     34  O   UNL A   1      50.210  28.102  29.885  1.00  0.00    -0.493 OA
ATOM     35  C   UNL A   1      51.338  28.849  29.450  1.00  0.00     0.278 C 
ENDBRANCH  24  34
ENDBRANCH  12  15
ENDBRANCH   6  11
ENDBRANCH   3   6
ENDBRANCH   1   2
BRANCH   1  36
ATOM     36  C   UNL A   1      41.817  21.774  25.810  1.00  0.00     0.042 C 
BRANCH  36  37
ATOM     37  C   UNL A   1      40.526  21.813  26.617  1.00  0.00     0.118 C 
BRANCH  37  38
ATOM     38  N   UNL A   1      39.415  22.429  25.897  1.00  0.00    -0.352 N 
ATOM     39  C   UNL A   1      38.828  23.671  26.012  1.00  0.00     0.251 C 
ATOM     40  H   UNL A   1      39.013  21.855  25.206  1.00  0.00     0.163 HD
ATOM     41  O   UNL A   1      37.789  23.908  25.418  1.00  0.00    -0.269 OA
BRANCH  39  42
ATOM     42  C   UNL A   1      39.429  24.705  26.886  1.00  0.00     0.039 A 
ATOM     43  C   UNL A   1      40.328  25.623  26.335  1.00  0.00     0.014 A 
ATOM     44  C   UNL A   1      39.105  24.781  28.238  1.00  0.00     0.014 A 
ATOM     45  C   UNL A   1      40.795  26.689  27.111  1.00  0.00     0.010 A 
ATOM     46  C   UNL A   1      39.477  25.897  28.976  1.00  0.00     0.010 A 
ATOM     47  C   UNL A   1      40.312  26.875  28.415  1.00  0.00    -0.014 A 
BRANCH  47  48
ATOM     48  C   UNL A   1      40.620  28.093  29.211  1.00  0.00     0.031 A 
ATOM     49  C   UNL A   1      41.867  28.150  30.049  1.00  0.00     0.074 A 
ATOM     50  C   UNL A   1      39.710  29.087  29.283  1.00  0.00     0.049 A 
ATOM     51  N   UNL A   1      42.209  29.025  30.960  1.00  0.00    -0.248 NA
ATOM     52  C   UNL A   1      42.842  27.061  29.869  1.00  0.00     0.031 C 
ATOM     53  C   UNL A   1      38.434  29.125  28.565  1.00  0.00     0.029 A 
ATOM     54  N   UNL A   1      39.708  30.247  30.018  1.00  0.00    -0.354 N 
ATOM     55  C   UNL A   1      43.413  28.573  31.483  1.00  0.00     0.074 A 
ATOM     56  C   UNL A   1      43.728  27.330  30.817  1.00  0.00     0.031 C 
ATOM     57  C   UNL A   1      37.780  30.253  28.885  1.00  0.00     0.029 A 
ATOM     58  C   UNL A   1      38.562  30.993  29.868  1.00  0.00     0.049 A 
ATOM     59  H   UNL A   1      40.455  30.519  30.599  1.00  0.00     0.167 HD
ATOM     60  C   UNL A   1      44.193  29.157  32.422  1.00  0.00     0.037 A 
ATOM     61  C   UNL A   1      38.169  32.132  30.473  1.00  0.00     0.037 A 
ATOM     62  C   UNL A   1      43.912  30.429  33.030  1.00  0.00     0.049 A 
ATOM     63  C   UNL A   1      39.066  32.767  31.497  1.00  0.00     0.074 A 
ATOM     64  C   UNL A   1      44.701  31.151  33.907  1.00  0.00     0.029 A 
ATOM     65  N   UNL A   1      42.760  31.168  32.819  1.00  0.00    -0.354 N 
ATOM     66  N   UNL A   1      40.233  32.360  31.933  1.00  0.00    -0.248 NA
ATOM     67  C   UNL A   1      38.594  34.013  32.121  1.00  0.00     0.031 C 
ATOM     68  C   UNL A   1      44.009  32.312  34.258  1.00  0.00     0.029 A 
ATOM     69  C   UNL A   1      42.807  32.329  33.570  1.00  0.00     0.049 A 
ATOM     70  H   UNL A   1      42.020  30.908  32.224  1.00  0.00     0.167 HD
ATOM     71  C   UNL A   1      40.640  33.304  32.867  1.00  0.00     0.074 A 
ATOM     72  C   UNL A   1      39.603  34.311  32.927  1.00  0.00     0.031 C 
ATOM     73  C   UNL A   1      41.770  33.326  33.611  1.00  0.00     0.037 A 
BRANCH  60  74
ATOM     74  C   UNL A   1      45.450  28.454  32.836  1.00  0.00     0.057 A 
ATOM     75  C   UNL A   1      46.639  28.639  32.119  1.00  0.00     0.134 A 
ATOM     76  C   UNL A   1      45.456  27.513  33.872  1.00  0.00     0.134 A 
ATOM     77  F   UNL A   1      46.697  29.521  31.111  1.00  0.00    -0.206 F 
ATOM     78  C   UNL A   1      47.785  27.897  32.407  1.00  0.00     0.040 A 
ATOM     79  C   UNL A   1      46.602  26.780  34.184  1.00  0.00     0.040 A 
ATOM     80  F   UNL A   1      44.350  27.297  34.600  1.00  0.00    -0.206 F 
ATOM     81  C   UNL A   1      47.767  26.962  33.441  1.00  0.00     0.006 A 
ENDBRANCH  60  74
BRANCH  61  82
ATOM     82  C   UNL A   1      36.860  32.740  30.127  1.00  0.00     0.057 A 
ATOM     83  C   UNL A   1      35.692  32.412  30.824  1.00  0.00     0.134 A 
ATOM     84  C   UNL A   1      36.749  33.659  29.077  1.00  0.00     0.134 A 
ATOM     85  F   UNL A   1      35.731  31.533  31.835  1.00  0.00    -0.206 F 
ATOM     86  C   UNL A   1      34.456  32.967  30.483  1.00  0.00     0.040 A 
ATOM     87  C   UNL A   1      35.524  34.239  28.740  1.00  0.00     0.040 A 
ATOM     88  F   UNL A   1      37.837  34.027  28.385  1.00  0.00    -0.206 F 
ATOM     89  C   UNL A   1      34.372  33.887  29.440  1.00  0.00     0.006 A 
ENDBRANCH  61  82
BRANCH  73  90
ATOM     90  C   UNL A   1      41.967  34.475  34.551  1.00  0.00     0.057 A 
ATOM     91  C   UNL A   1      41.503  34.405  35.871  1.00  0.00     0.134 A 
ATOM     92  C   UNL A   1      42.508  35.689  34.113  1.00  0.00     0.134 A 
ATOM     93  F   UNL A   1      40.963  33.271  36.344  1.00  0.00    -0.206 F 
ATOM     94  C   UNL A   1      41.548  35.513  36.716  1.00  0.00     0.040 A 
ATOM     95  C   UNL A   1      42.576  36.798  34.956  1.00  0.00     0.040 A 
ATOM     96  F   UNL A   1      42.975  35.813  32.862  1.00  0.00    -0.206 F 
ATOM     97  C   UNL A   1      42.083  36.715  36.258  1.00  0.00     0.006 A 
ENDBRANCH  73  90
ENDBRANCH  47  48
ENDBRANCH  39  42
ENDBRANCH  37  38
ENDBRANCH  36  37
ENDBRANCH   1  36
TORSDOF 17
ENDMDL
MODEL 2
REMARK VINA RESULT:      -9.4      4.855     12.393
REMARK SMILES CC[C@H](C)[C@H](NC(=O)N1CCc2cc(OC)c(OC)cc2[C@@H]1c1ccc(F)cc1)C(=O)NCCCNC(=O)c1ccc(-c2c3nc(c(-c4c(F)cccc4F)c4ccc([nH]4)c(-c4c(F)cccc4F)c4nc(c(-c5c(F)cccc5F)c5ccc2[nH]5)C=C4)C=C3)cc1
REMARK SMILES IDX 33 1 32 2 30 3 31 4 5 6 3 7 4 8 2 9 1 10 6 11 7 12 8 14 9 15
REMARK SMILES IDX 10 16 22 17 11 18 21 19 12 20 20 21 13 22 17 23 14 24 23 25
REMARK SMILES IDX 24 26 29 27 25 28 28 29 26 30 27 31 18 32 19 33 15 34 16 35
REMARK SMILES IDX 34 36 35 37 36 38 37 39 38 41 39 42 40 43 92 44 41 45 91 46
REMARK SMILES IDX 42 47 43 48 44 49 85 50 45 51 90 52 84 53 86 54 46 55 89 56
REMARK SMILES IDX 83 57 82 58 47 60 73 61 56 62 72 63 57 64 60 65 71 66 87 67
REMARK SMILES IDX 58 68 59 69 70 71 88 72 61 73 48 74 49 75 54 76 50 77 51 78
REMARK SMILES IDX 53 79 55 80 52 81 74 82 75 83 80 84 76 85 77 86 79 87 81 88
REMARK SMILES IDX 78 89 62 90 63 91 68 92 64 93 65 94 67 95 69 96 66 97
REMARK H PARENT 32 5 6 13 36 40 86 59 60 70
REMARK Flexibility Score: inf
ROOT
ATOM      1  C   UNL A   1      39.769  26.682  28.934  1.00  0.00     0.117 C 
ENDROOT
BRANCH   1   2
ATOM      2  N   UNL A   1      39.309  27.676  27.985  1.00  0.00    -0.354 N 
ATOM      3  C   UNL A   1      39.114  29.017  28.122  1.00  0.00     0.242 C 
ATOM      4  O   UNL A   1      38.979  29.662  27.074  1.00  0.00    -0.273 OA
ATOM      5  H   UNL A   1      39.105  27.323  27.089  1.00  0.00     0.163 HD
BRANCH   3   6
ATOM      6  C   UNL A   1      39.149  29.756  29.481  1.00  0.00     0.176 C 
BRANCH   6   7
ATOM      7  C   UNL A   1      40.571  29.755  30.145  1.00  0.00     0.018 C 
ATOM      8  C   UNL A   1      41.548  30.548  29.267  1.00  0.00     0.010 C 
BRANCH   7   9
ATOM      9  C   UNL A   1      40.649  30.260  31.600  1.00  0.00     0.002 C 
ATOM     10  C   UNL A   1      41.966  30.931  31.977  1.00  0.00     0.004 C 
ENDBRANCH   7   9
ENDBRANCH   6   7
BRANCH   6  11
ATOM     11  N   UNL A   1      38.050  29.354  30.356  1.00  0.00    -0.326 N 
ATOM     12  C   UNL A   1      36.897  29.938  30.741  1.00  0.00     0.318 C 
ATOM     13  H   UNL A   1      38.179  28.461  30.749  1.00  0.00     0.166 HD
ATOM     14  O   UNL A   1      36.316  29.386  31.679  1.00  0.00    -0.249 OA
BRANCH  12  15
ATOM     15  N   UNL A   1      36.462  31.116  30.199  1.00  0.00    -0.313 N 
ATOM     16  C   UNL A   1      35.651  31.214  28.973  1.00  0.00     0.127 C 
ATOM     17  C   UNL A   1      36.451  32.283  31.115  1.00  0.00     0.148 C 
ATOM     18  C   UNL A   1      35.561  32.640  28.406  1.00  0.00     0.057 C 
ATOM     19  C   UNL A   1      35.367  33.311  30.795  1.00  0.00    -0.014 A 
ATOM     20  C   UNL A   1      35.009  33.553  29.466  1.00  0.00    -0.037 A 
ATOM     21  C   UNL A   1      34.772  34.075  31.816  1.00  0.00     0.057 A 
ATOM     22  C   UNL A   1      34.158  34.622  29.169  1.00  0.00     0.054 A 
ATOM     23  C   UNL A   1      33.880  35.120  31.531  1.00  0.00     0.161 A 
ATOM     24  C   UNL A   1      33.601  35.419  30.185  1.00  0.00     0.161 A 
BRANCH  17  25
ATOM     25  C   UNL A   1      37.839  32.956  31.152  1.00  0.00    -0.021 A 
ATOM     26  C   UNL A   1      38.404  33.361  32.375  1.00  0.00     0.009 A 
ATOM     27  C   UNL A   1      38.571  33.208  29.976  1.00  0.00     0.009 A 
ATOM     28  C   UNL A   1      39.656  33.980  32.416  1.00  0.00     0.039 A 
ATOM     29  C   UNL A   1      39.833  33.802  30.017  1.00  0.00     0.039 A 
ATOM     30  C   UNL A   1      40.364  34.183  31.238  1.00  0.00     0.123 A 
ATOM     31  F   UNL A   1      41.573  34.757  31.280  1.00  0.00    -0.207 F 
ENDBRANCH  17  25
BRANCH  23  32
ATOM     32  O   UNL A   1      33.288  35.876  32.507  1.00  0.00    -0.493 OA
ATOM     33  C   UNL A   1      33.967  37.034  32.973  1.00  0.00     0.278 C 
ENDBRANCH  23  32
BRANCH  24  34
ATOM     34  O   UNL A   1      32.806  36.416  29.678  1.00  0.00    -0.493 OA
ATOM     35  C   UNL A   1      33.335  37.279  28.681  1.00  0.00     0.278 C 
ENDBRANCH  24  34
ENDBRANCH  12  15
ENDBRANCH   6  11
ENDBRANCH   3   6
ENDBRANCH   1   2
BRANCH   1  36
ATOM     36  C   UNL A   1      40.036  25.319  28.321  1.00  0.00     0.042 C 
BRANCH  36  37
ATOM     37  C   UNL A   1      41.517  24.977  28.235  1.00  0.00     0.118 C 
BRANCH  37  38
ATOM     38  N   UNL A   1      41.808  23.905  27.286  1.00  0.00    -0.352 N 
ATOM     39  C   UNL A   1      42.820  23.752  26.363  1.00  0.00     0.251 C 
ATOM     40  H   UNL A   1      41.165  23.160  27.310  1.00  0.00     0.163 HD
ATOM     41  O   UNL A   1      42.764  22.845  25.548  1.00  0.00    -0.269 OA
BRANCH  39  42
ATOM     42  C   UNL A   1      43.953  24.705  26.328  1.00  0.00     0.039 A 
ATOM     43  C   UNL A   1      44.199  25.427  25.157  1.00  0.00     0.014 A 
ATOM     44  C   UNL A   1      44.766  24.897  27.443  1.00  0.00     0.014 A 
ATOM     45  C   UNL A   1      45.173  26.430  25.152  1.00  0.00     0.010 A 
ATOM     46  C   UNL A   1      45.653  25.964  27.474  1.00  0.00     0.010 A 
ATOM     47  C   UNL A   1      45.855  26.756  26.334  1.00  0.00    -0.014 A 
BRANCH  47  48
ATOM     48  C   UNL A   1      46.752  27.937  26.434  1.00  0.00     0.031 A 
ATOM     49  C   UNL A   1      46.170  29.315  26.589  1.00  0.00     0.074 A 
ATOM     50  C   UNL A   1      48.080  27.781  26.249  1.00  0.00     0.049 A 
ATOM     51  N   UNL A   1      46.764  30.477  26.492  1.00  0.00    -0.248 NA
ATOM     52  C   UNL A   1      44.723  29.402  26.850  1.00  0.00     0.031 C 
ATOM     53  C   UNL A   1      48.763  26.504  26.030  1.00  0.00     0.029 A 
ATOM     54  N   UNL A   1      49.091  28.708  26.189  1.00  0.00    -0.354 N 
ATOM     55  C   UNL A   1      45.761  31.426  26.642  1.00  0.00     0.074 A 
ATOM     56  C   UNL A   1      44.516  30.711  26.802  1.00  0.00     0.031 C 
ATOM     57  C   UNL A   1      50.077  26.726  25.872  1.00  0.00     0.029 A 
ATOM     58  C   UNL A   1      50.326  28.162  25.924  1.00  0.00     0.049 A 
ATOM     59  H   UNL A   1      48.946  29.674  26.321  1.00  0.00     0.167 HD
ATOM     60  C   UNL A   1      45.877  32.774  26.664  1.00  0.00     0.037 A 
ATOM     61  C   UNL A   1      51.521  28.751  25.721  1.00  0.00     0.037 A 
ATOM     62  C   UNL A   1      47.126  33.480  26.575  1.00  0.00     0.049 A 
ATOM     63  C   UNL A   1      51.622  30.249  25.770  1.00  0.00     0.074 A 
ATOM     64  C   UNL A   1      47.352  34.839  26.701  1.00  0.00     0.029 A 
ATOM     65  N   UNL A   1      48.356  32.884  26.348  1.00  0.00    -0.354 N 
ATOM     66  N   UNL A   1      50.674  31.129  25.979  1.00  0.00    -0.248 NA
ATOM     67  C   UNL A   1      52.951  30.838  25.550  1.00  0.00     0.031 C 
ATOM     68  C   UNL A   1      48.715  35.072  26.512  1.00  0.00     0.029 A 
ATOM     69  C   UNL A   1      49.343  33.854  26.305  1.00  0.00     0.049 A 
ATOM     70  H   UNL A   1      48.506  31.919  26.235  1.00  0.00     0.167 HD
ATOM     71  C   UNL A   1      51.292  32.371  25.930  1.00  0.00     0.074 A 
ATOM     72  C   UNL A   1      52.698  32.133  25.684  1.00  0.00     0.031 C 
ATOM     73  C   UNL A   1      50.739  33.598  26.070  1.00  0.00     0.037 A 
BRANCH  60  74
ATOM     74  C   UNL A   1      44.630  33.590  26.822  1.00  0.00     0.057 A 
ATOM     75  C   UNL A   1      44.000  34.151  25.704  1.00  0.00     0.134 A 
ATOM     76  C   UNL A   1      44.120  33.912  28.085  1.00  0.00     0.134 A 
ATOM     77  F   UNL A   1      44.445  33.887  24.466  1.00  0.00    -0.206 F 
ATOM     78  C   UNL A   1      42.916  35.019  25.839  1.00  0.00     0.040 A 
ATOM     79  C   UNL A   1      43.023  34.762  28.232  1.00  0.00     0.040 A 
ATOM     80  F   UNL A   1      44.675  33.399  29.193  1.00  0.00    -0.206 F 
ATOM     81  C   UNL A   1      42.426  35.328  27.107  1.00  0.00     0.006 A 
ENDBRANCH  60  74
BRANCH  61  82
ATOM     82  C   UNL A   1      52.718  27.917  25.446  1.00  0.00     0.057 A 
ATOM     83  C   UNL A   1      53.549  27.464  26.478  1.00  0.00     0.134 A 
ATOM     84  C   UNL A   1      53.063  27.563  24.136  1.00  0.00     0.134 A 
ATOM     85  F   UNL A   1      53.276  27.774  27.753  1.00  0.00    -0.206 F 
ATOM     86  C   UNL A   1      54.688  26.699  26.217  1.00  0.00     0.040 A 
ATOM     87  C   UNL A   1      54.187  26.779  23.863  1.00  0.00     0.040 A 
ATOM     88  F   UNL A   1      52.295  27.951  23.109  1.00  0.00    -0.206 F 
ATOM     89  C   UNL A   1      55.006  26.350  24.905  1.00  0.00     0.006 A 
ENDBRANCH  61  82
BRANCH  73  90
ATOM     90  C   UNL A   1      51.642  34.788  25.976  1.00  0.00     0.057 A 
ATOM     91  C   UNL A   1      52.211  35.347  27.128  1.00  0.00     0.134 A 
ATOM     92  C   UNL A   1      51.852  35.449  24.760  1.00  0.00     0.134 A 
ATOM     93  F   UNL A   1      52.035  34.765  28.325  1.00  0.00    -0.206 F 
ATOM     94  C   UNL A   1      52.936  36.537  27.077  1.00  0.00     0.040 A 
ATOM     95  C   UNL A   1      52.593  36.629  24.694  1.00  0.00     0.040 A 
ATOM     96  F   UNL A   1      51.340  34.957  23.623  1.00  0.00    -0.206 F 
ATOM     97  C   UNL A   1      53.126  37.182  25.857  1.00  0.00     0.006 A 
ENDBRANCH  73  90
ENDBRANCH  47  48
ENDBRANCH  39  42
ENDBRANCH  37  38
ENDBRANCH  36  37
ENDBRANCH   1  36
TORSDOF 17
ENDMDL
MODEL 3
REMARK VINA RESULT:      -9.3      4.393     10.585
REMARK SMILES CC[C@H](C)[C@H](NC(=O)N1CCc2cc(OC)c(OC)cc2[C@@H]1c1ccc(F)cc1)C(=O)NCCCNC(=O)c1ccc(-c2c3nc(c(-c4c(F)cccc4F)c4ccc([nH]4)c(-c4c(F)cccc4F)c4nc(c(-c5c(F)cccc5F)c5ccc2[nH]5)C=C4)C=C3)cc1
REMARK SMILES IDX 33 1 32 2 30 3 31 4 5 6 3 7 4 8 2 9 1 10 6 11 7 12 8 14 9 15
REMARK SMILES IDX 10 16 22 17 11 18 21 19 12 20 20 21 13 22 17 23 14 24 23 25
REMARK SMILES IDX 24 26 29 27 25 28 28 29 26 30 27 31 18 32 19 33 15 34 16 35
REMARK SMILES IDX 34 36 35 37 36 38 37 39 38 41 39 42 40 43 92 44 41 45 91 46
REMARK SMILES IDX 42 47 43 48 44 49 85 50 45 51 90 52 84 53 86 54 46 55 89 56
REMARK SMILES IDX 83 57 82 58 47 60 73 61 56 62 72 63 57 64 60 65 71 66 87 67
REMARK SMILES IDX 58 68 59 69 70 71 88 72 61 73 48 74 49 75 54 76 50 77 51 78
REMARK SMILES IDX 53 79 55 80 52 81 74 82 75 83 80 84 76 85 77 86 79 87 81 88
REMARK SMILES IDX 78 89 62 90 63 91 68 92 64 93 65 94 67 95 69 96 66 97
REMARK H PARENT 32 5 6 13 36 40 86 59 60 70
REMARK Flexibility Score: inf
ROOT
ATOM      1  C   UNL A   1      39.586  26.191  28.731  1.00  0.00     0.117 C 
ENDROOT
BRANCH   1   2
ATOM      2  N   UNL A   1      39.329  27.266  27.794  1.00  0.00    -0.354 N 
ATOM      3  C   UNL A   1      39.407  28.618  27.942  1.00  0.00     0.242 C 
ATOM      4  O   UNL A   1      39.398  29.286  26.901  1.00  0.00    -0.273 OA
ATOM      5  H   UNL A   1      39.053  26.969  26.897  1.00  0.00     0.163 HD
BRANCH   3   6
ATOM      6  C   UNL A   1      39.598  29.321  29.308  1.00  0.00     0.176 C 
BRANCH   6   7
ATOM      7  C   UNL A   1      41.084  29.299  29.810  1.00  0.00     0.018 C 
ATOM      8  C   UNL A   1      41.625  30.733  29.878  1.00  0.00     0.010 C 
BRANCH   7   9
ATOM      9  C   UNL A   1      41.346  28.579  31.148  1.00  0.00     0.002 C 
ATOM     10  C   UNL A   1      41.833  29.480  32.278  1.00  0.00     0.004 C 
ENDBRANCH   7   9
ENDBRANCH   6   7
BRANCH   6  11
ATOM     11  N   UNL A   1      38.600  28.901  30.289  1.00  0.00    -0.326 N 
ATOM     12  C   UNL A   1      37.493  29.474  30.805  1.00  0.00     0.318 C 
ATOM     13  H   UNL A   1      38.772  28.003  30.652  1.00  0.00     0.166 HD
ATOM     14  O   UNL A   1      37.018  28.905  31.791  1.00  0.00    -0.249 OA
BRANCH  12  15
ATOM     15  N   UNL A   1      36.999  30.658  30.331  1.00  0.00    -0.313 N 
ATOM     16  C   UNL A   1      36.173  30.786  29.119  1.00  0.00     0.127 C 
ATOM     17  C   UNL A   1      36.944  31.772  31.310  1.00  0.00     0.148 C 
ATOM     18  C   UNL A   1      36.012  32.235  28.632  1.00  0.00     0.057 C 
ATOM     19  C   UNL A   1      35.812  32.765  31.055  1.00  0.00    -0.014 A 
ATOM     20  C   UNL A   1      35.429  33.063  29.744  1.00  0.00    -0.037 A 
ATOM     21  C   UNL A   1      35.192  33.444  32.121  1.00  0.00     0.057 A 
ATOM     22  C   UNL A   1      34.528  34.105  29.512  1.00  0.00     0.054 A 
ATOM     23  C   UNL A   1      34.250  34.461  31.900  1.00  0.00     0.161 A 
ATOM     24  C   UNL A   1      33.944  34.819  30.575  1.00  0.00     0.161 A 
BRANCH  17  25
ATOM     25  C   UNL A   1      38.301  32.505  31.373  1.00  0.00    -0.021 A 
ATOM     26  C   UNL A   1      39.123  32.388  32.508  1.00  0.00     0.009 A 
ATOM     27  C   UNL A   1      38.748  33.328  30.322  1.00  0.00     0.009 A 
ATOM     28  C   UNL A   1      40.349  33.056  32.578  1.00  0.00     0.039 A 
ATOM     29  C   UNL A   1      39.982  33.975  30.379  1.00  0.00     0.039 A 
ATOM     30  C   UNL A   1      40.772  33.833  31.507  1.00  0.00     0.123 A 
ATOM     31  F   UNL A   1      41.956  34.456  31.565  1.00  0.00    -0.207 F 
ENDBRANCH  17  25
BRANCH  23  32
ATOM     32  O   UNL A   1      33.634  35.134  32.920  1.00  0.00    -0.493 OA
ATOM     33  C   UNL A   1      34.179  36.379  33.338  1.00  0.00     0.278 C 
ENDBRANCH  23  32
BRANCH  24  34
ATOM     34  O   UNL A   1      33.100  35.805  30.129  1.00  0.00    -0.493 OA
ATOM     35  C   UNL A   1      32.933  35.989  28.730  1.00  0.00     0.278 C 
ENDBRANCH  24  34
ENDBRANCH  12  15
ENDBRANCH   6  11
ENDBRANCH   3   6
ENDBRANCH   1   2
BRANCH   1  36
ATOM     36  C   UNL A   1      39.121  24.828  28.251  1.00  0.00     0.042 C 
BRANCH  36  37
ATOM     37  C   UNL A   1      39.482  24.546  26.799  1.00  0.00     0.118 C 
BRANCH  37  38
ATOM     38  N   UNL A   1      40.447  23.462  26.644  1.00  0.00    -0.352 N 
ATOM     39  C   UNL A   1      41.802  23.475  26.391  1.00  0.00     0.251 C 
ATOM     40  H   UNL A   1      40.061  22.561  26.735  1.00  0.00     0.163 HD
ATOM     41  O   UNL A   1      42.379  22.432  26.126  1.00  0.00    -0.269 OA
BRANCH  39  42
ATOM     42  C   UNL A   1      42.554  24.751  26.397  1.00  0.00     0.039 A 
ATOM     43  C   UNL A   1      43.166  25.174  27.581  1.00  0.00     0.014 A 
ATOM     44  C   UNL A   1      42.666  25.525  25.245  1.00  0.00     0.014 A 
ATOM     45  C   UNL A   1      43.993  26.301  27.569  1.00  0.00     0.010 A 
ATOM     46  C   UNL A   1      43.573  26.575  25.205  1.00  0.00     0.010 A 
ATOM     47  C   UNL A   1      44.263  26.965  26.363  1.00  0.00    -0.014 A 
BRANCH  47  48
ATOM     48  C   UNL A   1      45.284  28.040  26.258  1.00  0.00     0.031 A 
ATOM     49  C   UNL A   1      46.742  27.687  26.142  1.00  0.00     0.074 A 
ATOM     50  C   UNL A   1      44.910  29.329  26.402  1.00  0.00     0.049 A 
ATOM     51  N   UNL A   1      47.789  28.465  26.243  1.00  0.00    -0.248 NA
ATOM     52  C   UNL A   1      47.068  26.268  25.923  1.00  0.00     0.031 C 
ATOM     53  C   UNL A   1      43.535  29.800  26.581  1.00  0.00     0.029 A 
ATOM     54  N   UNL A   1      45.659  30.479  26.451  1.00  0.00    -0.354 N 
ATOM     55  C   UNL A   1      48.892  27.627  26.138  1.00  0.00     0.074 A 
ATOM     56  C   UNL A   1      48.391  26.278  26.000  1.00  0.00     0.031 C 
ATOM     57  C   UNL A   1      43.537  31.137  26.706  1.00  0.00     0.029 A 
ATOM     58  C   UNL A   1      44.914  31.614  26.671  1.00  0.00     0.049 A 
ATOM     59  H   UNL A   1      46.638  30.490  26.339  1.00  0.00     0.167 HD
ATOM     60  C   UNL A   1      50.203  27.960  26.136  1.00  0.00     0.037 A 
ATOM     61  C   UNL A   1      45.296  32.894  26.851  1.00  0.00     0.037 A 
ATOM     62  C   UNL A   1      50.694  29.309  26.201  1.00  0.00     0.049 A 
ATOM     63  C   UNL A   1      46.759  33.237  26.824  1.00  0.00     0.074 A 
ATOM     64  C   UNL A   1      52.001  29.751  26.092  1.00  0.00     0.029 A 
ATOM     65  N   UNL A   1      49.902  30.431  26.383  1.00  0.00    -0.354 N 
ATOM     66  N   UNL A   1      47.785  32.440  26.657  1.00  0.00    -0.248 NA
ATOM     67  C   UNL A   1      47.119  34.649  27.018  1.00  0.00     0.031 C 
ATOM     68  C   UNL A   1      52.005  31.138  26.247  1.00  0.00     0.029 A 
ATOM     69  C   UNL A   1      50.697  31.564  26.415  1.00  0.00     0.049 A 
ATOM     70  H   UNL A   1      48.922  30.424  26.476  1.00  0.00     0.167 HD
ATOM     71  C   UNL A   1      48.909  33.253  26.711  1.00  0.00     0.074 A 
ATOM     72  C   UNL A   1      48.441  34.608  26.912  1.00  0.00     0.031 C 
ATOM     73  C   UNL A   1      50.213  32.905  26.607  1.00  0.00     0.037 A 
BRANCH  60  74
ATOM     74  C   UNL A   1      51.214  26.859  26.026  1.00  0.00     0.057 A 
ATOM     75  C   UNL A   1      51.822  26.335  27.174  1.00  0.00     0.134 A 
ATOM     76  C   UNL A   1      51.665  26.399  24.784  1.00  0.00     0.134 A 
ATOM     77  F   UNL A   1      51.439  26.741  28.394  1.00  0.00    -0.206 F 
ATOM     78  C   UNL A   1      52.858  25.404  27.088  1.00  0.00     0.040 A 
ATOM     79  C   UNL A   1      52.685  25.452  24.685  1.00  0.00     0.040 A 
ATOM     80  F   UNL A   1      51.116  26.858  23.649  1.00  0.00    -0.206 F 
ATOM     81  C   UNL A   1      53.293  24.962  25.840  1.00  0.00     0.006 A 
ENDBRANCH  60  74
BRANCH  61  82
ATOM     82  C   UNL A   1      44.273  33.946  27.078  1.00  0.00     0.057 A 
ATOM     83  C   UNL A   1      43.691  34.645  26.013  1.00  0.00     0.134 A 
ATOM     84  C   UNL A   1      43.862  34.283  28.373  1.00  0.00     0.134 A 
ATOM     85  F   UNL A   1      44.047  34.374  24.750  1.00  0.00    -0.206 F 
ATOM     86  C   UNL A   1      42.745  35.650  26.229  1.00  0.00     0.040 A 
ATOM     87  C   UNL A   1      42.900  35.269  28.601  1.00  0.00     0.040 A 
ATOM     88  F   UNL A   1      44.369  33.634  29.431  1.00  0.00    -0.206 F 
ATOM     89  C   UNL A   1      42.344  35.961  27.526  1.00  0.00     0.006 A 
ENDBRANCH  61  82
BRANCH  73  90
ATOM     90  C   UNL A   1      51.238  33.992  26.696  1.00  0.00     0.057 A 
ATOM     91  C   UNL A   1      51.697  34.638  25.541  1.00  0.00     0.134 A 
ATOM     92  C   UNL A   1      51.852  34.316  27.911  1.00  0.00     0.134 A 
ATOM     93  F   UNL A   1      51.155  34.361  24.345  1.00  0.00    -0.206 F 
ATOM     94  C   UNL A   1      52.751  35.549  25.588  1.00  0.00     0.040 A 
ATOM     95  C   UNL A   1      52.894  35.241  27.973  1.00  0.00     0.040 A 
ATOM     96  F   UNL A   1      51.449  33.736  29.051  1.00  0.00    -0.206 F 
ATOM     97  C   UNL A   1      53.355  35.850  26.807  1.00  0.00     0.006 A 
ENDBRANCH  73  90
ENDBRANCH  47  48
ENDBRANCH  39  42
ENDBRANCH  37  38
ENDBRANCH  36  37
ENDBRANCH   1  36
TORSDOF 17
ENDMDL
