MODEL 1
REMARK VINA RESULT:     -10.7      0.000      0.000
REMARK SMILES CCCc1c(C(=O)NCCCNC(=O)c2ccc(-c3c4nc(c(-c5c(F)cccc5F)c5ccc([nH]5)c(-c5c(F)cccc5F)c5nc(c(-c6c(F)cccc6F)c6ccc3[nH]6)C=C5)C=C4)cc2)nnn1[C@@H](C)[C@H](C)O
REMARK SMILES IDX 9 1 8 2 6 3 7 4 5 6 4 7 71 8 69 9 70 10 3 11 2 12 1 13 72 14
REMARK SMILES IDX 73 15 74 16 75 17 76 18 10 20 11 21 12 22 13 23 14 25 15 26
REMARK SMILES IDX 16 27 68 28 17 29 67 30 18 31 19 32 20 33 61 34 21 35 66 36
REMARK SMILES IDX 60 37 62 38 22 39 65 40 59 41 58 42 23 44 49 45 32 46 48 47
REMARK SMILES IDX 33 48 36 49 47 50 63 51 34 52 35 53 46 55 64 56 37 57 24 58
REMARK SMILES IDX 25 59 30 60 26 61 27 62 29 63 31 64 28 65 50 66 51 67 56 68
REMARK SMILES IDX 52 69 53 70 55 71 57 72 54 73 38 74 39 75 44 76 40 77 41 78
REMARK SMILES IDX 43 79 45 80 42 81
REMARK H PARENT 8 5 76 19 12 24 62 43 36 54
REMARK Flexibility Score: inf
ROOT
ATOM      1  C   UNL A   1      35.038  22.815  24.887  1.00  0.00     0.118 C 
ENDROOT
BRANCH   1   2
ATOM      2  N   UNL A   1      34.020  22.403  23.937  1.00  0.00    -0.351 N 
ATOM      3  C   UNL A   1      33.289  23.074  22.984  1.00  0.00     0.273 C 
ATOM      4  O   UNL A   1      32.694  22.344  22.186  1.00  0.00    -0.267 OA
ATOM      5  H   UNL A   1      33.811  21.441  23.982  1.00  0.00     0.163 HD
BRANCH   3   6
ATOM      6  C   UNL A   1      33.201  24.536  22.873  1.00  0.00     0.173 A 
ATOM      7  C   UNL A   1      32.540  25.536  23.594  1.00  0.00     0.072 A 
ATOM      8  N   UNL A   1      32.867  26.694  22.914  1.00  0.00    -0.243 N 
ATOM      9  N   UNL A   1      33.748  25.123  21.747  1.00  0.00    -0.125 NA
ATOM     10  N   UNL A   1      33.506  26.418  21.768  1.00  0.00    -0.066 NA
BRANCH   7  11
ATOM     11  C   UNL A   1      31.642  25.536  24.778  1.00  0.00     0.058 C 
BRANCH  11  12
ATOM     12  C   UNL A   1      32.308  25.840  26.129  1.00  0.00     0.003 C 
ATOM     13  C   UNL A   1      32.062  27.205  26.757  1.00  0.00     0.004 C 
ENDBRANCH  11  12
ENDBRANCH   7  11
BRANCH   8  14
ATOM     14  C   UNL A   1      32.630  28.090  23.265  1.00  0.00     0.135 C 
ATOM     15  C   UNL A   1      33.863  28.951  22.961  1.00  0.00     0.036 C 
BRANCH  14  16
ATOM     16  C   UNL A   1      31.359  28.680  22.612  1.00  0.00     0.135 C 
ATOM     17  C   UNL A   1      30.319  29.170  23.609  1.00  0.00     0.040 C 
BRANCH  16  18
ATOM     18  O   UNL A   1      30.734  27.779  21.701  1.00  0.00    -0.391 OA
ATOM     19  H   UNL A   1      31.075  27.935  20.807  1.00  0.00     0.211 HD
ENDBRANCH  16  18
ENDBRANCH  14  16
ENDBRANCH   8  14
ENDBRANCH   3   6
ENDBRANCH   1   2
BRANCH   1  20
ATOM     20  C   UNL A   1      36.399  22.157  24.627  1.00  0.00     0.042 C 
BRANCH  20  21
ATOM     21  C   UNL A   1      37.546  22.804  25.359  1.00  0.00     0.118 C 
BRANCH  21  22
ATOM     22  N   UNL A   1      38.431  21.833  25.987  1.00  0.00    -0.352 N 
ATOM     23  C   UNL A   1      39.618  22.094  26.641  1.00  0.00     0.251 C 
ATOM     24  H   UNL A   1      38.155  20.889  25.941  1.00  0.00     0.163 HD
ATOM     25  O   UNL A   1      40.469  21.211  26.767  1.00  0.00    -0.269 OA
BRANCH  23  26
ATOM     26  C   UNL A   1      39.846  23.436  27.204  1.00  0.00     0.039 A 
ATOM     27  C   UNL A   1      38.890  24.454  27.130  1.00  0.00     0.014 A 
ATOM     28  C   UNL A   1      41.080  23.683  27.797  1.00  0.00     0.014 A 
ATOM     29  C   UNL A   1      39.206  25.706  27.655  1.00  0.00     0.010 A 
ATOM     30  C   UNL A   1      41.282  24.806  28.532  1.00  0.00     0.010 A 
ATOM     31  C   UNL A   1      40.419  25.867  28.335  1.00  0.00    -0.014 A 
BRANCH  31  32
ATOM     32  C   UNL A   1      40.834  27.116  28.943  1.00  0.00     0.031 A 
ATOM     33  C   UNL A   1      42.018  27.716  28.293  1.00  0.00     0.074 A 
ATOM     34  C   UNL A   1      40.025  27.768  29.811  1.00  0.00     0.049 A 
ATOM     35  N   UNL A   1      43.186  27.874  28.813  1.00  0.00    -0.248 NA
ATOM     36  C   UNL A   1      41.964  27.995  26.848  1.00  0.00     0.031 C 
ATOM     37  C   UNL A   1      38.689  27.372  30.286  1.00  0.00     0.029 A 
ATOM     38  N   UNL A   1      40.168  29.007  30.352  1.00  0.00    -0.354 N 
ATOM     39  C   UNL A   1      43.943  28.511  27.837  1.00  0.00     0.074 A 
ATOM     40  C   UNL A   1      43.230  28.339  26.600  1.00  0.00     0.031 C 
ATOM     41  C   UNL A   1      38.063  28.438  30.831  1.00  0.00     0.029 A 
ATOM     42  C   UNL A   1      38.995  29.544  30.886  1.00  0.00     0.049 A 
ATOM     43  H   UNL A   1      41.028  29.486  30.366  1.00  0.00     0.167 HD
ATOM     44  C   UNL A   1      44.932  29.375  28.190  1.00  0.00     0.037 A 
ATOM     45  C   UNL A   1      38.818  30.829  31.294  1.00  0.00     0.037 A 
ATOM     46  C   UNL A   1      45.265  29.228  29.588  1.00  0.00     0.049 A 
ATOM     47  C   UNL A   1      40.175  31.394  31.521  1.00  0.00     0.074 A 
ATOM     48  C   UNL A   1      45.694  28.174  30.372  1.00  0.00     0.029 A 
ATOM     49  N   UNL A   1      44.762  30.166  30.460  1.00  0.00    -0.354 N 
ATOM     50  N   UNL A   1      40.965  30.995  32.482  1.00  0.00    -0.248 NA
ATOM     51  C   UNL A   1      40.842  32.018  30.386  1.00  0.00     0.031 C 
ATOM     52  C   UNL A   1      44.987  28.318  31.602  1.00  0.00     0.029 A 
ATOM     53  C   UNL A   1      44.245  29.498  31.540  1.00  0.00     0.049 A 
ATOM     54  H   UNL A   1      44.771  31.142  30.331  1.00  0.00     0.167 HD
ATOM     55  C   UNL A   1      42.217  30.898  31.890  1.00  0.00     0.074 A 
ATOM     56  C   UNL A   1      42.095  31.614  30.620  1.00  0.00     0.031 C 
ATOM     57  C   UNL A   1      43.132  29.982  32.326  1.00  0.00     0.037 A 
BRANCH  44  58
ATOM     58  C   UNL A   1      45.301  30.611  27.409  1.00  0.00     0.057 A 
ATOM     59  C   UNL A   1      46.650  30.813  27.068  1.00  0.00     0.134 A 
ATOM     60  C   UNL A   1      44.466  31.735  27.240  1.00  0.00     0.134 A 
ATOM     61  F   UNL A   1      47.546  29.822  27.189  1.00  0.00    -0.206 F 
ATOM     62  C   UNL A   1      47.146  32.063  26.679  1.00  0.00     0.040 A 
ATOM     63  C   UNL A   1      44.941  32.972  26.801  1.00  0.00     0.040 A 
ATOM     64  F   UNL A   1      43.174  31.737  27.585  1.00  0.00    -0.206 F 
ATOM     65  C   UNL A   1      46.292  33.150  26.555  1.00  0.00     0.006 A 
ENDBRANCH  44  58
BRANCH  45  66
ATOM     66  C   UNL A   1      37.599  31.673  31.224  1.00  0.00     0.057 A 
ATOM     67  C   UNL A   1      37.131  32.175  29.999  1.00  0.00     0.134 A 
ATOM     68  C   UNL A   1      36.708  31.787  32.307  1.00  0.00     0.134 A 
ATOM     69  F   UNL A   1      37.886  32.087  28.894  1.00  0.00    -0.206 F 
ATOM     70  C   UNL A   1      35.847  32.724  29.853  1.00  0.00     0.040 A 
ATOM     71  C   UNL A   1      35.428  32.339  32.178  1.00  0.00     0.040 A 
ATOM     72  F   UNL A   1      37.011  31.287  33.513  1.00  0.00    -0.206 F 
ATOM     73  C   UNL A   1      34.986  32.795  30.943  1.00  0.00     0.006 A 
ENDBRANCH  45  66
BRANCH  57  74
ATOM     74  C   UNL A   1      42.844  29.243  33.608  1.00  0.00     0.057 A 
ATOM     75  C   UNL A   1      42.153  28.024  33.681  1.00  0.00     0.134 A 
ATOM     76  C   UNL A   1      43.440  29.697  34.789  1.00  0.00     0.134 A 
ATOM     77  F   UNL A   1      41.637  27.451  32.588  1.00  0.00    -0.206 F 
ATOM     78  C   UNL A   1      42.025  27.313  34.878  1.00  0.00     0.040 A 
ATOM     79  C   UNL A   1      43.350  28.980  35.984  1.00  0.00     0.040 A 
ATOM     80  F   UNL A   1      44.170  30.823  34.786  1.00  0.00    -0.206 F 
ATOM     81  C   UNL A   1      42.632  27.788  36.035  1.00  0.00     0.006 A 
ENDBRANCH  57  74
ENDBRANCH  31  32
ENDBRANCH  23  26
ENDBRANCH  21  22
ENDBRANCH  20  21
ENDBRANCH   1  20
TORSDOF 15
ENDMDL
MODEL 2
REMARK VINA RESULT:     -10.7      2.681      7.670
REMARK SMILES CCCc1c(C(=O)NCCCNC(=O)c2ccc(-c3c4nc(c(-c5c(F)cccc5F)c5ccc([nH]5)c(-c5c(F)cccc5F)c5nc(c(-c6c(F)cccc6F)c6ccc3[nH]6)C=C5)C=C4)cc2)nnn1[C@@H](C)[C@H](C)O
REMARK SMILES IDX 9 1 8 2 6 3 7 4 5 6 4 7 71 8 69 9 70 10 3 11 2 12 1 13 72 14
REMARK SMILES IDX 73 15 74 16 75 17 76 18 10 20 11 21 12 22 13 23 14 25 15 26
REMARK SMILES IDX 16 27 68 28 17 29 67 30 18 31 19 32 20 33 61 34 21 35 66 36
REMARK SMILES IDX 60 37 62 38 22 39 65 40 59 41 58 42 23 44 49 45 32 46 48 47
REMARK SMILES IDX 33 48 36 49 47 50 63 51 34 52 35 53 46 55 64 56 37 57 24 58
REMARK SMILES IDX 25 59 30 60 26 61 27 62 29 63 31 64 28 65 50 66 51 67 56 68
REMARK SMILES IDX 52 69 53 70 55 71 57 72 54 73 38 74 39 75 44 76 40 77 41 78
REMARK SMILES IDX 43 79 45 80 42 81
REMARK H PARENT 8 5 76 19 12 24 62 43 36 54
REMARK Flexibility Score: inf
ROOT
ATOM      1  C   UNL A   1      32.625  27.790  25.787  1.00  0.00     0.118 C 
ENDROOT
BRANCH   1   2
ATOM      2  N   UNL A   1      31.326  27.241  25.442  1.00  0.00    -0.351 N 
ATOM      3  C   UNL A   1      30.755  25.998  25.591  1.00  0.00     0.273 C 
ATOM      4  O   UNL A   1      29.535  25.970  25.407  1.00  0.00    -0.267 OA
ATOM      5  H   UNL A   1      30.728  27.895  25.013  1.00  0.00     0.163 HD
BRANCH   3   6
ATOM      6  C   UNL A   1      31.488  24.778  25.953  1.00  0.00     0.173 A 
ATOM      7  C   UNL A   1      32.361  23.921  25.274  1.00  0.00     0.072 A 
ATOM      8  N   UNL A   1      32.648  22.946  26.209  1.00  0.00    -0.243 N 
ATOM      9  N   UNL A   1      31.195  24.198  27.173  1.00  0.00    -0.125 NA
ATOM     10  N   UNL A   1      31.875  23.075  27.296  1.00  0.00    -0.066 NA
BRANCH   7  11
ATOM     11  C   UNL A   1      32.910  23.886  23.893  1.00  0.00     0.058 C 
BRANCH  11  12
ATOM     12  C   UNL A   1      34.358  24.374  23.732  1.00  0.00     0.003 C 
ATOM     13  C   UNL A   1      35.432  23.338  23.427  1.00  0.00     0.004 C 
ENDBRANCH  11  12
ENDBRANCH   7  11
BRANCH   8  14
ATOM     14  C   UNL A   1      33.629  21.867  26.172  1.00  0.00     0.135 C 
ATOM     15  C   UNL A   1      34.418  21.795  27.485  1.00  0.00     0.036 C 
BRANCH  14  16
ATOM     16  C   UNL A   1      33.018  20.494  25.809  1.00  0.00     0.135 C 
ATOM     17  C   UNL A   1      33.831  19.700  24.797  1.00  0.00     0.040 C 
BRANCH  16  18
ATOM     18  O   UNL A   1      31.674  20.589  25.345  1.00  0.00    -0.391 OA
ATOM     19  H   UNL A   1      31.080  20.163  25.982  1.00  0.00     0.211 HD
ENDBRANCH  16  18
ENDBRANCH  14  16
ENDBRANCH   8  14
ENDBRANCH   3   6
ENDBRANCH   1   2
BRANCH   1  20
ATOM     20  C   UNL A   1      32.682  28.332  27.222  1.00  0.00     0.042 C 
BRANCH  20  21
ATOM     21  C   UNL A   1      33.981  29.009  27.574  1.00  0.00     0.118 C 
BRANCH  21  22
ATOM     22  N   UNL A   1      33.993  30.421  27.218  1.00  0.00    -0.352 N 
ATOM     23  C   UNL A   1      34.907  31.371  27.626  1.00  0.00     0.251 C 
ATOM     24  H   UNL A   1      33.272  30.733  26.623  1.00  0.00     0.163 HD
ATOM     25  O   UNL A   1      34.610  32.568  27.616  1.00  0.00    -0.269 OA
BRANCH  23  26
ATOM     26  C   UNL A   1      36.248  30.938  28.055  1.00  0.00     0.039 A 
ATOM     27  C   UNL A   1      37.044  31.702  28.914  1.00  0.00     0.014 A 
ATOM     28  C   UNL A   1      36.728  29.736  27.547  1.00  0.00     0.014 A 
ATOM     29  C   UNL A   1      38.317  31.235  29.237  1.00  0.00     0.010 A 
ATOM     30  C   UNL A   1      37.845  29.162  28.065  1.00  0.00     0.010 A 
ATOM     31  C   UNL A   1      38.706  29.968  28.784  1.00  0.00    -0.014 A 
BRANCH  31  32
ATOM     32  C   UNL A   1      39.995  29.375  29.085  1.00  0.00     0.031 A 
ATOM     33  C   UNL A   1      40.194  29.115  30.526  1.00  0.00     0.074 A 
ATOM     34  C   UNL A   1      40.771  28.865  28.100  1.00  0.00     0.049 A 
ATOM     35  N   UNL A   1      41.050  29.685  31.301  1.00  0.00    -0.248 NA
ATOM     36  C   UNL A   1      39.214  28.273  31.233  1.00  0.00     0.031 C 
ATOM     37  C   UNL A   1      40.501  28.825  26.654  1.00  0.00     0.029 A 
ATOM     38  N   UNL A   1      41.917  28.140  28.200  1.00  0.00    -0.354 N 
ATOM     39  C   UNL A   1      40.884  29.084  32.543  1.00  0.00     0.074 A 
ATOM     40  C   UNL A   1      39.609  28.420  32.500  1.00  0.00     0.031 C 
ATOM     41  C   UNL A   1      41.312  27.922  26.062  1.00  0.00     0.029 A 
ATOM     42  C   UNL A   1      42.257  27.434  27.044  1.00  0.00     0.049 A 
ATOM     43  H   UNL A   1      42.462  28.115  29.019  1.00  0.00     0.167 HD
ATOM     44  C   UNL A   1      41.944  28.938  33.383  1.00  0.00     0.037 A 
ATOM     45  C   UNL A   1      43.225  26.485  26.943  1.00  0.00     0.037 A 
ATOM     46  C   UNL A   1      43.049  29.768  32.962  1.00  0.00     0.049 A 
ATOM     47  C   UNL A   1      44.138  26.684  28.101  1.00  0.00     0.074 A 
ATOM     48  C   UNL A   1      43.209  31.124  32.745  1.00  0.00     0.029 A 
ATOM     49  N   UNL A   1      44.081  29.155  32.292  1.00  0.00    -0.354 N 
ATOM     50  N   UNL A   1      44.909  27.730  28.232  1.00  0.00    -0.248 NA
ATOM     51  C   UNL A   1      43.814  25.990  29.339  1.00  0.00     0.031 C 
ATOM     52  C   UNL A   1      44.017  31.216  31.574  1.00  0.00     0.029 A 
ATOM     53  C   UNL A   1      44.387  29.924  31.198  1.00  0.00     0.049 A 
ATOM     54  H   UNL A   1      44.523  28.313  32.550  1.00  0.00     0.167 HD
ATOM     55  C   UNL A   1      44.791  28.087  29.568  1.00  0.00     0.074 A 
ATOM     56  C   UNL A   1      44.165  26.935  30.217  1.00  0.00     0.031 C 
ATOM     57  C   UNL A   1      44.912  29.391  29.961  1.00  0.00     0.037 A 
BRANCH  44  58
ATOM     58  C   UNL A   1      42.137  27.768  34.314  1.00  0.00     0.057 A 
ATOM     59  C   UNL A   1      41.810  27.929  35.673  1.00  0.00     0.134 A 
ATOM     60  C   UNL A   1      42.892  26.616  34.013  1.00  0.00     0.134 A 
ATOM     61  F   UNL A   1      41.099  28.988  36.088  1.00  0.00    -0.206 F 
ATOM     62  C   UNL A   1      42.279  27.061  36.665  1.00  0.00     0.040 A 
ATOM     63  C   UNL A   1      43.319  25.714  34.989  1.00  0.00     0.040 A 
ATOM     64  F   UNL A   1      43.348  26.349  32.785  1.00  0.00    -0.206 F 
ATOM     65  C   UNL A   1      43.045  25.954  36.325  1.00  0.00     0.006 A 
ENDBRANCH  44  58
BRANCH  45  66
ATOM     66  C   UNL A   1      43.253  25.263  26.099  1.00  0.00     0.057 A 
ATOM     67  C   UNL A   1      44.295  25.036  25.186  1.00  0.00     0.134 A 
ATOM     68  C   UNL A   1      42.417  24.162  26.353  1.00  0.00     0.134 A 
ATOM     69  F   UNL A   1      45.172  26.008  24.896  1.00  0.00    -0.206 F 
ATOM     70  C   UNL A   1      44.511  23.783  24.589  1.00  0.00     0.040 A 
ATOM     71  C   UNL A   1      42.616  22.909  25.760  1.00  0.00     0.040 A 
ATOM     72  F   UNL A   1      41.427  24.233  27.254  1.00  0.00    -0.206 F 
ATOM     73  C   UNL A   1      43.677  22.711  24.887  1.00  0.00     0.006 A 
ENDBRANCH  45  66
BRANCH  57  74
ATOM     74  C   UNL A   1      45.405  30.395  28.952  1.00  0.00     0.057 A 
ATOM     75  C   UNL A   1      44.570  31.155  28.118  1.00  0.00     0.134 A 
ATOM     76  C   UNL A   1      46.763  30.728  28.950  1.00  0.00     0.134 A 
ATOM     77  F   UNL A   1      43.243  30.988  28.125  1.00  0.00    -0.206 F 
ATOM     78  C   UNL A   1      45.068  32.168  27.292  1.00  0.00     0.040 A 
ATOM     79  C   UNL A   1      47.270  31.760  28.156  1.00  0.00     0.040 A 
ATOM     80  F   UNL A   1      47.616  30.088  29.766  1.00  0.00    -0.206 F 
ATOM     81  C   UNL A   1      46.423  32.477  27.315  1.00  0.00     0.006 A 
ENDBRANCH  57  74
ENDBRANCH  31  32
ENDBRANCH  23  26
ENDBRANCH  21  22
ENDBRANCH  20  21
ENDBRANCH   1  20
TORSDOF 15
ENDMDL
MODEL 3
REMARK VINA RESULT:     -10.7      2.694      7.496
REMARK SMILES CCCc1c(C(=O)NCCCNC(=O)c2ccc(-c3c4nc(c(-c5c(F)cccc5F)c5ccc([nH]5)c(-c5c(F)cccc5F)c5nc(c(-c6c(F)cccc6F)c6ccc3[nH]6)C=C5)C=C4)cc2)nnn1[C@@H](C)[C@H](C)O
REMARK SMILES IDX 9 1 8 2 6 3 7 4 5 6 4 7 71 8 69 9 70 10 3 11 2 12 1 13 72 14
REMARK SMILES IDX 73 15 74 16 75 17 76 18 10 20 11 21 12 22 13 23 14 25 15 26
REMARK SMILES IDX 16 27 68 28 17 29 67 30 18 31 19 32 20 33 61 34 21 35 66 36
REMARK SMILES IDX 60 37 62 38 22 39 65 40 59 41 58 42 23 44 49 45 32 46 48 47
REMARK SMILES IDX 33 48 36 49 47 50 63 51 34 52 35 53 46 55 64 56 37 57 24 58
REMARK SMILES IDX 25 59 30 60 26 61 27 62 29 63 31 64 28 65 50 66 51 67 56 68
REMARK SMILES IDX 52 69 53 70 55 71 57 72 54 73 38 74 39 75 44 76 40 77 41 78
REMARK SMILES IDX 43 79 45 80 42 81
REMARK H PARENT 8 5 76 19 12 24 62 43 36 54
REMARK Flexibility Score: inf
ROOT
ATOM      1  C   UNL A   1      32.958  30.743  27.026  1.00  0.00     0.118 C 
ENDROOT
BRANCH   1   2
ATOM      2  N   UNL A   1      32.104  29.689  27.543  1.00  0.00    -0.351 N 
ATOM      3  C   UNL A   1      31.865  28.390  27.155  1.00  0.00     0.273 C 
ATOM      4  O   UNL A   1      31.261  27.710  27.990  1.00  0.00    -0.267 OA
ATOM      5  H   UNL A   1      31.589  29.958  28.338  1.00  0.00     0.163 HD
BRANCH   3   6
ATOM      6  C   UNL A   1      32.283  27.809  25.873  1.00  0.00     0.173 A 
ATOM      7  C   UNL A   1      31.653  27.589  24.644  1.00  0.00     0.072 A 
ATOM      8  N   UNL A   1      32.627  26.964  23.889  1.00  0.00    -0.243 N 
ATOM      9  N   UNL A   1      33.516  27.184  25.830  1.00  0.00    -0.125 NA
ATOM     10  N   UNL A   1      33.692  26.649  24.638  1.00  0.00    -0.066 NA
BRANCH   7  11
ATOM     11  C   UNL A   1      30.287  27.851  24.120  1.00  0.00     0.058 C 
BRANCH  11  12
ATOM     12  C   UNL A   1      30.019  29.279  23.620  1.00  0.00     0.003 C 
ATOM     13  C   UNL A   1      30.283  29.584  22.152  1.00  0.00     0.004 C 
ENDBRANCH  11  12
ENDBRANCH   7  11
BRANCH   8  14
ATOM     14  C   UNL A   1      32.648  26.634  22.468  1.00  0.00     0.135 C 
ATOM     15  C   UNL A   1      33.766  27.394  21.743  1.00  0.00     0.036 C 
BRANCH  14  16
ATOM     16  C   UNL A   1      32.733  25.115  22.192  1.00  0.00     0.135 C 
ATOM     17  C   UNL A   1      31.760  24.280  23.011  1.00  0.00     0.040 C 
BRANCH  16  18
ATOM     18  O   UNL A   1      34.048  24.592  22.368  1.00  0.00    -0.391 OA
ATOM     19  H   UNL A   1      34.443  24.971  23.168  1.00  0.00     0.211 HD
ENDBRANCH  16  18
ENDBRANCH  14  16
ENDBRANCH   8  14
ENDBRANCH   3   6
ENDBRANCH   1   2
BRANCH   1  20
ATOM     20  C   UNL A   1      34.382  30.690  27.595  1.00  0.00     0.042 C 
BRANCH  20  21
ATOM     21  C   UNL A   1      34.998  32.042  27.842  1.00  0.00     0.118 C 
BRANCH  21  22
ATOM     22  N   UNL A   1      34.760  32.530  29.194  1.00  0.00    -0.352 N 
ATOM     23  C   UNL A   1      35.271  32.009  30.365  1.00  0.00     0.251 C 
ATOM     24  H   UNL A   1      34.170  33.314  29.283  1.00  0.00     0.163 HD
ATOM     25  O   UNL A   1      34.705  32.218  31.441  1.00  0.00    -0.269 OA
BRANCH  23  26
ATOM     26  C   UNL A   1      36.513  31.218  30.316  1.00  0.00     0.039 A 
ATOM     27  C   UNL A   1      36.514  29.821  30.366  1.00  0.00     0.014 A 
ATOM     28  C   UNL A   1      37.716  31.913  30.250  1.00  0.00     0.014 A 
ATOM     29  C   UNL A   1      37.738  29.153  30.354  1.00  0.00     0.010 A 
ATOM     30  C   UNL A   1      38.876  31.264  29.975  1.00  0.00     0.010 A 
ATOM     31  C   UNL A   1      38.911  29.898  30.178  1.00  0.00    -0.014 A 
BRANCH  31  32
ATOM     32  C   UNL A   1      40.232  29.303  30.122  1.00  0.00     0.031 A 
ATOM     33  C   UNL A   1      40.854  29.139  31.452  1.00  0.00     0.074 A 
ATOM     34  C   UNL A   1      40.680  28.711  28.990  1.00  0.00     0.049 A 
ATOM     35  N   UNL A   1      41.902  29.746  31.895  1.00  0.00    -0.248 NA
ATOM     36  C   UNL A   1      40.133  28.367  32.479  1.00  0.00     0.031 C 
ATOM     37  C   UNL A   1      39.990  28.577  27.696  1.00  0.00     0.029 A 
ATOM     38  N   UNL A   1      41.806  27.974  28.794  1.00  0.00    -0.354 N 
ATOM     39  C   UNL A   1      42.116  29.235  33.169  1.00  0.00     0.074 A 
ATOM     40  C   UNL A   1      40.889  28.594  33.556  1.00  0.00     0.031 C 
ATOM     41  C   UNL A   1      40.590  27.620  26.955  1.00  0.00     0.029 A 
ATOM     42  C   UNL A   1      41.787  27.184  27.643  1.00  0.00     0.049 A 
ATOM     43  H   UNL A   1      42.571  27.996  29.413  1.00  0.00     0.167 HD
ATOM     44  C   UNL A   1      43.379  29.128  33.662  1.00  0.00     0.037 A 
ATOM     45  C   UNL A   1      42.683  26.212  27.327  1.00  0.00     0.037 A 
ATOM     46  C   UNL A   1      44.305  29.907  32.873  1.00  0.00     0.049 A 
ATOM     47  C   UNL A   1      43.899  26.474  28.141  1.00  0.00     0.074 A 
ATOM     48  C   UNL A   1      44.389  31.240  32.521  1.00  0.00     0.029 A 
ATOM     49  N   UNL A   1      45.091  29.229  31.970  1.00  0.00    -0.354 N 
ATOM     50  N   UNL A   1      44.672  27.512  27.961  1.00  0.00    -0.248 NA
ATOM     51  C   UNL A   1      43.963  25.873  29.466  1.00  0.00     0.031 C 
ATOM     52  C   UNL A   1      44.809  31.237  31.159  1.00  0.00     0.029 A 
ATOM     53  C   UNL A   1      45.054  29.915  30.783  1.00  0.00     0.049 A 
ATOM     54  H   UNL A   1      45.592  28.399  32.145  1.00  0.00     0.167 HD
ATOM     55  C   UNL A   1      44.958  27.963  29.243  1.00  0.00     0.074 A 
ATOM     56  C   UNL A   1      44.558  26.870  30.130  1.00  0.00     0.031 C 
ATOM     57  C   UNL A   1      45.186  29.288  29.488  1.00  0.00     0.037 A 
BRANCH  44  58
ATOM     58  C   UNL A   1      43.845  28.022  34.575  1.00  0.00     0.057 A 
ATOM     59  C   UNL A   1      44.526  28.367  35.756  1.00  0.00     0.134 A 
ATOM     60  C   UNL A   1      43.924  26.661  34.214  1.00  0.00     0.134 A 
ATOM     61  F   UNL A   1      44.531  29.632  36.202  1.00  0.00    -0.206 F 
ATOM     62  C   UNL A   1      45.302  27.447  36.469  1.00  0.00     0.040 A 
ATOM     63  C   UNL A   1      44.652  25.724  34.950  1.00  0.00     0.040 A 
ATOM     64  F   UNL A   1      43.395  26.178  33.085  1.00  0.00    -0.206 F 
ATOM     65  C   UNL A   1      45.375  26.122  36.061  1.00  0.00     0.006 A 
ENDBRANCH  44  58
BRANCH  45  66
ATOM     66  C   UNL A   1      42.462  24.935  26.602  1.00  0.00     0.057 A 
ATOM     67  C   UNL A   1      43.195  24.619  25.447  1.00  0.00     0.134 A 
ATOM     68  C   UNL A   1      41.729  23.875  27.166  1.00  0.00     0.134 A 
ATOM     69  F   UNL A   1      43.955  25.546  24.847  1.00  0.00    -0.206 F 
ATOM     70  C   UNL A   1      43.224  23.323  24.907  1.00  0.00     0.040 A 
ATOM     71  C   UNL A   1      41.743  22.580  26.634  1.00  0.00     0.040 A 
ATOM     72  F   UNL A   1      41.041  24.033  28.305  1.00  0.00    -0.206 F 
ATOM     73  C   UNL A   1      42.506  22.295  25.510  1.00  0.00     0.006 A 
ENDBRANCH  45  66
BRANCH  57  74
ATOM     74  C   UNL A   1      45.352  30.211  28.308  1.00  0.00     0.057 A 
ATOM     75  C   UNL A   1      44.302  30.914  27.699  1.00  0.00     0.134 A 
ATOM     76  C   UNL A   1      46.647  30.531  27.888  1.00  0.00     0.134 A 
ATOM     77  F   UNL A   1      43.036  30.758  28.102  1.00  0.00    -0.206 F 
ATOM     78  C   UNL A   1      44.525  31.858  26.692  1.00  0.00     0.040 A 
ATOM     79  C   UNL A   1      46.888  31.497  26.908  1.00  0.00     0.040 A 
ATOM     80  F   UNL A   1      47.708  29.947  28.466  1.00  0.00    -0.206 F 
ATOM     81  C   UNL A   1      45.824  32.158  26.298  1.00  0.00     0.006 A 
ENDBRANCH  57  74
ENDBRANCH  31  32
ENDBRANCH  23  26
ENDBRANCH  21  22
ENDBRANCH  20  21
ENDBRANCH   1  20
TORSDOF 15
ENDMDL
