MODEL 1
REMARK VINA RESULT:     -11.3      0.000      0.000
REMARK SMILES CC(C)[C@@H]1CCCN1C(=O)N1CCO[C@H](CC(=O)NCCCNC(=O)c2ccc(-c3c4nc(c(-c5c(F)cccc5F)c5ccc([nH]5)c(-c5c(F)cccc5F)c5nc(c(-c6c(F)cccc6F)c6ccc3[nH]6)C=C5)C=C4)cc2)C1
REMARK SMILES IDX 20 1 19 2 17 3 18 4 16 6 15 7 11 8 12 9 80 10 13 11 14 12
REMARK SMILES IDX 9 13 10 14 8 15 4 16 5 17 6 18 7 19 2 20 1 21 3 22 21 23
REMARK SMILES IDX 22 24 23 25 24 26 25 28 26 29 27 30 79 31 28 32 78 33 29 34
REMARK SMILES IDX 30 35 31 36 72 37 32 38 77 39 71 40 73 41 33 42 76 43 70 44
REMARK SMILES IDX 69 45 34 47 60 48 43 49 59 50 44 51 47 52 58 53 74 54 45 55
REMARK SMILES IDX 46 56 57 58 75 59 48 60 35 61 36 62 41 63 37 64 38 65 40 66
REMARK SMILES IDX 42 67 39 68 61 69 62 70 67 71 63 72 64 73 66 74 68 75 65 76
REMARK SMILES IDX 49 77 50 78 55 79 51 80 52 81 54 82 56 83 53 84
REMARK H PARENT 19 5 23 27 73 46 47 57
REMARK Flexibility Score: inf
ROOT
ATOM      1  C   UNL A   1      36.429  20.775  25.166  1.00  0.00     0.117 C 
ENDROOT
BRANCH   1   2
ATOM      2  N   UNL A   1      36.437  22.214  25.303  1.00  0.00    -0.356 N 
ATOM      3  C   UNL A   1      35.565  23.151  24.840  1.00  0.00     0.222 C 
ATOM      4  O   UNL A   1      35.792  24.327  25.140  1.00  0.00    -0.275 OA
ATOM      5  H   UNL A   1      37.198  22.575  25.815  1.00  0.00     0.163 HD
BRANCH   3   6
ATOM      6  C   UNL A   1      34.283  22.784  24.123  1.00  0.00     0.133 C 
BRANCH   6   7
ATOM      7  C   UNL A   1      33.071  22.220  24.879  1.00  0.00     0.147 C 
ATOM      8  N   UNL A   1      31.761  24.005  26.112  1.00  0.00    -0.320 N 
ATOM      9  C   UNL A   1      31.706  23.090  27.251  1.00  0.00     0.150 C 
ATOM     10  C   UNL A   1      31.880  23.218  24.888  1.00  0.00     0.154 C 
ATOM     11  C   UNL A   1      32.923  22.183  27.326  1.00  0.00     0.182 C 
ATOM     12  O   UNL A   1      33.341  21.557  26.116  1.00  0.00    -0.374 OA
BRANCH   8  13
ATOM     13  C   UNL A   1      30.718  24.915  26.129  1.00  0.00     0.320 C 
ATOM     14  O   UNL A   1      29.709  24.651  26.791  1.00  0.00    -0.248 OA
BRANCH  13  15
ATOM     15  N   UNL A   1      30.848  26.124  25.481  1.00  0.00    -0.321 N 
ATOM     16  C   UNL A   1      31.885  27.168  25.371  1.00  0.00     0.089 C 
ATOM     17  C   UNL A   1      31.133  28.319  24.675  1.00  0.00     0.027 C 
ATOM     18  C   UNL A   1      30.290  27.586  23.663  1.00  0.00     0.024 C 
ATOM     19  C   UNL A   1      29.841  26.362  24.440  1.00  0.00     0.122 C 
BRANCH  16  20
ATOM     20  C   UNL A   1      32.663  27.787  26.542  1.00  0.00     0.005 C 
ATOM     21  C   UNL A   1      33.677  28.864  26.189  1.00  0.00     0.009 C 
ATOM     22  C   UNL A   1      31.682  28.204  27.619  1.00  0.00     0.009 C 
ENDBRANCH  16  20
ENDBRANCH  13  15
ENDBRANCH   8  13
ENDBRANCH   6   7
ENDBRANCH   3   6
ENDBRANCH   1   2
BRANCH   1  23
ATOM     23  C   UNL A   1      37.782  20.221  24.743  1.00  0.00     0.042 C 
BRANCH  23  24
ATOM     24  C   UNL A   1      38.879  20.513  25.752  1.00  0.00     0.118 C 
BRANCH  24  25
ATOM     25  N   UNL A   1      39.897  19.461  25.816  1.00  0.00    -0.352 N 
ATOM     26  C   UNL A   1      41.240  19.537  26.123  1.00  0.00     0.251 C 
ATOM     27  H   UNL A   1      39.571  18.556  25.605  1.00  0.00     0.163 HD
ATOM     28  O   UNL A   1      41.961  18.553  25.973  1.00  0.00    -0.269 OA
BRANCH  26  29
ATOM     29  C   UNL A   1      41.819  20.813  26.597  1.00  0.00     0.039 A 
ATOM     30  C   UNL A   1      42.328  21.735  25.679  1.00  0.00     0.014 A 
ATOM     31  C   UNL A   1      41.803  21.126  27.954  1.00  0.00     0.014 A 
ATOM     32  C   UNL A   1      42.708  23.008  26.118  1.00  0.00     0.010 A 
ATOM     33  C   UNL A   1      42.026  22.432  28.360  1.00  0.00     0.010 A 
ATOM     34  C   UNL A   1      42.497  23.390  27.453  1.00  0.00    -0.014 A 
BRANCH  34  35
ATOM     35  C   UNL A   1      42.772  24.768  27.942  1.00  0.00     0.031 A 
ATOM     36  C   UNL A   1      44.186  25.175  28.279  1.00  0.00     0.074 A 
ATOM     37  C   UNL A   1      41.751  25.614  28.187  1.00  0.00     0.049 A 
ATOM     38  N   UNL A   1      44.621  26.273  28.843  1.00  0.00    -0.248 NA
ATOM     39  C   UNL A   1      45.247  24.190  28.003  1.00  0.00     0.031 C 
ATOM     40  C   UNL A   1      40.329  25.312  28.000  1.00  0.00     0.029 A 
ATOM     41  N   UNL A   1      41.751  26.902  28.661  1.00  0.00    -0.354 N 
ATOM     42  C   UNL A   1      45.986  26.086  29.028  1.00  0.00     0.074 A 
ATOM     43  C   UNL A   1      46.296  24.746  28.587  1.00  0.00     0.031 C 
ATOM     44  C   UNL A   1      39.601  26.397  28.312  1.00  0.00     0.029 A 
ATOM     45  C   UNL A   1      40.497  27.457  28.760  1.00  0.00     0.049 A 
ATOM     46  H   UNL A   1      42.573  27.385  28.907  1.00  0.00     0.167 HD
ATOM     47  C   UNL A   1      46.909  26.964  29.484  1.00  0.00     0.037 A 
ATOM     48  C   UNL A   1      40.116  28.683  29.163  1.00  0.00     0.037 A 
ATOM     49  C   UNL A   1      46.610  28.325  29.841  1.00  0.00     0.049 A 
ATOM     50  C   UNL A   1      41.169  29.670  29.586  1.00  0.00     0.074 A 
ATOM     51  C   UNL A   1      47.483  29.331  30.211  1.00  0.00     0.029 A 
ATOM     52  N   UNL A   1      45.335  28.871  29.853  1.00  0.00    -0.354 N 
ATOM     53  N   UNL A   1      42.467  29.506  29.672  1.00  0.00    -0.248 NA
ATOM     54  C   UNL A   1      40.705  31.014  29.958  1.00  0.00     0.031 C 
ATOM     55  C   UNL A   1      46.732  30.480  30.480  1.00  0.00     0.029 A 
ATOM     56  C   UNL A   1      45.397  30.199  30.237  1.00  0.00     0.049 A 
ATOM     57  H   UNL A   1      44.511  28.385  29.624  1.00  0.00     0.167 HD
ATOM     58  C   UNL A   1      42.978  30.730  30.085  1.00  0.00     0.074 A 
ATOM     59  C   UNL A   1      41.851  31.632  30.209  1.00  0.00     0.031 C 
ATOM     60  C   UNL A   1      44.262  31.078  30.344  1.00  0.00     0.037 A 
BRANCH  47  61
ATOM     61  C   UNL A   1      48.330  26.489  29.590  1.00  0.00     0.057 A 
ATOM     62  C   UNL A   1      48.824  25.884  30.754  1.00  0.00     0.134 A 
ATOM     63  C   UNL A   1      49.209  26.613  28.507  1.00  0.00     0.134 A 
ATOM     64  F   UNL A   1      48.040  25.748  31.835  1.00  0.00    -0.206 F 
ATOM     65  C   UNL A   1      50.148  25.452  30.850  1.00  0.00     0.040 A 
ATOM     66  C   UNL A   1      50.527  26.156  28.579  1.00  0.00     0.040 A 
ATOM     67  F   UNL A   1      48.803  27.177  27.360  1.00  0.00    -0.206 F 
ATOM     68  C   UNL A   1      51.001  25.581  29.756  1.00  0.00     0.006 A 
ENDBRANCH  47  61
BRANCH  48  69
ATOM     69  C   UNL A   1      38.680  29.065  29.147  1.00  0.00     0.057 A 
ATOM     70  C   UNL A   1      38.079  29.561  27.983  1.00  0.00     0.134 A 
ATOM     71  C   UNL A   1      37.877  28.957  30.288  1.00  0.00     0.134 A 
ATOM     72  F   UNL A   1      38.800  29.704  26.861  1.00  0.00    -0.206 F 
ATOM     73  C   UNL A   1      36.742  29.961  27.961  1.00  0.00     0.040 A 
ATOM     74  C   UNL A   1      36.530  29.329  30.274  1.00  0.00     0.040 A 
ATOM     75  F   UNL A   1      38.387  28.479  31.432  1.00  0.00    -0.206 F 
ATOM     76  C   UNL A   1      35.962  29.841  29.109  1.00  0.00     0.006 A 
ENDBRANCH  48  69
BRANCH  60  77
ATOM     77  C   UNL A   1      44.514  32.496  30.759  1.00  0.00     0.057 A 
ATOM     78  C   UNL A   1      44.745  33.508  29.820  1.00  0.00     0.134 A 
ATOM     79  C   UNL A   1      44.491  32.856  32.112  1.00  0.00     0.134 A 
ATOM     80  F   UNL A   1      44.791  33.223  28.510  1.00  0.00    -0.206 F 
ATOM     81  C   UNL A   1      44.972  34.828  30.213  1.00  0.00     0.040 A 
ATOM     82  C   UNL A   1      44.689  34.177  32.516  1.00  0.00     0.040 A 
ATOM     83  F   UNL A   1      44.264  31.935  33.060  1.00  0.00    -0.206 F 
ATOM     84  C   UNL A   1      44.937  35.166  31.565  1.00  0.00     0.006 A 
ENDBRANCH  60  77
ENDBRANCH  34  35
ENDBRANCH  26  29
ENDBRANCH  24  25
ENDBRANCH  23  24
ENDBRANCH   1  23
TORSDOF 14
ENDMDL
MODEL 2
REMARK VINA RESULT:     -11.2      0.695      6.319
REMARK SMILES CC(C)[C@@H]1CCCN1C(=O)N1CCO[C@H](CC(=O)NCCCNC(=O)c2ccc(-c3c4nc(c(-c5c(F)cccc5F)c5ccc([nH]5)c(-c5c(F)cccc5F)c5nc(c(-c6c(F)cccc6F)c6ccc3[nH]6)C=C5)C=C4)cc2)C1
REMARK SMILES IDX 20 1 19 2 17 3 18 4 16 6 15 7 11 8 12 9 80 10 13 11 14 12
REMARK SMILES IDX 9 13 10 14 8 15 4 16 5 17 6 18 7 19 2 20 1 21 3 22 21 23
REMARK SMILES IDX 22 24 23 25 24 26 25 28 26 29 27 30 79 31 28 32 78 33 29 34
REMARK SMILES IDX 30 35 31 36 72 37 32 38 77 39 71 40 73 41 33 42 76 43 70 44
REMARK SMILES IDX 69 45 34 47 60 48 43 49 59 50 44 51 47 52 58 53 74 54 45 55
REMARK SMILES IDX 46 56 57 58 75 59 48 60 35 61 36 62 41 63 37 64 38 65 40 66
REMARK SMILES IDX 42 67 39 68 61 69 62 70 67 71 63 72 64 73 66 74 68 75 65 76
REMARK SMILES IDX 49 77 50 78 55 79 51 80 52 81 54 82 56 83 53 84
REMARK H PARENT 19 5 23 27 73 46 47 57
REMARK Flexibility Score: inf
ROOT
ATOM      1  C   UNL A   1      36.063  21.192  25.312  1.00  0.00     0.117 C 
ENDROOT
BRANCH   1   2
ATOM      2  N   UNL A   1      35.842  22.601  25.541  1.00  0.00    -0.356 N 
ATOM      3  C   UNL A   1      35.195  23.529  24.784  1.00  0.00     0.222 C 
ATOM      4  O   UNL A   1      35.118  24.673  25.242  1.00  0.00    -0.275 OA
ATOM      5  H   UNL A   1      36.222  22.947  26.382  1.00  0.00     0.163 HD
BRANCH   3   6
ATOM      6  C   UNL A   1      34.459  23.169  23.511  1.00  0.00     0.133 C 
BRANCH   6   7
ATOM      7  C   UNL A   1      33.022  22.628  23.538  1.00  0.00     0.147 C 
ATOM      8  N   UNL A   1      31.638  23.597  25.427  1.00  0.00    -0.320 N 
ATOM      9  C   UNL A   1      31.149  22.243  25.680  1.00  0.00     0.150 C 
ATOM     10  C   UNL A   1      32.009  23.703  24.018  1.00  0.00     0.154 C 
ATOM     11  C   UNL A   1      32.173  21.179  25.324  1.00  0.00     0.182 C 
ATOM     12  O   UNL A   1      32.842  21.315  24.073  1.00  0.00    -0.374 OA
BRANCH   8  13
ATOM     13  C   UNL A   1      30.753  24.561  25.878  1.00  0.00     0.320 C 
ATOM     14  O   UNL A   1      29.954  24.262  26.772  1.00  0.00    -0.248 OA
BRANCH  13  15
ATOM     15  N   UNL A   1      30.826  25.846  25.389  1.00  0.00    -0.321 N 
ATOM     16  C   UNL A   1      31.837  26.921  25.361  1.00  0.00     0.089 C 
ATOM     17  C   UNL A   1      31.027  28.134  24.865  1.00  0.00     0.027 C 
ATOM     18  C   UNL A   1      30.140  27.519  23.812  1.00  0.00     0.024 C 
ATOM     19  C   UNL A   1      29.757  26.193  24.445  1.00  0.00     0.122 C 
BRANCH  16  20
ATOM     20  C   UNL A   1      32.670  27.401  26.559  1.00  0.00     0.005 C 
ATOM     21  C   UNL A   1      33.954  28.148  26.237  1.00  0.00     0.009 C 
ATOM     22  C   UNL A   1      31.763  28.136  27.526  1.00  0.00     0.009 C 
ENDBRANCH  16  20
ENDBRANCH  13  15
ENDBRANCH   8  13
ENDBRANCH   6   7
ENDBRANCH   3   6
ENDBRANCH   1   2
BRANCH   1  23
ATOM     23  C   UNL A   1      37.428  20.906  24.702  1.00  0.00     0.042 C 
BRANCH  23  24
ATOM     24  C   UNL A   1      38.560  21.035  25.707  1.00  0.00     0.118 C 
BRANCH  24  25
ATOM     25  N   UNL A   1      39.488  19.901  25.676  1.00  0.00    -0.352 N 
ATOM     26  C   UNL A   1      40.833  19.841  25.979  1.00  0.00     0.251 C 
ATOM     27  H   UNL A   1      39.088  19.046  25.395  1.00  0.00     0.163 HD
ATOM     28  O   UNL A   1      41.471  18.818  25.744  1.00  0.00    -0.269 OA
BRANCH  26  29
ATOM     29  C   UNL A   1      41.515  21.022  26.553  1.00  0.00     0.039 A 
ATOM     30  C   UNL A   1      42.041  22.005  25.710  1.00  0.00     0.014 A 
ATOM     31  C   UNL A   1      41.581  21.189  27.933  1.00  0.00     0.014 A 
ATOM     32  C   UNL A   1      42.523  23.199  26.258  1.00  0.00     0.010 A 
ATOM     33  C   UNL A   1      41.907  22.429  28.461  1.00  0.00     0.010 A 
ATOM     34  C   UNL A   1      42.398  23.448  27.635  1.00  0.00    -0.014 A 
BRANCH  34  35
ATOM     35  C   UNL A   1      42.784  24.746  28.249  1.00  0.00     0.031 A 
ATOM     36  C   UNL A   1      41.731  25.797  28.505  1.00  0.00     0.074 A 
ATOM     37  C   UNL A   1      44.084  25.026  28.474  1.00  0.00     0.049 A 
ATOM     38  N   UNL A   1      41.875  27.036  28.903  1.00  0.00    -0.248 NA
ATOM     39  C   UNL A   1      40.335  25.426  28.216  1.00  0.00     0.031 C 
ATOM     40  C   UNL A   1      45.212  24.138  28.179  1.00  0.00     0.029 A 
ATOM     41  N   UNL A   1      44.680  26.148  28.995  1.00  0.00    -0.354 N 
ATOM     42  C   UNL A   1      40.603  27.594  28.864  1.00  0.00     0.074 A 
ATOM     43  C   UNL A   1      39.712  26.588  28.334  1.00  0.00     0.031 C 
ATOM     44  C   UNL A   1      46.354  24.731  28.563  1.00  0.00     0.029 A 
ATOM     45  C   UNL A   1      46.048  26.054  29.093  1.00  0.00     0.049 A 
ATOM     46  H   UNL A   1      44.175  26.947  29.272  1.00  0.00     0.167 HD
ATOM     47  C   UNL A   1      40.200  28.820  29.271  1.00  0.00     0.037 A 
ATOM     48  C   UNL A   1      46.951  26.936  29.562  1.00  0.00     0.037 A 
ATOM     49  C   UNL A   1      41.075  29.788  29.876  1.00  0.00     0.049 A 
ATOM     50  C   UNL A   1      46.470  28.260  30.086  1.00  0.00     0.074 A 
ATOM     51  C   UNL A   1      40.755  31.017  30.423  1.00  0.00     0.029 A 
ATOM     52  N   UNL A   1      42.443  29.623  30.027  1.00  0.00    -0.354 N 
ATOM     53  N   UNL A   1      45.250  28.740  30.123  1.00  0.00    -0.248 NA
ATOM     54  C   UNL A   1      47.488  29.162  30.643  1.00  0.00     0.031 C 
ATOM     55  C   UNL A   1      41.936  31.611  30.877  1.00  0.00     0.029 A 
ATOM     56  C   UNL A   1      42.984  30.734  30.650  1.00  0.00     0.049 A 
ATOM     57  H   UNL A   1      42.953  28.833  29.735  1.00  0.00     0.167 HD
ATOM     58  C   UNL A   1      45.350  29.987  30.726  1.00  0.00     0.074 A 
ATOM     59  C   UNL A   1      46.747  30.178  31.060  1.00  0.00     0.031 C 
ATOM     60  C   UNL A   1      44.376  30.896  30.979  1.00  0.00     0.037 A 
BRANCH  47  61
ATOM     61  C   UNL A   1      38.749  29.168  29.104  1.00  0.00     0.057 A 
ATOM     62  C   UNL A   1      37.844  29.111  30.173  1.00  0.00     0.134 A 
ATOM     63  C   UNL A   1      38.253  29.592  27.864  1.00  0.00     0.134 A 
ATOM     64  F   UNL A   1      38.250  28.699  31.384  1.00  0.00    -0.206 F 
ATOM     65  C   UNL A   1      36.495  29.429  30.010  1.00  0.00     0.040 A 
ATOM     66  C   UNL A   1      36.912  29.942  27.695  1.00  0.00     0.040 A 
ATOM     67  F   UNL A   1      39.062  29.677  26.799  1.00  0.00    -0.206 F 
ATOM     68  C   UNL A   1      36.027  29.854  28.768  1.00  0.00     0.006 A 
ENDBRANCH  47  61
BRANCH  48  69
ATOM     69  C   UNL A   1      48.394  26.584  29.598  1.00  0.00     0.057 A 
ATOM     70  C   UNL A   1      48.934  25.867  30.673  1.00  0.00     0.134 A 
ATOM     71  C   UNL A   1      49.270  26.960  28.574  1.00  0.00     0.134 A 
ATOM     72  F   UNL A   1      48.150  25.491  31.695  1.00  0.00    -0.206 F 
ATOM     73  C   UNL A   1      50.295  25.561  30.742  1.00  0.00     0.040 A 
ATOM     74  C   UNL A   1      50.629  26.639  28.616  1.00  0.00     0.040 A 
ATOM     75  F   UNL A   1      48.815  27.638  27.509  1.00  0.00    -0.206 F 
ATOM     76  C   UNL A   1      51.146  25.945  29.709  1.00  0.00     0.006 A 
ENDBRANCH  48  69
BRANCH  60  77
ATOM     77  C   UNL A   1      44.788  32.161  31.669  1.00  0.00     0.057 A 
ATOM     78  C   UNL A   1      44.809  32.265  33.065  1.00  0.00     0.134 A 
ATOM     79  C   UNL A   1      45.198  33.276  30.928  1.00  0.00     0.134 A 
ATOM     80  F   UNL A   1      44.416  31.235  33.830  1.00  0.00    -0.206 F 
ATOM     81  C   UNL A   1      45.201  33.443  33.701  1.00  0.00     0.040 A 
ATOM     82  C   UNL A   1      45.618  34.451  31.552  1.00  0.00     0.040 A 
ATOM     83  F   UNL A   1      45.210  33.237  29.587  1.00  0.00    -0.206 F 
ATOM     84  C   UNL A   1      45.613  34.538  32.944  1.00  0.00     0.006 A 
ENDBRANCH  60  77
ENDBRANCH  34  35
ENDBRANCH  26  29
ENDBRANCH  24  25
ENDBRANCH  23  24
ENDBRANCH   1  23
TORSDOF 14
ENDMDL
MODEL 3
REMARK VINA RESULT:     -11.2      0.689      1.819
REMARK SMILES CC(C)[C@@H]1CCCN1C(=O)N1CCO[C@H](CC(=O)NCCCNC(=O)c2ccc(-c3c4nc(c(-c5c(F)cccc5F)c5ccc([nH]5)c(-c5c(F)cccc5F)c5nc(c(-c6c(F)cccc6F)c6ccc3[nH]6)C=C5)C=C4)cc2)C1
REMARK SMILES IDX 20 1 19 2 17 3 18 4 16 6 15 7 11 8 12 9 80 10 13 11 14 12
REMARK SMILES IDX 9 13 10 14 8 15 4 16 5 17 6 18 7 19 2 20 1 21 3 22 21 23
REMARK SMILES IDX 22 24 23 25 24 26 25 28 26 29 27 30 79 31 28 32 78 33 29 34
REMARK SMILES IDX 30 35 31 36 72 37 32 38 77 39 71 40 73 41 33 42 76 43 70 44
REMARK SMILES IDX 69 45 34 47 60 48 43 49 59 50 44 51 47 52 58 53 74 54 45 55
REMARK SMILES IDX 46 56 57 58 75 59 48 60 35 61 36 62 41 63 37 64 38 65 40 66
REMARK SMILES IDX 42 67 39 68 61 69 62 70 67 71 63 72 64 73 66 74 68 75 65 76
REMARK SMILES IDX 49 77 50 78 55 79 51 80 52 81 54 82 56 83 53 84
REMARK H PARENT 19 5 23 27 73 46 47 57
REMARK Flexibility Score: inf
ROOT
ATOM      1  C   UNL A   1      36.377  20.661  25.233  1.00  0.00     0.117 C 
ENDROOT
BRANCH   1   2
ATOM      2  N   UNL A   1      36.360  22.063  25.580  1.00  0.00    -0.356 N 
ATOM      3  C   UNL A   1      35.891  23.139  24.890  1.00  0.00     0.222 C 
ATOM      4  O   UNL A   1      35.966  24.239  25.446  1.00  0.00    -0.275 OA
ATOM      5  H   UNL A   1      36.752  22.275  26.459  1.00  0.00     0.163 HD
BRANCH   3   6
ATOM      6  C   UNL A   1      35.163  23.003  23.570  1.00  0.00     0.133 C 
BRANCH   6   7
ATOM      7  C   UNL A   1      33.647  22.764  23.507  1.00  0.00     0.147 C 
ATOM      8  N   UNL A   1      32.407  23.776  25.472  1.00  0.00    -0.320 N 
ATOM      9  C   UNL A   1      31.648  22.529  25.555  1.00  0.00     0.150 C 
ATOM     10  C   UNL A   1      32.848  23.961  24.092  1.00  0.00     0.154 C 
ATOM     11  C   UNL A   1      32.455  21.326  25.096  1.00  0.00     0.182 C 
ATOM     12  O   UNL A   1      33.189  21.463  23.882  1.00  0.00    -0.374 OA
BRANCH   8  13
ATOM     13  C   UNL A   1      31.713  24.842  26.017  1.00  0.00     0.320 C 
ATOM     14  O   UNL A   1      30.850  24.615  26.871  1.00  0.00    -0.248 OA
BRANCH  13  15
ATOM     15  N   UNL A   1      32.043  26.132  25.663  1.00  0.00    -0.321 N 
ATOM     16  C   UNL A   1      31.334  27.296  25.096  1.00  0.00     0.089 C 
ATOM     17  C   UNL A   1      32.487  28.260  24.756  1.00  0.00     0.027 C 
ATOM     18  C   UNL A   1      33.412  28.083  25.933  1.00  0.00     0.024 C 
ATOM     19  C   UNL A   1      33.338  26.587  26.182  1.00  0.00     0.122 C 
BRANCH  16  20
ATOM     20  C   UNL A   1      30.399  27.272  23.878  1.00  0.00     0.005 C 
ATOM     21  C   UNL A   1      29.112  26.476  24.027  1.00  0.00     0.009 C 
ATOM     22  C   UNL A   1      30.184  28.691  23.393  1.00  0.00     0.009 C 
ENDBRANCH  16  20
ENDBRANCH  13  15
ENDBRANCH   8  13
ENDBRANCH   6   7
ENDBRANCH   3   6
ENDBRANCH   1   2
BRANCH   1  23
ATOM     23  C   UNL A   1      37.741  20.198  24.738  1.00  0.00     0.042 C 
BRANCH  23  24
ATOM     24  C   UNL A   1      38.859  20.510  25.717  1.00  0.00     0.118 C 
BRANCH  24  25
ATOM     25  N   UNL A   1      39.887  19.467  25.767  1.00  0.00    -0.352 N 
ATOM     26  C   UNL A   1      41.229  19.551  26.078  1.00  0.00     0.251 C 
ATOM     27  H   UNL A   1      39.570  18.561  25.543  1.00  0.00     0.163 HD
ATOM     28  O   UNL A   1      41.960  18.577  25.914  1.00  0.00    -0.269 OA
BRANCH  26  29
ATOM     29  C   UNL A   1      41.795  20.826  26.572  1.00  0.00     0.039 A 
ATOM     30  C   UNL A   1      42.232  21.796  25.666  1.00  0.00     0.014 A 
ATOM     31  C   UNL A   1      41.837  21.088  27.939  1.00  0.00     0.014 A 
ATOM     32  C   UNL A   1      42.598  23.063  26.135  1.00  0.00     0.010 A 
ATOM     33  C   UNL A   1      42.043  22.385  28.383  1.00  0.00     0.010 A 
ATOM     34  C   UNL A   1      42.441  23.389  27.492  1.00  0.00    -0.014 A 
BRANCH  34  35
ATOM     35  C   UNL A   1      42.701  24.755  28.019  1.00  0.00     0.031 A 
ATOM     36  C   UNL A   1      44.095  25.136  28.458  1.00  0.00     0.074 A 
ATOM     37  C   UNL A   1      41.677  25.613  28.206  1.00  0.00     0.049 A 
ATOM     38  N   UNL A   1      44.505  26.220  29.066  1.00  0.00    -0.248 NA
ATOM     39  C   UNL A   1      45.158  24.140  28.240  1.00  0.00     0.031 C 
ATOM     40  C   UNL A   1      40.268  25.335  27.917  1.00  0.00     0.029 A 
ATOM     41  N   UNL A   1      41.663  26.894  28.698  1.00  0.00    -0.354 N 
ATOM     42  C   UNL A   1      45.851  26.010  29.342  1.00  0.00     0.074 A 
ATOM     43  C   UNL A   1      46.172  24.672  28.904  1.00  0.00     0.031 C 
ATOM     44  C   UNL A   1      39.536  26.427  28.195  1.00  0.00     0.029 A 
ATOM     45  C   UNL A   1      40.414  27.466  28.719  1.00  0.00     0.049 A 
ATOM     46  H   UNL A   1      42.473  27.361  29.008  1.00  0.00     0.167 HD
ATOM     47  C   UNL A   1      46.753  26.868  29.873  1.00  0.00     0.037 A 
ATOM     48  C   UNL A   1      40.023  28.693  29.114  1.00  0.00     0.037 A 
ATOM     49  C   UNL A   1      46.449  28.227  30.229  1.00  0.00     0.049 A 
ATOM     50  C   UNL A   1      41.058  29.657  29.623  1.00  0.00     0.074 A 
ATOM     51  C   UNL A   1      47.309  29.215  30.673  1.00  0.00     0.029 A 
ATOM     52  N   UNL A   1      45.185  28.792  30.163  1.00  0.00    -0.354 N 
ATOM     53  N   UNL A   1      42.345  29.473  29.794  1.00  0.00    -0.248 NA
ATOM     54  C   UNL A   1      40.589  31.003  29.982  1.00  0.00     0.031 C 
ATOM     55  C   UNL A   1      46.557  30.371  30.907  1.00  0.00     0.029 A 
ATOM     56  C   UNL A   1      45.238  30.114  30.569  1.00  0.00     0.049 A 
ATOM     57  H   UNL A   1      44.371  28.322  29.870  1.00  0.00     0.167 HD
ATOM     58  C   UNL A   1      42.843  30.683  30.260  1.00  0.00     0.074 A 
ATOM     59  C   UNL A   1      41.723  31.600  30.321  1.00  0.00     0.031 C 
ATOM     60  C   UNL A   1      44.111  31.008  30.612  1.00  0.00     0.037 A 
BRANCH  47  61
ATOM     61  C   UNL A   1      48.156  26.370  30.069  1.00  0.00     0.057 A 
ATOM     62  C   UNL A   1      49.133  26.489  29.070  1.00  0.00     0.134 A 
ATOM     63  C   UNL A   1      48.546  25.787  31.283  1.00  0.00     0.134 A 
ATOM     64  F   UNL A   1      48.823  27.024  27.879  1.00  0.00    -0.206 F 
ATOM     65  C   UNL A   1      50.433  26.018  29.256  1.00  0.00     0.040 A 
ATOM     66  C   UNL A   1      49.852  25.340  31.492  1.00  0.00     0.040 A 
ATOM     67  F   UNL A   1      47.666  25.646  32.284  1.00  0.00    -0.206 F 
ATOM     68  C   UNL A   1      50.798  25.448  30.474  1.00  0.00     0.006 A 
ENDBRANCH  47  61
BRANCH  48  69
ATOM     69  C   UNL A   1      38.596  29.096  29.005  1.00  0.00     0.057 A 
ATOM     70  C   UNL A   1      38.067  29.554  27.792  1.00  0.00     0.134 A 
ATOM     71  C   UNL A   1      37.732  29.047  30.104  1.00  0.00     0.134 A 
ATOM     72  F   UNL A   1      38.849  29.640  26.705  1.00  0.00    -0.206 F 
ATOM     73  C   UNL A   1      36.741  29.974  27.682  1.00  0.00     0.040 A 
ATOM     74  C   UNL A   1      36.395  29.439  30.003  1.00  0.00     0.040 A 
ATOM     75  F   UNL A   1      38.172  28.607  31.293  1.00  0.00    -0.206 F 
ATOM     76  C   UNL A   1      35.899  29.913  28.790  1.00  0.00     0.006 A 
ENDBRANCH  48  69
BRANCH  60  77
ATOM     77  C   UNL A   1      44.354  32.416  31.064  1.00  0.00     0.057 A 
ATOM     78  C   UNL A   1      44.293  32.776  32.416  1.00  0.00     0.134 A 
ATOM     79  C   UNL A   1      44.686  33.414  30.140  1.00  0.00     0.134 A 
ATOM     80  F   UNL A   1      43.968  31.867  33.349  1.00  0.00    -0.206 F 
ATOM     81  C   UNL A   1      44.528  34.087  32.831  1.00  0.00     0.040 A 
ATOM     82  C   UNL A   1      44.950  34.722  30.545  1.00  0.00     0.040 A 
ATOM     83  F   UNL A   1      44.771  33.131  28.831  1.00  0.00    -0.206 F 
ATOM     84  C   UNL A   1      44.864  35.063  31.894  1.00  0.00     0.006 A 
ENDBRANCH  60  77
ENDBRANCH  34  35
ENDBRANCH  26  29
ENDBRANCH  24  25
ENDBRANCH  23  24
ENDBRANCH   1  23
TORSDOF 14
ENDMDL
