MODEL 1
REMARK VINA RESULT:     -12.4      0.000      0.000
REMARK SMILES CC(C)[N@@H+](C)Cc1cc2c(cc1Cl)C=C(C(=O)NCCCNC(=O)c1ccc(-c3c4nc(c(-c5c(F)cccc5F)c5ccc([nH]5)c(-c5c(F)cccc5F)c5nc(c(-c6c(F)cccc6F)c6ccc3[nH]6)C=C5)C=C4)cc1)[C@@H](C(F)(F)F)O2
REMARK SMILES IDX 19 1 18 2 16 3 17 4 15 6 7 7 8 8 12 9 9 10 11 11 13 12 10 13
REMARK SMILES IDX 84 14 14 15 79 16 6 17 4 18 5 19 2 21 1 22 3 23 80 24 81 25
REMARK SMILES IDX 82 26 83 27 20 28 21 29 22 30 23 31 24 33 25 34 26 35 78 36
REMARK SMILES IDX 27 37 77 38 28 39 29 40 30 41 71 42 31 43 76 44 70 45 72 46
REMARK SMILES IDX 32 47 75 48 69 49 68 50 33 52 59 53 42 54 58 55 43 56 46 57
REMARK SMILES IDX 57 58 73 59 44 60 45 61 56 63 74 64 47 65 34 66 35 67 40 68
REMARK SMILES IDX 36 69 37 70 39 71 41 72 38 73 60 74 61 75 66 76 62 77 63 78
REMARK SMILES IDX 65 79 67 80 64 81 48 82 49 83 54 84 50 85 51 86 53 87 55 88
REMARK SMILES IDX 52 89
REMARK H PARENT 18 5 4 20 22 32 72 51 46 62
REMARK Flexibility Score: inf
ROOT
ATOM      1  C   UNL A   1      31.777  30.445  25.828  1.00  0.00     0.118 C 
ENDROOT
BRANCH   1   2
ATOM      2  N   UNL A   1      30.825  30.420  24.723  1.00  0.00    -0.352 N 
ATOM      3  C   UNL A   1      30.420  29.542  23.775  1.00  0.00     0.251 C 
ATOM      4  O   UNL A   1      29.552  29.959  23.000  1.00  0.00    -0.270 OA
ATOM      5  H   UNL A   1      30.345  31.277  24.647  1.00  0.00     0.163 HD
BRANCH   3   6
ATOM      6  C   UNL A   1      30.946  28.157  23.617  1.00  0.00     0.067 C 
ATOM      7  C   UNL A   1      31.878  23.197  23.877  1.00  0.00     0.029 A 
ATOM      8  C   UNL A   1      32.265  24.264  23.074  1.00  0.00     0.058 A 
ATOM      9  C   UNL A   1      31.072  23.511  24.990  1.00  0.00     0.050 A 
ATOM     10  C   UNL A   1      31.762  25.538  23.256  1.00  0.00     0.128 A 
ATOM     11  C   UNL A   1      30.623  24.828  25.225  1.00  0.00     0.033 A 
ATOM     12  Cl  UNL A   1      30.591  22.296  26.123  1.00  0.00    -0.084 Cl
ATOM     13  C   UNL A   1      30.953  25.851  24.335  1.00  0.00     0.019 A 
ATOM     14  O   UNL A   1      32.051  26.404  22.247  1.00  0.00    -0.475 OA
ATOM     15  C   UNL A   1      30.464  27.221  24.461  1.00  0.00     0.025 C 
ATOM     16  C   UNL A   1      31.968  27.801  22.577  1.00  0.00     0.314 C 
BRANCH   7  17
ATOM     17  C   UNL A   1      32.304  21.778  23.551  1.00  0.00     0.300 C 
BRANCH  17  18
ATOM     18  N   UNL A   1      33.485  21.202  24.214  1.00  0.00    -0.332 N 
ATOM     19  C   UNL A   1      33.291  19.924  24.879  1.00  0.00     0.333 C 
ATOM     20  H   UNL A   1      33.962  20.994  23.336  1.00  0.00     0.348 HD
BRANCH  18  21
ATOM     21  C   UNL A   1      34.572  22.043  24.731  1.00  0.00     0.177 C 
ATOM     22  C   UNL A   1      35.267  21.397  25.933  1.00  0.00     0.075 C 
ATOM     23  C   UNL A   1      35.641  22.524  23.743  1.00  0.00     0.075 C 
ENDBRANCH  18  21
ENDBRANCH  17  18
ENDBRANCH   7  17
BRANCH  16  24
ATOM     24  C   UNL A   1      33.390  28.291  22.904  1.00  0.00     0.429 C 
ATOM     25  F   UNL A   1      34.246  27.923  21.917  1.00  0.00    -0.167 F 
ATOM     26  F   UNL A   1      33.474  29.637  23.005  1.00  0.00    -0.167 F 
ATOM     27  F   UNL A   1      33.865  27.778  24.062  1.00  0.00    -0.167 F 
ENDBRANCH  16  24
ENDBRANCH   3   6
ENDBRANCH   1   2
BRANCH   1  28
ATOM     28  C   UNL A   1      31.524  31.609  26.773  1.00  0.00     0.042 C 
BRANCH  28  29
ATOM     29  C   UNL A   1      32.813  32.327  27.139  1.00  0.00     0.118 C 
BRANCH  29  30
ATOM     30  N   UNL A   1      32.580  33.728  27.492  1.00  0.00    -0.352 N 
ATOM     31  C   UNL A   1      33.140  34.503  28.478  1.00  0.00     0.251 C 
ATOM     32  H   UNL A   1      31.913  34.188  26.933  1.00  0.00     0.163 HD
ATOM     33  O   UNL A   1      32.643  35.589  28.760  1.00  0.00    -0.269 OA
BRANCH  31  34
ATOM     34  C   UNL A   1      34.324  34.015  29.207  1.00  0.00     0.039 A 
ATOM     35  C   UNL A   1      35.602  34.362  28.772  1.00  0.00     0.014 A 
ATOM     36  C   UNL A   1      34.160  33.188  30.321  1.00  0.00     0.014 A 
ATOM     37  C   UNL A   1      36.705  33.715  29.306  1.00  0.00     0.010 A 
ATOM     38  C   UNL A   1      35.284  32.633  30.939  1.00  0.00     0.010 A 
ATOM     39  C   UNL A   1      36.561  32.845  30.398  1.00  0.00    -0.014 A 
BRANCH  39  40
ATOM     40  C   UNL A   1      37.768  32.171  30.938  1.00  0.00     0.031 A 
ATOM     41  C   UNL A   1      38.269  32.484  32.322  1.00  0.00     0.074 A 
ATOM     42  C   UNL A   1      38.363  31.213  30.202  1.00  0.00     0.049 A 
ATOM     43  N   UNL A   1      39.289  31.972  32.964  1.00  0.00    -0.248 NA
ATOM     44  C   UNL A   1      37.536  33.505  33.086  1.00  0.00     0.031 C 
ATOM     45  C   UNL A   1      37.955  30.810  28.852  1.00  0.00     0.029 A 
ATOM     46  N   UNL A   1      39.408  30.377  30.494  1.00  0.00    -0.354 N 
ATOM     47  C   UNL A   1      39.339  32.629  34.187  1.00  0.00     0.074 A 
ATOM     48  C   UNL A   1      38.261  33.594  34.191  1.00  0.00     0.031 C 
ATOM     49  C   UNL A   1      38.688  29.757  28.467  1.00  0.00     0.029 A 
ATOM     50  C   UNL A   1      39.670  29.463  29.502  1.00  0.00     0.049 A 
ATOM     51  H   UNL A   1      39.921  30.426  31.332  1.00  0.00     0.167 HD
ATOM     52  C   UNL A   1      40.198  32.439  35.217  1.00  0.00     0.037 A 
ATOM     53  C   UNL A   1      40.610  28.504  29.427  1.00  0.00     0.037 A 
ATOM     54  C   UNL A   1      41.253  31.458  35.219  1.00  0.00     0.049 A 
ATOM     55  C   UNL A   1      41.577  28.349  30.563  1.00  0.00     0.074 A 
ATOM     56  C   UNL A   1      42.164  31.169  36.220  1.00  0.00     0.029 A 
ATOM     57  N   UNL A   1      41.534  30.601  34.165  1.00  0.00    -0.354 N 
ATOM     58  N   UNL A   1      41.613  28.981  31.711  1.00  0.00    -0.248 NA
ATOM     59  C   UNL A   1      42.648  27.361  30.382  1.00  0.00     0.031 C 
ATOM     60  C   UNL A   1      43.021  30.165  35.757  1.00  0.00     0.029 A 
ATOM     61  C   UNL A   1      42.619  29.799  34.483  1.00  0.00     0.049 A 
ATOM     62  H   UNL A   1      41.036  30.568  33.316  1.00  0.00     0.167 HD
ATOM     63  C   UNL A   1      42.702  28.460  32.395  1.00  0.00     0.074 A 
ATOM     64  C   UNL A   1      43.284  27.443  31.541  1.00  0.00     0.031 C 
ATOM     65  C   UNL A   1      43.185  28.798  33.615  1.00  0.00     0.037 A 
BRANCH  52  66
ATOM     66  C   UNL A   1      40.049  33.331  36.416  1.00  0.00     0.057 A 
ATOM     67  C   UNL A   1      40.778  34.524  36.510  1.00  0.00     0.134 A 
ATOM     68  C   UNL A   1      39.199  33.011  37.481  1.00  0.00     0.134 A 
ATOM     69  F   UNL A   1      41.615  34.890  35.527  1.00  0.00    -0.206 F 
ATOM     70  C   UNL A   1      40.666  35.364  37.618  1.00  0.00     0.040 A 
ATOM     71  C   UNL A   1      39.059  33.855  38.585  1.00  0.00     0.040 A 
ATOM     72  F   UNL A   1      38.459  31.891  37.448  1.00  0.00    -0.206 F 
ATOM     73  C   UNL A   1      39.797  35.035  38.656  1.00  0.00     0.006 A 
ENDBRANCH  52  66
BRANCH  53  74
ATOM     74  C   UNL A   1      40.693  27.634  28.229  1.00  0.00     0.057 A 
ATOM     75  C   UNL A   1      40.039  26.398  28.178  1.00  0.00     0.134 A 
ATOM     76  C   UNL A   1      41.424  28.027  27.103  1.00  0.00     0.134 A 
ATOM     77  F   UNL A   1      39.327  25.963  29.227  1.00  0.00    -0.206 F 
ATOM     78  C   UNL A   1      40.120  25.575  27.054  1.00  0.00     0.040 A 
ATOM     79  C   UNL A   1      41.490  27.226  25.961  1.00  0.00     0.040 A 
ATOM     80  F   UNL A   1      42.057  29.209  27.085  1.00  0.00    -0.206 F 
ATOM     81  C   UNL A   1      40.841  25.993  25.938  1.00  0.00     0.006 A 
ENDBRANCH  53  74
BRANCH  65  82
ATOM     82  C   UNL A   1      44.385  28.039  34.095  1.00  0.00     0.057 A 
ATOM     83  C   UNL A   1      45.677  28.524  33.860  1.00  0.00     0.134 A 
ATOM     84  C   UNL A   1      44.260  26.830  34.790  1.00  0.00     0.134 A 
ATOM     85  F   UNL A   1      45.863  29.674  33.196  1.00  0.00    -0.206 F 
ATOM     86  C   UNL A   1      46.804  27.834  34.306  1.00  0.00     0.040 A 
ATOM     87  C   UNL A   1      45.379  26.144  35.263  1.00  0.00     0.040 A 
ATOM     88  F   UNL A   1      43.047  26.324  35.063  1.00  0.00    -0.206 F 
ATOM     89  C   UNL A   1      46.657  26.644  35.018  1.00  0.00     0.006 A 
ENDBRANCH  65  82
ENDBRANCH  39  40
ENDBRANCH  31  34
ENDBRANCH  29  30
ENDBRANCH  28  29
ENDBRANCH   1  28
TORSDOF 14
ENDMDL
MODEL 2
REMARK VINA RESULT:     -12.4      4.942     10.029
REMARK SMILES CC(C)[N@@H+](C)Cc1cc2c(cc1Cl)C=C(C(=O)NCCCNC(=O)c1ccc(-c3c4nc(c(-c5c(F)cccc5F)c5ccc([nH]5)c(-c5c(F)cccc5F)c5nc(c(-c6c(F)cccc6F)c6ccc3[nH]6)C=C5)C=C4)cc1)[C@@H](C(F)(F)F)O2
REMARK SMILES IDX 19 1 18 2 16 3 17 4 15 6 7 7 8 8 12 9 9 10 11 11 13 12 10 13
REMARK SMILES IDX 84 14 14 15 79 16 6 17 4 18 5 19 2 21 1 22 3 23 80 24 81 25
REMARK SMILES IDX 82 26 83 27 20 28 21 29 22 30 23 31 24 33 25 34 26 35 78 36
REMARK SMILES IDX 27 37 77 38 28 39 29 40 30 41 71 42 31 43 76 44 70 45 72 46
REMARK SMILES IDX 32 47 75 48 69 49 68 50 33 52 59 53 42 54 58 55 43 56 46 57
REMARK SMILES IDX 57 58 73 59 44 60 45 61 56 63 74 64 47 65 34 66 35 67 40 68
REMARK SMILES IDX 36 69 37 70 39 71 41 72 38 73 60 74 61 75 66 76 62 77 63 78
REMARK SMILES IDX 65 79 67 80 64 81 48 82 49 83 54 84 50 85 51 86 53 87 55 88
REMARK SMILES IDX 52 89
REMARK H PARENT 18 5 4 20 22 32 72 51 46 62
REMARK Flexibility Score: inf
ROOT
ATOM      1  C   UNL A   1      36.601  20.642  25.129  1.00  0.00     0.118 C 
ENDROOT
BRANCH   1   2
ATOM      2  N   UNL A   1      35.448  19.758  24.996  1.00  0.00    -0.352 N 
ATOM      3  C   UNL A   1      34.102  19.881  24.910  1.00  0.00     0.251 C 
ATOM      4  O   UNL A   1      33.476  18.820  24.809  1.00  0.00    -0.270 OA
ATOM      5  H   UNL A   1      35.725  18.814  24.957  1.00  0.00     0.163 HD
BRANCH   3   6
ATOM      6  C   UNL A   1      33.362  21.175  24.935  1.00  0.00     0.067 C 
ATOM      7  C   UNL A   1      31.021  25.516  23.837  1.00  0.00     0.029 A 
ATOM      8  C   UNL A   1      31.154  24.684  24.943  1.00  0.00     0.058 A 
ATOM      9  C   UNL A   1      31.775  25.170  22.698  1.00  0.00     0.050 A 
ATOM     10  C   UNL A   1      31.856  23.495  24.885  1.00  0.00     0.128 A 
ATOM     11  C   UNL A   1      32.560  23.998  22.663  1.00  0.00     0.033 A 
ATOM     12  Cl  UNL A   1      31.776  26.165  21.282  1.00  0.00    -0.084 Cl
ATOM     13  C   UNL A   1      32.584  23.137  23.761  1.00  0.00     0.019 A 
ATOM     14  O   UNL A   1      31.687  22.691  25.969  1.00  0.00    -0.475 OA
ATOM     15  C   UNL A   1      33.304  21.867  23.778  1.00  0.00     0.025 C 
ATOM     16  C   UNL A   1      32.708  21.701  26.179  1.00  0.00     0.314 C 
BRANCH   7  17
ATOM     17  C   UNL A   1      30.103  26.723  23.873  1.00  0.00     0.300 C 
BRANCH  17  18
ATOM     18  N   UNL A   1      30.677  28.072  24.004  1.00  0.00    -0.332 N 
ATOM     19  C   UNL A   1      30.632  28.909  22.817  1.00  0.00     0.333 C 
ATOM     20  H   UNL A   1      29.930  28.406  24.613  1.00  0.00     0.348 HD
BRANCH  18  21
ATOM     21  C   UNL A   1      31.744  28.370  24.967  1.00  0.00     0.177 C 
ATOM     22  C   UNL A   1      31.404  27.858  26.370  1.00  0.00     0.075 C 
ATOM     23  C   UNL A   1      33.171  27.933  24.616  1.00  0.00     0.075 C 
ENDBRANCH  18  21
ENDBRANCH  17  18
ENDBRANCH   7  17
BRANCH  16  24
ATOM     24  C   UNL A   1      33.698  22.261  27.215  1.00  0.00     0.429 C 
ATOM     25  F   UNL A   1      34.377  21.245  27.806  1.00  0.00    -0.167 F 
ATOM     26  F   UNL A   1      34.628  23.077  26.669  1.00  0.00    -0.167 F 
ATOM     27  F   UNL A   1      33.087  22.962  28.196  1.00  0.00    -0.167 F 
ENDBRANCH  16  24
ENDBRANCH   3   6
ENDBRANCH   1   2
BRANCH   1  28
ATOM     28  C   UNL A   1      37.900  19.944  24.759  1.00  0.00     0.042 C 
BRANCH  28  29
ATOM     29  C   UNL A   1      39.007  20.250  25.755  1.00  0.00     0.118 C 
BRANCH  29  30
ATOM     30  N   UNL A   1      39.992  19.171  25.827  1.00  0.00    -0.352 N 
ATOM     31  C   UNL A   1      41.356  19.219  25.983  1.00  0.00     0.251 C 
ATOM     32  H   UNL A   1      39.617  18.264  25.751  1.00  0.00     0.163 HD
ATOM     33  O   UNL A   1      42.032  18.214  25.788  1.00  0.00    -0.269 OA
BRANCH  31  34
ATOM     34  C   UNL A   1      42.003  20.487  26.365  1.00  0.00     0.039 A 
ATOM     35  C   UNL A   1      42.068  20.861  27.707  1.00  0.00     0.014 A 
ATOM     36  C   UNL A   1      42.533  21.320  25.376  1.00  0.00     0.014 A 
ATOM     37  C   UNL A   1      42.455  22.149  28.039  1.00  0.00     0.010 A 
ATOM     38  C   UNL A   1      43.040  22.574  25.729  1.00  0.00     0.010 A 
ATOM     39  C   UNL A   1      42.950  23.020  27.056  1.00  0.00    -0.014 A 
BRANCH  39  40
ATOM     40  C   UNL A   1      43.353  24.392  27.456  1.00  0.00     0.031 A 
ATOM     41  C   UNL A   1      44.781  24.846  27.316  1.00  0.00     0.074 A 
ATOM     42  C   UNL A   1      42.404  25.254  27.869  1.00  0.00     0.049 A 
ATOM     43  N   UNL A   1      45.304  26.015  27.589  1.00  0.00    -0.248 NA
ATOM     44  C   UNL A   1      45.750  23.863  26.808  1.00  0.00     0.031 C 
ATOM     45  C   UNL A   1      40.982  24.933  28.027  1.00  0.00     0.029 A 
ATOM     46  N   UNL A   1      42.481  26.583  28.194  1.00  0.00    -0.354 N 
ATOM     47  C   UNL A   1      46.662  25.897  27.318  1.00  0.00     0.074 A 
ATOM     48  C   UNL A   1      46.888  24.537  26.881  1.00  0.00     0.031 C 
ATOM     49  C   UNL A   1      40.311  26.049  28.342  1.00  0.00     0.029 A 
ATOM     50  C   UNL A   1      41.262  27.145  28.489  1.00  0.00     0.049 A 
ATOM     51  H   UNL A   1      43.326  27.087  28.213  1.00  0.00     0.167 HD
ATOM     52  C   UNL A   1      47.630  26.840  27.415  1.00  0.00     0.037 A 
ATOM     53  C   UNL A   1      40.947  28.399  28.856  1.00  0.00     0.037 A 
ATOM     54  C   UNL A   1      47.395  28.201  27.825  1.00  0.00     0.049 A 
ATOM     55  C   UNL A   1      42.046  29.408  29.001  1.00  0.00     0.074 A 
ATOM     56  C   UNL A   1      48.302  29.240  27.935  1.00  0.00     0.029 A 
ATOM     57  N   UNL A   1      46.158  28.712  28.188  1.00  0.00    -0.354 N 
ATOM     58  N   UNL A   1      43.325  29.281  28.745  1.00  0.00    -0.248 NA
ATOM     59  C   UNL A   1      41.659  30.731  29.507  1.00  0.00     0.031 C 
ATOM     60  C   UNL A   1      47.621  30.369  28.404  1.00  0.00     0.029 A 
ATOM     61  C   UNL A   1      46.282  30.045  28.546  1.00  0.00     0.049 A 
ATOM     62  H   UNL A   1      45.315  28.202  28.193  1.00  0.00     0.167 HD
ATOM     63  C   UNL A   1      43.896  30.509  29.048  1.00  0.00     0.074 A 
ATOM     64  C   UNL A   1      42.817  31.374  29.482  1.00  0.00     0.031 C 
ATOM     65  C   UNL A   1      45.196  30.885  28.981  1.00  0.00     0.037 A 
BRANCH  52  66
ATOM     66  C   UNL A   1      49.037  26.421  27.100  1.00  0.00     0.057 A 
ATOM     67  C   UNL A   1      49.887  25.963  28.115  1.00  0.00     0.134 A 
ATOM     68  C   UNL A   1      49.558  26.480  25.801  1.00  0.00     0.134 A 
ATOM     69  F   UNL A   1      49.454  25.885  29.383  1.00  0.00    -0.206 F 
ATOM     70  C   UNL A   1      51.203  25.578  27.850  1.00  0.00     0.040 A 
ATOM     71  C   UNL A   1      50.864  26.075  25.519  1.00  0.00     0.040 A 
ATOM     72  F   UNL A   1      48.792  26.893  24.780  1.00  0.00    -0.206 F 
ATOM     73  C   UNL A   1      51.692  25.626  26.546  1.00  0.00     0.006 A 
ENDBRANCH  52  66
BRANCH  53  74
ATOM     74  C   UNL A   1      39.535  28.763  29.129  1.00  0.00     0.057 A 
ATOM     75  C   UNL A   1      38.980  28.626  30.407  1.00  0.00     0.134 A 
ATOM     76  C   UNL A   1      38.710  29.263  28.116  1.00  0.00     0.134 A 
ATOM     77  F   UNL A   1      39.718  28.147  31.418  1.00  0.00    -0.206 F 
ATOM     78  C   UNL A   1      37.651  28.962  30.666  1.00  0.00     0.040 A 
ATOM     79  C   UNL A   1      37.387  29.629  28.368  1.00  0.00     0.040 A 
ATOM     80  F   UNL A   1      39.190  29.434  26.875  1.00  0.00    -0.206 F 
ATOM     81  C   UNL A   1      36.853  29.473  29.645  1.00  0.00     0.006 A 
ENDBRANCH  53  74
BRANCH  65  82
ATOM     82  C   UNL A   1      45.504  32.300  29.369  1.00  0.00     0.057 A 
ATOM     83  C   UNL A   1      45.438  33.330  28.424  1.00  0.00     0.134 A 
ATOM     84  C   UNL A   1      45.864  32.640  30.679  1.00  0.00     0.134 A 
ATOM     85  F   UNL A   1      45.103  33.067  27.151  1.00  0.00    -0.206 F 
ATOM     86  C   UNL A   1      45.715  34.653  28.769  1.00  0.00     0.040 A 
ATOM     87  C   UNL A   1      46.119  33.964  31.042  1.00  0.00     0.040 A 
ATOM     88  F   UNL A   1      45.926  31.700  31.634  1.00  0.00    -0.206 F 
ATOM     89  C   UNL A   1      46.048  34.974  30.084  1.00  0.00     0.006 A 
ENDBRANCH  65  82
ENDBRANCH  39  40
ENDBRANCH  31  34
ENDBRANCH  29  30
ENDBRANCH  28  29
ENDBRANCH   1  28
TORSDOF 14
ENDMDL
MODEL 3
REMARK VINA RESULT:     -12.1      2.894      8.070
REMARK SMILES CC(C)[N@@H+](C)Cc1cc2c(cc1Cl)C=C(C(=O)NCCCNC(=O)c1ccc(-c3c4nc(c(-c5c(F)cccc5F)c5ccc([nH]5)c(-c5c(F)cccc5F)c5nc(c(-c6c(F)cccc6F)c6ccc3[nH]6)C=C5)C=C4)cc1)[C@@H](C(F)(F)F)O2
REMARK SMILES IDX 19 1 18 2 16 3 17 4 15 6 7 7 8 8 12 9 9 10 11 11 13 12 10 13
REMARK SMILES IDX 84 14 14 15 79 16 6 17 4 18 5 19 2 21 1 22 3 23 80 24 81 25
REMARK SMILES IDX 82 26 83 27 20 28 21 29 22 30 23 31 24 33 25 34 26 35 78 36
REMARK SMILES IDX 27 37 77 38 28 39 29 40 30 41 71 42 31 43 76 44 70 45 72 46
REMARK SMILES IDX 32 47 75 48 69 49 68 50 33 52 59 53 42 54 58 55 43 56 46 57
REMARK SMILES IDX 57 58 73 59 44 60 45 61 56 63 74 64 47 65 34 66 35 67 40 68
REMARK SMILES IDX 36 69 37 70 39 71 41 72 38 73 60 74 61 75 66 76 62 77 63 78
REMARK SMILES IDX 65 79 67 80 64 81 48 82 49 83 54 84 50 85 51 86 53 87 55 88
REMARK SMILES IDX 52 89
REMARK H PARENT 18 5 4 20 22 32 72 51 46 62
REMARK Flexibility Score: inf
ROOT
ATOM      1  C   UNL A   1      37.203  22.330  25.219  1.00  0.00     0.118 C 
ENDROOT
BRANCH   1   2
ATOM      2  N   UNL A   1      36.096  21.855  26.040  1.00  0.00    -0.352 N 
ATOM      3  C   UNL A   1      34.787  22.154  26.221  1.00  0.00     0.251 C 
ATOM      4  O   UNL A   1      34.196  21.470  27.062  1.00  0.00    -0.270 OA
ATOM      5  H   UNL A   1      36.377  21.112  26.622  1.00  0.00     0.163 HD
BRANCH   3   6
ATOM      6  C   UNL A   1      34.051  23.226  25.492  1.00  0.00     0.067 C 
ATOM      7  C   UNL A   1      31.874  27.522  23.963  1.00  0.00     0.029 A 
ATOM      8  C   UNL A   1      32.167  26.279  23.413  1.00  0.00     0.058 A 
ATOM      9  C   UNL A   1      32.155  27.683  25.335  1.00  0.00     0.050 A 
ATOM     10  C   UNL A   1      32.844  25.306  24.124  1.00  0.00     0.128 A 
ATOM     11  C   UNL A   1      32.772  26.659  26.084  1.00  0.00     0.033 A 
ATOM     12  Cl  UNL A   1      31.759  29.146  26.169  1.00  0.00    -0.084 Cl
ATOM     13  C   UNL A   1      33.142  25.463  25.467  1.00  0.00     0.019 A 
ATOM     14  O   UNL A   1      33.261  24.252  23.371  1.00  0.00    -0.475 OA
ATOM     15  C   UNL A   1      33.855  24.387  26.150  1.00  0.00     0.025 C 
ATOM     16  C   UNL A   1      33.542  23.040  24.092  1.00  0.00     0.314 C 
BRANCH   7  17
ATOM     17  C   UNL A   1      31.291  28.635  23.112  1.00  0.00     0.300 C 
BRANCH  17  18
ATOM     18  N   UNL A   1      29.870  28.989  23.252  1.00  0.00    -0.332 N 
ATOM     19  C   UNL A   1      28.929  27.882  23.280  1.00  0.00     0.333 C 
ATOM     20  H   UNL A   1      29.970  29.299  24.219  1.00  0.00     0.348 HD
BRANCH  18  21
ATOM     21  C   UNL A   1      29.341  30.276  22.781  1.00  0.00     0.177 C 
ATOM     22  C   UNL A   1      28.166  30.089  21.817  1.00  0.00     0.075 C 
ATOM     23  C   UNL A   1      28.953  31.322  23.833  1.00  0.00     0.075 C 
ENDBRANCH  18  21
ENDBRANCH  17  18
ENDBRANCH   7  17
BRANCH  16  24
ATOM     24  C   UNL A   1      32.299  22.138  23.995  1.00  0.00     0.429 C 
ATOM     25  F   UNL A   1      32.667  20.876  23.654  1.00  0.00    -0.167 F 
ATOM     26  F   UNL A   1      31.625  22.039  25.163  1.00  0.00    -0.167 F 
ATOM     27  F   UNL A   1      31.416  22.565  23.065  1.00  0.00    -0.167 F 
ENDBRANCH  16  24
ENDBRANCH   3   6
ENDBRANCH   1   2
BRANCH   1  28
ATOM     28  C   UNL A   1      37.776  23.640  25.735  1.00  0.00     0.042 C 
BRANCH  28  29
ATOM     29  C   UNL A   1      38.895  23.409  26.738  1.00  0.00     0.118 C 
BRANCH  29  30
ATOM     30  N   UNL A   1      40.212  23.674  26.159  1.00  0.00    -0.352 N 
ATOM     31  C   UNL A   1      41.008  24.791  26.231  1.00  0.00     0.251 C 
ATOM     32  H   UNL A   1      40.589  22.932  25.633  1.00  0.00     0.163 HD
ATOM     33  O   UNL A   1      41.977  24.904  25.486  1.00  0.00    -0.269 OA
BRANCH  31  34
ATOM     34  C   UNL A   1      40.681  25.861  27.191  1.00  0.00     0.039 A 
ATOM     35  C   UNL A   1      41.231  27.132  27.031  1.00  0.00     0.014 A 
ATOM     36  C   UNL A   1      39.835  25.590  28.269  1.00  0.00     0.014 A 
ATOM     37  C   UNL A   1      41.117  28.058  28.056  1.00  0.00     0.010 A 
ATOM     38  C   UNL A   1      39.620  26.571  29.241  1.00  0.00     0.010 A 
ATOM     39  C   UNL A   1      40.308  27.792  29.171  1.00  0.00    -0.014 A 
BRANCH  39  40
ATOM     40  C   UNL A   1      40.216  28.812  30.246  1.00  0.00     0.031 A 
ATOM     41  C   UNL A   1      39.156  29.880  30.204  1.00  0.00     0.074 A 
ATOM     42  C   UNL A   1      41.042  28.718  31.305  1.00  0.00     0.049 A 
ATOM     43  N   UNL A   1      38.912  30.832  31.068  1.00  0.00    -0.248 NA
ATOM     44  C   UNL A   1      38.257  29.886  29.040  1.00  0.00     0.031 C 
ATOM     45  C   UNL A   1      42.097  27.712  31.466  1.00  0.00     0.029 A 
ATOM     46  N   UNL A   1      41.103  29.448  32.462  1.00  0.00    -0.354 N 
ATOM     47  C   UNL A   1      37.857  31.566  30.539  1.00  0.00     0.074 A 
ATOM     48  C   UNL A   1      37.521  30.965  29.267  1.00  0.00     0.031 C 
ATOM     49  C   UNL A   1      42.646  27.840  32.681  1.00  0.00     0.029 A 
ATOM     50  C   UNL A   1      42.042  28.985  33.352  1.00  0.00     0.049 A 
ATOM     51  H   UNL A   1      40.530  30.229  32.639  1.00  0.00     0.167 HD
ATOM     52  C   UNL A   1      37.220  32.637  31.071  1.00  0.00     0.037 A 
ATOM     53  C   UNL A   1      42.391  29.443  34.567  1.00  0.00     0.037 A 
ATOM     54  C   UNL A   1      37.540  33.215  32.351  1.00  0.00     0.049 A 
ATOM     55  C   UNL A   1      41.701  30.659  35.108  1.00  0.00     0.074 A 
ATOM     56  C   UNL A   1      36.941  34.287  32.989  1.00  0.00     0.029 A 
ATOM     57  N   UNL A   1      38.548  32.764  33.189  1.00  0.00    -0.354 N 
ATOM     58  N   UNL A   1      40.708  31.344  34.594  1.00  0.00    -0.248 NA
ATOM     59  C   UNL A   1      42.195  31.178  36.389  1.00  0.00     0.031 C 
ATOM     60  C   UNL A   1      37.613  34.509  34.197  1.00  0.00     0.029 A 
ATOM     61  C   UNL A   1      38.604  33.550  34.329  1.00  0.00     0.049 A 
ATOM     62  H   UNL A   1      39.138  31.999  33.001  1.00  0.00     0.167 HD
ATOM     63  C   UNL A   1      40.450  32.369  35.493  1.00  0.00     0.074 A 
ATOM     64  C   UNL A   1      41.375  32.199  36.596  1.00  0.00     0.031 C 
ATOM     65  C   UNL A   1      39.537  33.366  35.412  1.00  0.00     0.037 A 
BRANCH  52  66
ATOM     66  C   UNL A   1      36.131  33.270  30.252  1.00  0.00     0.057 A 
ATOM     67  C   UNL A   1      36.447  34.074  29.149  1.00  0.00     0.134 A 
ATOM     68  C   UNL A   1      34.775  33.098  30.557  1.00  0.00     0.134 A 
ATOM     69  F   UNL A   1      37.726  34.284  28.804  1.00  0.00    -0.206 F 
ATOM     70  C   UNL A   1      35.454  34.682  28.379  1.00  0.00     0.040 A 
ATOM     71  C   UNL A   1      33.772  33.681  29.780  1.00  0.00     0.040 A 
ATOM     72  F   UNL A   1      34.403  32.326  31.590  1.00  0.00    -0.206 F 
ATOM     73  C   UNL A   1      34.111  34.479  28.689  1.00  0.00     0.006 A 
ENDBRANCH  52  66
BRANCH  53  74
ATOM     74  C   UNL A   1      43.456  28.761  35.342  1.00  0.00     0.057 A 
ATOM     75  C   UNL A   1      44.810  29.053  35.136  1.00  0.00     0.134 A 
ATOM     76  C   UNL A   1      43.141  27.805  36.314  1.00  0.00     0.134 A 
ATOM     77  F   UNL A   1      45.176  29.955  34.215  1.00  0.00    -0.206 F 
ATOM     78  C   UNL A   1      45.814  28.409  35.859  1.00  0.00     0.040 A 
ATOM     79  C   UNL A   1      44.135  27.174  37.064  1.00  0.00     0.040 A 
ATOM     80  F   UNL A   1      41.861  27.497  36.570  1.00  0.00    -0.206 F 
ATOM     81  C   UNL A   1      45.477  27.472  36.833  1.00  0.00     0.006 A 
ENDBRANCH  53  74
BRANCH  65  82
ATOM     82  C   UNL A   1      39.491  34.328  36.560  1.00  0.00     0.057 A 
ATOM     83  C   UNL A   1      40.206  35.530  36.514  1.00  0.00     0.134 A 
ATOM     84  C   UNL A   1      38.735  34.063  37.709  1.00  0.00     0.134 A 
ATOM     85  F   UNL A   1      40.952  35.839  35.443  1.00  0.00    -0.206 F 
ATOM     86  C   UNL A   1      40.168  36.439  37.571  1.00  0.00     0.040 A 
ATOM     87  C   UNL A   1      38.669  34.977  38.762  1.00  0.00     0.040 A 
ATOM     88  F   UNL A   1      38.012  32.937  37.804  1.00  0.00    -0.206 F 
ATOM     89  C   UNL A   1      39.391  36.168  38.696  1.00  0.00     0.006 A 
ENDBRANCH  65  82
ENDBRANCH  39  40
ENDBRANCH  31  34
ENDBRANCH  29  30
ENDBRANCH  28  29
ENDBRANCH   1  28
TORSDOF 14
ENDMDL
