MODEL 1
REMARK VINA RESULT:     -11.2      0.000      0.000
REMARK SMILES C[C@@H](CNC(=O)Cc1ccc(F)cc1F)C(=O)NCCCNC(=O)c1ccc(-c2c3nc(c(-c4c(F)cccc4F)c4ccc([nH]4)c(-c4c(F)cccc4F)c4nc(c(-c5c(F)cccc5F)c5ccc2[nH]5)C=C4)C=C3)cc1
REMARK SMILES IDX 19 1 18 2 16 3 17 4 2 6 1 7 3 8 4 9 5 10 6 12 7 13 8 14 9 15
REMARK SMILES IDX 14 16 10 17 13 18 15 19 11 20 12 21 20 22 21 23 22 24 23 25
REMARK SMILES IDX 24 27 25 28 26 29 78 30 27 31 77 32 28 33 29 34 30 35 71 36
REMARK SMILES IDX 31 37 76 38 70 39 72 40 32 41 75 42 69 43 68 44 33 46 59 47
REMARK SMILES IDX 42 48 58 49 43 50 46 51 57 52 73 53 44 54 45 55 56 57 74 58
REMARK SMILES IDX 47 59 34 60 35 61 40 62 36 63 37 64 39 65 41 66 38 67 60 68
REMARK SMILES IDX 61 69 66 70 62 71 63 72 65 73 67 74 64 75 48 76 49 77 54 78
REMARK SMILES IDX 50 79 51 80 53 81 55 82 52 83
REMARK H PARENT 18 5 4 11 22 26 72 45 46 56
REMARK Flexibility Score: inf
ROOT
ATOM      1  C   UNL A   1      36.367  22.045  25.093  1.00  0.00     0.117 C 
ENDROOT
BRANCH   1   2
ATOM      2  N   UNL A   1      35.439  21.924  26.206  1.00  0.00    -0.356 N 
ATOM      3  C   UNL A   1      34.238  21.300  26.307  1.00  0.00     0.224 C 
ATOM      4  O   UNL A   1      33.786  21.148  27.447  1.00  0.00    -0.275 OA
ATOM      5  H   UNL A   1      35.734  22.372  27.031  1.00  0.00     0.163 HD
BRANCH   3   6
ATOM      6  C   UNL A   1      33.441  20.803  25.108  1.00  0.00     0.094 C 
ATOM      7  C   UNL A   1      33.332  19.284  25.024  1.00  0.00     0.020 C 
BRANCH   6   8
ATOM      8  C   UNL A   1      32.136  21.571  24.850  1.00  0.00     0.129 C 
BRANCH   8   9
ATOM      9  N   UNL A   1      31.370  21.898  26.035  1.00  0.00    -0.355 N 
ATOM     10  C   UNL A   1      30.854  23.094  26.446  1.00  0.00     0.224 C 
ATOM     11  H   UNL A   1      31.192  21.140  26.638  1.00  0.00     0.163 HD
ATOM     12  O   UNL A   1      30.345  23.134  27.569  1.00  0.00    -0.275 OA
BRANCH  10  13
ATOM     13  C   UNL A   1      30.798  24.290  25.518  1.00  0.00     0.138 C 
BRANCH  13  14
ATOM     14  C   UNL A   1      31.637  25.504  25.839  1.00  0.00    -0.003 A 
ATOM     15  C   UNL A   1      30.994  26.639  26.368  1.00  0.00     0.010 A 
ATOM     16  C   UNL A   1      33.026  25.545  25.692  1.00  0.00     0.129 A 
ATOM     17  C   UNL A   1      31.718  27.794  26.666  1.00  0.00     0.040 A 
ATOM     18  C   UNL A   1      33.752  26.703  25.956  1.00  0.00     0.078 A 
ATOM     19  F   UNL A   1      33.695  24.457  25.294  1.00  0.00    -0.207 F 
ATOM     20  C   UNL A   1      33.088  27.821  26.435  1.00  0.00     0.126 A 
ATOM     21  F   UNL A   1      33.776  28.939  26.701  1.00  0.00    -0.207 F 
ENDBRANCH  13  14
ENDBRANCH  10  13
ENDBRANCH   8   9
ENDBRANCH   6   8
ENDBRANCH   3   6
ENDBRANCH   1   2
BRANCH   1  22
ATOM     22  C   UNL A   1      37.325  20.872  24.993  1.00  0.00     0.042 C 
BRANCH  22  23
ATOM     23  C   UNL A   1      38.638  21.116  25.725  1.00  0.00     0.118 C 
BRANCH  23  24
ATOM     24  N   UNL A   1      39.556  19.982  25.663  1.00  0.00    -0.352 N 
ATOM     25  C   UNL A   1      40.891  19.912  25.992  1.00  0.00     0.251 C 
ATOM     26  H   UNL A   1      39.161  19.141  25.338  1.00  0.00     0.163 HD
ATOM     27  O   UNL A   1      41.542  18.895  25.772  1.00  0.00    -0.269 OA
BRANCH  25  28
ATOM     28  C   UNL A   1      41.559  21.092  26.577  1.00  0.00     0.039 A 
ATOM     29  C   UNL A   1      42.061  22.083  25.729  1.00  0.00     0.014 A 
ATOM     30  C   UNL A   1      41.640  21.244  27.961  1.00  0.00     0.014 A 
ATOM     31  C   UNL A   1      42.543  23.276  26.272  1.00  0.00     0.010 A 
ATOM     32  C   UNL A   1      42.018  22.470  28.494  1.00  0.00     0.010 A 
ATOM     33  C   UNL A   1      42.469  23.502  27.656  1.00  0.00    -0.014 A 
BRANCH  33  34
ATOM     34  C   UNL A   1      42.860  24.797  28.269  1.00  0.00     0.031 A 
ATOM     35  C   UNL A   1      41.809  25.846  28.517  1.00  0.00     0.074 A 
ATOM     36  C   UNL A   1      44.157  25.074  28.505  1.00  0.00     0.049 A 
ATOM     37  N   UNL A   1      41.955  27.101  28.855  1.00  0.00    -0.248 NA
ATOM     38  C   UNL A   1      40.410  25.437  28.313  1.00  0.00     0.031 C 
ATOM     39  C   UNL A   1      45.279  24.162  28.272  1.00  0.00     0.029 A 
ATOM     40  N   UNL A   1      44.755  26.216  28.980  1.00  0.00    -0.354 N 
ATOM     41  C   UNL A   1      40.674  27.637  28.862  1.00  0.00     0.074 A 
ATOM     42  C   UNL A   1      39.769  26.587  28.450  1.00  0.00     0.031 C 
ATOM     43  C   UNL A   1      46.422  24.768  28.631  1.00  0.00     0.029 A 
ATOM     44  C   UNL A   1      46.122  26.126  29.074  1.00  0.00     0.049 A 
ATOM     45  H   UNL A   1      44.250  27.024  29.229  1.00  0.00     0.167 HD
ATOM     46  C   UNL A   1      40.284  28.887  29.203  1.00  0.00     0.037 A 
ATOM     47  C   UNL A   1      47.033  27.038  29.463  1.00  0.00     0.037 A 
ATOM     48  C   UNL A   1      41.177  29.911  29.673  1.00  0.00     0.049 A 
ATOM     49  C   UNL A   1      46.573  28.411  29.868  1.00  0.00     0.074 A 
ATOM     50  C   UNL A   1      40.873  31.191  30.100  1.00  0.00     0.029 A 
ATOM     51  N   UNL A   1      42.551  29.762  29.795  1.00  0.00    -0.354 N 
ATOM     52  N   UNL A   1      45.357  28.899  29.890  1.00  0.00    -0.248 NA
ATOM     53  C   UNL A   1      47.610  29.361  30.299  1.00  0.00     0.031 C 
ATOM     54  C   UNL A   1      42.064  31.826  30.461  1.00  0.00     0.029 A 
ATOM     55  C   UNL A   1      43.107  30.928  30.290  1.00  0.00     0.049 A 
ATOM     56  H   UNL A   1      43.054  28.948  29.563  1.00  0.00     0.167 HD
ATOM     57  C   UNL A   1      45.477  30.200  30.360  1.00  0.00     0.074 A 
ATOM     58  C   UNL A   1      46.884  30.425  30.617  1.00  0.00     0.031 C 
ATOM     59  C   UNL A   1      44.508  31.125  30.558  1.00  0.00     0.037 A 
BRANCH  46  60
ATOM     60  C   UNL A   1      38.823  29.209  29.099  1.00  0.00     0.057 A 
ATOM     61  C   UNL A   1      37.992  29.140  30.224  1.00  0.00     0.134 A 
ATOM     62  C   UNL A   1      38.232  29.557  27.877  1.00  0.00     0.134 A 
ATOM     63  F   UNL A   1      38.494  28.808  31.423  1.00  0.00    -0.206 F 
ATOM     64  C   UNL A   1      36.624  29.402  30.136  1.00  0.00     0.040 A 
ATOM     65  C   UNL A   1      36.871  29.847  27.783  1.00  0.00     0.040 A 
ATOM     66  F   UNL A   1      38.977  29.655  26.766  1.00  0.00    -0.206 F 
ATOM     67  C   UNL A   1      36.061  29.763  28.913  1.00  0.00     0.006 A 
ENDBRANCH  46  60
BRANCH  47  68
ATOM     68  C   UNL A   1      48.470  26.671  29.522  1.00  0.00     0.057 A 
ATOM     69  C   UNL A   1      49.343  26.933  28.461  1.00  0.00     0.134 A 
ATOM     70  C   UNL A   1      48.996  26.028  30.648  1.00  0.00     0.134 A 
ATOM     71  F   UNL A   1      48.899  27.541  27.352  1.00  0.00    -0.206 F 
ATOM     72  C   UNL A   1      50.688  26.560  28.513  1.00  0.00     0.040 A 
ATOM     73  C   UNL A   1      50.343  25.667  30.722  1.00  0.00     0.040 A 
ATOM     74  F   UNL A   1      48.211  25.766  31.704  1.00  0.00    -0.206 F 
ATOM     75  C   UNL A   1      51.192  25.928  29.648  1.00  0.00     0.006 A 
ENDBRANCH  47  68
BRANCH  59  76
ATOM     76  C   UNL A   1      44.920  32.453  31.115  1.00  0.00     0.057 A 
ATOM     77  C   UNL A   1      44.886  32.685  32.496  1.00  0.00     0.134 A 
ATOM     78  C   UNL A   1      45.259  33.524  30.283  1.00  0.00     0.134 A 
ATOM     79  F   UNL A   1      44.558  31.698  33.344  1.00  0.00    -0.206 F 
ATOM     80  C   UNL A   1      45.162  33.944  33.029  1.00  0.00     0.040 A 
ATOM     81  C   UNL A   1      45.556  34.784  30.805  1.00  0.00     0.040 A 
ATOM     82  F   UNL A   1      45.316  33.361  28.952  1.00  0.00    -0.206 F 
ATOM     83  C   UNL A   1      45.498  34.998  32.182  1.00  0.00     0.006 A 
ENDBRANCH  59  76
ENDBRANCH  33  34
ENDBRANCH  25  28
ENDBRANCH  23  24
ENDBRANCH  22  23
ENDBRANCH   1  22
TORSDOF 14
ENDMDL
MODEL 2
REMARK VINA RESULT:     -11.2      4.624      9.094
REMARK SMILES C[C@@H](CNC(=O)Cc1ccc(F)cc1F)C(=O)NCCCNC(=O)c1ccc(-c2c3nc(c(-c4c(F)cccc4F)c4ccc([nH]4)c(-c4c(F)cccc4F)c4nc(c(-c5c(F)cccc5F)c5ccc2[nH]5)C=C4)C=C3)cc1
REMARK SMILES IDX 19 1 18 2 16 3 17 4 2 6 1 7 3 8 4 9 5 10 6 12 7 13 8 14 9 15
REMARK SMILES IDX 14 16 10 17 13 18 15 19 11 20 12 21 20 22 21 23 22 24 23 25
REMARK SMILES IDX 24 27 25 28 26 29 78 30 27 31 77 32 28 33 29 34 30 35 71 36
REMARK SMILES IDX 31 37 76 38 70 39 72 40 32 41 75 42 69 43 68 44 33 46 59 47
REMARK SMILES IDX 42 48 58 49 43 50 46 51 57 52 73 53 44 54 45 55 56 57 74 58
REMARK SMILES IDX 47 59 34 60 35 61 40 62 36 63 37 64 39 65 41 66 38 67 60 68
REMARK SMILES IDX 61 69 66 70 62 71 63 72 65 73 67 74 64 75 48 76 49 77 54 78
REMARK SMILES IDX 50 79 51 80 53 81 55 82 52 83
REMARK H PARENT 18 5 4 11 22 26 72 45 46 56
REMARK Flexibility Score: inf
ROOT
ATOM      1  C   UNL A   1      31.089  30.083  24.728  1.00  0.00     0.117 C 
ENDROOT
BRANCH   1   2
ATOM      2  N   UNL A   1      30.399  30.281  23.464  1.00  0.00    -0.356 N 
ATOM      3  C   UNL A   1      29.868  29.394  22.585  1.00  0.00     0.224 C 
ATOM      4  O   UNL A   1      29.120  29.854  21.715  1.00  0.00    -0.275 OA
ATOM      5  H   UNL A   1      30.298  31.224  23.199  1.00  0.00     0.163 HD
BRANCH   3   6
ATOM      6  C   UNL A   1      30.154  27.898  22.617  1.00  0.00     0.094 C 
ATOM      7  C   UNL A   1      31.639  27.551  22.561  1.00  0.00     0.020 C 
BRANCH   6   8
ATOM      8  C   UNL A   1      29.336  27.117  23.656  1.00  0.00     0.129 C 
BRANCH   8   9
ATOM      9  N   UNL A   1      29.752  25.744  23.860  1.00  0.00    -0.355 N 
ATOM     10  C   UNL A   1      30.397  25.169  24.917  1.00  0.00     0.224 C 
ATOM     11  H   UNL A   1      29.535  25.130  23.122  1.00  0.00     0.163 HD
ATOM     12  O   UNL A   1      30.755  23.995  24.790  1.00  0.00    -0.275 OA
BRANCH  10  13
ATOM     13  C   UNL A   1      30.560  25.899  26.235  1.00  0.00     0.138 C 
BRANCH  13  14
ATOM     14  C   UNL A   1      31.778  26.766  26.445  1.00  0.00    -0.003 A 
ATOM     15  C   UNL A   1      32.912  26.529  25.646  1.00  0.00     0.010 A 
ATOM     16  C   UNL A   1      31.824  27.828  27.352  1.00  0.00     0.129 A 
ATOM     17  C   UNL A   1      34.070  27.290  25.810  1.00  0.00     0.040 A 
ATOM     18  C   UNL A   1      32.986  28.571  27.545  1.00  0.00     0.078 A 
ATOM     19  F   UNL A   1      30.737  28.160  28.058  1.00  0.00    -0.207 F 
ATOM     20  C   UNL A   1      34.103  28.289  26.774  1.00  0.00     0.126 A 
ATOM     21  F   UNL A   1      35.224  29.002  26.945  1.00  0.00    -0.207 F 
ENDBRANCH  13  14
ENDBRANCH  10  13
ENDBRANCH   8   9
ENDBRANCH   6   8
ENDBRANCH   3   6
ENDBRANCH   1   2
BRANCH   1  22
ATOM     22  C   UNL A   1      30.810  31.187  25.732  1.00  0.00     0.042 C 
BRANCH  22  23
ATOM     23  C   UNL A   1      32.065  31.668  26.448  1.00  0.00     0.118 C 
BRANCH  23  24
ATOM     24  N   UNL A   1      31.956  33.033  26.955  1.00  0.00    -0.352 N 
ATOM     25  C   UNL A   1      32.795  33.728  27.796  1.00  0.00     0.251 C 
ATOM     26  H   UNL A   1      31.164  33.531  26.649  1.00  0.00     0.163 HD
ATOM     27  O   UNL A   1      32.490  34.842  28.212  1.00  0.00    -0.269 OA
BRANCH  25  28
ATOM     28  C   UNL A   1      34.059  33.107  28.240  1.00  0.00     0.039 A 
ATOM     29  C   UNL A   1      35.240  33.853  28.193  1.00  0.00     0.014 A 
ATOM     30  C   UNL A   1      34.067  31.809  28.752  1.00  0.00     0.014 A 
ATOM     31  C   UNL A   1      36.406  33.336  28.763  1.00  0.00     0.010 A 
ATOM     32  C   UNL A   1      35.195  31.342  29.412  1.00  0.00     0.010 A 
ATOM     33  C   UNL A   1      36.377  32.100  29.430  1.00  0.00    -0.014 A 
BRANCH  33  34
ATOM     34  C   UNL A   1      37.558  31.562  30.153  1.00  0.00     0.031 A 
ATOM     35  C   UNL A   1      38.471  30.590  29.458  1.00  0.00     0.074 A 
ATOM     36  C   UNL A   1      37.752  31.859  31.452  1.00  0.00     0.049 A 
ATOM     37  N   UNL A   1      39.433  29.856  29.955  1.00  0.00    -0.248 NA
ATOM     38  C   UNL A   1      38.241  30.384  28.018  1.00  0.00     0.031 C 
ATOM     39  C   UNL A   1      36.918  32.755  32.257  1.00  0.00     0.029 A 
ATOM     40  N   UNL A   1      38.709  31.421  32.335  1.00  0.00    -0.354 N 
ATOM     41  C   UNL A   1      39.890  29.075  28.902  1.00  0.00     0.074 A 
ATOM     42  C   UNL A   1      39.072  29.389  27.751  1.00  0.00     0.031 C 
ATOM     43  C   UNL A   1      37.417  32.823  33.502  1.00  0.00     0.029 A 
ATOM     44  C   UNL A   1      38.575  31.940  33.600  1.00  0.00     0.049 A 
ATOM     45  H   UNL A   1      39.425  30.793  32.085  1.00  0.00     0.167 HD
ATOM     46  C   UNL A   1      40.915  28.191  28.888  1.00  0.00     0.037 A 
ATOM     47  C   UNL A   1      39.296  31.721  34.716  1.00  0.00     0.037 A 
ATOM     48  C   UNL A   1      41.767  27.927  30.016  1.00  0.00     0.049 A 
ATOM     49  C   UNL A   1      40.450  30.759  34.668  1.00  0.00     0.074 A 
ATOM     50  C   UNL A   1      42.869  27.094  30.086  1.00  0.00     0.029 A 
ATOM     51  N   UNL A   1      41.621  28.510  31.266  1.00  0.00    -0.354 N 
ATOM     52  N   UNL A   1      40.885  30.042  33.661  1.00  0.00    -0.248 NA
ATOM     53  C   UNL A   1      41.212  30.571  35.912  1.00  0.00     0.031 C 
ATOM     54  C   UNL A   1      43.379  27.155  31.386  1.00  0.00     0.029 A 
ATOM     55  C   UNL A   1      42.614  28.053  32.114  1.00  0.00     0.049 A 
ATOM     56  H   UNL A   1      40.917  29.152  31.512  1.00  0.00     0.167 HD
ATOM     57  C   UNL A   1      41.983  29.341  34.139  1.00  0.00     0.074 A 
ATOM     58  C   UNL A   1      42.154  29.721  35.526  1.00  0.00     0.031 C 
ATOM     59  C   UNL A   1      42.778  28.458  33.486  1.00  0.00     0.037 A 
BRANCH  46  60
ATOM     60  C   UNL A   1      41.183  27.461  27.606  1.00  0.00     0.057 A 
ATOM     61  C   UNL A   1      40.615  26.204  27.366  1.00  0.00     0.134 A 
ATOM     62  C   UNL A   1      42.030  27.988  26.623  1.00  0.00     0.134 A 
ATOM     63  F   UNL A   1      39.799  25.640  28.269  1.00  0.00    -0.206 F 
ATOM     64  C   UNL A   1      40.882  25.495  26.194  1.00  0.00     0.040 A 
ATOM     65  C   UNL A   1      42.283  27.301  25.435  1.00  0.00     0.040 A 
ATOM     66  F   UNL A   1      42.593  29.194  26.786  1.00  0.00    -0.206 F 
ATOM     67  C   UNL A   1      41.714  26.047  25.221  1.00  0.00     0.006 A 
ENDBRANCH  46  60
BRANCH  47  68
ATOM     68  C   UNL A   1      38.969  32.454  35.963  1.00  0.00     0.057 A 
ATOM     69  C   UNL A   1      38.164  31.893  36.960  1.00  0.00     0.134 A 
ATOM     70  C   UNL A   1      39.449  33.752  36.176  1.00  0.00     0.134 A 
ATOM     71  F   UNL A   1      37.668  30.656  36.814  1.00  0.00    -0.206 F 
ATOM     72  C   UNL A   1      37.838  32.600  38.120  1.00  0.00     0.040 A 
ATOM     73  C   UNL A   1      39.148  34.462  37.339  1.00  0.00     0.040 A 
ATOM     74  F   UNL A   1      40.240  34.335  35.263  1.00  0.00    -0.206 F 
ATOM     75  C   UNL A   1      38.335  33.887  38.313  1.00  0.00     0.006 A 
ENDBRANCH  47  68
BRANCH  59  76
ATOM     76  C   UNL A   1      43.929  27.869  34.243  1.00  0.00     0.057 A 
ATOM     77  C   UNL A   1      43.770  26.676  34.960  1.00  0.00     0.134 A 
ATOM     78  C   UNL A   1      45.159  28.526  34.336  1.00  0.00     0.134 A 
ATOM     79  F   UNL A   1      42.609  26.006  34.918  1.00  0.00    -0.206 F 
ATOM     80  C   UNL A   1      44.793  26.166  35.758  1.00  0.00     0.040 A 
ATOM     81  C   UNL A   1      46.198  28.015  35.115  1.00  0.00     0.040 A 
ATOM     82  F   UNL A   1      45.374  29.668  33.664  1.00  0.00    -0.206 F 
ATOM     83  C   UNL A   1      46.012  26.837  35.837  1.00  0.00     0.006 A 
ENDBRANCH  59  76
ENDBRANCH  33  34
ENDBRANCH  25  28
ENDBRANCH  23  24
ENDBRANCH  22  23
ENDBRANCH   1  22
TORSDOF 14
ENDMDL
MODEL 3
REMARK VINA RESULT:     -11.2      0.379      6.362
REMARK SMILES C[C@@H](CNC(=O)Cc1ccc(F)cc1F)C(=O)NCCCNC(=O)c1ccc(-c2c3nc(c(-c4c(F)cccc4F)c4ccc([nH]4)c(-c4c(F)cccc4F)c4nc(c(-c5c(F)cccc5F)c5ccc2[nH]5)C=C4)C=C3)cc1
REMARK SMILES IDX 19 1 18 2 16 3 17 4 2 6 1 7 3 8 4 9 5 10 6 12 7 13 8 14 9 15
REMARK SMILES IDX 14 16 10 17 13 18 15 19 11 20 12 21 20 22 21 23 22 24 23 25
REMARK SMILES IDX 24 27 25 28 26 29 78 30 27 31 77 32 28 33 29 34 30 35 71 36
REMARK SMILES IDX 31 37 76 38 70 39 72 40 32 41 75 42 69 43 68 44 33 46 59 47
REMARK SMILES IDX 42 48 58 49 43 50 46 51 57 52 73 53 44 54 45 55 56 57 74 58
REMARK SMILES IDX 47 59 34 60 35 61 40 62 36 63 37 64 39 65 41 66 38 67 60 68
REMARK SMILES IDX 61 69 66 70 62 71 63 72 65 73 67 74 64 75 48 76 49 77 54 78
REMARK SMILES IDX 50 79 51 80 53 81 55 82 52 83
REMARK H PARENT 18 5 4 11 22 26 72 45 46 56
REMARK Flexibility Score: inf
ROOT
ATOM      1  C   UNL A   1      36.707  21.245  24.735  1.00  0.00     0.117 C 
ENDROOT
BRANCH   1   2
ATOM      2  N   UNL A   1      35.822  21.502  25.860  1.00  0.00    -0.356 N 
ATOM      3  C   UNL A   1      34.522  21.178  26.069  1.00  0.00     0.224 C 
ATOM      4  O   UNL A   1      34.096  21.307  27.222  1.00  0.00    -0.275 OA
ATOM      5  H   UNL A   1      36.241  21.998  26.600  1.00  0.00     0.163 HD
BRANCH   3   6
ATOM      6  C   UNL A   1      33.587  20.687  24.971  1.00  0.00     0.094 C 
ATOM      7  C   UNL A   1      33.377  19.176  24.967  1.00  0.00     0.020 C 
BRANCH   6   8
ATOM      8  C   UNL A   1      32.313  21.527  24.798  1.00  0.00     0.129 C 
BRANCH   8   9
ATOM      9  N   UNL A   1      31.603  21.829  26.025  1.00  0.00    -0.355 N 
ATOM     10  C   UNL A   1      31.069  23.006  26.463  1.00  0.00     0.224 C 
ATOM     11  H   UNL A   1      31.488  21.067  26.636  1.00  0.00     0.163 HD
ATOM     12  O   UNL A   1      30.622  23.031  27.613  1.00  0.00    -0.275 OA
BRANCH  10  13
ATOM     13  C   UNL A   1      30.917  24.198  25.540  1.00  0.00     0.138 C 
BRANCH  13  14
ATOM     14  C   UNL A   1      31.728  25.442  25.812  1.00  0.00    -0.003 A 
ATOM     15  C   UNL A   1      31.076  26.554  26.376  1.00  0.00     0.010 A 
ATOM     16  C   UNL A   1      33.105  25.533  25.587  1.00  0.00     0.129 A 
ATOM     17  C   UNL A   1      31.774  27.735  26.632  1.00  0.00     0.040 A 
ATOM     18  C   UNL A   1      33.802  26.717  25.809  1.00  0.00     0.078 A 
ATOM     19  F   UNL A   1      33.788  24.468  25.152  1.00  0.00    -0.207 F 
ATOM     20  C   UNL A   1      33.126  27.811  26.324  1.00  0.00     0.126 A 
ATOM     21  F   UNL A   1      33.788  28.954  26.549  1.00  0.00    -0.207 F 
ENDBRANCH  13  14
ENDBRANCH  10  13
ENDBRANCH   8   9
ENDBRANCH   6   8
ENDBRANCH   3   6
ENDBRANCH   1   2
BRANCH   1  22
ATOM     22  C   UNL A   1      37.646  20.077  24.978  1.00  0.00     0.042 C 
BRANCH  22  23
ATOM     23  C   UNL A   1      38.899  20.475  25.747  1.00  0.00     0.118 C 
BRANCH  23  24
ATOM     24  N   UNL A   1      39.915  19.427  25.782  1.00  0.00    -0.352 N 
ATOM     25  C   UNL A   1      41.249  19.505  26.114  1.00  0.00     0.251 C 
ATOM     26  H   UNL A   1      39.599  18.529  25.531  1.00  0.00     0.163 HD
ATOM     27  O   UNL A   1      41.990  18.535  25.981  1.00  0.00    -0.269 OA
BRANCH  25  28
ATOM     28  C   UNL A   1      41.805  20.786  26.595  1.00  0.00     0.039 A 
ATOM     29  C   UNL A   1      42.348  21.684  25.671  1.00  0.00     0.014 A 
ATOM     30  C   UNL A   1      41.738  21.121  27.947  1.00  0.00     0.014 A 
ATOM     31  C   UNL A   1      42.723  22.962  26.091  1.00  0.00     0.010 A 
ATOM     32  C   UNL A   1      42.009  22.425  28.342  1.00  0.00     0.010 A 
ATOM     33  C   UNL A   1      42.500  23.362  27.419  1.00  0.00    -0.014 A 
BRANCH  33  34
ATOM     34  C   UNL A   1      42.772  24.746  27.885  1.00  0.00     0.031 A 
ATOM     35  C   UNL A   1      44.175  25.140  28.258  1.00  0.00     0.074 A 
ATOM     36  C   UNL A   1      41.756  25.611  28.075  1.00  0.00     0.049 A 
ATOM     37  N   UNL A   1      44.600  26.218  28.865  1.00  0.00    -0.248 NA
ATOM     38  C   UNL A   1      45.237  24.170  27.943  1.00  0.00     0.031 C 
ATOM     39  C   UNL A   1      40.344  25.342  27.793  1.00  0.00     0.029 A 
ATOM     40  N   UNL A   1      41.755  26.892  28.569  1.00  0.00    -0.354 N 
ATOM     41  C   UNL A   1      45.965  26.034  29.042  1.00  0.00     0.074 A 
ATOM     42  C   UNL A   1      46.291  24.725  28.520  1.00  0.00     0.031 C 
ATOM     43  C   UNL A   1      39.620  26.434  28.090  1.00  0.00     0.029 A 
ATOM     44  C   UNL A   1      40.506  27.462  28.628  1.00  0.00     0.049 A 
ATOM     45  H   UNL A   1      42.573  27.360  28.855  1.00  0.00     0.167 HD
ATOM     46  C   UNL A   1      46.871  26.889  29.570  1.00  0.00     0.037 A 
ATOM     47  C   UNL A   1      40.116  28.670  29.076  1.00  0.00     0.037 A 
ATOM     48  C   UNL A   1      46.556  28.215  30.030  1.00  0.00     0.049 A 
ATOM     49  C   UNL A   1      41.145  29.616  29.629  1.00  0.00     0.074 A 
ATOM     50  C   UNL A   1      47.412  29.180  30.528  1.00  0.00     0.029 A 
ATOM     51  N   UNL A   1      45.283  28.766  30.030  1.00  0.00    -0.354 N 
ATOM     52  N   UNL A   1      42.436  29.438  29.771  1.00  0.00    -0.248 NA
ATOM     53  C   UNL A   1      40.665  30.928  30.089  1.00  0.00     0.031 C 
ATOM     54  C   UNL A   1      46.656  30.310  30.849  1.00  0.00     0.029 A 
ATOM     55  C   UNL A   1      45.333  30.059  30.520  1.00  0.00     0.049 A 
ATOM     56  H   UNL A   1      44.468  28.306  29.727  1.00  0.00     0.167 HD
ATOM     57  C   UNL A   1      42.926  30.620  30.309  1.00  0.00     0.074 A 
ATOM     58  C   UNL A   1      41.795  31.512  30.464  1.00  0.00     0.031 C 
ATOM     59  C   UNL A   1      44.199  30.937  30.647  1.00  0.00     0.037 A 
BRANCH  46  60
ATOM     60  C   UNL A   1      48.293  26.423  29.660  1.00  0.00     0.057 A 
ATOM     61  C   UNL A   1      48.760  25.765  30.804  1.00  0.00     0.134 A 
ATOM     62  C   UNL A   1      49.210  26.655  28.626  1.00  0.00     0.134 A 
ATOM     63  F   UNL A   1      47.935  25.515  31.832  1.00  0.00    -0.206 F 
ATOM     64  C   UNL A   1      50.090  25.356  30.918  1.00  0.00     0.040 A 
ATOM     65  C   UNL A   1      50.535  26.227  28.717  1.00  0.00     0.040 A 
ATOM     66  F   UNL A   1      48.821  27.268  27.498  1.00  0.00    -0.206 F 
ATOM     67  C   UNL A   1      50.980  25.582  29.869  1.00  0.00     0.006 A 
ENDBRANCH  46  60
BRANCH  47  68
ATOM     68  C   UNL A   1      38.690  29.068  28.985  1.00  0.00     0.057 A 
ATOM     69  C   UNL A   1      37.817  28.938  30.070  1.00  0.00     0.134 A 
ATOM     70  C   UNL A   1      38.165  29.576  27.791  1.00  0.00     0.134 A 
ATOM     71  F   UNL A   1      38.257  28.452  31.240  1.00  0.00    -0.206 F 
ATOM     72  C   UNL A   1      36.468  29.290  29.969  1.00  0.00     0.040 A 
ATOM     73  C   UNL A   1      36.825  29.950  27.681  1.00  0.00     0.040 A 
ATOM     74  F   UNL A   1      38.958  29.740  26.722  1.00  0.00    -0.206 F 
ATOM     75  C   UNL A   1      35.971  29.801  28.772  1.00  0.00     0.006 A 
ENDBRANCH  47  68
BRANCH  59  76
ATOM     76  C   UNL A   1      44.454  32.314  31.180  1.00  0.00     0.057 A 
ATOM     77  C   UNL A   1      44.779  33.363  30.309  1.00  0.00     0.134 A 
ATOM     78  C   UNL A   1      44.467  32.579  32.553  1.00  0.00     0.134 A 
ATOM     79  F   UNL A   1      44.792  33.167  28.983  1.00  0.00    -0.206 F 
ATOM     80  C   UNL A   1      45.124  34.626  30.790  1.00  0.00     0.040 A 
ATOM     81  C   UNL A   1      44.791  33.843  33.045  1.00  0.00     0.040 A 
ATOM     82  F   UNL A   1      44.156  31.616  33.435  1.00  0.00    -0.206 F 
ATOM     83  C   UNL A   1      45.132  34.868  32.163  1.00  0.00     0.006 A 
ENDBRANCH  59  76
ENDBRANCH  33  34
ENDBRANCH  25  28
ENDBRANCH  23  24
ENDBRANCH  22  23
ENDBRANCH   1  22
TORSDOF 14
ENDMDL
