MODEL 1
REMARK VINA RESULT:     -10.2      0.000      0.000
REMARK SMILES C[N@H+](CC(=O)NCCCNC(=O)c1ccc(-c2c3nc(c(-c4c(F)cccc4F)c4ccc([nH]4)c(-c4c(F)cccc4F)c4nc(c(-c5c(F)cccc5F)c5ccc2[nH]5)C=C4)C=C3)cc1)Cc1nc(-c2ccsc2)no1
REMARK SMILES IDX 7 1 6 2 4 3 5 4 3 6 2 7 1 8 67 10 68 11 69 12 77 13 70 14
REMARK SMILES IDX 76 15 71 16 72 17 75 18 73 19 74 20 8 21 9 22 10 23 11 24
REMARK SMILES IDX 12 26 13 27 14 28 66 29 15 30 65 31 16 32 17 33 18 34 59 35
REMARK SMILES IDX 19 36 64 37 58 38 60 39 20 40 63 41 57 42 56 43 21 45 47 46
REMARK SMILES IDX 30 47 46 48 31 49 34 50 45 51 61 52 32 53 33 54 44 56 62 57
REMARK SMILES IDX 35 58 22 59 23 60 28 61 24 62 25 63 27 64 29 65 26 66 48 67
REMARK SMILES IDX 49 68 54 69 50 70 51 71 53 72 55 73 52 74 36 75 37 76 42 77
REMARK SMILES IDX 38 78 39 79 41 80 43 81 40 82
REMARK H PARENT 6 5 2 9 10 25 60 44 34 55
REMARK Flexibility Score: inf
ROOT
ATOM      1  C   UNL A   1      32.938  36.522  30.824  1.00  0.00     0.118 C 
ENDROOT
BRANCH   1   2
ATOM      2  N   UNL A   1      33.092  37.141  32.130  1.00  0.00    -0.351 N 
ATOM      3  C   UNL A   1      33.932  36.789  33.153  1.00  0.00     0.275 C 
ATOM      4  O   UNL A   1      33.953  37.477  34.177  1.00  0.00    -0.269 OA
ATOM      5  H   UNL A   1      32.514  37.918  32.303  1.00  0.00     0.163 HD
BRANCH   3   6
ATOM      6  C   UNL A   1      34.844  35.571  32.995  1.00  0.00     0.363 C 
BRANCH   6   7
ATOM      7  N   UNL A   1      34.545  34.555  34.025  1.00  0.00    -0.322 N 
ATOM      8  C   UNL A   1      34.332  33.239  33.440  1.00  0.00     0.333 C 
ATOM      9  H   UNL A   1      33.674  34.846  34.470  1.00  0.00     0.348 HD
BRANCH   7  10
ATOM     10  C   UNL A   1      35.579  34.502  35.085  1.00  0.00     0.364 C 
BRANCH  10  11
ATOM     11  C   UNL A   1      36.496  33.325  35.006  1.00  0.00     0.282 A 
ATOM     12  N   UNL A   1      36.931  32.637  33.971  1.00  0.00    -0.186 NA
ATOM     13  O   UNL A   1      36.984  32.872  36.200  1.00  0.00    -0.333 OA
ATOM     14  C   UNL A   1      37.632  31.629  34.582  1.00  0.00     0.203 A 
ATOM     15  N   UNL A   1      37.738  31.734  35.913  1.00  0.00    -0.057 NA
BRANCH  14  16
ATOM     16  C   UNL A   1      38.135  30.505  33.797  1.00  0.00     0.033 A 
ATOM     17  C   UNL A   1      39.488  30.058  33.855  1.00  0.00     0.024 A 
ATOM     18  C   UNL A   1      37.376  29.729  32.951  1.00  0.00     0.077 A 
ATOM     19  C   UNL A   1      39.691  28.929  33.091  1.00  0.00     0.065 A 
ATOM     20  S   UNL A   1      38.267  28.436  32.277  1.00  0.00    -0.152 S 
ENDBRANCH  14  16
ENDBRANCH  10  11
ENDBRANCH   7  10
ENDBRANCH   6   7
ENDBRANCH   3   6
ENDBRANCH   1   2
BRANCH   1  21
ATOM     21  C   UNL A   1      33.453  37.372  29.663  1.00  0.00     0.042 C 
BRANCH  21  22
ATOM     22  C   UNL A   1      33.833  36.580  28.418  1.00  0.00     0.118 C 
BRANCH  22  23
ATOM     23  N   UNL A   1      32.913  35.488  28.136  1.00  0.00    -0.352 N 
ATOM     24  C   UNL A   1      33.099  34.126  28.133  1.00  0.00     0.251 C 
ATOM     25  H   UNL A   1      31.999  35.774  27.908  1.00  0.00     0.163 HD
ATOM     26  O   UNL A   1      32.192  33.405  27.724  1.00  0.00    -0.269 OA
BRANCH  24  27
ATOM     27  C   UNL A   1      34.370  33.504  28.581  1.00  0.00     0.039 A 
ATOM     28  C   UNL A   1      35.522  33.724  27.821  1.00  0.00     0.014 A 
ATOM     29  C   UNL A   1      34.437  32.655  29.687  1.00  0.00     0.014 A 
ATOM     30  C   UNL A   1      36.740  33.146  28.200  1.00  0.00     0.010 A 
ATOM     31  C   UNL A   1      35.665  32.140  30.112  1.00  0.00     0.010 A 
ATOM     32  C   UNL A   1      36.830  32.374  29.369  1.00  0.00    -0.014 A 
BRANCH  32  33
ATOM     33  C   UNL A   1      38.133  31.808  29.812  1.00  0.00     0.031 A 
ATOM     34  C   UNL A   1      39.001  32.548  30.794  1.00  0.00     0.074 A 
ATOM     35  C   UNL A   1      38.558  30.633  29.305  1.00  0.00     0.049 A 
ATOM     36  N   UNL A   1      40.172  32.214  31.280  1.00  0.00    -0.248 NA
ATOM     37  C   UNL A   1      38.500  33.843  31.279  1.00  0.00     0.031 C 
ATOM     38  C   UNL A   1      37.838  29.829  28.317  1.00  0.00     0.029 A 
ATOM     39  N   UNL A   1      39.699  29.910  29.553  1.00  0.00    -0.354 N 
ATOM     40  C   UNL A   1      40.548  33.257  32.117  1.00  0.00     0.074 A 
ATOM     41  C   UNL A   1      39.506  34.259  32.033  1.00  0.00     0.031 C 
ATOM     42  C   UNL A   1      38.538  28.710  28.067  1.00  0.00     0.029 A 
ATOM     43  C   UNL A   1      39.770  28.732  28.850  1.00  0.00     0.049 A 
ATOM     44  H   UNL A   1      40.401  30.208  30.175  1.00  0.00     0.167 HD
ATOM     45  C   UNL A   1      41.647  33.365  32.902  1.00  0.00     0.037 A 
ATOM     46  C   UNL A   1      40.716  27.775  28.838  1.00  0.00     0.037 A 
ATOM     47  C   UNL A   1      42.677  32.364  33.007  1.00  0.00     0.049 A 
ATOM     48  C   UNL A   1      41.931  27.921  29.708  1.00  0.00     0.074 A 
ATOM     49  C   UNL A   1      43.800  32.361  33.816  1.00  0.00     0.029 A 
ATOM     50  N   UNL A   1      42.710  31.186  32.277  1.00  0.00    -0.354 N 
ATOM     51  N   UNL A   1      42.241  28.886  30.541  1.00  0.00    -0.248 NA
ATOM     52  C   UNL A   1      42.928  26.842  29.642  1.00  0.00     0.031 C 
ATOM     53  C   UNL A   1      44.531  31.198  33.550  1.00  0.00     0.029 A 
ATOM     54  C   UNL A   1      43.843  30.458  32.604  1.00  0.00     0.049 A 
ATOM     55  H   UNL A   1      42.028  30.908  31.623  1.00  0.00     0.167 HD
ATOM     56  C   UNL A   1      43.451  28.517  31.115  1.00  0.00     0.074 A 
ATOM     57  C   UNL A   1      43.814  27.237  30.545  1.00  0.00     0.031 C 
ATOM     58  C   UNL A   1      44.192  29.182  32.035  1.00  0.00     0.037 A 
BRANCH  45  59
ATOM     59  C   UNL A   1      41.788  34.616  33.721  1.00  0.00     0.057 A 
ATOM     60  C   UNL A   1      42.572  35.693  33.288  1.00  0.00     0.134 A 
ATOM     61  C   UNL A   1      41.111  34.757  34.939  1.00  0.00     0.134 A 
ATOM     62  F   UNL A   1      43.253  35.618  32.135  1.00  0.00    -0.206 F 
ATOM     63  C   UNL A   1      42.704  36.855  34.053  1.00  0.00     0.040 A 
ATOM     64  C   UNL A   1      41.215  35.924  35.700  1.00  0.00     0.040 A 
ATOM     65  F   UNL A   1      40.336  33.768  35.406  1.00  0.00    -0.206 F 
ATOM     66  C   UNL A   1      42.019  36.974  35.260  1.00  0.00     0.006 A 
ENDBRANCH  45  59
BRANCH  46  67
ATOM     67  C   UNL A   1      40.536  26.568  27.994  1.00  0.00     0.057 A 
ATOM     68  C   UNL A   1      41.202  26.442  26.770  1.00  0.00     0.134 A 
ATOM     69  C   UNL A   1      39.696  25.519  28.383  1.00  0.00     0.134 A 
ATOM     70  F   UNL A   1      42.004  27.425  26.334  1.00  0.00    -0.206 F 
ATOM     71  C   UNL A   1      41.031  25.322  25.956  1.00  0.00     0.040 A 
ATOM     72  C   UNL A   1      39.532  24.382  27.590  1.00  0.00     0.040 A 
ATOM     73  F   UNL A   1      39.034  25.578  29.547  1.00  0.00    -0.206 F 
ATOM     74  C   UNL A   1      40.196  24.285  26.369  1.00  0.00     0.006 A 
ENDBRANCH  46  67
BRANCH  58  75
ATOM     75  C   UNL A   1      45.453  28.520  32.506  1.00  0.00     0.057 A 
ATOM     76  C   UNL A   1      46.692  28.783  31.911  1.00  0.00     0.134 A 
ATOM     77  C   UNL A   1      45.430  27.633  33.590  1.00  0.00     0.134 A 
ATOM     78  F   UNL A   1      46.778  29.612  30.859  1.00  0.00    -0.206 F 
ATOM     79  C   UNL A   1      47.862  28.172  32.363  1.00  0.00     0.040 A 
ATOM     80  C   UNL A   1      46.596  27.033  34.067  1.00  0.00     0.040 A 
ATOM     81  F   UNL A   1      44.275  27.343  34.209  1.00  0.00    -0.206 F 
ATOM     82  C   UNL A   1      47.817  27.298  33.449  1.00  0.00     0.006 A 
ENDBRANCH  58  75
ENDBRANCH  32  33
ENDBRANCH  24  27
ENDBRANCH  22  23
ENDBRANCH  21  22
ENDBRANCH   1  21
TORSDOF 14
ENDMDL
MODEL 2
REMARK VINA RESULT:     -10.0      0.306      6.385
REMARK SMILES C[N@H+](CC(=O)NCCCNC(=O)c1ccc(-c2c3nc(c(-c4c(F)cccc4F)c4ccc([nH]4)c(-c4c(F)cccc4F)c4nc(c(-c5c(F)cccc5F)c5ccc2[nH]5)C=C4)C=C3)cc1)Cc1nc(-c2ccsc2)no1
REMARK SMILES IDX 7 1 6 2 4 3 5 4 3 6 2 7 1 8 67 10 68 11 69 12 77 13 70 14
REMARK SMILES IDX 76 15 71 16 72 17 75 18 73 19 74 20 8 21 9 22 10 23 11 24
REMARK SMILES IDX 12 26 13 27 14 28 66 29 15 30 65 31 16 32 17 33 18 34 59 35
REMARK SMILES IDX 19 36 64 37 58 38 60 39 20 40 63 41 57 42 56 43 21 45 47 46
REMARK SMILES IDX 30 47 46 48 31 49 34 50 45 51 61 52 32 53 33 54 44 56 62 57
REMARK SMILES IDX 35 58 22 59 23 60 28 61 24 62 25 63 27 64 29 65 26 66 48 67
REMARK SMILES IDX 49 68 54 69 50 70 51 71 53 72 55 73 52 74 36 75 37 76 42 77
REMARK SMILES IDX 38 78 39 79 41 80 43 81 40 82
REMARK H PARENT 6 5 2 9 10 25 60 44 34 55
REMARK Flexibility Score: inf
ROOT
ATOM      1  C   UNL A   1      32.948  36.452  30.853  1.00  0.00     0.118 C 
ENDROOT
BRANCH   1   2
ATOM      2  N   UNL A   1      33.097  37.113  32.139  1.00  0.00    -0.351 N 
ATOM      3  C   UNL A   1      33.944  36.804  33.170  1.00  0.00     0.275 C 
ATOM      4  O   UNL A   1      33.959  37.523  34.172  1.00  0.00    -0.269 OA
ATOM      5  H   UNL A   1      32.509  37.888  32.290  1.00  0.00     0.163 HD
BRANCH   3   6
ATOM      6  C   UNL A   1      34.872  35.593  33.047  1.00  0.00     0.363 C 
BRANCH   6   7
ATOM      7  N   UNL A   1      34.515  34.557  34.038  1.00  0.00    -0.322 N 
ATOM      8  C   UNL A   1      34.328  33.255  33.413  1.00  0.00     0.333 C 
ATOM      9  H   UNL A   1      33.622  34.842  34.441  1.00  0.00     0.348 HD
BRANCH   7  10
ATOM     10  C   UNL A   1      35.490  34.476  35.150  1.00  0.00     0.364 C 
BRANCH  10  11
ATOM     11  C   UNL A   1      36.451  33.335  35.057  1.00  0.00     0.282 A 
ATOM     12  N   UNL A   1      36.873  32.643  34.020  1.00  0.00    -0.186 NA
ATOM     13  O   UNL A   1      37.002  32.927  36.240  1.00  0.00    -0.333 OA
ATOM     14  C   UNL A   1      37.637  31.677  34.623  1.00  0.00     0.203 A 
ATOM     15  N   UNL A   1      37.790  31.814  35.946  1.00  0.00    -0.057 NA
BRANCH  14  16
ATOM     16  C   UNL A   1      38.154  30.557  33.840  1.00  0.00     0.033 A 
ATOM     17  C   UNL A   1      39.526  30.167  33.851  1.00  0.00     0.024 A 
ATOM     18  C   UNL A   1      37.394  29.731  33.043  1.00  0.00     0.077 A 
ATOM     19  C   UNL A   1      39.745  29.031  33.103  1.00  0.00     0.065 A 
ATOM     20  S   UNL A   1      38.311  28.462  32.359  1.00  0.00    -0.152 S 
ENDBRANCH  14  16
ENDBRANCH  10  11
ENDBRANCH   7  10
ENDBRANCH   6   7
ENDBRANCH   3   6
ENDBRANCH   1   2
BRANCH   1  21
ATOM     21  C   UNL A   1      33.287  37.334  29.652  1.00  0.00     0.042 C 
BRANCH  21  22
ATOM     22  C   UNL A   1      33.734  36.569  28.412  1.00  0.00     0.118 C 
BRANCH  22  23
ATOM     23  N   UNL A   1      32.862  35.451  28.087  1.00  0.00    -0.352 N 
ATOM     24  C   UNL A   1      33.096  34.097  28.065  1.00  0.00     0.251 C 
ATOM     25  H   UNL A   1      31.944  35.709  27.841  1.00  0.00     0.163 HD
ATOM     26  O   UNL A   1      32.226  33.352  27.621  1.00  0.00    -0.269 OA
BRANCH  24  27
ATOM     27  C   UNL A   1      34.376  33.512  28.536  1.00  0.00     0.039 A 
ATOM     28  C   UNL A   1      35.548  33.828  27.840  1.00  0.00     0.014 A 
ATOM     29  C   UNL A   1      34.440  32.608  29.597  1.00  0.00     0.014 A 
ATOM     30  C   UNL A   1      36.775  33.289  28.242  1.00  0.00     0.010 A 
ATOM     31  C   UNL A   1      35.673  32.129  30.048  1.00  0.00     0.010 A 
ATOM     32  C   UNL A   1      36.855  32.459  29.370  1.00  0.00    -0.014 A 
BRANCH  32  33
ATOM     33  C   UNL A   1      38.166  31.931  29.840  1.00  0.00     0.031 A 
ATOM     34  C   UNL A   1      38.680  30.602  29.356  1.00  0.00     0.074 A 
ATOM     35  C   UNL A   1      38.888  32.637  30.733  1.00  0.00     0.049 A 
ATOM     36  N   UNL A   1      39.791  29.981  29.670  1.00  0.00    -0.248 NA
ATOM     37  C   UNL A   1      37.827  29.863  28.414  1.00  0.00     0.031 C 
ATOM     38  C   UNL A   1      38.492  33.920  31.315  1.00  0.00     0.029 A 
ATOM     39  N   UNL A   1      40.108  32.375  31.307  1.00  0.00    -0.354 N 
ATOM     40  C   UNL A   1      39.765  28.780  28.972  1.00  0.00     0.074 A 
ATOM     41  C   UNL A   1      38.505  28.736  28.260  1.00  0.00     0.031 C 
ATOM     42  C   UNL A   1      39.464  34.348  32.137  1.00  0.00     0.029 A 
ATOM     43  C   UNL A   1      40.536  33.357  32.167  1.00  0.00     0.049 A 
ATOM     44  H   UNL A   1      40.627  31.560  31.119  1.00  0.00     0.167 HD
ATOM     45  C   UNL A   1      40.709  27.811  28.909  1.00  0.00     0.037 A 
ATOM     46  C   UNL A   1      41.663  33.452  32.896  1.00  0.00     0.037 A 
ATOM     47  C   UNL A   1      41.973  27.857  29.598  1.00  0.00     0.049 A 
ATOM     48  C   UNL A   1      42.692  32.360  32.818  1.00  0.00     0.074 A 
ATOM     49  C   UNL A   1      43.016  26.947  29.552  1.00  0.00     0.029 A 
ATOM     50  N   UNL A   1      42.366  28.869  30.460  1.00  0.00    -0.354 N 
ATOM     51  N   UNL A   1      42.678  31.261  32.105  1.00  0.00    -0.248 NA
ATOM     52  C   UNL A   1      43.897  32.525  33.645  1.00  0.00     0.031 C 
ATOM     53  C   UNL A   1      44.025  27.391  30.414  1.00  0.00     0.029 A 
ATOM     54  C   UNL A   1      43.627  28.597  30.966  1.00  0.00     0.049 A 
ATOM     55  H   UNL A   1      41.829  29.664  30.679  1.00  0.00     0.167 HD
ATOM     56  C   UNL A   1      43.880  30.618  32.375  1.00  0.00     0.074 A 
ATOM     57  C   UNL A   1      44.603  31.456  33.309  1.00  0.00     0.031 C 
ATOM     58  C   UNL A   1      44.341  29.440  31.890  1.00  0.00     0.037 A 
BRANCH  45  59
ATOM     59  C   UNL A   1      40.411  26.613  28.054  1.00  0.00     0.057 A 
ATOM     60  C   UNL A   1      39.534  25.606  28.479  1.00  0.00     0.134 A 
ATOM     61  C   UNL A   1      40.983  26.478  26.782  1.00  0.00     0.134 A 
ATOM     62  F   UNL A   1      38.960  25.671  29.690  1.00  0.00    -0.206 F 
ATOM     63  C   UNL A   1      39.260  24.492  27.683  1.00  0.00     0.040 A 
ATOM     64  C   UNL A   1      40.696  25.381  25.967  1.00  0.00     0.040 A 
ATOM     65  F   UNL A   1      41.822  27.411  26.310  1.00  0.00    -0.206 F 
ATOM     66  C   UNL A   1      39.838  24.381  26.420  1.00  0.00     0.006 A 
ENDBRANCH  45  59
BRANCH  46  67
ATOM     67  C   UNL A   1      41.898  34.649  33.741  1.00  0.00     0.057 A 
ATOM     68  C   UNL A   1      41.396  34.717  35.045  1.00  0.00     0.134 A 
ATOM     69  C   UNL A   1      42.623  35.750  33.269  1.00  0.00     0.134 A 
ATOM     70  F   UNL A   1      40.677  33.701  35.545  1.00  0.00    -0.206 F 
ATOM     71  C   UNL A   1      41.593  35.842  35.847  1.00  0.00     0.040 A 
ATOM     72  C   UNL A   1      42.847  36.873  34.067  1.00  0.00     0.040 A 
ATOM     73  F   UNL A   1      43.134  35.743  32.030  1.00  0.00    -0.206 F 
ATOM     74  C   UNL A   1      42.325  36.923  35.359  1.00  0.00     0.006 A 
ENDBRANCH  46  67
BRANCH  58  75
ATOM     75  C   UNL A   1      45.705  29.003  32.334  1.00  0.00     0.057 A 
ATOM     76  C   UNL A   1      46.863  29.382  31.644  1.00  0.00     0.134 A 
ATOM     77  C   UNL A   1      45.863  28.220  33.484  1.00  0.00     0.134 A 
ATOM     78  F   UNL A   1      46.778  30.120  30.526  1.00  0.00    -0.206 F 
ATOM     79  C   UNL A   1      48.130  28.980  32.071  1.00  0.00     0.040 A 
ATOM     80  C   UNL A   1      47.126  27.831  33.935  1.00  0.00     0.040 A 
ATOM     81  F   UNL A   1      44.794  27.828  34.194  1.00  0.00    -0.206 F 
ATOM     82  C   UNL A   1      48.264  28.208  33.224  1.00  0.00     0.006 A 
ENDBRANCH  58  75
ENDBRANCH  32  33
ENDBRANCH  24  27
ENDBRANCH  22  23
ENDBRANCH  21  22
ENDBRANCH   1  21
TORSDOF 14
ENDMDL
MODEL 3
REMARK VINA RESULT:      -9.8      4.374      9.507
REMARK SMILES C[N@H+](CC(=O)NCCCNC(=O)c1ccc(-c2c3nc(c(-c4c(F)cccc4F)c4ccc([nH]4)c(-c4c(F)cccc4F)c4nc(c(-c5c(F)cccc5F)c5ccc2[nH]5)C=C4)C=C3)cc1)Cc1nc(-c2ccsc2)no1
REMARK SMILES IDX 7 1 6 2 4 3 5 4 3 6 2 7 1 8 67 10 68 11 69 12 77 13 70 14
REMARK SMILES IDX 76 15 71 16 72 17 75 18 73 19 74 20 8 21 9 22 10 23 11 24
REMARK SMILES IDX 12 26 13 27 14 28 66 29 15 30 65 31 16 32 17 33 18 34 59 35
REMARK SMILES IDX 19 36 64 37 58 38 60 39 20 40 63 41 57 42 56 43 21 45 47 46
REMARK SMILES IDX 30 47 46 48 31 49 34 50 45 51 61 52 32 53 33 54 44 56 62 57
REMARK SMILES IDX 35 58 22 59 23 60 28 61 24 62 25 63 27 64 29 65 26 66 48 67
REMARK SMILES IDX 49 68 54 69 50 70 51 71 53 72 55 73 52 74 36 75 37 76 42 77
REMARK SMILES IDX 38 78 39 79 41 80 43 81 40 82
REMARK H PARENT 6 5 2 9 10 25 60 44 34 55
REMARK Flexibility Score: inf
ROOT
ATOM      1  C   UNL A   1      31.462  29.787  25.288  1.00  0.00     0.118 C 
ENDROOT
BRANCH   1   2
ATOM      2  N   UNL A   1      32.538  29.760  24.311  1.00  0.00    -0.351 N 
ATOM      3  C   UNL A   1      33.179  28.678  23.769  1.00  0.00     0.275 C 
ATOM      4  O   UNL A   1      34.042  28.860  22.907  1.00  0.00    -0.269 OA
ATOM      5  H   UNL A   1      32.848  30.639  23.996  1.00  0.00     0.163 HD
BRANCH   3   6
ATOM      6  C   UNL A   1      32.794  27.268  24.223  1.00  0.00     0.363 C 
BRANCH   6   7
ATOM      7  N   UNL A   1      32.107  26.538  23.137  1.00  0.00    -0.322 N 
ATOM      8  C   UNL A   1      32.824  25.326  22.764  1.00  0.00     0.333 C 
ATOM      9  H   UNL A   1      32.104  27.162  22.330  1.00  0.00     0.348 HD
BRANCH   7  10
ATOM     10  C   UNL A   1      30.693  26.239  23.462  1.00  0.00     0.364 C 
BRANCH  10  11
ATOM     11  C   UNL A   1      29.727  27.324  23.110  1.00  0.00     0.282 A 
ATOM     12  N   UNL A   1      29.895  28.447  22.443  1.00  0.00    -0.186 NA
ATOM     13  O   UNL A   1      28.443  27.138  23.540  1.00  0.00    -0.333 OA
ATOM     14  C   UNL A   1      28.664  29.037  22.578  1.00  0.00     0.203 A 
ATOM     15  N   UNL A   1      27.736  28.287  23.187  1.00  0.00    -0.057 NA
BRANCH  14  16
ATOM     16  C   UNL A   1      28.460  30.416  22.142  1.00  0.00     0.033 A 
ATOM     17  C   UNL A   1      28.757  31.544  22.962  1.00  0.00     0.024 A 
ATOM     18  C   UNL A   1      28.003  30.793  20.900  1.00  0.00     0.077 A 
ATOM     19  C   UNL A   1      28.563  32.733  22.293  1.00  0.00     0.065 A 
ATOM     20  S   UNL A   1      27.987  32.489  20.699  1.00  0.00    -0.152 S 
ENDBRANCH  14  16
ENDBRANCH  10  11
ENDBRANCH   7  10
ENDBRANCH   6   7
ENDBRANCH   3   6
ENDBRANCH   1   2
BRANCH   1  21
ATOM     21  C   UNL A   1      31.215  31.159  25.912  1.00  0.00     0.042 C 
BRANCH  21  22
ATOM     22  C   UNL A   1      32.257  31.584  26.939  1.00  0.00     0.118 C 
BRANCH  22  23
ATOM     23  N   UNL A   1      32.137  32.982  27.328  1.00  0.00    -0.352 N 
ATOM     24  C   UNL A   1      32.963  33.788  28.072  1.00  0.00     0.251 C 
ATOM     25  H   UNL A   1      31.322  33.426  27.000  1.00  0.00     0.163 HD
ATOM     26  O   UNL A   1      32.573  34.912  28.382  1.00  0.00    -0.269 OA
BRANCH  24  27
ATOM     27  C   UNL A   1      34.298  33.333  28.536  1.00  0.00     0.039 A 
ATOM     28  C   UNL A   1      34.373  32.597  29.723  1.00  0.00     0.014 A 
ATOM     29  C   UNL A   1      35.476  33.675  27.872  1.00  0.00     0.014 A 
ATOM     30  C   UNL A   1      35.613  32.159  30.204  1.00  0.00     0.010 A 
ATOM     31  C   UNL A   1      36.706  33.174  28.307  1.00  0.00     0.010 A 
ATOM     32  C   UNL A   1      36.789  32.415  29.483  1.00  0.00    -0.014 A 
BRANCH  32  33
ATOM     33  C   UNL A   1      38.103  31.899  29.957  1.00  0.00     0.031 A 
ATOM     34  C   UNL A   1      38.648  30.593  29.444  1.00  0.00     0.074 A 
ATOM     35  C   UNL A   1      38.801  32.593  30.878  1.00  0.00     0.049 A 
ATOM     36  N   UNL A   1      39.766  29.984  29.756  1.00  0.00    -0.248 NA
ATOM     37  C   UNL A   1      37.821  29.865  28.470  1.00  0.00     0.031 C 
ATOM     38  C   UNL A   1      38.373  33.852  31.490  1.00  0.00     0.029 A 
ATOM     39  N   UNL A   1      40.018  32.338  31.461  1.00  0.00    -0.354 N 
ATOM     40  C   UNL A   1      39.771  28.802  29.025  1.00  0.00     0.074 A 
ATOM     41  C   UNL A   1      38.522  28.755  28.295  1.00  0.00     0.031 C 
ATOM     42  C   UNL A   1      39.327  34.275  32.337  1.00  0.00     0.029 A 
ATOM     43  C   UNL A   1      40.415  33.303  32.354  1.00  0.00     0.049 A 
ATOM     44  H   UNL A   1      40.554  31.538  31.259  1.00  0.00     0.167 HD
ATOM     45  C   UNL A   1      40.735  27.852  28.949  1.00  0.00     0.037 A 
ATOM     46  C   UNL A   1      41.531  33.399  33.101  1.00  0.00     0.037 A 
ATOM     47  C   UNL A   1      41.988  27.902  29.656  1.00  0.00     0.049 A 
ATOM     48  C   UNL A   1      42.581  32.328  33.007  1.00  0.00     0.074 A 
ATOM     49  C   UNL A   1      43.048  27.013  29.600  1.00  0.00     0.029 A 
ATOM     50  N   UNL A   1      42.351  28.897  30.550  1.00  0.00    -0.354 N 
ATOM     51  N   UNL A   1      42.597  31.248  32.265  1.00  0.00    -0.248 NA
ATOM     52  C   UNL A   1      43.772  32.492  33.855  1.00  0.00     0.031 C 
ATOM     53  C   UNL A   1      44.037  27.451  30.487  1.00  0.00     0.029 A 
ATOM     54  C   UNL A   1      43.610  28.634  31.066  1.00  0.00     0.049 A 
ATOM     55  H   UNL A   1      41.796  29.676  30.784  1.00  0.00     0.167 HD
ATOM     56  C   UNL A   1      43.806  30.620  32.534  1.00  0.00     0.074 A 
ATOM     57  C   UNL A   1      44.502  31.445  33.499  1.00  0.00     0.031 C 
ATOM     58  C   UNL A   1      44.296  29.464  32.022  1.00  0.00     0.037 A 
BRANCH  45  59
ATOM     59  C   UNL A   1      40.470  26.673  28.058  1.00  0.00     0.057 A 
ATOM     60  C   UNL A   1      41.055  26.564  26.789  1.00  0.00     0.134 A 
ATOM     61  C   UNL A   1      39.645  25.623  28.482  1.00  0.00     0.134 A 
ATOM     62  F   UNL A   1      41.848  27.539  26.321  1.00  0.00    -0.206 F 
ATOM     63  C   UNL A   1      40.805  25.467  25.962  1.00  0.00     0.040 A 
ATOM     64  C   UNL A   1      39.409  24.509  27.673  1.00  0.00     0.040 A 
ATOM     65  F   UNL A   1      39.062  25.659  29.689  1.00  0.00    -0.206 F 
ATOM     66  C   UNL A   1      39.984  24.433  26.406  1.00  0.00     0.006 A 
ENDBRANCH  45  59
BRANCH  46  67
ATOM     67  C   UNL A   1      41.733  34.576  33.981  1.00  0.00     0.057 A 
ATOM     68  C   UNL A   1      41.285  34.567  35.306  1.00  0.00     0.134 A 
ATOM     69  C   UNL A   1      42.371  35.734  33.523  1.00  0.00     0.134 A 
ATOM     70  F   UNL A   1      40.648  33.492  35.795  1.00  0.00    -0.206 F 
ATOM     71  C   UNL A   1      41.451  35.671  36.142  1.00  0.00     0.040 A 
ATOM     72  C   UNL A   1      42.565  36.838  34.354  1.00  0.00     0.040 A 
ATOM     73  F   UNL A   1      42.828  35.803  32.264  1.00  0.00    -0.206 F 
ATOM     74  C   UNL A   1      42.098  36.811  35.667  1.00  0.00     0.006 A 
ENDBRANCH  46  67
BRANCH  58  75
ATOM     75  C   UNL A   1      45.662  29.040  32.473  1.00  0.00     0.057 A 
ATOM     76  C   UNL A   1      45.848  28.200  33.577  1.00  0.00     0.134 A 
ATOM     77  C   UNL A   1      46.803  29.454  31.774  1.00  0.00     0.134 A 
ATOM     78  F   UNL A   1      44.796  27.781  34.297  1.00  0.00    -0.206 F 
ATOM     79  C   UNL A   1      47.122  27.801  33.982  1.00  0.00     0.040 A 
ATOM     80  C   UNL A   1      48.081  29.044  32.156  1.00  0.00     0.040 A 
ATOM     81  F   UNL A   1      46.694  30.256  30.703  1.00  0.00    -0.206 F 
ATOM     82  C   UNL A   1      48.243  28.218  33.266  1.00  0.00     0.006 A 
ENDBRANCH  58  75
ENDBRANCH  32  33
ENDBRANCH  24  27
ENDBRANCH  22  23
ENDBRANCH  21  22
ENDBRANCH   1  21
TORSDOF 14
ENDMDL
