MODEL 1
REMARK VINA RESULT:     -11.2      0.000      0.000
REMARK SMILES CCCN(C(=O)Cc1c(C(=O)NCCCNC(=O)c2ccc(-c3c4nc(c(-c5c(F)cccc5F)c5ccc([nH]5)c(-c5c(F)cccc5F)c5nc(c(-c6c(F)cccc6F)c6ccc3[nH]6)C=C5)C=C4)cc2)c(C)cn1CC)c1cccc(Cl)c1
REMARK SMILES IDX 10 1 11 2 12 3 9 5 8 6 76 7 73 8 75 9 74 10 7 11 5 12 6 13
REMARK SMILES IDX 4 14 3 15 2 16 1 17 79 18 80 19 85 20 81 21 83 22 82 23
REMARK SMILES IDX 84 24 77 25 78 26 13 27 14 28 15 29 16 30 17 31 18 33 19 34
REMARK SMILES IDX 20 35 72 36 21 37 71 38 22 39 23 40 24 41 65 42 25 43 70 44
REMARK SMILES IDX 64 45 66 46 26 47 69 48 63 49 62 50 27 52 53 53 36 54 52 55
REMARK SMILES IDX 37 56 40 57 51 58 67 59 38 60 39 61 50 63 68 64 41 65 28 66
REMARK SMILES IDX 29 67 34 68 30 69 31 70 33 71 35 72 32 73 54 74 55 75 60 76
REMARK SMILES IDX 56 77 57 78 59 79 61 80 58 81 42 82 43 83 48 84 44 85 45 86
REMARK SMILES IDX 47 87 49 88 46 89
REMARK H PARENT 12 4 16 32 66 51 40 62
REMARK Flexibility Score: inf
ROOT
ATOM      1  C   UNL A   1      33.001  28.658  23.934  1.00  0.00     0.253 C 
ATOM      2  O   UNL A   1      33.764  28.669  22.964  1.00  0.00    -0.269 OA
ATOM      3  N   UNL A   1      33.137  29.752  24.744  1.00  0.00    -0.352 N 
ATOM      4  H   UNL A   1      33.769  30.414  24.381  1.00  0.00     0.163 HD
ENDROOT
BRANCH   1   5
ATOM      5  C   UNL A   1      32.081  27.513  24.145  1.00  0.00     0.064 A 
ATOM      6  C   UNL A   1      32.558  26.313  24.731  1.00  0.00     0.040 A 
ATOM      7  N   UNL A   1      31.465  25.595  25.164  1.00  0.00    -0.350 N 
ATOM      8  C   UNL A   1      30.661  27.288  23.943  1.00  0.00    -0.020 A 
ATOM      9  C   UNL A   1      30.355  26.082  24.546  1.00  0.00     0.090 A 
ATOM     10  C   UNL A   1      29.578  28.100  23.337  1.00  0.00     0.047 C 
BRANCH   6  11
ATOM     11  C   UNL A   1      33.974  25.855  25.002  1.00  0.00     0.155 C 
BRANCH  11  12
ATOM     12  C   UNL A   1      34.491  24.762  24.044  1.00  0.00     0.232 C 
ATOM     13  O   UNL A   1      34.335  24.948  22.830  1.00  0.00    -0.274 OA
BRANCH  12  14
ATOM     14  N   UNL A   1      35.192  23.639  24.549  1.00  0.00    -0.312 N 
BRANCH  14  15
ATOM     15  C   UNL A   1      36.662  23.543  24.559  1.00  0.00     0.125 C 
BRANCH  15  16
ATOM     16  C   UNL A   1      37.377  23.970  25.852  1.00  0.00     0.019 C 
ATOM     17  C   UNL A   1      38.575  23.124  26.262  1.00  0.00     0.006 C 
ENDBRANCH  15  16
ENDBRANCH  14  15
BRANCH  14  18
ATOM     18  C   UNL A   1      34.460  22.477  25.018  1.00  0.00     0.045 A 
ATOM     19  C   UNL A   1      34.351  22.164  26.381  1.00  0.00     0.026 A 
ATOM     20  C   UNL A   1      33.796  21.628  24.125  1.00  0.00     0.046 A 
ATOM     21  C   UNL A   1      33.664  21.026  26.824  1.00  0.00     0.004 A 
ATOM     22  C   UNL A   1      33.136  20.475  24.558  1.00  0.00     0.043 A 
ATOM     23  C   UNL A   1      33.071  20.165  25.907  1.00  0.00     0.020 A 
ATOM     24  Cl  UNL A   1      32.414  19.427  23.397  1.00  0.00    -0.084 Cl
ENDBRANCH  14  18
ENDBRANCH  12  14
ENDBRANCH  11  12
ENDBRANCH   6  11
BRANCH   7  25
ATOM     25  C   UNL A   1      31.382  24.625  26.248  1.00  0.00     0.118 C 
ATOM     26  C   UNL A   1      30.792  23.271  25.897  1.00  0.00     0.027 C 
ENDBRANCH   7  25
ENDBRANCH   1   5
BRANCH   3  27
ATOM     27  C   UNL A   1      32.569  30.160  26.005  1.00  0.00     0.118 C 
BRANCH  27  28
ATOM     28  C   UNL A   1      33.401  29.644  27.186  1.00  0.00     0.042 C 
BRANCH  28  29
ATOM     29  C   UNL A   1      34.647  30.472  27.452  1.00  0.00     0.118 C 
BRANCH  29  30
ATOM     30  N   UNL A   1      34.392  31.548  28.408  1.00  0.00    -0.352 N 
ATOM     31  C   UNL A   1      34.975  31.764  29.635  1.00  0.00     0.251 C 
ATOM     32  H   UNL A   1      33.711  32.205  28.139  1.00  0.00     0.163 HD
ATOM     33  O   UNL A   1      34.420  32.479  30.471  1.00  0.00    -0.269 OA
BRANCH  31  34
ATOM     34  C   UNL A   1      36.258  31.120  29.949  1.00  0.00     0.039 A 
ATOM     35  C   UNL A   1      36.297  29.800  30.404  1.00  0.00     0.014 A 
ATOM     36  C   UNL A   1      37.435  31.838  29.747  1.00  0.00     0.014 A 
ATOM     37  C   UNL A   1      37.534  29.182  30.558  1.00  0.00     0.010 A 
ATOM     38  C   UNL A   1      38.644  31.184  29.751  1.00  0.00     0.010 A 
ATOM     39  C   UNL A   1      38.706  29.870  30.193  1.00  0.00    -0.014 A 
BRANCH  39  40
ATOM     40  C   UNL A   1      39.978  29.156  30.130  1.00  0.00     0.031 A 
ATOM     41  C   UNL A   1      40.644  29.006  31.453  1.00  0.00     0.074 A 
ATOM     42  C   UNL A   1      40.437  28.511  29.036  1.00  0.00     0.049 A 
ATOM     43  N   UNL A   1      41.715  29.602  31.861  1.00  0.00    -0.248 NA
ATOM     44  C   UNL A   1      39.955  28.240  32.504  1.00  0.00     0.031 C 
ATOM     45  C   UNL A   1      39.752  28.278  27.762  1.00  0.00     0.029 A 
ATOM     46  N   UNL A   1      41.606  27.830  28.871  1.00  0.00    -0.354 N 
ATOM     47  C   UNL A   1      41.965  29.106  33.137  1.00  0.00     0.074 A 
ATOM     48  C   UNL A   1      40.756  28.447  33.551  1.00  0.00     0.031 C 
ATOM     49  C   UNL A   1      40.407  27.326  27.062  1.00  0.00     0.029 A 
ATOM     50  C   UNL A   1      41.643  27.008  27.750  1.00  0.00     0.049 A 
ATOM     51  H   UNL A   1      42.363  27.915  29.494  1.00  0.00     0.167 HD
ATOM     52  C   UNL A   1      43.241  29.047  33.614  1.00  0.00     0.037 A 
ATOM     53  C   UNL A   1      42.611  26.112  27.426  1.00  0.00     0.037 A 
ATOM     54  C   UNL A   1      44.114  29.897  32.835  1.00  0.00     0.049 A 
ATOM     55  C   UNL A   1      43.825  26.473  28.198  1.00  0.00     0.074 A 
ATOM     56  C   UNL A   1      44.126  31.238  32.498  1.00  0.00     0.029 A 
ATOM     57  N   UNL A   1      44.963  29.286  31.944  1.00  0.00    -0.354 N 
ATOM     58  N   UNL A   1      44.539  27.539  27.976  1.00  0.00    -0.248 NA
ATOM     59  C   UNL A   1      43.986  25.875  29.513  1.00  0.00     0.031 C 
ATOM     60  C   UNL A   1      44.570  31.273  31.142  1.00  0.00     0.029 A 
ATOM     61  C   UNL A   1      44.885  29.969  30.760  1.00  0.00     0.049 A 
ATOM     62  H   UNL A   1      45.525  28.498  32.124  1.00  0.00     0.167 HD
ATOM     63  C   UNL A   1      44.863  28.008  29.240  1.00  0.00     0.074 A 
ATOM     64  C   UNL A   1      44.584  26.891  30.141  1.00  0.00     0.031 C 
ATOM     65  C   UNL A   1      45.041  29.342  29.468  1.00  0.00     0.037 A 
BRANCH  52  66
ATOM     66  C   UNL A   1      43.786  27.916  34.465  1.00  0.00     0.057 A 
ATOM     67  C   UNL A   1      44.501  28.240  35.635  1.00  0.00     0.134 A 
ATOM     68  C   UNL A   1      43.928  26.580  34.039  1.00  0.00     0.134 A 
ATOM     69  F   UNL A   1      44.443  29.474  36.160  1.00  0.00    -0.206 F 
ATOM     70  C   UNL A   1      45.385  27.347  36.251  1.00  0.00     0.040 A 
ATOM     71  C   UNL A   1      44.770  25.665  34.678  1.00  0.00     0.040 A 
ATOM     72  F   UNL A   1      43.344  26.101  32.936  1.00  0.00    -0.206 F 
ATOM     73  C   UNL A   1      45.535  26.058  35.761  1.00  0.00     0.006 A 
ENDBRANCH  52  66
BRANCH  53  74
ATOM     74  C   UNL A   1      42.505  24.823  26.704  1.00  0.00     0.057 A 
ATOM     75  C   UNL A   1      43.104  24.649  25.447  1.00  0.00     0.134 A 
ATOM     76  C   UNL A   1      42.074  23.651  27.347  1.00  0.00     0.134 A 
ATOM     77  F   UNL A   1      43.581  25.702  24.766  1.00  0.00    -0.206 F 
ATOM     78  C   UNL A   1      43.301  23.381  24.881  1.00  0.00     0.040 A 
ATOM     79  C   UNL A   1      42.257  22.379  26.790  1.00  0.00     0.040 A 
ATOM     80  F   UNL A   1      41.546  23.690  28.579  1.00  0.00    -0.206 F 
ATOM     81  C   UNL A   1      42.890  22.240  25.561  1.00  0.00     0.006 A 
ENDBRANCH  53  74
BRANCH  65  82
ATOM     82  C   UNL A   1      45.190  30.256  28.284  1.00  0.00     0.057 A 
ATOM     83  C   UNL A   1      44.127  30.876  27.610  1.00  0.00     0.134 A 
ATOM     84  C   UNL A   1      46.484  30.625  27.896  1.00  0.00     0.134 A 
ATOM     85  F   UNL A   1      42.854  30.667  27.970  1.00  0.00    -0.206 F 
ATOM     86  C   UNL A   1      44.346  31.783  26.567  1.00  0.00     0.040 A 
ATOM     87  C   UNL A   1      46.715  31.558  26.884  1.00  0.00     0.040 A 
ATOM     88  F   UNL A   1      47.551  30.113  28.529  1.00  0.00    -0.206 F 
ATOM     89  C   UNL A   1      45.644  32.132  26.206  1.00  0.00     0.006 A 
ENDBRANCH  65  82
ENDBRANCH  39  40
ENDBRANCH  31  34
ENDBRANCH  29  30
ENDBRANCH  28  29
ENDBRANCH  27  28
ENDBRANCH   3  27
TORSDOF 17
ENDMDL
MODEL 2
REMARK VINA RESULT:     -11.2      1.920      6.063
REMARK SMILES CCCN(C(=O)Cc1c(C(=O)NCCCNC(=O)c2ccc(-c3c4nc(c(-c5c(F)cccc5F)c5ccc([nH]5)c(-c5c(F)cccc5F)c5nc(c(-c6c(F)cccc6F)c6ccc3[nH]6)C=C5)C=C4)cc2)c(C)cn1CC)c1cccc(Cl)c1
REMARK SMILES IDX 10 1 11 2 12 3 9 5 8 6 76 7 73 8 75 9 74 10 7 11 5 12 6 13
REMARK SMILES IDX 4 14 3 15 2 16 1 17 79 18 80 19 85 20 81 21 83 22 82 23
REMARK SMILES IDX 84 24 77 25 78 26 13 27 14 28 15 29 16 30 17 31 18 33 19 34
REMARK SMILES IDX 20 35 72 36 21 37 71 38 22 39 23 40 24 41 65 42 25 43 70 44
REMARK SMILES IDX 64 45 66 46 26 47 69 48 63 49 62 50 27 52 53 53 36 54 52 55
REMARK SMILES IDX 37 56 40 57 51 58 67 59 38 60 39 61 50 63 68 64 41 65 28 66
REMARK SMILES IDX 29 67 34 68 30 69 31 70 33 71 35 72 32 73 54 74 55 75 60 76
REMARK SMILES IDX 56 77 57 78 59 79 61 80 58 81 42 82 43 83 48 84 44 85 45 86
REMARK SMILES IDX 47 87 49 88 46 89
REMARK H PARENT 12 4 16 32 66 51 40 62
REMARK Flexibility Score: inf
ROOT
ATOM      1  C   UNL A   1      33.307  28.135  24.091  1.00  0.00     0.253 C 
ATOM      2  O   UNL A   1      33.910  28.223  23.017  1.00  0.00    -0.269 OA
ATOM      3  N   UNL A   1      33.613  29.138  24.968  1.00  0.00    -0.352 N 
ATOM      4  H   UNL A   1      34.208  29.816  24.574  1.00  0.00     0.163 HD
ENDROOT
BRANCH   1   5
ATOM      5  C   UNL A   1      32.385  26.999  24.336  1.00  0.00     0.064 A 
ATOM      6  C   UNL A   1      32.873  25.794  24.904  1.00  0.00     0.040 A 
ATOM      7  N   UNL A   1      31.790  25.086  25.377  1.00  0.00    -0.350 N 
ATOM      8  C   UNL A   1      30.957  26.786  24.187  1.00  0.00    -0.020 A 
ATOM      9  C   UNL A   1      30.662  25.583  24.801  1.00  0.00     0.090 A 
ATOM     10  C   UNL A   1      29.860  27.609  23.622  1.00  0.00     0.047 C 
BRANCH   6  11
ATOM     11  C   UNL A   1      34.293  25.323  25.122  1.00  0.00     0.155 C 
BRANCH  11  12
ATOM     12  C   UNL A   1      34.706  24.105  24.269  1.00  0.00     0.232 C 
ATOM     13  O   UNL A   1      34.892  24.293  23.060  1.00  0.00    -0.274 OA
BRANCH  12  14
ATOM     14  N   UNL A   1      34.941  22.848  24.880  1.00  0.00    -0.312 N 
BRANCH  14  15
ATOM     15  C   UNL A   1      36.012  22.619  25.866  1.00  0.00     0.125 C 
BRANCH  15  16
ATOM     16  C   UNL A   1      37.454  22.878  25.398  1.00  0.00     0.019 C 
ATOM     17  C   UNL A   1      38.328  23.687  26.347  1.00  0.00     0.006 C 
ENDBRANCH  15  16
ENDBRANCH  14  15
BRANCH  14  18
ATOM     18  C   UNL A   1      34.160  21.691  24.485  1.00  0.00     0.045 A 
ATOM     19  C   UNL A   1      32.947  21.811  23.790  1.00  0.00     0.026 A 
ATOM     20  C   UNL A   1      34.603  20.390  24.753  1.00  0.00     0.046 A 
ATOM     21  C   UNL A   1      32.187  20.689  23.434  1.00  0.00     0.004 A 
ATOM     22  C   UNL A   1      33.833  19.269  24.429  1.00  0.00     0.043 A 
ATOM     23  C   UNL A   1      32.620  19.412  23.774  1.00  0.00     0.020 A 
ATOM     24  Cl  UNL A   1      34.397  17.702  24.867  1.00  0.00    -0.084 Cl
ENDBRANCH  14  18
ENDBRANCH  12  14
ENDBRANCH  11  12
ENDBRANCH   6  11
BRANCH   7  25
ATOM     25  C   UNL A   1      31.739  24.116  26.463  1.00  0.00     0.118 C 
ATOM     26  C   UNL A   1      30.444  23.337  26.611  1.00  0.00     0.027 C 
ENDBRANCH   7  25
ENDBRANCH   1   5
BRANCH   3  27
ATOM     27  C   UNL A   1      33.266  29.432  26.337  1.00  0.00     0.118 C 
BRANCH  27  28
ATOM     28  C   UNL A   1      34.328  30.314  27.007  1.00  0.00     0.042 C 
BRANCH  28  29
ATOM     29  C   UNL A   1      35.408  29.520  27.720  1.00  0.00     0.118 C 
BRANCH  29  30
ATOM     30  N   UNL A   1      35.550  29.925  29.118  1.00  0.00    -0.352 N 
ATOM     31  C   UNL A   1      36.528  29.577  30.020  1.00  0.00     0.251 C 
ATOM     32  H   UNL A   1      34.850  30.526  29.459  1.00  0.00     0.163 HD
ATOM     33  O   UNL A   1      36.329  29.692  31.230  1.00  0.00    -0.269 OA
BRANCH  31  34
ATOM     34  C   UNL A   1      37.808  29.048  29.528  1.00  0.00     0.039 A 
ATOM     35  C   UNL A   1      38.486  29.683  28.487  1.00  0.00     0.014 A 
ATOM     36  C   UNL A   1      38.350  27.924  30.149  1.00  0.00     0.014 A 
ATOM     37  C   UNL A   1      39.758  29.233  28.143  1.00  0.00     0.010 A 
ATOM     38  C   UNL A   1      39.660  27.580  29.917  1.00  0.00     0.010 A 
ATOM     39  C   UNL A   1      40.356  28.202  28.890  1.00  0.00    -0.014 A 
BRANCH  39  40
ATOM     40  C   UNL A   1      41.767  27.884  28.691  1.00  0.00     0.031 A 
ATOM     41  C   UNL A   1      41.993  26.638  27.908  1.00  0.00     0.074 A 
ATOM     42  C   UNL A   1      42.786  28.715  28.998  1.00  0.00     0.049 A 
ATOM     43  N   UNL A   1      42.448  25.512  28.346  1.00  0.00    -0.248 NA
ATOM     44  C   UNL A   1      41.504  26.581  26.521  1.00  0.00     0.031 C 
ATOM     45  C   UNL A   1      42.721  30.105  29.459  1.00  0.00     0.029 A 
ATOM     46  N   UNL A   1      44.127  28.512  28.862  1.00  0.00    -0.354 N 
ATOM     47  C   UNL A   1      42.522  24.673  27.239  1.00  0.00     0.074 A 
ATOM     48  C   UNL A   1      41.744  25.306  26.208  1.00  0.00     0.031 C 
ATOM     49  C   UNL A   1      43.937  30.682  29.336  1.00  0.00     0.029 A 
ATOM     50  C   UNL A   1      44.900  29.666  28.956  1.00  0.00     0.049 A 
ATOM     51  H   UNL A   1      44.518  27.622  28.712  1.00  0.00     0.167 HD
ATOM     52  C   UNL A   1      43.449  23.675  27.193  1.00  0.00     0.037 A 
ATOM     53  C   UNL A   1      46.230  29.779  28.713  1.00  0.00     0.037 A 
ATOM     54  C   UNL A   1      43.966  23.401  28.515  1.00  0.00     0.049 A 
ATOM     55  C   UNL A   1      46.811  28.416  28.782  1.00  0.00     0.074 A 
ATOM     56  C   UNL A   1      43.406  23.049  29.729  1.00  0.00     0.029 A 
ATOM     57  N   UNL A   1      45.226  23.863  28.811  1.00  0.00    -0.354 N 
ATOM     58  N   UNL A   1      46.926  27.728  29.882  1.00  0.00    -0.248 NA
ATOM     59  C   UNL A   1      46.852  27.640  27.553  1.00  0.00     0.031 C 
ATOM     60  C   UNL A   1      44.152  23.779  30.703  1.00  0.00     0.029 A 
ATOM     61  C   UNL A   1      45.172  24.461  30.041  1.00  0.00     0.049 A 
ATOM     62  H   UNL A   1      46.024  23.780  28.240  1.00  0.00     0.167 HD
ATOM     63  C   UNL A   1      46.582  26.435  29.519  1.00  0.00     0.074 A 
ATOM     64  C   UNL A   1      46.647  26.422  28.059  1.00  0.00     0.031 C 
ATOM     65  C   UNL A   1      45.993  25.588  30.414  1.00  0.00     0.037 A 
BRANCH  52  66
ATOM     66  C   UNL A   1      44.206  23.266  25.944  1.00  0.00     0.057 A 
ATOM     67  C   UNL A   1      44.318  21.894  25.645  1.00  0.00     0.134 A 
ATOM     68  C   UNL A   1      45.084  24.099  25.221  1.00  0.00     0.134 A 
ATOM     69  F   UNL A   1      43.532  20.989  26.250  1.00  0.00    -0.206 F 
ATOM     70  C   UNL A   1      45.310  21.384  24.798  1.00  0.00     0.040 A 
ATOM     71  C   UNL A   1      46.044  23.603  24.334  1.00  0.00     0.040 A 
ATOM     72  F   UNL A   1      45.137  25.424  25.392  1.00  0.00    -0.206 F 
ATOM     73  C   UNL A   1      46.189  22.240  24.152  1.00  0.00     0.006 A 
ENDBRANCH  52  66
BRANCH  53  74
ATOM     74  C   UNL A   1      47.001  30.925  28.176  1.00  0.00     0.057 A 
ATOM     75  C   UNL A   1      46.630  31.542  26.971  1.00  0.00     0.134 A 
ATOM     76  C   UNL A   1      47.927  31.626  28.966  1.00  0.00     0.134 A 
ATOM     77  F   UNL A   1      45.726  30.970  26.162  1.00  0.00    -0.206 F 
ATOM     78  C   UNL A   1      47.121  32.800  26.593  1.00  0.00     0.040 A 
ATOM     79  C   UNL A   1      48.430  32.879  28.597  1.00  0.00     0.040 A 
ATOM     80  F   UNL A   1      48.303  31.164  30.167  1.00  0.00    -0.206 F 
ATOM     81  C   UNL A   1      48.012  33.479  27.415  1.00  0.00     0.006 A 
ENDBRANCH  53  74
BRANCH  65  82
ATOM     82  C   UNL A   1      46.009  25.965  31.869  1.00  0.00     0.057 A 
ATOM     83  C   UNL A   1      47.094  25.768  32.738  1.00  0.00     0.134 A 
ATOM     84  C   UNL A   1      44.919  26.685  32.375  1.00  0.00     0.134 A 
ATOM     85  F   UNL A   1      48.224  25.180  32.323  1.00  0.00    -0.206 F 
ATOM     86  C   UNL A   1      47.069  26.223  34.061  1.00  0.00     0.040 A 
ATOM     87  C   UNL A   1      44.899  27.177  33.681  1.00  0.00     0.040 A 
ATOM     88  F   UNL A   1      43.866  26.957  31.589  1.00  0.00    -0.206 F 
ATOM     89  C   UNL A   1      45.972  26.936  34.534  1.00  0.00     0.006 A 
ENDBRANCH  65  82
ENDBRANCH  39  40
ENDBRANCH  31  34
ENDBRANCH  29  30
ENDBRANCH  28  29
ENDBRANCH  27  28
ENDBRANCH   3  27
TORSDOF 17
ENDMDL
MODEL 3
REMARK VINA RESULT:     -11.1      1.093      1.834
REMARK SMILES CCCN(C(=O)Cc1c(C(=O)NCCCNC(=O)c2ccc(-c3c4nc(c(-c5c(F)cccc5F)c5ccc([nH]5)c(-c5c(F)cccc5F)c5nc(c(-c6c(F)cccc6F)c6ccc3[nH]6)C=C5)C=C4)cc2)c(C)cn1CC)c1cccc(Cl)c1
REMARK SMILES IDX 10 1 11 2 12 3 9 5 8 6 76 7 73 8 75 9 74 10 7 11 5 12 6 13
REMARK SMILES IDX 4 14 3 15 2 16 1 17 79 18 80 19 85 20 81 21 83 22 82 23
REMARK SMILES IDX 84 24 77 25 78 26 13 27 14 28 15 29 16 30 17 31 18 33 19 34
REMARK SMILES IDX 20 35 72 36 21 37 71 38 22 39 23 40 24 41 65 42 25 43 70 44
REMARK SMILES IDX 64 45 66 46 26 47 69 48 63 49 62 50 27 52 53 53 36 54 52 55
REMARK SMILES IDX 37 56 40 57 51 58 67 59 38 60 39 61 50 63 68 64 41 65 28 66
REMARK SMILES IDX 29 67 34 68 30 69 31 70 33 71 35 72 32 73 54 74 55 75 60 76
REMARK SMILES IDX 56 77 57 78 59 79 61 80 58 81 42 82 43 83 48 84 44 85 45 86
REMARK SMILES IDX 47 87 49 88 46 89
REMARK H PARENT 12 4 16 32 66 51 40 62
REMARK Flexibility Score: inf
ROOT
ATOM      1  C   UNL A   1      32.896  28.455  23.833  1.00  0.00     0.253 C 
ATOM      2  O   UNL A   1      33.600  28.368  22.823  1.00  0.00    -0.269 OA
ATOM      3  N   UNL A   1      33.132  29.587  24.563  1.00  0.00    -0.352 N 
ATOM      4  H   UNL A   1      33.772  30.192  24.125  1.00  0.00     0.163 HD
ENDROOT
BRANCH   1   5
ATOM      5  C   UNL A   1      31.937  27.373  24.167  1.00  0.00     0.064 A 
ATOM      6  C   UNL A   1      32.392  26.183  24.790  1.00  0.00     0.040 A 
ATOM      7  N   UNL A   1      31.296  25.548  25.331  1.00  0.00    -0.350 N 
ATOM      8  C   UNL A   1      30.498  27.212  24.067  1.00  0.00    -0.020 A 
ATOM      9  C   UNL A   1      30.173  26.059  24.757  1.00  0.00     0.090 A 
ATOM     10  C   UNL A   1      29.419  28.046  23.484  1.00  0.00     0.047 C 
BRANCH   6  11
ATOM     11  C   UNL A   1      33.798  25.667  24.999  1.00  0.00     0.155 C 
BRANCH  11  12
ATOM     12  C   UNL A   1      34.199  24.500  24.071  1.00  0.00     0.232 C 
ATOM     13  O   UNL A   1      34.383  24.760  22.875  1.00  0.00    -0.274 OA
BRANCH  12  14
ATOM     14  N   UNL A   1      34.426  23.207  24.604  1.00  0.00    -0.312 N 
BRANCH  14  15
ATOM     15  C   UNL A   1      33.341  22.257  24.906  1.00  0.00     0.125 C 
BRANCH  15  16
ATOM     16  C   UNL A   1      32.728  21.501  23.715  1.00  0.00     0.019 C 
ATOM     17  C   UNL A   1      32.587  19.994  23.883  1.00  0.00     0.006 C 
ENDBRANCH  15  16
ENDBRANCH  14  15
BRANCH  14  18
ATOM     18  C   UNL A   1      35.772  22.791  24.953  1.00  0.00     0.045 A 
ATOM     19  C   UNL A   1      36.291  21.545  24.568  1.00  0.00     0.026 A 
ATOM     20  C   UNL A   1      36.632  23.634  25.666  1.00  0.00     0.046 A 
ATOM     21  C   UNL A   1      37.583  21.141  24.930  1.00  0.00     0.004 A 
ATOM     22  C   UNL A   1      37.909  23.224  26.057  1.00  0.00     0.043 A 
ATOM     23  C   UNL A   1      38.389  21.975  25.696  1.00  0.00     0.020 A 
ATOM     24  Cl  UNL A   1      38.881  24.279  27.009  1.00  0.00    -0.084 Cl
ENDBRANCH  14  18
ENDBRANCH  12  14
ENDBRANCH  11  12
ENDBRANCH   6  11
BRANCH   7  25
ATOM     25  C   UNL A   1      31.236  24.645  26.473  1.00  0.00     0.118 C 
ATOM     26  C   UNL A   1      30.303  23.455  26.342  1.00  0.00     0.027 C 
ENDBRANCH   7  25
ENDBRANCH   1   5
BRANCH   3  27
ATOM     27  C   UNL A   1      32.659  30.098  25.826  1.00  0.00     0.118 C 
BRANCH  27  28
ATOM     28  C   UNL A   1      33.515  29.586  26.992  1.00  0.00     0.042 C 
BRANCH  28  29
ATOM     29  C   UNL A   1      34.767  30.412  27.228  1.00  0.00     0.118 C 
BRANCH  29  30
ATOM     30  N   UNL A   1      34.524  31.519  28.152  1.00  0.00    -0.352 N 
ATOM     31  C   UNL A   1      35.087  31.751  29.385  1.00  0.00     0.251 C 
ATOM     32  H   UNL A   1      33.867  32.187  27.852  1.00  0.00     0.163 HD
ATOM     33  O   UNL A   1      34.535  32.502  30.191  1.00  0.00    -0.269 OA
BRANCH  31  34
ATOM     34  C   UNL A   1      36.345  31.080  29.742  1.00  0.00     0.039 A 
ATOM     35  C   UNL A   1      36.358  29.721  30.062  1.00  0.00     0.014 A 
ATOM     36  C   UNL A   1      37.527  31.817  29.717  1.00  0.00     0.014 A 
ATOM     37  C   UNL A   1      37.584  29.092  30.260  1.00  0.00     0.010 A 
ATOM     38  C   UNL A   1      38.738  31.168  29.759  1.00  0.00     0.010 A 
ATOM     39  C   UNL A   1      38.776  29.815  30.069  1.00  0.00    -0.014 A 
BRANCH  39  40
ATOM     40  C   UNL A   1      40.056  29.114  30.045  1.00  0.00     0.031 A 
ATOM     41  C   UNL A   1      40.682  28.967  31.388  1.00  0.00     0.074 A 
ATOM     42  C   UNL A   1      40.555  28.476  28.964  1.00  0.00     0.049 A 
ATOM     43  N   UNL A   1      41.734  29.572  31.830  1.00  0.00    -0.248 NA
ATOM     44  C   UNL A   1      39.967  28.192  32.415  1.00  0.00     0.031 C 
ATOM     45  C   UNL A   1      39.912  28.238  27.669  1.00  0.00     0.029 A 
ATOM     46  N   UNL A   1      41.735  27.806  28.835  1.00  0.00    -0.354 N 
ATOM     47  C   UNL A   1      41.949  29.076  33.112  1.00  0.00     0.074 A 
ATOM     48  C   UNL A   1      40.733  28.404  33.487  1.00  0.00     0.031 C 
ATOM     49  C   UNL A   1      40.597  27.294  26.988  1.00  0.00     0.029 A 
ATOM     50  C   UNL A   1      41.815  26.986  27.714  1.00  0.00     0.049 A 
ATOM     51  H   UNL A   1      42.471  27.896  29.481  1.00  0.00     0.167 HD
ATOM     52  C   UNL A   1      43.209  29.028  33.629  1.00  0.00     0.037 A 
ATOM     53  C   UNL A   1      42.800  26.100  27.418  1.00  0.00     0.037 A 
ATOM     54  C   UNL A   1      44.098  29.888  32.879  1.00  0.00     0.049 A 
ATOM     55  C   UNL A   1      43.986  26.470  28.229  1.00  0.00     0.074 A 
ATOM     56  C   UNL A   1      44.108  31.229  32.545  1.00  0.00     0.029 A 
ATOM     57  N   UNL A   1      44.980  29.286  32.013  1.00  0.00    -0.354 N 
ATOM     58  N   UNL A   1      44.697  27.544  28.031  1.00  0.00    -0.248 NA
ATOM     59  C   UNL A   1      44.112  25.872  29.548  1.00  0.00     0.031 C 
ATOM     60  C   UNL A   1      44.594  31.271  31.204  1.00  0.00     0.029 A 
ATOM     61  C   UNL A   1      44.933  29.971  30.830  1.00  0.00     0.049 A 
ATOM     62  H   UNL A   1      45.543  28.503  32.210  1.00  0.00     0.167 HD
ATOM     63  C   UNL A   1      44.976  28.013  29.305  1.00  0.00     0.074 A 
ATOM     64  C   UNL A   1      44.681  26.892  30.195  1.00  0.00     0.031 C 
ATOM     65  C   UNL A   1      45.135  29.349  29.542  1.00  0.00     0.037 A 
BRANCH  52  66
ATOM     66  C   UNL A   1      43.738  27.900  34.494  1.00  0.00     0.057 A 
ATOM     67  C   UNL A   1      44.410  28.228  35.688  1.00  0.00     0.134 A 
ATOM     68  C   UNL A   1      43.908  26.567  34.069  1.00  0.00     0.134 A 
ATOM     69  F   UNL A   1      44.321  29.460  36.214  1.00  0.00    -0.206 F 
ATOM     70  C   UNL A   1      45.283  27.342  36.331  1.00  0.00     0.040 A 
ATOM     71  C   UNL A   1      44.738  25.659  34.733  1.00  0.00     0.040 A 
ATOM     72  F   UNL A   1      43.367  26.085  32.947  1.00  0.00    -0.206 F 
ATOM     73  C   UNL A   1      45.464  26.057  35.843  1.00  0.00     0.006 A 
ENDBRANCH  52  66
BRANCH  53  74
ATOM     74  C   UNL A   1      42.729  24.812  26.691  1.00  0.00     0.057 A 
ATOM     75  C   UNL A   1      43.289  24.674  25.411  1.00  0.00     0.134 A 
ATOM     76  C   UNL A   1      42.379  23.616  27.341  1.00  0.00     0.134 A 
ATOM     77  F   UNL A   1      43.689  25.752  24.722  1.00  0.00    -0.206 F 
ATOM     78  C   UNL A   1      43.525  23.420  24.830  1.00  0.00     0.040 A 
ATOM     79  C   UNL A   1      42.602  22.358  26.768  1.00  0.00     0.040 A 
ATOM     80  F   UNL A   1      41.896  23.624  28.592  1.00  0.00    -0.206 F 
ATOM     81  C   UNL A   1      43.194  22.256  25.515  1.00  0.00     0.006 A 
ENDBRANCH  53  74
BRANCH  65  82
ATOM     82  C   UNL A   1      45.312  30.266  28.364  1.00  0.00     0.057 A 
ATOM     83  C   UNL A   1      44.264  30.824  27.617  1.00  0.00     0.134 A 
ATOM     84  C   UNL A   1      46.607  30.706  28.062  1.00  0.00     0.134 A 
ATOM     85  F   UNL A   1      42.983  30.545  27.893  1.00  0.00    -0.206 F 
ATOM     86  C   UNL A   1      44.502  31.739  26.585  1.00  0.00     0.040 A 
ATOM     87  C   UNL A   1      46.853  31.648  27.062  1.00  0.00     0.040 A 
ATOM     88  F   UNL A   1      47.656  30.255  28.768  1.00  0.00    -0.206 F 
ATOM     89  C   UNL A   1      45.800  32.159  26.310  1.00  0.00     0.006 A 
ENDBRANCH  65  82
ENDBRANCH  39  40
ENDBRANCH  31  34
ENDBRANCH  29  30
ENDBRANCH  28  29
ENDBRANCH  27  28
ENDBRANCH   3  27
TORSDOF 17
ENDMDL
