MODEL 1
REMARK VINA RESULT:     -12.3      0.000      0.000
REMARK SMILES CC(C)CN(C)c1cc2c(cc1Cl)C=C(C(=O)NCCCNC(=O)c1ccc(-c3c4nc(c(-c5c(F)cccc5F)c5ccc([nH]5)c(-c5c(F)cccc5F)c5nc(c(-c6c(F)cccc6F)c6ccc3[nH]6)C=C5)C=C4)cc1)[C@@H](C(F)(F)F)O2
REMARK SMILES IDX 19 1 18 2 16 3 17 4 15 6 7 7 8 8 12 9 9 10 11 11 13 12 10 13
REMARK SMILES IDX 84 14 14 15 79 16 5 17 6 18 4 19 2 20 1 21 3 22 80 23 81 24
REMARK SMILES IDX 82 25 83 26 20 27 21 28 22 29 23 30 24 32 25 33 26 34 78 35
REMARK SMILES IDX 27 36 77 37 28 38 29 39 30 40 71 41 31 42 76 43 70 44 72 45
REMARK SMILES IDX 32 46 75 47 69 48 68 49 33 51 59 52 42 53 58 54 43 55 46 56
REMARK SMILES IDX 57 57 73 58 44 59 45 60 56 62 74 63 47 64 34 65 35 66 40 67
REMARK SMILES IDX 36 68 37 69 39 70 41 71 38 72 60 73 61 74 66 75 62 76 63 77
REMARK SMILES IDX 65 78 67 79 64 80 48 81 49 82 54 83 50 84 51 85 53 86 55 87
REMARK SMILES IDX 52 88
REMARK H PARENT 18 5 22 31 72 50 46 61
REMARK Flexibility Score: inf
ROOT
ATOM      1  C   UNL A   1      36.172  21.044  25.424  1.00  0.00     0.118 C 
ENDROOT
BRANCH   1   2
ATOM      2  N   UNL A   1      35.009  20.319  24.941  1.00  0.00    -0.352 N 
ATOM      3  C   UNL A   1      33.740  20.623  24.588  1.00  0.00     0.251 C 
ATOM      4  O   UNL A   1      33.054  19.668  24.211  1.00  0.00    -0.270 OA
ATOM      5  H   UNL A   1      35.194  19.357  24.846  1.00  0.00     0.163 HD
BRANCH   3   6
ATOM      6  C   UNL A   1      33.151  21.986  24.629  1.00  0.00     0.067 C 
ATOM      7  C   UNL A   1      31.771  26.717  23.595  1.00  0.00     0.059 A 
ATOM      8  C   UNL A   1      31.143  25.626  24.218  1.00  0.00     0.074 A 
ATOM      9  C   UNL A   1      33.086  26.526  23.106  1.00  0.00     0.065 A 
ATOM     10  C   UNL A   1      31.789  24.397  24.307  1.00  0.00     0.130 A 
ATOM     11  C   UNL A   1      33.683  25.261  23.103  1.00  0.00     0.034 A 
ATOM     12  Cl  UNL A   1      34.047  27.839  22.516  1.00  0.00    -0.082 Cl
ATOM     13  C   UNL A   1      33.025  24.188  23.692  1.00  0.00     0.019 A 
ATOM     14  O   UNL A   1      31.174  23.405  25.028  1.00  0.00    -0.475 OA
ATOM     15  C   UNL A   1      33.592  22.846  23.692  1.00  0.00     0.025 C 
ATOM     16  C   UNL A   1      32.120  22.458  25.615  1.00  0.00     0.314 C 
BRANCH   7  17
ATOM     17  N   UNL A   1      31.086  27.934  23.445  1.00  0.00    -0.373 N 
ATOM     18  C   UNL A   1      31.168  28.843  24.586  1.00  0.00     0.143 C 
BRANCH  17  19
ATOM     19  C   UNL A   1      29.783  27.864  22.750  1.00  0.00     0.119 C 
BRANCH  19  20
ATOM     20  C   UNL A   1      28.943  29.146  22.928  1.00  0.00     0.002 C 
ATOM     21  C   UNL A   1      29.138  30.138  21.776  1.00  0.00     0.009 C 
ATOM     22  C   UNL A   1      27.452  28.819  23.048  1.00  0.00     0.009 C 
ENDBRANCH  19  20
ENDBRANCH  17  19
ENDBRANCH   7  17
BRANCH  16  23
ATOM     23  C   UNL A   1      32.763  23.040  26.898  1.00  0.00     0.429 C 
ATOM     24  F   UNL A   1      32.826  22.092  27.866  1.00  0.00    -0.167 F 
ATOM     25  F   UNL A   1      34.036  23.460  26.687  1.00  0.00    -0.167 F 
ATOM     26  F   UNL A   1      32.094  24.094  27.409  1.00  0.00    -0.167 F 
ENDBRANCH  16  23
ENDBRANCH   3   6
ENDBRANCH   1   2
BRANCH   1  27
ATOM     27  C   UNL A   1      37.458  20.482  24.841  1.00  0.00     0.042 C 
BRANCH  27  28
ATOM     28  C   UNL A   1      38.667  20.795  25.709  1.00  0.00     0.118 C 
BRANCH  28  29
ATOM     29  N   UNL A   1      39.649  19.713  25.701  1.00  0.00    -0.352 N 
ATOM     30  C   UNL A   1      40.995  19.741  25.977  1.00  0.00     0.251 C 
ATOM     31  H   UNL A   1      39.292  18.827  25.462  1.00  0.00     0.163 HD
ATOM     32  O   UNL A   1      41.699  18.770  25.714  1.00  0.00    -0.269 OA
BRANCH  30  33
ATOM     33  C   UNL A   1      41.593  20.955  26.563  1.00  0.00     0.039 A 
ATOM     34  C   UNL A   1      41.555  21.153  27.942  1.00  0.00     0.014 A 
ATOM     35  C   UNL A   1      42.157  21.923  25.727  1.00  0.00     0.014 A 
ATOM     36  C   UNL A   1      41.868  22.399  28.461  1.00  0.00     0.010 A 
ATOM     37  C   UNL A   1      42.589  23.136  26.271  1.00  0.00     0.010 A 
ATOM     38  C   UNL A   1      42.388  23.407  27.633  1.00  0.00    -0.014 A 
BRANCH  38  39
ATOM     39  C   UNL A   1      42.690  24.736  28.226  1.00  0.00     0.031 A 
ATOM     40  C   UNL A   1      44.107  25.135  28.543  1.00  0.00     0.074 A 
ATOM     41  C   UNL A   1      41.685  25.618  28.398  1.00  0.00     0.049 A 
ATOM     42  N   UNL A   1      44.555  26.260  29.042  1.00  0.00    -0.248 NA
ATOM     43  C   UNL A   1      45.159  24.143  28.272  1.00  0.00     0.031 C 
ATOM     44  C   UNL A   1      40.273  25.353  28.110  1.00  0.00     0.029 A 
ATOM     45  N   UNL A   1      41.697  26.922  28.819  1.00  0.00    -0.354 N 
ATOM     46  C   UNL A   1      45.930  26.101  29.170  1.00  0.00     0.074 A 
ATOM     47  C   UNL A   1      46.242  24.761  28.723  1.00  0.00     0.031 C 
ATOM     48  C   UNL A   1      39.567  26.478  28.292  1.00  0.00     0.029 A 
ATOM     49  C   UNL A   1      40.460  27.516  28.788  1.00  0.00     0.049 A 
ATOM     50  H   UNL A   1      42.514  27.386  29.114  1.00  0.00     0.167 HD
ATOM     51  C   UNL A   1      46.849  26.994  29.610  1.00  0.00     0.037 A 
ATOM     52  C   UNL A   1      40.081  28.759  29.141  1.00  0.00     0.037 A 
ATOM     53  C   UNL A   1      46.537  28.336  30.031  1.00  0.00     0.049 A 
ATOM     54  C   UNL A   1      41.114  29.710  29.668  1.00  0.00     0.074 A 
ATOM     55  C   UNL A   1      47.398  29.323  30.481  1.00  0.00     0.029 A 
ATOM     56  N   UNL A   1      45.261  28.881  30.049  1.00  0.00    -0.354 N 
ATOM     57  N   UNL A   1      42.408  29.540  29.790  1.00  0.00    -0.248 NA
ATOM     58  C   UNL A   1      40.629  31.018  30.124  1.00  0.00     0.031 C 
ATOM     59  C   UNL A   1      46.637  30.451  30.809  1.00  0.00     0.029 A 
ATOM     60  C   UNL A   1      45.309  30.182  30.521  1.00  0.00     0.049 A 
ATOM     61  H   UNL A   1      44.444  28.411  29.768  1.00  0.00     0.167 HD
ATOM     62  C   UNL A   1      42.894  30.723  30.326  1.00  0.00     0.074 A 
ATOM     63  C   UNL A   1      41.760  31.611  30.479  1.00  0.00     0.031 C 
ATOM     64  C   UNL A   1      44.165  31.046  30.670  1.00  0.00     0.037 A 
BRANCH  51  65
ATOM     65  C   UNL A   1      48.279  26.537  29.681  1.00  0.00     0.057 A 
ATOM     66  C   UNL A   1      49.161  26.791  28.623  1.00  0.00     0.134 A 
ATOM     67  C   UNL A   1      48.780  25.832  30.783  1.00  0.00     0.134 A 
ATOM     68  F   UNL A   1      48.746  27.456  27.534  1.00  0.00    -0.206 F 
ATOM     69  C   UNL A   1      50.489  26.361  28.658  1.00  0.00     0.040 A 
ATOM     70  C   UNL A   1      50.114  25.418  30.841  1.00  0.00     0.040 A 
ATOM     71  F   UNL A   1      47.994  25.569  31.838  1.00  0.00    -0.206 F 
ATOM     72  C   UNL A   1      50.971  25.678  29.773  1.00  0.00     0.006 A 
ENDBRANCH  51  65
BRANCH  52  73
ATOM     73  C   UNL A   1      38.657  29.161  29.032  1.00  0.00     0.057 A 
ATOM     74  C   UNL A   1      37.793  29.087  30.132  1.00  0.00     0.134 A 
ATOM     75  C   UNL A   1      38.130  29.642  27.828  1.00  0.00     0.134 A 
ATOM     76  F   UNL A   1      38.235  28.630  31.312  1.00  0.00    -0.206 F 
ATOM     77  C   UNL A   1      36.453  29.465  30.035  1.00  0.00     0.040 A 
ATOM     78  C   UNL A   1      36.800  30.050  27.725  1.00  0.00     0.040 A 
ATOM     79  F   UNL A   1      38.913  29.753  26.745  1.00  0.00    -0.206 F 
ATOM     80  C   UNL A   1      35.957  29.958  28.831  1.00  0.00     0.006 A 
ENDBRANCH  52  73
BRANCH  64  81
ATOM     81  C   UNL A   1      44.384  32.422  31.222  1.00  0.00     0.057 A 
ATOM     82  C   UNL A   1      44.332  32.655  32.602  1.00  0.00     0.134 A 
ATOM     83  C   UNL A   1      44.649  33.516  30.389  1.00  0.00     0.134 A 
ATOM     84  F   UNL A   1      44.077  31.650  33.453  1.00  0.00    -0.206 F 
ATOM     85  C   UNL A   1      44.538  33.929  33.134  1.00  0.00     0.040 A 
ATOM     86  C   UNL A   1      44.883  34.789  30.910  1.00  0.00     0.040 A 
ATOM     87  F   UNL A   1      44.732  33.355  29.060  1.00  0.00    -0.206 F 
ATOM     88  C   UNL A   1      44.823  34.999  32.288  1.00  0.00     0.006 A 
ENDBRANCH  64  81
ENDBRANCH  38  39
ENDBRANCH  30  33
ENDBRANCH  28  29
ENDBRANCH  27  28
ENDBRANCH   1  27
TORSDOF 14
ENDMDL
MODEL 2
REMARK VINA RESULT:     -12.3      4.282      9.459
REMARK SMILES CC(C)CN(C)c1cc2c(cc1Cl)C=C(C(=O)NCCCNC(=O)c1ccc(-c3c4nc(c(-c5c(F)cccc5F)c5ccc([nH]5)c(-c5c(F)cccc5F)c5nc(c(-c6c(F)cccc6F)c6ccc3[nH]6)C=C5)C=C4)cc1)[C@@H](C(F)(F)F)O2
REMARK SMILES IDX 19 1 18 2 16 3 17 4 15 6 7 7 8 8 12 9 9 10 11 11 13 12 10 13
REMARK SMILES IDX 84 14 14 15 79 16 5 17 6 18 4 19 2 20 1 21 3 22 80 23 81 24
REMARK SMILES IDX 82 25 83 26 20 27 21 28 22 29 23 30 24 32 25 33 26 34 78 35
REMARK SMILES IDX 27 36 77 37 28 38 29 39 30 40 71 41 31 42 76 43 70 44 72 45
REMARK SMILES IDX 32 46 75 47 69 48 68 49 33 51 59 52 42 53 58 54 43 55 46 56
REMARK SMILES IDX 57 57 73 58 44 59 45 60 56 62 74 63 47 64 34 65 35 66 40 67
REMARK SMILES IDX 36 68 37 69 39 70 41 71 38 72 60 73 61 74 66 75 62 76 63 77
REMARK SMILES IDX 65 78 67 79 64 80 48 81 49 82 54 83 50 84 51 85 53 86 55 87
REMARK SMILES IDX 52 88
REMARK H PARENT 18 5 22 31 72 50 46 61
REMARK Flexibility Score: inf
ROOT
ATOM      1  C   UNL A   1      31.829  30.688  25.987  1.00  0.00     0.118 C 
ENDROOT
BRANCH   1   2
ATOM      2  N   UNL A   1      30.857  30.514  24.923  1.00  0.00    -0.352 N 
ATOM      3  C   UNL A   1      30.554  29.557  24.017  1.00  0.00     0.251 C 
ATOM      4  O   UNL A   1      29.608  29.820  23.269  1.00  0.00    -0.270 OA
ATOM      5  H   UNL A   1      30.264  31.295  24.840  1.00  0.00     0.163 HD
BRANCH   3   6
ATOM      6  C   UNL A   1      31.269  28.262  23.879  1.00  0.00     0.067 C 
ATOM      7  C   UNL A   1      32.901  23.530  24.421  1.00  0.00     0.059 A 
ATOM      8  C   UNL A   1      32.691  24.374  23.319  1.00  0.00     0.074 A 
ATOM      9  C   UNL A   1      32.600  24.040  25.707  1.00  0.00     0.065 A 
ATOM     10  C   UNL A   1      32.165  25.650  23.498  1.00  0.00     0.130 A 
ATOM     11  C   UNL A   1      31.971  25.281  25.867  1.00  0.00     0.034 A 
ATOM     12  Cl  UNL A   1      33.013  23.188  27.156  1.00  0.00    -0.082 Cl
ATOM     13  C   UNL A   1      31.739  26.082  24.756  1.00  0.00     0.019 A 
ATOM     14  O   UNL A   1      32.092  26.469  22.400  1.00  0.00    -0.475 OA
ATOM     15  C   UNL A   1      31.066  27.370  24.865  1.00  0.00     0.025 C 
ATOM     16  C   UNL A   1      32.176  27.888  22.741  1.00  0.00     0.314 C 
BRANCH   7  17
ATOM     17  N   UNL A   1      33.364  22.218  24.227  1.00  0.00    -0.373 N 
ATOM     18  C   UNL A   1      32.406  21.163  24.546  1.00  0.00     0.143 C 
BRANCH  17  19
ATOM     19  C   UNL A   1      34.773  21.965  24.599  1.00  0.00     0.119 C 
BRANCH  19  20
ATOM     20  C   UNL A   1      35.693  23.168  24.304  1.00  0.00     0.002 C 
ATOM     21  C   UNL A   1      36.473  23.624  25.542  1.00  0.00     0.009 C 
ATOM     22  C   UNL A   1      36.689  22.844  23.188  1.00  0.00     0.009 C 
ENDBRANCH  19  20
ENDBRANCH  17  19
ENDBRANCH   7  17
BRANCH  16  23
ATOM     23  C   UNL A   1      33.643  28.310  23.001  1.00  0.00     0.429 C 
ATOM     24  F   UNL A   1      34.382  28.170  21.873  1.00  0.00    -0.167 F 
ATOM     25  F   UNL A   1      33.743  29.612  23.367  1.00  0.00    -0.167 F 
ATOM     26  F   UNL A   1      34.249  27.594  23.972  1.00  0.00    -0.167 F 
ENDBRANCH  16  23
ENDBRANCH   3   6
ENDBRANCH   1   2
BRANCH   1  27
ATOM     27  C   UNL A   1      31.471  31.864  26.881  1.00  0.00     0.042 C 
BRANCH  27  28
ATOM     28  C   UNL A   1      32.698  32.648  27.320  1.00  0.00     0.118 C 
BRANCH  28  29
ATOM     29  N   UNL A   1      32.390  34.049  27.595  1.00  0.00    -0.352 N 
ATOM     30  C   UNL A   1      32.944  34.911  28.512  1.00  0.00     0.251 C 
ATOM     31  H   UNL A   1      31.677  34.437  27.038  1.00  0.00     0.163 HD
ATOM     32  O   UNL A   1      32.413  35.993  28.741  1.00  0.00    -0.269 OA
BRANCH  30  33
ATOM     33  C   UNL A   1      34.164  34.514  29.239  1.00  0.00     0.039 A 
ATOM     34  C   UNL A   1      35.412  34.658  28.635  1.00  0.00     0.014 A 
ATOM     35  C   UNL A   1      34.060  33.954  30.515  1.00  0.00     0.014 A 
ATOM     36  C   UNL A   1      36.518  34.044  29.199  1.00  0.00     0.010 A 
ATOM     37  C   UNL A   1      35.202  33.445  31.140  1.00  0.00     0.010 A 
ATOM     38  C   UNL A   1      36.429  33.429  30.458  1.00  0.00    -0.014 A 
BRANCH  38  39
ATOM     39  C   UNL A   1      37.634  32.763  31.018  1.00  0.00     0.031 A 
ATOM     40  C   UNL A   1      38.211  33.197  32.339  1.00  0.00     0.074 A 
ATOM     41  C   UNL A   1      38.156  31.704  30.367  1.00  0.00     0.049 A 
ATOM     42  N   UNL A   1      39.242  32.715  32.987  1.00  0.00    -0.248 NA
ATOM     43  C   UNL A   1      37.551  34.321  33.022  1.00  0.00     0.031 C 
ATOM     44  C   UNL A   1      37.672  31.179  29.087  1.00  0.00     0.029 A 
ATOM     45  N   UNL A   1      39.180  30.859  30.705  1.00  0.00    -0.354 N 
ATOM     46  C   UNL A   1      39.371  33.491  34.133  1.00  0.00     0.074 A 
ATOM     47  C   UNL A   1      38.330  34.494  34.081  1.00  0.00     0.031 C 
ATOM     48  C   UNL A   1      38.348  30.061  28.786  1.00  0.00     0.029 A 
ATOM     49  C   UNL A   1      39.365  29.839  29.804  1.00  0.00     0.049 A 
ATOM     50  H   UNL A   1      39.727  30.972  31.515  1.00  0.00     0.167 HD
ATOM     51  C   UNL A   1      40.268  33.372  35.141  1.00  0.00     0.037 A 
ATOM     52  C   UNL A   1      40.271  28.844  29.789  1.00  0.00     0.037 A 
ATOM     53  C   UNL A   1      41.287  32.356  35.201  1.00  0.00     0.049 A 
ATOM     54  C   UNL A   1      41.281  28.766  30.895  1.00  0.00     0.074 A 
ATOM     55  C   UNL A   1      42.237  32.140  36.186  1.00  0.00     0.029 A 
ATOM     56  N   UNL A   1      41.487  31.380  34.235  1.00  0.00    -0.354 N 
ATOM     57  N   UNL A   1      41.393  29.512  31.967  1.00  0.00    -0.248 NA
ATOM     58  C   UNL A   1      42.301  27.716  30.778  1.00  0.00     0.031 C 
ATOM     59  C   UNL A   1      43.035  31.060  35.795  1.00  0.00     0.029 A 
ATOM     60  C   UNL A   1      42.556  30.574  34.589  1.00  0.00     0.049 A 
ATOM     61  H   UNL A   1      40.948  31.277  33.418  1.00  0.00     0.167 HD
ATOM     62  C   UNL A   1      42.489  29.017  32.658  1.00  0.00     0.074 A 
ATOM     63  C   UNL A   1      42.989  27.889  31.898  1.00  0.00     0.031 C 
ATOM     64  C   UNL A   1      43.039  29.460  33.814  1.00  0.00     0.037 A 
BRANCH  51  65
ATOM     65  C   UNL A   1      40.200  34.382  36.250  1.00  0.00     0.057 A 
ATOM     66  C   UNL A   1      39.421  34.139  37.389  1.00  0.00     0.134 A 
ATOM     67  C   UNL A   1      40.888  35.602  36.188  1.00  0.00     0.134 A 
ATOM     68  F   UNL A   1      38.733  32.994  37.512  1.00  0.00    -0.206 F 
ATOM     69  C   UNL A   1      39.329  35.070  38.425  1.00  0.00     0.040 A 
ATOM     70  C   UNL A   1      40.823  36.531  37.230  1.00  0.00     0.040 A 
ATOM     71  F   UNL A   1      41.664  35.892  35.134  1.00  0.00    -0.206 F 
ATOM     72  C   UNL A   1      40.037  36.268  38.350  1.00  0.00     0.006 A 
ENDBRANCH  51  65
BRANCH  52  73
ATOM     73  C   UNL A   1      40.279  27.863  28.676  1.00  0.00     0.057 A 
ATOM     74  C   UNL A   1      39.587  26.649  28.770  1.00  0.00     0.134 A 
ATOM     75  C   UNL A   1      40.969  28.122  27.486  1.00  0.00     0.134 A 
ATOM     76  F   UNL A   1      38.911  26.339  29.886  1.00  0.00    -0.206 F 
ATOM     77  C   UNL A   1      39.590  25.722  27.727  1.00  0.00     0.040 A 
ATOM     78  C   UNL A   1      40.957  27.216  26.424  1.00  0.00     0.040 A 
ATOM     79  F   UNL A   1      41.636  29.274  27.330  1.00  0.00    -0.206 F 
ATOM     80  C   UNL A   1      40.269  26.011  26.546  1.00  0.00     0.006 A 
ENDBRANCH  52  73
BRANCH  64  81
ATOM     81  C   UNL A   1      44.228  28.703  34.327  1.00  0.00     0.057 A 
ATOM     82  C   UNL A   1      45.527  29.095  33.983  1.00  0.00     0.134 A 
ATOM     83  C   UNL A   1      44.086  27.587  35.163  1.00  0.00     0.134 A 
ATOM     84  F   UNL A   1      45.730  30.151  33.182  1.00  0.00    -0.206 F 
ATOM     85  C   UNL A   1      46.645  28.405  34.454  1.00  0.00     0.040 A 
ATOM     86  C   UNL A   1      45.196  26.906  35.662  1.00  0.00     0.040 A 
ATOM     87  F   UNL A   1      42.868  27.174  35.544  1.00  0.00    -0.206 F 
ATOM     88  C   UNL A   1      46.481  27.312  35.303  1.00  0.00     0.006 A 
ENDBRANCH  64  81
ENDBRANCH  38  39
ENDBRANCH  30  33
ENDBRANCH  28  29
ENDBRANCH  27  28
ENDBRANCH   1  27
TORSDOF 14
ENDMDL
MODEL 3
REMARK VINA RESULT:     -12.2      0.331      6.015
REMARK SMILES CC(C)CN(C)c1cc2c(cc1Cl)C=C(C(=O)NCCCNC(=O)c1ccc(-c3c4nc(c(-c5c(F)cccc5F)c5ccc([nH]5)c(-c5c(F)cccc5F)c5nc(c(-c6c(F)cccc6F)c6ccc3[nH]6)C=C5)C=C4)cc1)[C@@H](C(F)(F)F)O2
REMARK SMILES IDX 19 1 18 2 16 3 17 4 15 6 7 7 8 8 12 9 9 10 11 11 13 12 10 13
REMARK SMILES IDX 84 14 14 15 79 16 5 17 6 18 4 19 2 20 1 21 3 22 80 23 81 24
REMARK SMILES IDX 82 25 83 26 20 27 21 28 22 29 23 30 24 32 25 33 26 34 78 35
REMARK SMILES IDX 27 36 77 37 28 38 29 39 30 40 71 41 31 42 76 43 70 44 72 45
REMARK SMILES IDX 32 46 75 47 69 48 68 49 33 51 59 52 42 53 58 54 43 55 46 56
REMARK SMILES IDX 57 57 73 58 44 59 45 60 56 62 74 63 47 64 34 65 35 66 40 67
REMARK SMILES IDX 36 68 37 69 39 70 41 71 38 72 60 73 61 74 66 75 62 76 63 77
REMARK SMILES IDX 65 78 67 79 64 80 48 81 49 82 54 83 50 84 51 85 53 86 55 87
REMARK SMILES IDX 52 88
REMARK H PARENT 18 5 22 31 72 50 46 61
REMARK Flexibility Score: inf
ROOT
ATOM      1  C   UNL A   1      35.979  21.224  25.432  1.00  0.00     0.118 C 
ENDROOT
BRANCH   1   2
ATOM      2  N   UNL A   1      34.818  20.525  24.909  1.00  0.00    -0.352 N 
ATOM      3  C   UNL A   1      33.568  20.855  24.516  1.00  0.00     0.251 C 
ATOM      4  O   UNL A   1      32.876  19.915  24.113  1.00  0.00    -0.270 OA
ATOM      5  H   UNL A   1      34.986  19.559  24.817  1.00  0.00     0.163 HD
BRANCH   3   6
ATOM      6  C   UNL A   1      33.005  22.230  24.542  1.00  0.00     0.067 C 
ATOM      7  C   UNL A   1      31.744  26.986  23.473  1.00  0.00     0.059 A 
ATOM      8  C   UNL A   1      31.080  25.909  24.083  1.00  0.00     0.074 A 
ATOM      9  C   UNL A   1      33.065  26.768  23.014  1.00  0.00     0.065 A 
ATOM     10  C   UNL A   1      31.699  24.667  24.187  1.00  0.00     0.130 A 
ATOM     11  C   UNL A   1      33.637  25.491  23.025  1.00  0.00     0.034 A 
ATOM     12  Cl  UNL A   1      34.066  28.061  22.444  1.00  0.00    -0.082 Cl
ATOM     13  C   UNL A   1      32.944  24.433  23.601  1.00  0.00     0.019 A 
ATOM     14  O   UNL A   1      31.049  23.689  24.895  1.00  0.00    -0.475 OA
ATOM     15  C   UNL A   1      33.484  23.079  23.615  1.00  0.00     0.025 C 
ATOM     16  C   UNL A   1      31.962  22.724  25.505  1.00  0.00     0.314 C 
BRANCH   7  17
ATOM     17  N   UNL A   1      31.087  28.216  23.307  1.00  0.00    -0.373 N 
ATOM     18  C   UNL A   1      31.116  29.103  24.467  1.00  0.00     0.143 C 
BRANCH  17  19
ATOM     19  C   UNL A   1      29.826  28.180  22.536  1.00  0.00     0.119 C 
BRANCH  19  20
ATOM     20  C   UNL A   1      28.855  29.314  22.927  1.00  0.00     0.002 C 
ATOM     21  C   UNL A   1      28.857  30.461  21.911  1.00  0.00     0.009 C 
ATOM     22  C   UNL A   1      27.424  28.791  23.075  1.00  0.00     0.009 C 
ENDBRANCH  19  20
ENDBRANCH  17  19
ENDBRANCH   7  17
BRANCH  16  23
ATOM     23  C   UNL A   1      32.588  23.294  26.801  1.00  0.00     0.429 C 
ATOM     24  F   UNL A   1      31.883  24.369  27.233  1.00  0.00    -0.167 F 
ATOM     25  F   UNL A   1      32.575  22.393  27.815  1.00  0.00    -0.167 F 
ATOM     26  F   UNL A   1      33.872  23.686  26.656  1.00  0.00    -0.167 F 
ENDBRANCH  16  23
ENDBRANCH   3   6
ENDBRANCH   1   2
BRANCH   1  27
ATOM     27  C   UNL A   1      37.265  20.713  24.806  1.00  0.00     0.042 C 
BRANCH  27  28
ATOM     28  C   UNL A   1      38.483  21.010  25.668  1.00  0.00     0.118 C 
BRANCH  28  29
ATOM     29  N   UNL A   1      39.410  19.882  25.723  1.00  0.00    -0.352 N 
ATOM     30  C   UNL A   1      40.753  19.858  26.015  1.00  0.00     0.251 C 
ATOM     31  H   UNL A   1      39.012  19.005  25.521  1.00  0.00     0.163 HD
ATOM     32  O   UNL A   1      41.411  18.843  25.808  1.00  0.00    -0.269 OA
BRANCH  30  33
ATOM     33  C   UNL A   1      41.404  21.068  26.552  1.00  0.00     0.039 A 
ATOM     34  C   UNL A   1      41.391  21.314  27.924  1.00  0.00     0.014 A 
ATOM     35  C   UNL A   1      41.992  21.985  25.677  1.00  0.00     0.014 A 
ATOM     36  C   UNL A   1      41.756  22.564  28.396  1.00  0.00     0.010 A 
ATOM     37  C   UNL A   1      42.475  23.198  26.173  1.00  0.00     0.010 A 
ATOM     38  C   UNL A   1      42.303  23.523  27.528  1.00  0.00    -0.014 A 
BRANCH  38  39
ATOM     39  C   UNL A   1      42.663  24.859  28.071  1.00  0.00     0.031 A 
ATOM     40  C   UNL A   1      41.604  25.898  28.325  1.00  0.00     0.074 A 
ATOM     41  C   UNL A   1      43.944  25.100  28.415  1.00  0.00     0.049 A 
ATOM     42  N   UNL A   1      41.734  27.106  28.816  1.00  0.00    -0.248 NA
ATOM     43  C   UNL A   1      40.218  25.541  27.982  1.00  0.00     0.031 C 
ATOM     44  C   UNL A   1      45.056  24.164  28.234  1.00  0.00     0.029 A 
ATOM     45  N   UNL A   1      44.520  26.185  29.021  1.00  0.00    -0.354 N 
ATOM     46  C   UNL A   1      40.459  27.660  28.812  1.00  0.00     0.074 A 
ATOM     47  C   UNL A   1      39.571  26.668  28.246  1.00  0.00     0.031 C 
ATOM     48  C   UNL A   1      46.164  24.684  28.782  1.00  0.00     0.029 A 
ATOM     49  C   UNL A   1      45.859  26.020  29.277  1.00  0.00     0.049 A 
ATOM     50  H   UNL A   1      44.023  27.003  29.251  1.00  0.00     0.167 HD
ATOM     51  C   UNL A   1      40.063  28.879  29.250  1.00  0.00     0.037 A 
ATOM     52  C   UNL A   1      46.752  26.861  29.832  1.00  0.00     0.037 A 
ATOM     53  C   UNL A   1      40.947  29.854  29.836  1.00  0.00     0.049 A 
ATOM     54  C   UNL A   1      46.293  28.221  30.265  1.00  0.00     0.074 A 
ATOM     55  C   UNL A   1      40.643  31.114  30.324  1.00  0.00     0.029 A 
ATOM     56  N   UNL A   1      42.311  29.675  30.018  1.00  0.00    -0.354 N 
ATOM     57  N   UNL A   1      45.086  28.732  30.248  1.00  0.00    -0.248 NA
ATOM     58  C   UNL A   1      47.327  29.129  30.779  1.00  0.00     0.031 C 
ATOM     59  C   UNL A   1      41.830  31.711  30.763  1.00  0.00     0.029 A 
ATOM     60  C   UNL A   1      42.865  30.808  30.590  1.00  0.00     0.049 A 
ATOM     61  H   UNL A   1      42.811  28.863  29.774  1.00  0.00     0.167 HD
ATOM     62  C   UNL A   1      45.212  30.016  30.756  1.00  0.00     0.074 A 
ATOM     63  C   UNL A   1      46.608  30.195  31.100  1.00  0.00     0.031 C 
ATOM     64  C   UNL A   1      44.259  30.966  30.918  1.00  0.00     0.037 A 
BRANCH  51  65
ATOM     65  C   UNL A   1      38.613  29.235  29.089  1.00  0.00     0.057 A 
ATOM     66  C   UNL A   1      38.115  29.651  27.847  1.00  0.00     0.134 A 
ATOM     67  C   UNL A   1      37.712  29.186  30.161  1.00  0.00     0.134 A 
ATOM     68  F   UNL A   1      38.924  29.726  26.779  1.00  0.00    -0.206 F 
ATOM     69  C   UNL A   1      36.775  30.004  27.676  1.00  0.00     0.040 A 
ATOM     70  C   UNL A   1      36.363  29.513  29.997  1.00  0.00     0.040 A 
ATOM     71  F   UNL A   1      38.118  28.782  31.373  1.00  0.00    -0.206 F 
ATOM     72  C   UNL A   1      35.893  29.928  28.753  1.00  0.00     0.006 A 
ENDBRANCH  51  65
BRANCH  52  73
ATOM     73  C   UNL A   1      48.168  26.448  29.983  1.00  0.00     0.057 A 
ATOM     74  C   UNL A   1      48.616  25.787  31.134  1.00  0.00     0.134 A 
ATOM     75  C   UNL A   1      49.106  26.694  28.974  1.00  0.00     0.134 A 
ATOM     76  F   UNL A   1      47.768  25.526  32.139  1.00  0.00    -0.206 F 
ATOM     77  C   UNL A   1      49.947  25.396  31.281  1.00  0.00     0.040 A 
ATOM     78  C   UNL A   1      50.435  26.284  29.097  1.00  0.00     0.040 A 
ATOM     79  F   UNL A   1      48.734  27.308  27.842  1.00  0.00    -0.206 F 
ATOM     80  C   UNL A   1      50.858  25.636  30.255  1.00  0.00     0.006 A 
ENDBRANCH  52  73
BRANCH  64  81
ATOM     81  C   UNL A   1      44.704  32.270  31.511  1.00  0.00     0.057 A 
ATOM     82  C   UNL A   1      44.741  32.447  32.900  1.00  0.00     0.134 A 
ATOM     83  C   UNL A   1      45.097  33.348  30.708  1.00  0.00     0.134 A 
ATOM     84  F   UNL A   1      44.373  31.454  33.723  1.00  0.00    -0.206 F 
ATOM     85  C   UNL A   1      45.157  33.651  33.469  1.00  0.00     0.040 A 
ATOM     86  C   UNL A   1      45.539  34.548  31.266  1.00  0.00     0.040 A 
ATOM     87  F   UNL A   1      45.101  33.235  29.372  1.00  0.00    -0.206 F 
ATOM     88  C   UNL A   1      45.565  34.703  32.652  1.00  0.00     0.006 A 
ENDBRANCH  64  81
ENDBRANCH  38  39
ENDBRANCH  30  33
ENDBRANCH  28  29
ENDBRANCH  27  28
ENDBRANCH   1  27
TORSDOF 14
ENDMDL
