MODEL 1
REMARK VINA RESULT:     -12.1      0.000      0.000
REMARK SMILES CNC(=O)c1cccc(-c2cnc(O)c(C(=O)NCCCNC(=O)c3ccc(-c4c5nc(c(-c6c(F)cccc6F)c6ccc([nH]6)c(-c6c(F)cccc6F)c6nc(c(-c7c(F)cccc7F)c7ccc4[nH]7)C=C6)C=C5)cc3)c2)c1
REMARK SMILES IDX 20 1 19 2 18 3 16 4 17 5 15 7 10 8 11 9 79 10 12 11 13 12
REMARK SMILES IDX 9 13 5 14 6 15 80 16 7 17 8 18 3 19 1 20 2 21 4 23 14 24
REMARK SMILES IDX 21 26 22 27 23 28 24 30 25 31 26 32 78 33 27 34 77 35 28 36
REMARK SMILES IDX 29 37 30 38 71 39 31 40 76 41 70 42 72 43 32 44 75 45 69 46
REMARK SMILES IDX 68 47 33 49 59 50 42 51 58 52 43 53 46 54 57 55 73 56 44 57
REMARK SMILES IDX 45 58 56 60 74 61 47 62 34 63 35 64 40 65 36 66 37 67 39 68
REMARK SMILES IDX 41 69 38 70 60 71 61 72 66 73 62 74 63 75 65 76 67 77 64 78
REMARK SMILES IDX 48 79 49 80 54 81 50 82 51 83 53 84 55 85 52 86
REMARK H PARENT 18 6 2 22 14 25 22 29 72 48 46 59
REMARK Flexibility Score: inf
ROOT
ATOM      1  C   UNL A   1      32.401  27.898  27.297  1.00  0.00     0.042 C 
ENDROOT
BRANCH   1   2
ATOM      2  C   UNL A   1      31.664  27.883  25.957  1.00  0.00     0.118 C 
BRANCH   2   3
ATOM      3  N   UNL A   1      32.381  28.653  24.953  1.00  0.00    -0.352 N 
ATOM      4  C   UNL A   1      32.963  28.323  23.756  1.00  0.00     0.256 C 
ATOM      5  O   UNL A   1      33.432  29.241  23.080  1.00  0.00    -0.269 OA
ATOM      6  H   UNL A   1      32.464  29.608  25.178  1.00  0.00     0.163 HD
BRANCH   4   7
ATOM      7  C   UNL A   1      33.011  26.953  23.190  1.00  0.00     0.102 A 
ATOM      8  C   UNL A   1      33.783  24.647  23.139  1.00  0.00     0.001 A 
ATOM      9  C   UNL A   1      32.858  24.420  22.127  1.00  0.00     0.124 A 
ATOM     10  C   UNL A   1      33.887  25.958  23.623  1.00  0.00     0.029 A 
ATOM     11  N   UNL A   1      32.046  25.373  21.620  1.00  0.00    -0.221 NA
ATOM     12  C   UNL A   1      32.129  26.608  22.163  1.00  0.00     0.223 A 
BRANCH   8  13
ATOM     13  C   UNL A   1      34.519  23.560  23.781  1.00  0.00    -0.016 A 
ATOM     14  C   UNL A   1      34.560  21.794  25.462  1.00  0.00     0.040 A 
ATOM     15  C   UNL A   1      35.862  21.459  25.083  1.00  0.00     0.014 A 
ATOM     16  C   UNL A   1      33.907  22.858  24.836  1.00  0.00     0.022 A 
ATOM     17  C   UNL A   1      36.483  22.154  24.044  1.00  0.00     0.001 A 
ATOM     18  C   UNL A   1      35.812  23.191  23.389  1.00  0.00     0.009 A 
BRANCH  14  19
ATOM     19  C   UNL A   1      33.923  21.059  26.578  1.00  0.00     0.251 C 
ATOM     20  C   UNL A   1      33.011  19.186  25.109  1.00  0.00     0.143 C 
ATOM     21  N   UNL A   1      33.166  19.940  26.333  1.00  0.00    -0.355 N 
ATOM     22  H   UNL A   1      32.654  19.602  27.103  1.00  0.00     0.163 HD
ATOM     23  O   UNL A   1      34.077  21.459  27.728  1.00  0.00    -0.269 OA
ENDBRANCH  14  19
ENDBRANCH   8  13
BRANCH  12  24
ATOM     24  O   UNL A   1      31.238  27.489  21.616  1.00  0.00    -0.493 OA
ATOM     25  H   UNL A   1      31.546  28.264  21.191  1.00  0.00     0.295 HD
ENDBRANCH  12  24
ENDBRANCH   4   7
ENDBRANCH   2   3
ENDBRANCH   1   2
BRANCH   1  26
ATOM     26  C   UNL A   1      33.768  28.575  27.226  1.00  0.00     0.118 C 
BRANCH  26  27
ATOM     27  N   UNL A   1      33.709  29.968  27.646  1.00  0.00    -0.352 N 
ATOM     28  C   UNL A   1      34.627  30.724  28.332  1.00  0.00     0.251 C 
ATOM     29  H   UNL A   1      32.883  30.442  27.399  1.00  0.00     0.163 HD
ATOM     30  O   UNL A   1      34.296  31.821  28.771  1.00  0.00    -0.269 OA
BRANCH  28  31
ATOM     31  C   UNL A   1      36.003  30.230  28.555  1.00  0.00     0.039 A 
ATOM     32  C   UNL A   1      36.916  30.287  27.498  1.00  0.00     0.014 A 
ATOM     33  C   UNL A   1      36.382  29.661  29.774  1.00  0.00     0.014 A 
ATOM     34  C   UNL A   1      38.221  29.822  27.676  1.00  0.00     0.010 A 
ATOM     35  C   UNL A   1      37.699  29.253  29.971  1.00  0.00     0.010 A 
ATOM     36  C   UNL A   1      38.631  29.326  28.925  1.00  0.00    -0.014 A 
BRANCH  36  37
ATOM     37  C   UNL A   1      40.028  28.883  29.155  1.00  0.00     0.031 A 
ATOM     38  C   UNL A   1      41.031  29.823  29.766  1.00  0.00     0.074 A 
ATOM     39  C   UNL A   1      40.413  27.660  28.745  1.00  0.00     0.049 A 
ATOM     40  N   UNL A   1      42.315  29.650  29.959  1.00  0.00    -0.248 NA
ATOM     41  C   UNL A   1      40.530  31.138  30.191  1.00  0.00     0.031 C 
ATOM     42  C   UNL A   1      39.545  26.673  28.099  1.00  0.00     0.029 A 
ATOM     43  N   UNL A   1      41.638  27.045  28.794  1.00  0.00    -0.354 N 
ATOM     44  C   UNL A   1      42.777  30.840  30.508  1.00  0.00     0.074 A 
ATOM     45  C   UNL A   1      41.645  31.740  30.578  1.00  0.00     0.031 C 
ATOM     46  C   UNL A   1      40.262  25.571  27.825  1.00  0.00     0.029 A 
ATOM     47  C   UNL A   1      41.644  25.788  28.240  1.00  0.00     0.049 A 
ATOM     48  H   UNL A   1      42.437  27.463  29.188  1.00  0.00     0.167 HD
ATOM     49  C   UNL A   1      44.026  31.147  30.930  1.00  0.00     0.037 A 
ATOM     50  C   UNL A   1      42.653  24.911  28.074  1.00  0.00     0.037 A 
ATOM     51  C   UNL A   1      45.144  30.240  30.885  1.00  0.00     0.049 A 
ATOM     52  C   UNL A   1      44.029  25.273  28.555  1.00  0.00     0.074 A 
ATOM     53  C   UNL A   1      46.431  30.433  31.354  1.00  0.00     0.029 A 
ATOM     54  N   UNL A   1      45.104  28.966  30.339  1.00  0.00    -0.354 N 
ATOM     55  N   UNL A   1      44.438  26.378  29.130  1.00  0.00    -0.248 NA
ATOM     56  C   UNL A   1      45.083  24.265  28.369  1.00  0.00     0.031 C 
ATOM     57  C   UNL A   1      47.182  29.290  31.055  1.00  0.00     0.029 A 
ATOM     58  C   UNL A   1      46.351  28.370  30.438  1.00  0.00     0.049 A 
ATOM     59  H   UNL A   1      44.307  28.547  29.939  1.00  0.00     0.167 HD
ATOM     60  C   UNL A   1      45.789  26.192  29.394  1.00  0.00     0.074 A 
ATOM     61  C   UNL A   1      46.127  24.862  28.929  1.00  0.00     0.031 C 
ATOM     62  C   UNL A   1      46.669  27.045  29.971  1.00  0.00     0.037 A 
BRANCH  49  63
ATOM     63  C   UNL A   1      44.251  32.527  31.476  1.00  0.00     0.057 A 
ATOM     64  C   UNL A   1      44.597  33.603  30.648  1.00  0.00     0.134 A 
ATOM     65  C   UNL A   1      44.092  32.791  32.843  1.00  0.00     0.134 A 
ATOM     66  F   UNL A   1      44.776  33.416  29.332  1.00  0.00    -0.206 F 
ATOM     67  C   UNL A   1      44.806  34.884  31.163  1.00  0.00     0.040 A 
ATOM     68  C   UNL A   1      44.272  34.072  33.365  1.00  0.00     0.040 A 
ATOM     69  F   UNL A   1      43.754  31.808  33.691  1.00  0.00    -0.206 F 
ATOM     70  C   UNL A   1      44.638  35.122  32.525  1.00  0.00     0.006 A 
ENDBRANCH  49  63
BRANCH  50  71
ATOM     71  C   UNL A   1      42.389  23.596  27.441  1.00  0.00     0.057 A 
ATOM     72  C   UNL A   1      42.508  23.428  26.057  1.00  0.00     0.134 A 
ATOM     73  C   UNL A   1      42.024  22.478  28.199  1.00  0.00     0.134 A 
ATOM     74  F   UNL A   1      42.837  24.468  25.275  1.00  0.00    -0.206 F 
ATOM     75  C   UNL A   1      42.261  22.197  25.447  1.00  0.00     0.040 A 
ATOM     76  C   UNL A   1      41.795  21.237  27.606  1.00  0.00     0.040 A 
ATOM     77  F   UNL A   1      41.901  22.575  29.531  1.00  0.00    -0.206 F 
ATOM     78  C   UNL A   1      41.909  21.095  26.224  1.00  0.00     0.006 A 
ENDBRANCH  50  71
BRANCH  62  79
ATOM     79  C   UNL A   1      48.075  26.558  30.154  1.00  0.00     0.057 A 
ATOM     80  C   UNL A   1      48.473  25.866  31.305  1.00  0.00     0.134 A 
ATOM     81  C   UNL A   1      49.032  26.747  29.149  1.00  0.00     0.134 A 
ATOM     82  F   UNL A   1      47.607  25.665  32.310  1.00  0.00    -0.206 F 
ATOM     83  C   UNL A   1      49.778  25.396  31.457  1.00  0.00     0.040 A 
ATOM     84  C   UNL A   1      50.334  26.262  29.280  1.00  0.00     0.040 A 
ATOM     85  F   UNL A   1      48.713  27.396  28.018  1.00  0.00    -0.206 F 
ATOM     86  C   UNL A   1      50.711  25.588  30.439  1.00  0.00     0.006 A 
ENDBRANCH  62  79
ENDBRANCH  36  37
ENDBRANCH  28  31
ENDBRANCH  26  27
ENDBRANCH   1  26
TORSDOF 13
ENDMDL
MODEL 2
REMARK VINA RESULT:     -12.1      3.740      7.220
REMARK SMILES CNC(=O)c1cccc(-c2cnc(O)c(C(=O)NCCCNC(=O)c3ccc(-c4c5nc(c(-c6c(F)cccc6F)c6ccc([nH]6)c(-c6c(F)cccc6F)c6nc(c(-c7c(F)cccc7F)c7ccc4[nH]7)C=C6)C=C5)cc3)c2)c1
REMARK SMILES IDX 20 1 19 2 18 3 16 4 17 5 15 7 10 8 11 9 79 10 12 11 13 12
REMARK SMILES IDX 9 13 5 14 6 15 80 16 7 17 8 18 3 19 1 20 2 21 4 23 14 24
REMARK SMILES IDX 21 26 22 27 23 28 24 30 25 31 26 32 78 33 27 34 77 35 28 36
REMARK SMILES IDX 29 37 30 38 71 39 31 40 76 41 70 42 72 43 32 44 75 45 69 46
REMARK SMILES IDX 68 47 33 49 59 50 42 51 58 52 43 53 46 54 57 55 73 56 44 57
REMARK SMILES IDX 45 58 56 60 74 61 47 62 34 63 35 64 40 65 36 66 37 67 39 68
REMARK SMILES IDX 41 69 38 70 60 71 61 72 66 73 62 74 63 75 65 76 67 77 64 78
REMARK SMILES IDX 48 79 49 80 54 81 50 82 51 83 53 84 55 85 52 86
REMARK H PARENT 18 6 2 22 14 25 22 29 72 48 46 59
REMARK Flexibility Score: inf
ROOT
ATOM      1  C   UNL A   1      34.686  33.643  27.969  1.00  0.00     0.042 C 
ENDROOT
BRANCH   1   2
ATOM      2  C   UNL A   1      34.866  35.011  28.627  1.00  0.00     0.118 C 
BRANCH   2   3
ATOM      3  N   UNL A   1      33.585  35.583  29.013  1.00  0.00    -0.352 N 
ATOM      4  C   UNL A   1      33.015  35.872  30.227  1.00  0.00     0.256 C 
ATOM      5  O   UNL A   1      31.921  36.442  30.219  1.00  0.00    -0.269 OA
ATOM      6  H   UNL A   1      33.010  35.810  28.247  1.00  0.00     0.163 HD
BRANCH   4   7
ATOM      7  C   UNL A   1      33.646  35.604  31.541  1.00  0.00     0.102 A 
ATOM      8  C   UNL A   1      35.011  34.298  33.073  1.00  0.00     0.001 A 
ATOM      9  C   UNL A   1      34.887  35.341  33.983  1.00  0.00     0.124 A 
ATOM     10  C   UNL A   1      34.320  34.426  31.860  1.00  0.00     0.029 A 
ATOM     11  N   UNL A   1      34.177  36.465  33.748  1.00  0.00    -0.221 NA
ATOM     12  C   UNL A   1      33.584  36.581  32.539  1.00  0.00     0.223 A 
BRANCH   8  13
ATOM     13  C   UNL A   1      35.926  33.178  33.290  1.00  0.00    -0.016 A 
ATOM     14  C   UNL A   1      37.469  32.021  34.782  1.00  0.00     0.040 A 
ATOM     15  C   UNL A   1      37.713  31.065  33.794  1.00  0.00     0.014 A 
ATOM     16  C   UNL A   1      36.606  33.087  34.518  1.00  0.00     0.022 A 
ATOM     17  C   UNL A   1      37.051  31.150  32.567  1.00  0.00     0.001 A 
ATOM     18  C   UNL A   1      36.154  32.194  32.320  1.00  0.00     0.009 A 
BRANCH  14  19
ATOM     19  C   UNL A   1      38.192  31.928  36.070  1.00  0.00     0.251 C 
ATOM     20  C   UNL A   1      40.224  33.243  35.272  1.00  0.00     0.143 C 
ATOM     21  N   UNL A   1      39.466  32.423  36.191  1.00  0.00    -0.355 N 
ATOM     22  H   UNL A   1      39.932  32.186  37.026  1.00  0.00     0.163 HD
ATOM     23  O   UNL A   1      37.642  31.402  37.032  1.00  0.00    -0.269 OA
ENDBRANCH  14  19
ENDBRANCH   8  13
BRANCH  12  24
ATOM     24  O   UNL A   1      32.930  37.770  32.380  1.00  0.00    -0.493 OA
ATOM     25  H   UNL A   1      32.041  37.858  32.664  1.00  0.00     0.295 HD
ENDBRANCH  12  24
ENDBRANCH   4   7
ENDBRANCH   2   3
ENDBRANCH   1   2
BRANCH   1  26
ATOM     26  C   UNL A   1      34.570  32.500  28.977  1.00  0.00     0.118 C 
BRANCH  26  27
ATOM     27  N   UNL A   1      33.934  31.325  28.399  1.00  0.00    -0.352 N 
ATOM     28  C   UNL A   1      34.486  30.147  27.960  1.00  0.00     0.251 C 
ATOM     29  H   UNL A   1      32.956  31.384  28.308  1.00  0.00     0.163 HD
ATOM     30  O   UNL A   1      33.799  29.364  27.312  1.00  0.00    -0.269 OA
BRANCH  28  31
ATOM     31  C   UNL A   1      35.898  29.814  28.253  1.00  0.00     0.039 A 
ATOM     32  C   UNL A   1      36.219  29.302  29.514  1.00  0.00     0.014 A 
ATOM     33  C   UNL A   1      36.909  30.056  27.320  1.00  0.00     0.014 A 
ATOM     34  C   UNL A   1      37.543  28.985  29.822  1.00  0.00     0.010 A 
ATOM     35  C   UNL A   1      38.221  29.683  27.604  1.00  0.00     0.010 A 
ATOM     36  C   UNL A   1      38.552  29.147  28.858  1.00  0.00    -0.014 A 
BRANCH  36  37
ATOM     37  C   UNL A   1      39.956  28.760  29.142  1.00  0.00     0.031 A 
ATOM     38  C   UNL A   1      40.887  29.726  29.821  1.00  0.00     0.074 A 
ATOM     39  C   UNL A   1      40.413  27.566  28.720  1.00  0.00     0.049 A 
ATOM     40  N   UNL A   1      42.167  29.605  30.069  1.00  0.00    -0.248 NA
ATOM     41  C   UNL A   1      40.309  31.007  30.254  1.00  0.00     0.031 C 
ATOM     42  C   UNL A   1      39.621  26.559  28.011  1.00  0.00     0.029 A 
ATOM     43  N   UNL A   1      41.662  27.004  28.810  1.00  0.00    -0.354 N 
ATOM     44  C   UNL A   1      42.550  30.798  30.666  1.00  0.00     0.074 A 
ATOM     45  C   UNL A   1      41.378  31.646  30.706  1.00  0.00     0.031 C 
ATOM     46  C   UNL A   1      40.398  25.498  27.743  1.00  0.00     0.029 A 
ATOM     47  C   UNL A   1      41.748  25.763  28.226  1.00  0.00     0.049 A 
ATOM     48  H   UNL A   1      42.422  27.446  29.251  1.00  0.00     0.167 HD
ATOM     49  C   UNL A   1      43.765  31.149  31.153  1.00  0.00     0.037 A 
ATOM     50  C   UNL A   1      42.802  24.937  28.086  1.00  0.00     0.037 A 
ATOM     51  C   UNL A   1      44.922  30.293  31.138  1.00  0.00     0.049 A 
ATOM     52  C   UNL A   1      44.138  25.345  28.639  1.00  0.00     0.074 A 
ATOM     53  C   UNL A   1      46.178  30.530  31.670  1.00  0.00     0.029 A 
ATOM     54  N   UNL A   1      44.965  29.033  30.560  1.00  0.00    -0.354 N 
ATOM     55  N   UNL A   1      44.471  26.452  29.259  1.00  0.00    -0.248 NA
ATOM     56  C   UNL A   1      45.243  24.390  28.478  1.00  0.00     0.031 C 
ATOM     57  C   UNL A   1      46.991  29.429  31.379  1.00  0.00     0.029 A 
ATOM     58  C   UNL A   1      46.231  28.490  30.702  1.00  0.00     0.049 A 
ATOM     59  H   UNL A   1      44.206  28.591  30.114  1.00  0.00     0.167 HD
ATOM     60  C   UNL A   1      45.815  26.317  29.580  1.00  0.00     0.074 A 
ATOM     61  C   UNL A   1      46.233  25.017  29.099  1.00  0.00     0.031 C 
ATOM     62  C   UNL A   1      46.629  27.193  30.218  1.00  0.00     0.037 A 
BRANCH  49  63
ATOM     63  C   UNL A   1      43.903  32.522  31.742  1.00  0.00     0.057 A 
ATOM     64  C   UNL A   1      43.644  32.776  33.095  1.00  0.00     0.134 A 
ATOM     65  C   UNL A   1      44.328  33.601  30.954  1.00  0.00     0.134 A 
ATOM     66  F   UNL A   1      43.223  31.791  33.903  1.00  0.00    -0.206 F 
ATOM     67  C   UNL A   1      43.774  34.057  33.637  1.00  0.00     0.040 A 
ATOM     68  C   UNL A   1      44.486  34.879  31.490  1.00  0.00     0.040 A 
ATOM     69  F   UNL A   1      44.600  33.426  29.652  1.00  0.00    -0.206 F 
ATOM     70  C   UNL A   1      44.202  35.111  32.834  1.00  0.00     0.006 A 
ENDBRANCH  49  63
BRANCH  50  71
ATOM     71  C   UNL A   1      42.627  23.628  27.410  1.00  0.00     0.057 A 
ATOM     72  C   UNL A   1      42.248  22.491  28.131  1.00  0.00     0.134 A 
ATOM     73  C   UNL A   1      42.822  23.486  26.031  1.00  0.00     0.134 A 
ATOM     74  F   UNL A   1      42.065  22.562  29.458  1.00  0.00    -0.206 F 
ATOM     75  C   UNL A   1      42.081  21.253  27.508  1.00  0.00     0.040 A 
ATOM     76  C   UNL A   1      42.637  22.260  25.391  1.00  0.00     0.040 A 
ATOM     77  F   UNL A   1      43.178  24.541  25.285  1.00  0.00    -0.206 F 
ATOM     78  C   UNL A   1      42.271  21.137  26.131  1.00  0.00     0.006 A 
ENDBRANCH  50  71
BRANCH  62  79
ATOM     79  C   UNL A   1      48.046  26.763  30.453  1.00  0.00     0.057 A 
ATOM     80  C   UNL A   1      48.414  26.015  31.579  1.00  0.00     0.134 A 
ATOM     81  C   UNL A   1      49.048  27.066  29.522  1.00  0.00     0.134 A 
ATOM     82  F   UNL A   1      47.503  25.705  32.516  1.00  0.00    -0.206 F 
ATOM     83  C   UNL A   1      49.730  25.600  31.780  1.00  0.00     0.040 A 
ATOM     84  C   UNL A   1      50.363  26.636  29.700  1.00  0.00     0.040 A 
ATOM     85  F   UNL A   1      48.760  27.773  28.418  1.00  0.00    -0.206 F 
ATOM     86  C   UNL A   1      50.708  25.904  30.834  1.00  0.00     0.006 A 
ENDBRANCH  62  79
ENDBRANCH  36  37
ENDBRANCH  28  31
ENDBRANCH  26  27
ENDBRANCH   1  26
TORSDOF 13
ENDMDL
MODEL 3
REMARK VINA RESULT:     -12.0      2.094      7.574
REMARK SMILES CNC(=O)c1cccc(-c2cnc(O)c(C(=O)NCCCNC(=O)c3ccc(-c4c5nc(c(-c6c(F)cccc6F)c6ccc([nH]6)c(-c6c(F)cccc6F)c6nc(c(-c7c(F)cccc7F)c7ccc4[nH]7)C=C6)C=C5)cc3)c2)c1
REMARK SMILES IDX 20 1 19 2 18 3 16 4 17 5 15 7 10 8 11 9 79 10 12 11 13 12
REMARK SMILES IDX 9 13 5 14 6 15 80 16 7 17 8 18 3 19 1 20 2 21 4 23 14 24
REMARK SMILES IDX 21 26 22 27 23 28 24 30 25 31 26 32 78 33 27 34 77 35 28 36
REMARK SMILES IDX 29 37 30 38 71 39 31 40 76 41 70 42 72 43 32 44 75 45 69 46
REMARK SMILES IDX 68 47 33 49 59 50 42 51 58 52 43 53 46 54 57 55 73 56 44 57
REMARK SMILES IDX 45 58 56 60 74 61 47 62 34 63 35 64 40 65 36 66 37 67 39 68
REMARK SMILES IDX 41 69 38 70 60 71 61 72 66 73 62 74 63 75 65 76 67 77 64 78
REMARK SMILES IDX 48 79 49 80 54 81 50 82 51 83 53 84 55 85 52 86
REMARK H PARENT 18 6 2 22 14 25 22 29 72 48 46 59
REMARK Flexibility Score: inf
ROOT
ATOM      1  C   UNL A   1      37.452  19.739  24.878  1.00  0.00     0.042 C 
ENDROOT
BRANCH   1   2
ATOM      2  C   UNL A   1      36.215  20.637  24.896  1.00  0.00     0.118 C 
BRANCH   2   3
ATOM      3  N   UNL A   1      35.042  19.910  25.357  1.00  0.00    -0.352 N 
ATOM      4  C   UNL A   1      33.694  20.124  25.224  1.00  0.00     0.256 C 
ATOM      5  O   UNL A   1      32.935  19.260  25.670  1.00  0.00    -0.269 OA
ATOM      6  H   UNL A   1      35.261  19.098  25.869  1.00  0.00     0.163 HD
BRANCH   4   7
ATOM      7  C   UNL A   1      33.088  21.285  24.530  1.00  0.00     0.102 A 
ATOM      8  C   UNL A   1      32.711  23.664  24.194  1.00  0.00     0.001 A 
ATOM      9  C   UNL A   1      32.025  23.333  23.032  1.00  0.00     0.124 A 
ATOM     10  C   UNL A   1      33.190  22.603  24.974  1.00  0.00     0.029 A 
ATOM     11  N   UNL A   1      31.831  22.067  22.606  1.00  0.00    -0.221 NA
ATOM     12  C   UNL A   1      32.370  21.075  23.350  1.00  0.00     0.223 A 
BRANCH   8  13
ATOM     13  C   UNL A   1      33.051  25.045  24.533  1.00  0.00    -0.016 A 
ATOM     14  C   UNL A   1      33.342  27.350  23.791  1.00  0.00     0.040 A 
ATOM     15  C   UNL A   1      33.702  27.725  25.087  1.00  0.00     0.014 A 
ATOM     16  C   UNL A   1      33.051  26.013  23.511  1.00  0.00     0.022 A 
ATOM     17  C   UNL A   1      33.715  26.772  26.107  1.00  0.00     0.001 A 
ATOM     18  C   UNL A   1      33.380  25.442  25.835  1.00  0.00     0.009 A 
BRANCH  14  19
ATOM     19  C   UNL A   1      33.351  28.368  22.717  1.00  0.00     0.251 C 
ATOM     20  C   UNL A   1      30.930  29.079  23.075  1.00  0.00     0.143 C 
ATOM     21  N   UNL A   1      32.203  29.046  22.391  1.00  0.00    -0.355 N 
ATOM     22  H   UNL A   1      32.254  29.589  21.571  1.00  0.00     0.163 HD
ATOM     23  O   UNL A   1      34.396  28.603  22.119  1.00  0.00    -0.269 OA
ENDBRANCH  14  19
ENDBRANCH   8  13
BRANCH  12  24
ATOM     24  O   UNL A   1      32.161  19.836  22.814  1.00  0.00    -0.493 OA
ATOM     25  H   UNL A   1      32.315  19.069  23.329  1.00  0.00     0.295 HD
ENDBRANCH  12  24
ENDBRANCH   4   7
ENDBRANCH   2   3
ENDBRANCH   1   2
BRANCH   1  26
ATOM     26  C   UNL A   1      38.629  20.316  25.662  1.00  0.00     0.118 C 
BRANCH  26  27
ATOM     27  N   UNL A   1      39.751  19.389  25.724  1.00  0.00    -0.352 N 
ATOM     28  C   UNL A   1      41.069  19.616  26.035  1.00  0.00     0.251 C 
ATOM     29  H   UNL A   1      39.530  18.455  25.509  1.00  0.00     0.163 HD
ATOM     30  O   UNL A   1      41.897  18.736  25.825  1.00  0.00    -0.269 OA
BRANCH  28  31
ATOM     31  C   UNL A   1      41.501  20.908  26.612  1.00  0.00     0.039 A 
ATOM     32  C   UNL A   1      41.980  21.900  25.750  1.00  0.00     0.014 A 
ATOM     33  C   UNL A   1      41.491  21.127  27.992  1.00  0.00     0.014 A 
ATOM     34  C   UNL A   1      42.402  23.127  26.266  1.00  0.00     0.010 A 
ATOM     35  C   UNL A   1      41.854  22.372  28.501  1.00  0.00     0.010 A 
ATOM     36  C   UNL A   1      42.316  23.383  27.644  1.00  0.00    -0.014 A 
BRANCH  36  37
ATOM     37  C   UNL A   1      42.700  24.701  28.208  1.00  0.00     0.031 A 
ATOM     38  C   UNL A   1      41.661  25.767  28.423  1.00  0.00     0.074 A 
ATOM     39  C   UNL A   1      43.997  24.965  28.454  1.00  0.00     0.049 A 
ATOM     40  N   UNL A   1      41.816  27.006  28.816  1.00  0.00    -0.248 NA
ATOM     41  C   UNL A   1      40.267  25.397  28.134  1.00  0.00     0.031 C 
ATOM     42  C   UNL A   1      45.104  24.030  28.245  1.00  0.00     0.029 A 
ATOM     43  N   UNL A   1      44.606  26.104  28.917  1.00  0.00    -0.354 N 
ATOM     44  C   UNL A   1      40.547  27.569  28.801  1.00  0.00     0.074 A 
ATOM     45  C   UNL A   1      39.639  26.549  28.321  1.00  0.00     0.031 C 
ATOM     46  C   UNL A   1      46.255  24.628  28.592  1.00  0.00     0.029 A 
ATOM     47  C   UNL A   1      45.972  25.997  29.011  1.00  0.00     0.049 A 
ATOM     48  H   UNL A   1      44.111  26.919  29.161  1.00  0.00     0.167 HD
ATOM     49  C   UNL A   1      40.170  28.816  29.170  1.00  0.00     0.037 A 
ATOM     50  C   UNL A   1      46.895  26.904  29.382  1.00  0.00     0.037 A 
ATOM     51  C   UNL A   1      41.071  29.820  29.674  1.00  0.00     0.049 A 
ATOM     52  C   UNL A   1      46.452  28.280  29.792  1.00  0.00     0.074 A 
ATOM     53  C   UNL A   1      40.776  31.088  30.141  1.00  0.00     0.029 A 
ATOM     54  N   UNL A   1      42.445  29.665  29.777  1.00  0.00    -0.354 N 
ATOM     55  N   UNL A   1      45.240  28.779  29.833  1.00  0.00    -0.248 NA
ATOM     56  C   UNL A   1      47.504  29.217  30.211  1.00  0.00     0.031 C 
ATOM     57  C   UNL A   1      41.977  31.717  30.489  1.00  0.00     0.029 A 
ATOM     58  C   UNL A   1      43.015  30.824  30.279  1.00  0.00     0.049 A 
ATOM     59  H   UNL A   1      42.943  28.852  29.529  1.00  0.00     0.167 HD
ATOM     60  C   UNL A   1      45.380  30.078  30.303  1.00  0.00     0.074 A 
ATOM     61  C   UNL A   1      46.793  30.286  30.545  1.00  0.00     0.031 C 
ATOM     62  C   UNL A   1      44.423  31.014  30.515  1.00  0.00     0.037 A 
BRANCH  49  63
ATOM     63  C   UNL A   1      38.717  29.167  29.038  1.00  0.00     0.057 A 
ATOM     64  C   UNL A   1      37.841  29.111  30.130  1.00  0.00     0.134 A 
ATOM     65  C   UNL A   1      38.191  29.593  27.811  1.00  0.00     0.134 A 
ATOM     66  F   UNL A   1      38.277  28.700  31.330  1.00  0.00    -0.206 F 
ATOM     67  C   UNL A   1      36.489  29.437  30.001  1.00  0.00     0.040 A 
ATOM     68  C   UNL A   1      36.848  29.947  27.675  1.00  0.00     0.040 A 
ATOM     69  F   UNL A   1      38.976  29.676  26.726  1.00  0.00    -0.206 F 
ATOM     70  C   UNL A   1      35.991  29.863  28.772  1.00  0.00     0.006 A 
ENDBRANCH  49  63
BRANCH  50  71
ATOM     71  C   UNL A   1      48.330  26.529  29.403  1.00  0.00     0.057 A 
ATOM     72  C   UNL A   1      49.160  26.804  28.311  1.00  0.00     0.134 A 
ATOM     73  C   UNL A   1      48.906  25.898  30.511  1.00  0.00     0.134 A 
ATOM     74  F   UNL A   1      48.661  27.391  27.213  1.00  0.00    -0.206 F 
ATOM     75  C   UNL A   1      50.512  26.455  28.315  1.00  0.00     0.040 A 
ATOM     76  C   UNL A   1      50.259  25.562  30.538  1.00  0.00     0.040 A 
ATOM     77  F   UNL A   1      48.162  25.614  31.590  1.00  0.00    -0.206 F 
ATOM     78  C   UNL A   1      51.066  25.837  29.435  1.00  0.00     0.006 A 
ENDBRANCH  50  71
BRANCH  62  79
ATOM     79  C   UNL A   1      44.870  32.339  31.057  1.00  0.00     0.057 A 
ATOM     80  C   UNL A   1      44.983  32.573  32.433  1.00  0.00     0.134 A 
ATOM     81  C   UNL A   1      45.230  33.379  30.191  1.00  0.00     0.134 A 
ATOM     82  F   UNL A   1      44.639  31.621  33.315  1.00  0.00    -0.206 F 
ATOM     83  C   UNL A   1      45.420  33.801  32.930  1.00  0.00     0.040 A 
ATOM     84  C   UNL A   1      45.691  34.604  30.675  1.00  0.00     0.040 A 
ATOM     85  F   UNL A   1      45.152  33.217  28.862  1.00  0.00    -0.206 F 
ATOM     86  C   UNL A   1      45.783  34.819  32.049  1.00  0.00     0.006 A 
ENDBRANCH  62  79
ENDBRANCH  36  37
ENDBRANCH  28  31
ENDBRANCH  26  27
ENDBRANCH   1  26
TORSDOF 13
ENDMDL
