MODEL 1
REMARK VINA RESULT:     -11.0      0.000      0.000
REMARK SMILES C#CCN(CC(=O)NCCCNC(=O)c1ccc(-c2c3nc(c(-c4c(F)cccc4F)c4ccc([nH]4)c(-c4c(F)cccc4F)c4nc(c(-c5c(F)cccc5F)c5ccc2[nH]5)C=C4)C=C3)cc1)C(=O)NCc1ccnc(C)n1
REMARK SMILES IDX 9 1 8 2 6 3 7 4 5 6 4 7 3 8 2 9 1 10 69 11 70 12 71 13 72 15
REMARK SMILES IDX 73 16 74 17 79 18 75 19 77 20 76 21 78 22 10 23 11 24 12 25
REMARK SMILES IDX 13 26 14 28 15 29 16 30 68 31 17 32 67 33 18 34 19 35 20 36
REMARK SMILES IDX 61 37 21 38 66 39 60 40 62 41 22 42 65 43 59 44 58 45 23 47
REMARK SMILES IDX 49 48 32 49 48 50 33 51 36 52 47 53 63 54 34 55 35 56 46 58
REMARK SMILES IDX 64 59 37 60 24 61 25 62 30 63 26 64 27 65 29 66 31 67 28 68
REMARK SMILES IDX 50 69 51 70 56 71 52 72 53 73 55 74 57 75 54 76 38 77 39 78
REMARK SMILES IDX 44 79 40 80 41 81 43 82 45 83 42 84
REMARK H PARENT 8 5 71 14 12 27 62 46 36 57
REMARK Flexibility Score: inf
ROOT
ATOM      1  C   UNL A   1      31.692  30.440  26.613  1.00  0.00     0.117 C 
ENDROOT
BRANCH   1   2
ATOM      2  N   UNL A   1      32.783  29.917  27.409  1.00  0.00    -0.354 N 
ATOM      3  C   UNL A   1      33.812  29.100  27.050  1.00  0.00     0.239 C 
ATOM      4  O   UNL A   1      34.807  29.105  27.782  1.00  0.00    -0.273 OA
ATOM      5  H   UNL A   1      32.780  30.195  28.354  1.00  0.00     0.163 HD
BRANCH   3   6
ATOM      6  C   UNL A   1      33.825  28.315  25.729  1.00  0.00     0.222 C 
BRANCH   6   7
ATOM      7  N   UNL A   1      33.128  27.032  25.756  1.00  0.00    -0.304 N 
BRANCH   7   8
ATOM      8  C   UNL A   1      33.976  25.842  25.709  1.00  0.00     0.211 C 
BRANCH   8   9
ATOM      9  C   UNL A   1      34.007  25.191  24.336  1.00  0.00    -0.085 C 
ATOM     10  C   UNL A   1      34.033  24.633  23.158  1.00  0.00     0.006 C 
ENDBRANCH   8   9
ENDBRANCH   7   8
BRANCH   7  11
ATOM     11  C   UNL A   1      31.787  26.812  25.873  1.00  0.00     0.318 C 
ATOM     12  O   UNL A   1      31.323  26.179  26.829  1.00  0.00    -0.249 OA
ATOM     13  N   UNL A   1      30.866  27.216  24.991  1.00  0.00    -0.332 N 
ATOM     14  H   UNL A   1      29.960  27.012  25.320  1.00  0.00     0.165 HD
BRANCH  13  15
ATOM     15  C   UNL A   1      30.799  27.866  23.689  1.00  0.00     0.174 C 
BRANCH  15  16
ATOM     16  C   UNL A   1      29.535  28.675  23.483  1.00  0.00     0.063 A 
ATOM     17  C   UNL A   1      28.323  28.075  23.188  1.00  0.00     0.046 A 
ATOM     18  N   UNL A   1      29.659  30.019  23.559  1.00  0.00    -0.236 NA
ATOM     19  C   UNL A   1      27.258  28.916  22.972  1.00  0.00     0.115 A 
ATOM     20  C   UNL A   1      28.557  30.759  23.322  1.00  0.00     0.125 A 
ATOM     21  N   UNL A   1      27.344  30.255  23.031  1.00  0.00    -0.242 NA
ATOM     22  C   UNL A   1      28.697  32.246  23.384  1.00  0.00     0.089 C 
ENDBRANCH  15  16
ENDBRANCH  13  15
ENDBRANCH   7  11
ENDBRANCH   6   7
ENDBRANCH   3   6
ENDBRANCH   1   2
BRANCH   1  23
ATOM     23  C   UNL A   1      31.504  31.946  26.750  1.00  0.00     0.042 C 
BRANCH  23  24
ATOM     24  C   UNL A   1      32.743  32.691  27.237  1.00  0.00     0.118 C 
BRANCH  24  25
ATOM     25  N   UNL A   1      32.465  34.076  27.589  1.00  0.00    -0.352 N 
ATOM     26  C   UNL A   1      33.005  34.871  28.569  1.00  0.00     0.251 C 
ATOM     27  H   UNL A   1      31.779  34.514  27.034  1.00  0.00     0.163 HD
ATOM     28  O   UNL A   1      32.478  35.948  28.837  1.00  0.00    -0.269 OA
BRANCH  26  29
ATOM     29  C   UNL A   1      34.206  34.435  29.309  1.00  0.00     0.039 A 
ATOM     30  C   UNL A   1      34.055  33.867  30.577  1.00  0.00     0.014 A 
ATOM     31  C   UNL A   1      35.480  34.604  28.764  1.00  0.00     0.014 A 
ATOM     32  C   UNL A   1      35.177  33.394  31.263  1.00  0.00     0.010 A 
ATOM     33  C   UNL A   1      36.586  34.062  29.411  1.00  0.00     0.010 A 
ATOM     34  C   UNL A   1      36.445  33.448  30.665  1.00  0.00    -0.014 A 
BRANCH  34  35
ATOM     35  C   UNL A   1      37.647  32.866  31.315  1.00  0.00     0.031 A 
ATOM     36  C   UNL A   1      38.306  31.652  30.720  1.00  0.00     0.074 A 
ATOM     37  C   UNL A   1      38.077  33.362  32.492  1.00  0.00     0.049 A 
ATOM     38  N   UNL A   1      39.252  30.898  31.217  1.00  0.00    -0.248 NA
ATOM     39  C   UNL A   1      37.811  31.211  29.407  1.00  0.00     0.031 C 
ATOM     40  C   UNL A   1      37.503  34.517  33.185  1.00  0.00     0.029 A 
ATOM     41  N   UNL A   1      39.082  32.940  33.325  1.00  0.00    -0.354 N 
ATOM     42  C   UNL A   1      39.450  29.883  30.289  1.00  0.00     0.074 A 
ATOM     43  C   UNL A   1      38.494  30.091  29.224  1.00  0.00     0.031 C 
ATOM     44  C   UNL A   1      38.168  34.714  34.335  1.00  0.00     0.029 A 
ATOM     45  C   UNL A   1      39.178  33.672  34.485  1.00  0.00     0.049 A 
ATOM     46  H   UNL A   1      39.677  32.185  33.113  1.00  0.00     0.167 HD
ATOM     47  C   UNL A   1      40.357  28.878  30.317  1.00  0.00     0.037 A 
ATOM     48  C   UNL A   1      39.972  33.506  35.560  1.00  0.00     0.037 A 
ATOM     49  C   UNL A   1      41.320  28.690  31.370  1.00  0.00     0.049 A 
ATOM     50  C   UNL A   1      40.951  32.363  35.581  1.00  0.00     0.074 A 
ATOM     51  C   UNL A   1      42.319  27.737  31.463  1.00  0.00     0.029 A 
ATOM     52  N   UNL A   1      41.400  29.467  32.517  1.00  0.00    -0.354 N 
ATOM     53  N   UNL A   1      41.168  31.444  34.672  1.00  0.00    -0.248 NA
ATOM     54  C   UNL A   1      41.796  32.234  36.777  1.00  0.00     0.031 C 
ATOM     55  C   UNL A   1      42.969  27.903  32.690  1.00  0.00     0.029 A 
ATOM     56  C   UNL A   1      42.414  28.997  33.334  1.00  0.00     0.049 A 
ATOM     57  H   UNL A   1      40.821  30.237  32.719  1.00  0.00     0.167 HD
ATOM     58  C   UNL A   1      42.194  30.651  35.168  1.00  0.00     0.074 A 
ATOM     59  C   UNL A   1      42.562  31.201  36.456  1.00  0.00     0.031 C 
ATOM     60  C   UNL A   1      42.782  29.568  34.605  1.00  0.00     0.037 A 
BRANCH  47  61
ATOM     61  C   UNL A   1      40.350  27.902  29.176  1.00  0.00     0.057 A 
ATOM     62  C   UNL A   1      39.529  26.766  29.177  1.00  0.00     0.134 A 
ATOM     63  C   UNL A   1      41.143  28.122  28.043  1.00  0.00     0.134 A 
ATOM     64  F   UNL A   1      38.752  26.490  30.236  1.00  0.00    -0.206 F 
ATOM     65  C   UNL A   1      39.518  25.872  28.106  1.00  0.00     0.040 A 
ATOM     66  C   UNL A   1      41.118  27.251  26.952  1.00  0.00     0.040 A 
ATOM     67  F   UNL A   1      41.947  29.195  27.971  1.00  0.00    -0.206 F 
ATOM     68  C   UNL A   1      40.309  26.117  26.986  1.00  0.00     0.006 A 
ENDBRANCH  47  61
BRANCH  48  69
ATOM     69  C   UNL A   1      39.878  34.443  36.708  1.00  0.00     0.057 A 
ATOM     70  C   UNL A   1      40.618  35.632  36.731  1.00  0.00     0.134 A 
ATOM     71  C   UNL A   1      39.062  34.172  37.813  1.00  0.00     0.134 A 
ATOM     72  F   UNL A   1      41.431  35.939  35.711  1.00  0.00    -0.206 F 
ATOM     73  C   UNL A   1      40.568  36.505  37.820  1.00  0.00     0.040 A 
ATOM     74  C   UNL A   1      38.980  35.050  38.896  1.00  0.00     0.040 A 
ATOM     75  F   UNL A   1      38.322  33.054  37.851  1.00  0.00    -0.206 F 
ATOM     76  C   UNL A   1      39.742  36.216  38.905  1.00  0.00     0.006 A 
ENDBRANCH  48  69
BRANCH  60  77
ATOM     77  C   UNL A   1      43.920  28.929  35.348  1.00  0.00     0.057 A 
ATOM     78  C   UNL A   1      43.716  27.914  36.289  1.00  0.00     0.134 A 
ATOM     79  C   UNL A   1      45.242  29.292  35.063  1.00  0.00     0.134 A 
ATOM     80  F   UNL A   1      42.472  27.528  36.617  1.00  0.00    -0.206 F 
ATOM     81  C   UNL A   1      44.787  27.289  36.930  1.00  0.00     0.040 A 
ATOM     82  C   UNL A   1      46.322  28.657  35.676  1.00  0.00     0.040 A 
ATOM     83  F   UNL A   1      45.508  30.253  34.164  1.00  0.00    -0.206 F 
ATOM     84  C   UNL A   1      46.096  27.654  36.616  1.00  0.00     0.006 A 
ENDBRANCH  60  77
ENDBRANCH  34  35
ENDBRANCH  26  29
ENDBRANCH  24  25
ENDBRANCH  23  24
ENDBRANCH   1  23
TORSDOF 16
ENDMDL
MODEL 2
REMARK VINA RESULT:     -10.9      1.445      3.487
REMARK SMILES C#CCN(CC(=O)NCCCNC(=O)c1ccc(-c2c3nc(c(-c4c(F)cccc4F)c4ccc([nH]4)c(-c4c(F)cccc4F)c4nc(c(-c5c(F)cccc5F)c5ccc2[nH]5)C=C4)C=C3)cc1)C(=O)NCc1ccnc(C)n1
REMARK SMILES IDX 9 1 8 2 6 3 7 4 5 6 4 7 3 8 2 9 1 10 69 11 70 12 71 13 72 15
REMARK SMILES IDX 73 16 74 17 79 18 75 19 77 20 76 21 78 22 10 23 11 24 12 25
REMARK SMILES IDX 13 26 14 28 15 29 16 30 68 31 17 32 67 33 18 34 19 35 20 36
REMARK SMILES IDX 61 37 21 38 66 39 60 40 62 41 22 42 65 43 59 44 58 45 23 47
REMARK SMILES IDX 49 48 32 49 48 50 33 51 36 52 47 53 63 54 34 55 35 56 46 58
REMARK SMILES IDX 64 59 37 60 24 61 25 62 30 63 26 64 27 65 29 66 31 67 28 68
REMARK SMILES IDX 50 69 51 70 56 71 52 72 53 73 55 74 57 75 54 76 38 77 39 78
REMARK SMILES IDX 44 79 40 80 41 81 43 82 45 83 42 84
REMARK H PARENT 8 5 71 14 12 27 62 46 36 57
REMARK Flexibility Score: inf
ROOT
ATOM      1  C   UNL A   1      31.654  30.649  26.125  1.00  0.00     0.117 C 
ENDROOT
BRANCH   1   2
ATOM      2  N   UNL A   1      31.132  30.423  24.793  1.00  0.00    -0.354 N 
ATOM      3  C   UNL A   1      30.845  29.255  24.154  1.00  0.00     0.239 C 
ATOM      4  O   UNL A   1      30.067  29.322  23.198  1.00  0.00    -0.273 OA
ATOM      5  H   UNL A   1      30.959  31.239  24.269  1.00  0.00     0.163 HD
BRANCH   3   6
ATOM      6  C   UNL A   1      31.328  27.889  24.666  1.00  0.00     0.222 C 
BRANCH   6   7
ATOM      7  N   UNL A   1      32.732  27.582  24.403  1.00  0.00    -0.304 N 
BRANCH   7   8
ATOM      8  C   UNL A   1      33.486  27.028  25.525  1.00  0.00     0.211 C 
BRANCH   8   9
ATOM      9  C   UNL A   1      34.150  28.097  26.378  1.00  0.00    -0.085 C 
ATOM     10  C   UNL A   1      34.719  29.014  27.109  1.00  0.00     0.006 C 
ENDBRANCH   8   9
ENDBRANCH   7   8
BRANCH   7  11
ATOM     11  C   UNL A   1      33.406  27.700  23.223  1.00  0.00     0.318 C 
ATOM     12  O   UNL A   1      34.147  28.665  23.001  1.00  0.00    -0.249 OA
ATOM     13  N   UNL A   1      33.322  26.835  22.206  1.00  0.00    -0.332 N 
ATOM     14  H   UNL A   1      33.951  27.082  21.489  1.00  0.00     0.165 HD
BRANCH  13  15
ATOM     15  C   UNL A   1      32.579  25.637  21.837  1.00  0.00     0.174 C 
BRANCH  15  16
ATOM     16  C   UNL A   1      33.081  24.382  22.520  1.00  0.00     0.063 A 
ATOM     17  C   UNL A   1      32.215  23.458  23.079  1.00  0.00     0.046 A 
ATOM     18  N   UNL A   1      34.422  24.230  22.594  1.00  0.00    -0.236 NA
ATOM     19  C   UNL A   1      32.791  22.385  23.717  1.00  0.00     0.115 A 
ATOM     20  C   UNL A   1      34.889  23.147  23.249  1.00  0.00     0.125 A 
ATOM     21  N   UNL A   1      34.117  22.204  23.818  1.00  0.00    -0.242 NA
ATOM     22  C   UNL A   1      36.372  22.989  23.352  1.00  0.00     0.089 C 
ENDBRANCH  15  16
ENDBRANCH  13  15
ENDBRANCH   7  11
ENDBRANCH   6   7
ENDBRANCH   3   6
ENDBRANCH   1   2
BRANCH   1  23
ATOM     23  C   UNL A   1      31.398  32.056  26.650  1.00  0.00     0.042 C 
BRANCH  23  24
ATOM     24  C   UNL A   1      32.619  32.725  27.271  1.00  0.00     0.118 C 
BRANCH  24  25
ATOM     25  N   UNL A   1      32.383  34.120  27.617  1.00  0.00    -0.352 N 
ATOM     26  C   UNL A   1      32.981  34.917  28.561  1.00  0.00     0.251 C 
ATOM     27  H   UNL A   1      31.681  34.564  27.087  1.00  0.00     0.163 HD
ATOM     28  O   UNL A   1      32.485  36.007  28.838  1.00  0.00    -0.269 OA
BRANCH  26  29
ATOM     29  C   UNL A   1      34.205  34.468  29.253  1.00  0.00     0.039 A 
ATOM     30  C   UNL A   1      34.095  33.861  30.507  1.00  0.00     0.014 A 
ATOM     31  C   UNL A   1      35.461  34.663  28.677  1.00  0.00     0.014 A 
ATOM     32  C   UNL A   1      35.239  33.376  31.146  1.00  0.00     0.010 A 
ATOM     33  C   UNL A   1      36.589  34.111  29.275  1.00  0.00     0.010 A 
ATOM     34  C   UNL A   1      36.489  33.458  30.513  1.00  0.00    -0.014 A 
BRANCH  34  35
ATOM     35  C   UNL A   1      37.713  32.866  31.111  1.00  0.00     0.031 A 
ATOM     36  C   UNL A   1      38.334  31.646  30.490  1.00  0.00     0.074 A 
ATOM     37  C   UNL A   1      38.199  33.360  32.266  1.00  0.00     0.049 A 
ATOM     38  N   UNL A   1      39.295  30.883  30.945  1.00  0.00    -0.248 NA
ATOM     39  C   UNL A   1      37.778  31.207  29.200  1.00  0.00     0.031 C 
ATOM     40  C   UNL A   1      37.666  34.520  32.983  1.00  0.00     0.029 A 
ATOM     41  N   UNL A   1      39.236  32.930  33.056  1.00  0.00    -0.354 N 
ATOM     42  C   UNL A   1      39.442  29.865  30.011  1.00  0.00     0.074 A 
ATOM     43  C   UNL A   1      38.442  30.081  28.989  1.00  0.00     0.031 C 
ATOM     44  C   UNL A   1      38.384  34.712  34.102  1.00  0.00     0.029 A 
ATOM     45  C   UNL A   1      39.389  33.662  34.209  1.00  0.00     0.049 A 
ATOM     46  H   UNL A   1      39.814  32.169  32.819  1.00  0.00     0.167 HD
ATOM     47  C   UNL A   1      40.341  28.852  30.001  1.00  0.00     0.037 A 
ATOM     48  C   UNL A   1      40.228  33.489  35.249  1.00  0.00     0.037 A 
ATOM     49  C   UNL A   1      41.347  28.656  31.011  1.00  0.00     0.049 A 
ATOM     50  C   UNL A   1      41.197  32.338  35.228  1.00  0.00     0.074 A 
ATOM     51  C   UNL A   1      42.340  27.695  31.061  1.00  0.00     0.029 A 
ATOM     52  N   UNL A   1      41.484  29.434  32.151  1.00  0.00    -0.354 N 
ATOM     53  N   UNL A   1      41.365  31.416  34.311  1.00  0.00    -0.248 NA
ATOM     54  C   UNL A   1      42.092  32.202  36.386  1.00  0.00     0.031 C 
ATOM     55  C   UNL A   1      43.045  27.856  32.258  1.00  0.00     0.029 A 
ATOM     56  C   UNL A   1      42.529  28.956  32.924  1.00  0.00     0.049 A 
ATOM     57  H   UNL A   1      40.922  30.210  32.377  1.00  0.00     0.167 HD
ATOM     58  C   UNL A   1      42.405  30.614  34.763  1.00  0.00     0.074 A 
ATOM     59  C   UNL A   1      42.835  31.162  36.033  1.00  0.00     0.031 C 
ATOM     60  C   UNL A   1      42.958  29.525  34.177  1.00  0.00     0.037 A 
BRANCH  47  61
ATOM     61  C   UNL A   1      40.274  27.875  28.863  1.00  0.00     0.057 A 
ATOM     62  C   UNL A   1      40.975  28.081  27.667  1.00  0.00     0.134 A 
ATOM     63  C   UNL A   1      39.533  26.692  28.980  1.00  0.00     0.134 A 
ATOM     64  F   UNL A   1      41.697  29.197  27.485  1.00  0.00    -0.206 F 
ATOM     65  C   UNL A   1      40.919  27.160  26.620  1.00  0.00     0.040 A 
ATOM     66  C   UNL A   1      39.493  25.749  27.951  1.00  0.00     0.040 A 
ATOM     67  F   UNL A   1      38.844  26.427  30.101  1.00  0.00    -0.206 F 
ATOM     68  C   UNL A   1      40.182  25.986  26.763  1.00  0.00     0.006 A 
ENDBRANCH  47  61
BRANCH  48  69
ATOM     69  C   UNL A   1      40.194  34.429  36.398  1.00  0.00     0.057 A 
ATOM     70  C   UNL A   1      39.339  34.208  37.485  1.00  0.00     0.134 A 
ATOM     71  C   UNL A   1      40.998  35.574  36.435  1.00  0.00     0.134 A 
ATOM     72  F   UNL A   1      38.531  33.139  37.500  1.00  0.00    -0.206 F 
ATOM     73  C   UNL A   1      39.269  35.102  38.555  1.00  0.00     0.040 A 
ATOM     74  C   UNL A   1      40.960  36.462  37.512  1.00  0.00     0.040 A 
ATOM     75  F   UNL A   1      41.844  35.841  35.429  1.00  0.00    -0.206 F 
ATOM     76  C   UNL A   1      40.085  36.232  38.572  1.00  0.00     0.006 A 
ENDBRANCH  48  69
BRANCH  60  77
ATOM     77  C   UNL A   1      44.121  28.877  34.870  1.00  0.00     0.057 A 
ATOM     78  C   UNL A   1      45.444  29.251  34.609  1.00  0.00     0.134 A 
ATOM     79  C   UNL A   1      43.905  27.911  35.862  1.00  0.00     0.134 A 
ATOM     80  F   UNL A   1      45.720  30.161  33.661  1.00  0.00    -0.206 F 
ATOM     81  C   UNL A   1      46.513  28.680  35.301  1.00  0.00     0.040 A 
ATOM     82  C   UNL A   1      44.962  27.354  36.581  1.00  0.00     0.040 A 
ATOM     83  F   UNL A   1      42.660  27.514  36.168  1.00  0.00    -0.206 F 
ATOM     84  C   UNL A   1      46.272  27.736  36.299  1.00  0.00     0.006 A 
ENDBRANCH  60  77
ENDBRANCH  34  35
ENDBRANCH  26  29
ENDBRANCH  24  25
ENDBRANCH  23  24
ENDBRANCH   1  23
TORSDOF 16
ENDMDL
MODEL 3
REMARK VINA RESULT:     -10.9      5.963     10.768
REMARK SMILES C#CCN(CC(=O)NCCCNC(=O)c1ccc(-c2c3nc(c(-c4c(F)cccc4F)c4ccc([nH]4)c(-c4c(F)cccc4F)c4nc(c(-c5c(F)cccc5F)c5ccc2[nH]5)C=C4)C=C3)cc1)C(=O)NCc1ccnc(C)n1
REMARK SMILES IDX 9 1 8 2 6 3 7 4 5 6 4 7 3 8 2 9 1 10 69 11 70 12 71 13 72 15
REMARK SMILES IDX 73 16 74 17 79 18 75 19 77 20 76 21 78 22 10 23 11 24 12 25
REMARK SMILES IDX 13 26 14 28 15 29 16 30 68 31 17 32 67 33 18 34 19 35 20 36
REMARK SMILES IDX 61 37 21 38 66 39 60 40 62 41 22 42 65 43 59 44 58 45 23 47
REMARK SMILES IDX 49 48 32 49 48 50 33 51 36 52 47 53 63 54 34 55 35 56 46 58
REMARK SMILES IDX 64 59 37 60 24 61 25 62 30 63 26 64 27 65 29 66 31 67 28 68
REMARK SMILES IDX 50 69 51 70 56 71 52 72 53 73 55 74 57 75 54 76 38 77 39 78
REMARK SMILES IDX 44 79 40 80 41 81 43 82 45 83 42 84
REMARK H PARENT 8 5 71 14 12 27 62 46 36 57
REMARK Flexibility Score: inf
ROOT
ATOM      1  C   UNL A   1      36.647  20.907  24.890  1.00  0.00     0.117 C 
ENDROOT
BRANCH   1   2
ATOM      2  N   UNL A   1      35.853  21.017  26.096  1.00  0.00    -0.354 N 
ATOM      3  C   UNL A   1      35.080  22.047  26.541  1.00  0.00     0.239 C 
ATOM      4  O   UNL A   1      34.214  21.770  27.376  1.00  0.00    -0.273 OA
ATOM      5  H   UNL A   1      35.876  20.228  26.684  1.00  0.00     0.163 HD
BRANCH   3   6
ATOM      6  C   UNL A   1      35.157  23.460  25.943  1.00  0.00     0.222 C 
BRANCH   6   7
ATOM      7  N   UNL A   1      34.068  23.819  25.038  1.00  0.00    -0.304 N 
BRANCH   7   8
ATOM      8  C   UNL A   1      33.176  24.880  25.502  1.00  0.00     0.211 C 
BRANCH   8   9
ATOM      9  C   UNL A   1      31.861  24.350  26.051  1.00  0.00    -0.085 C 
ATOM     10  C   UNL A   1      30.734  23.895  26.522  1.00  0.00     0.006 C 
ENDBRANCH   8   9
ENDBRANCH   7   8
BRANCH   7  11
ATOM     11  C   UNL A   1      33.818  23.321  23.793  1.00  0.00     0.318 C 
ATOM     12  O   UNL A   1      34.145  23.945  22.777  1.00  0.00    -0.249 OA
ATOM     13  N   UNL A   1      33.192  22.166  23.544  1.00  0.00    -0.332 N 
ATOM     14  H   UNL A   1      33.191  21.976  22.577  1.00  0.00     0.165 HD
BRANCH  13  15
ATOM     15  C   UNL A   1      32.510  21.103  24.271  1.00  0.00     0.174 C 
BRANCH  15  16
ATOM     16  C   UNL A   1      32.792  19.720  23.722  1.00  0.00     0.063 A 
ATOM     17  C   UNL A   1      32.121  19.220  22.620  1.00  0.00     0.046 A 
ATOM     18  N   UNL A   1      33.704  18.978  24.392  1.00  0.00    -0.236 NA
ATOM     19  C   UNL A   1      32.426  17.933  22.246  1.00  0.00     0.115 A 
ATOM     20  C   UNL A   1      33.926  17.723  23.952  1.00  0.00     0.125 A 
ATOM     21  N   UNL A   1      33.319  17.164  22.890  1.00  0.00    -0.242 NA
ATOM     22  C   UNL A   1      34.917  16.894  24.705  1.00  0.00     0.089 C 
ENDBRANCH  15  16
ENDBRANCH  13  15
ENDBRANCH   7  11
ENDBRANCH   6   7
ENDBRANCH   3   6
ENDBRANCH   1   2
BRANCH   1  23
ATOM     23  C   UNL A   1      37.746  19.854  24.978  1.00  0.00     0.042 C 
BRANCH  23  24
ATOM     24  C   UNL A   1      39.002  20.319  25.707  1.00  0.00     0.118 C 
BRANCH  24  25
ATOM     25  N   UNL A   1      40.009  19.272  25.817  1.00  0.00    -0.352 N 
ATOM     26  C   UNL A   1      41.356  19.355  26.068  1.00  0.00     0.251 C 
ATOM     27  H   UNL A   1      39.669  18.356  25.691  1.00  0.00     0.163 HD
ATOM     28  O   UNL A   1      42.067  18.366  25.907  1.00  0.00    -0.269 OA
BRANCH  26  29
ATOM     29  C   UNL A   1      41.956  20.627  26.518  1.00  0.00     0.039 A 
ATOM     30  C   UNL A   1      42.470  21.512  25.566  1.00  0.00     0.014 A 
ATOM     31  C   UNL A   1      42.031  20.938  27.876  1.00  0.00     0.014 A 
ATOM     32  C   UNL A   1      42.986  22.745  25.972  1.00  0.00     0.010 A 
ATOM     33  C   UNL A   1      42.471  22.197  28.274  1.00  0.00     0.010 A 
ATOM     34  C   UNL A   1      42.949  23.115  27.326  1.00  0.00    -0.014 A 
BRANCH  34  35
ATOM     35  C   UNL A   1      43.392  24.455  27.788  1.00  0.00     0.031 A 
ATOM     36  C   UNL A   1      42.371  25.497  28.152  1.00  0.00     0.074 A 
ATOM     37  C   UNL A   1      44.703  24.766  27.775  1.00  0.00     0.049 A 
ATOM     38  N   UNL A   1      42.543  26.766  28.415  1.00  0.00    -0.248 NA
ATOM     39  C   UNL A   1      40.967  25.057  28.195  1.00  0.00     0.031 C 
ATOM     40  C   UNL A   1      45.788  23.852  27.413  1.00  0.00     0.029 A 
ATOM     41  N   UNL A   1      45.343  25.948  28.052  1.00  0.00    -0.354 N 
ATOM     42  C   UNL A   1      41.270  27.281  28.631  1.00  0.00     0.074 A 
ATOM     43  C   UNL A   1      40.335  26.198  28.423  1.00  0.00     0.031 C 
ATOM     44  C   UNL A   1      46.958  24.506  27.494  1.00  0.00     0.029 A 
ATOM     45  C   UNL A   1      46.704  25.894  27.863  1.00  0.00     0.049 A 
ATOM     46  H   UNL A   1      44.873  26.758  28.356  1.00  0.00     0.167 HD
ATOM     47  C   UNL A   1      40.918  28.539  28.988  1.00  0.00     0.037 A 
ATOM     48  C   UNL A   1      47.638  26.860  27.951  1.00  0.00     0.037 A 
ATOM     49  C   UNL A   1      41.856  29.607  29.214  1.00  0.00     0.049 A 
ATOM     50  C   UNL A   1      47.217  28.257  28.318  1.00  0.00     0.074 A 
ATOM     51  C   UNL A   1      41.603  30.901  29.632  1.00  0.00     0.029 A 
ATOM     52  N   UNL A   1      43.228  29.504  29.034  1.00  0.00    -0.354 N 
ATOM     53  N   UNL A   1      46.017  28.718  28.576  1.00  0.00    -0.248 NA
ATOM     54  C   UNL A   1      48.278  29.270  28.404  1.00  0.00     0.031 C 
ATOM     55  C   UNL A   1      42.815  31.598  29.655  1.00  0.00     0.029 A 
ATOM     56  C   UNL A   1      43.830  30.721  29.308  1.00  0.00     0.049 A 
ATOM     57  H   UNL A   1      43.702  28.689  28.754  1.00  0.00     0.167 HD
ATOM     58  C   UNL A   1      46.183  30.061  28.890  1.00  0.00     0.074 A 
ATOM     59  C   UNL A   1      47.600  30.340  28.796  1.00  0.00     0.031 C 
ATOM     60  C   UNL A   1      45.246  30.978  29.229  1.00  0.00     0.037 A 
BRANCH  47  61
ATOM     61  C   UNL A   1      39.453  28.831  29.150  1.00  0.00     0.057 A 
ATOM     62  C   UNL A   1      38.802  28.693  30.384  1.00  0.00     0.134 A 
ATOM     63  C   UNL A   1      38.694  29.297  28.070  1.00  0.00     0.134 A 
ATOM     64  F   UNL A   1      39.469  28.242  31.458  1.00  0.00    -0.206 F 
ATOM     65  C   UNL A   1      37.445  28.980  30.529  1.00  0.00     0.040 A 
ATOM     66  C   UNL A   1      37.342  29.617  28.210  1.00  0.00     0.040 A 
ATOM     67  F   UNL A   1      39.255  29.461  26.862  1.00  0.00    -0.206 F 
ATOM     68  C   UNL A   1      36.712  29.451  29.442  1.00  0.00     0.006 A 
ENDBRANCH  47  61
BRANCH  48  69
ATOM     69  C   UNL A   1      49.065  26.544  27.688  1.00  0.00     0.057 A 
ATOM     70  C   UNL A   1      49.601  26.644  26.399  1.00  0.00     0.134 A 
ATOM     71  C   UNL A   1      49.923  26.121  28.711  1.00  0.00     0.134 A 
ATOM     72  F   UNL A   1      48.825  27.027  25.374  1.00  0.00    -0.206 F 
ATOM     73  C   UNL A   1      50.931  26.315  26.131  1.00  0.00     0.040 A 
ATOM     74  C   UNL A   1      51.262  25.816  28.462  1.00  0.00     0.040 A 
ATOM     75  F   UNL A   1      49.474  26.010  29.970  1.00  0.00    -0.206 F 
ATOM     76  C   UNL A   1      51.767  25.903  27.167  1.00  0.00     0.006 A 
ENDBRANCH  48  69
BRANCH  60  77
ATOM     77  C   UNL A   1      45.719  32.360  29.576  1.00  0.00     0.057 A 
ATOM     78  C   UNL A   1      46.117  32.706  30.873  1.00  0.00     0.134 A 
ATOM     79  C   UNL A   1      45.840  33.337  28.580  1.00  0.00     0.134 A 
ATOM     80  F   UNL A   1      46.013  31.820  31.876  1.00  0.00    -0.206 F 
ATOM     81  C   UNL A   1      46.609  33.978  31.169  1.00  0.00     0.040 A 
ATOM     82  C   UNL A   1      46.356  34.603  28.856  1.00  0.00     0.040 A 
ATOM     83  F   UNL A   1      45.484  33.068  27.314  1.00  0.00    -0.206 F 
ATOM     84  C   UNL A   1      46.739  34.928  30.156  1.00  0.00     0.006 A 
ENDBRANCH  60  77
ENDBRANCH  34  35
ENDBRANCH  26  29
ENDBRANCH  24  25
ENDBRANCH  23  24
ENDBRANCH   1  23
TORSDOF 16
ENDMDL
