MODEL 1
REMARK VINA RESULT:     -11.9      0.000      0.000
REMARK SMILES O=C(CCCN1C(=O)/C(=C/c2ccccc2Cl)SC1=S)Nc1cccc(C(=O)NCCCNC(=O)c2ccc(-c3c4nc(c(-c5c(F)cccc5F)c5ccc([nH]5)c(-c5c(F)cccc5F)c5nc(c(-c6c(F)cccc6F)c6ccc3[nH]6)C=C5)C=C4)cc2)c1
REMARK SMILES IDX 27 1 28 2 29 3 26 5 22 6 23 7 90 8 24 9 25 10 21 11 1 12
REMARK SMILES IDX 2 13 3 15 4 16 5 17 6 18 7 19 19 20 8 21 9 22 18 23 20 24
REMARK SMILES IDX 10 25 11 26 12 27 16 28 13 29 15 30 17 31 14 32 30 33 31 34
REMARK SMILES IDX 32 35 33 36 34 37 35 39 36 40 37 41 89 42 38 43 88 44 39 45
REMARK SMILES IDX 40 46 41 47 82 48 42 49 87 50 81 51 83 52 43 53 86 54 80 55
REMARK SMILES IDX 79 56 44 58 70 59 53 60 69 61 54 62 57 63 68 64 84 65 55 66
REMARK SMILES IDX 56 67 67 69 85 70 58 71 45 72 46 73 51 74 47 75 48 76 50 77
REMARK SMILES IDX 52 78 49 79 71 80 72 81 77 82 73 83 74 84 76 85 78 86 75 87
REMARK SMILES IDX 59 88 60 89 65 90 61 91 62 92 64 93 66 94 63 95
REMARK H PARENT 29 4 21 14 33 38 83 57 57 68
REMARK Flexibility Score: inf
ROOT
ATOM      1  C   UNL A   1      37.415  23.689  25.978  1.00  0.00     0.251 C 
ATOM      2  O   UNL A   1      38.141  24.535  26.496  1.00  0.00    -0.269 OA
ATOM      3  N   UNL A   1      37.995  22.610  25.342  1.00  0.00    -0.352 N 
ATOM      4  H   UNL A   1      38.978  22.593  25.396  1.00  0.00     0.163 HD
ENDROOT
BRANCH   1   5
ATOM      5  C   UNL A   1      35.944  23.890  25.979  1.00  0.00     0.041 A 
ATOM      6  C   UNL A   1      34.074  25.368  25.609  1.00  0.00     0.041 A 
ATOM      7  C   UNL A   1      33.283  24.560  26.430  1.00  0.00     0.026 A 
ATOM      8  C   UNL A   1      35.360  24.946  25.285  1.00  0.00     0.040 A 
ATOM      9  C   UNL A   1      33.798  23.371  26.953  1.00  0.00     0.003 A 
ATOM     10  C   UNL A   1      35.143  23.053  26.760  1.00  0.00     0.014 A 
BRANCH   6  11
ATOM     11  N   UNL A   1      33.612  26.664  25.286  1.00  0.00    -0.326 N 
ATOM     12  O   UNL A   1      31.637  26.774  26.507  1.00  0.00    -0.275 OA
ATOM     13  C   UNL A   1      32.375  27.186  25.617  1.00  0.00     0.224 C 
ATOM     14  H   UNL A   1      34.225  27.246  24.781  1.00  0.00     0.169 HD
BRANCH  13  15
ATOM     15  C   UNL A   1      31.892  28.281  24.694  1.00  0.00     0.102 C 
BRANCH  15  16
ATOM     16  C   UNL A   1      32.344  28.159  23.242  1.00  0.00     0.032 C 
BRANCH  16  17
ATOM     17  C   UNL A   1      31.549  27.175  22.372  1.00  0.00     0.128 C 
BRANCH  17  18
ATOM     18  N   UNL A   1      31.548  25.771  22.794  1.00  0.00    -0.293 N 
ATOM     19  C   UNL A   1      32.668  24.980  22.581  1.00  0.00     0.266 C 
ATOM     20  C   UNL A   1      30.533  25.189  23.532  1.00  0.00     0.148 C 
ATOM     21  O   UNL A   1      33.736  25.332  22.112  1.00  0.00    -0.268 OA
ATOM     22  C   UNL A   1      32.399  23.590  23.020  1.00  0.00     0.081 C 
ATOM     23  S   UNL A   1      30.978  23.551  23.980  1.00  0.00    -0.054 SA
ATOM     24  S   UNL A   1      29.067  25.854  23.972  1.00  0.00    -0.052 S 
ATOM     25  C   UNL A   1      33.199  22.575  22.665  1.00  0.00     0.031 C 
BRANCH  25  26
ATOM     26  C   UNL A   1      33.054  21.218  23.201  1.00  0.00    -0.006 A 
ATOM     27  C   UNL A   1      33.634  20.998  24.459  1.00  0.00     0.010 A 
ATOM     28  C   UNL A   1      32.287  20.203  22.607  1.00  0.00     0.048 A 
ATOM     29  C   UNL A   1      33.369  19.828  25.160  1.00  0.00     0.001 A 
ATOM     30  C   UNL A   1      32.008  19.038  23.321  1.00  0.00     0.021 A 
ATOM     31  Cl  UNL A   1      31.649  20.349  21.006  1.00  0.00    -0.084 Cl
ATOM     32  C   UNL A   1      32.522  18.875  24.609  1.00  0.00     0.002 A 
ENDBRANCH  25  26
ENDBRANCH  17  18
ENDBRANCH  16  17
ENDBRANCH  15  16
ENDBRANCH  13  15
ENDBRANCH   6  11
ENDBRANCH   1   5
BRANCH   3  33
ATOM     33  C   UNL A   1      37.419  21.488  24.601  1.00  0.00     0.118 C 
BRANCH  33  34
ATOM     34  C   UNL A   1      38.058  20.146  24.908  1.00  0.00     0.042 C 
BRANCH  34  35
ATOM     35  C   UNL A   1      39.058  20.173  26.048  1.00  0.00     0.118 C 
BRANCH  35  36
ATOM     36  N   UNL A   1      40.096  19.155  25.925  1.00  0.00    -0.352 N 
ATOM     37  C   UNL A   1      41.465  19.255  26.016  1.00  0.00     0.251 C 
ATOM     38  H   UNL A   1      39.762  18.246  25.748  1.00  0.00     0.163 HD
ATOM     39  O   UNL A   1      42.172  18.294  25.726  1.00  0.00    -0.269 OA
BRANCH  37  40
ATOM     40  C   UNL A   1      42.095  20.527  26.434  1.00  0.00     0.039 A 
ATOM     41  C   UNL A   1      42.487  21.450  25.458  1.00  0.00     0.014 A 
ATOM     42  C   UNL A   1      42.300  20.813  27.783  1.00  0.00     0.014 A 
ATOM     43  C   UNL A   1      42.997  22.694  25.844  1.00  0.00     0.010 A 
ATOM     44  C   UNL A   1      42.704  22.086  28.166  1.00  0.00     0.010 A 
ATOM     45  C   UNL A   1      43.064  23.041  27.203  1.00  0.00    -0.014 A 
BRANCH  45  46
ATOM     46  C   UNL A   1      43.536  24.373  27.661  1.00  0.00     0.031 A 
ATOM     47  C   UNL A   1      42.529  25.416  28.073  1.00  0.00     0.074 A 
ATOM     48  C   UNL A   1      44.845  24.687  27.605  1.00  0.00     0.049 A 
ATOM     49  N   UNL A   1      42.704  26.690  28.317  1.00  0.00    -0.248 NA
ATOM     50  C   UNL A   1      41.129  24.972  28.182  1.00  0.00     0.031 C 
ATOM     51  C   UNL A   1      45.928  23.799  27.173  1.00  0.00     0.029 A 
ATOM     52  N   UNL A   1      45.484  25.868  27.892  1.00  0.00    -0.354 N 
ATOM     53  C   UNL A   1      41.437  27.203  28.568  1.00  0.00     0.074 A 
ATOM     54  C   UNL A   1      40.497  26.115  28.399  1.00  0.00     0.031 C 
ATOM     55  C   UNL A   1      47.095  24.463  27.232  1.00  0.00     0.029 A 
ATOM     56  C   UNL A   1      46.838  25.831  27.669  1.00  0.00     0.049 A 
ATOM     57  H   UNL A   1      45.015  26.666  28.226  1.00  0.00     0.167 HD
ATOM     58  C   UNL A   1      41.084  28.459  28.931  1.00  0.00     0.037 A 
ATOM     59  C   UNL A   1      47.760  26.803  27.781  1.00  0.00     0.037 A 
ATOM     60  C   UNL A   1      42.019  29.532  29.141  1.00  0.00     0.049 A 
ATOM     61  C   UNL A   1      47.345  28.189  28.187  1.00  0.00     0.074 A 
ATOM     62  C   UNL A   1      41.766  30.823  29.573  1.00  0.00     0.029 A 
ATOM     63  N   UNL A   1      43.386  29.437  28.941  1.00  0.00    -0.354 N 
ATOM     64  N   UNL A   1      46.150  28.651  28.454  1.00  0.00    -0.248 NA
ATOM     65  C   UNL A   1      48.418  29.190  28.299  1.00  0.00     0.031 C 
ATOM     66  C   UNL A   1      42.977  31.521  29.594  1.00  0.00     0.029 A 
ATOM     67  C   UNL A   1      43.987  30.651  29.225  1.00  0.00     0.049 A 
ATOM     68  H   UNL A   1      43.859  28.628  28.639  1.00  0.00     0.167 HD
ATOM     69  C   UNL A   1      46.330  29.987  28.787  1.00  0.00     0.074 A 
ATOM     70  C   UNL A   1      47.747  30.260  28.696  1.00  0.00     0.031 C 
ATOM     71  C   UNL A   1      45.400  30.906  29.140  1.00  0.00     0.037 A 
BRANCH  58  72
ATOM     72  C   UNL A   1      39.624  28.743  29.130  1.00  0.00     0.057 A 
ATOM     73  C   UNL A   1      39.005  28.587  30.377  1.00  0.00     0.134 A 
ATOM     74  C   UNL A   1      38.837  29.219  28.074  1.00  0.00     0.134 A 
ATOM     75  F   UNL A   1      39.700  28.125  31.428  1.00  0.00    -0.206 F 
ATOM     76  C   UNL A   1      37.649  28.866  30.559  1.00  0.00     0.040 A 
ATOM     77  C   UNL A   1      37.489  29.532  28.251  1.00  0.00     0.040 A 
ATOM     78  F   UNL A   1      39.370  29.401  26.855  1.00  0.00    -0.206 F 
ATOM     79  C   UNL A   1      36.889  29.348  29.496  1.00  0.00     0.006 A 
ENDBRANCH  58  72
BRANCH  59  80
ATOM     80  C   UNL A   1      49.185  26.546  27.475  1.00  0.00     0.057 A 
ATOM     81  C   UNL A   1      49.651  26.571  26.155  1.00  0.00     0.134 A 
ATOM     82  C   UNL A   1      50.065  26.126  28.474  1.00  0.00     0.134 A 
ATOM     83  F   UNL A   1      48.832  26.929  25.157  1.00  0.00    -0.206 F 
ATOM     84  C   UNL A   1      50.941  26.151  25.834  1.00  0.00     0.040 A 
ATOM     85  C   UNL A   1      51.352  25.692  28.164  1.00  0.00     0.040 A 
ATOM     86  F   UNL A   1      49.678  26.104  29.757  1.00  0.00    -0.206 F 
ATOM     87  C   UNL A   1      51.792  25.698  26.840  1.00  0.00     0.006 A 
ENDBRANCH  59  80
BRANCH  71  88
ATOM     88  C   UNL A   1      45.888  32.276  29.503  1.00  0.00     0.057 A 
ATOM     89  C   UNL A   1      45.976  33.307  28.561  1.00  0.00     0.134 A 
ATOM     90  C   UNL A   1      46.232  32.574  30.827  1.00  0.00     0.134 A 
ATOM     91  F   UNL A   1      45.680  33.079  27.272  1.00  0.00    -0.206 F 
ATOM     92  C   UNL A   1      46.397  34.587  28.923  1.00  0.00     0.040 A 
ATOM     93  C   UNL A   1      46.630  33.855  31.206  1.00  0.00     0.040 A 
ATOM     94  F   UNL A   1      46.169  31.627  31.777  1.00  0.00    -0.206 F 
ATOM     95  C   UNL A   1      46.717  34.866  30.251  1.00  0.00     0.006 A 
ENDBRANCH  71  88
ENDBRANCH  45  46
ENDBRANCH  37  40
ENDBRANCH  35  36
ENDBRANCH  34  35
ENDBRANCH  33  34
ENDBRANCH   3  33
TORSDOF 16
ENDMDL
MODEL 2
REMARK VINA RESULT:     -11.6      2.241      7.198
REMARK SMILES O=C(CCCN1C(=O)/C(=C/c2ccccc2Cl)SC1=S)Nc1cccc(C(=O)NCCCNC(=O)c2ccc(-c3c4nc(c(-c5c(F)cccc5F)c5ccc([nH]5)c(-c5c(F)cccc5F)c5nc(c(-c6c(F)cccc6F)c6ccc3[nH]6)C=C5)C=C4)cc2)c1
REMARK SMILES IDX 27 1 28 2 29 3 26 5 22 6 23 7 90 8 24 9 25 10 21 11 1 12
REMARK SMILES IDX 2 13 3 15 4 16 5 17 6 18 7 19 19 20 8 21 9 22 18 23 20 24
REMARK SMILES IDX 10 25 11 26 12 27 16 28 13 29 15 30 17 31 14 32 30 33 31 34
REMARK SMILES IDX 32 35 33 36 34 37 35 39 36 40 37 41 89 42 38 43 88 44 39 45
REMARK SMILES IDX 40 46 41 47 82 48 42 49 87 50 81 51 83 52 43 53 86 54 80 55
REMARK SMILES IDX 79 56 44 58 70 59 53 60 69 61 54 62 57 63 68 64 84 65 55 66
REMARK SMILES IDX 56 67 67 69 85 70 58 71 45 72 46 73 51 74 47 75 48 76 50 77
REMARK SMILES IDX 52 78 49 79 71 80 72 81 77 82 73 83 74 84 76 85 78 86 75 87
REMARK SMILES IDX 59 88 60 89 65 90 61 91 62 92 64 93 66 94 63 95
REMARK H PARENT 29 4 21 14 33 38 83 57 57 68
REMARK Flexibility Score: inf
ROOT
ATOM      1  C   UNL A   1      35.216  21.261  25.990  1.00  0.00     0.251 C 
ATOM      2  O   UNL A   1      34.763  21.556  27.094  1.00  0.00    -0.269 OA
ATOM      3  N   UNL A   1      36.585  21.233  25.817  1.00  0.00    -0.352 N 
ATOM      4  H   UNL A   1      37.098  21.421  26.635  1.00  0.00     0.163 HD
ENDROOT
BRANCH   1   5
ATOM      5  C   UNL A   1      34.285  21.022  24.859  1.00  0.00     0.041 A 
ATOM      6  C   UNL A   1      32.654  21.911  23.319  1.00  0.00     0.041 A 
ATOM      7  C   UNL A   1      32.153  20.623  23.118  1.00  0.00     0.026 A 
ATOM      8  C   UNL A   1      33.805  22.075  24.085  1.00  0.00     0.040 A 
ATOM      9  C   UNL A   1      32.774  19.524  23.719  1.00  0.00     0.003 A 
ATOM     10  C   UNL A   1      33.818  19.726  24.622  1.00  0.00     0.014 A 
BRANCH   6  11
ATOM     11  N   UNL A   1      31.880  23.013  22.893  1.00  0.00    -0.326 N 
ATOM     12  O   UNL A   1      33.526  24.497  22.187  1.00  0.00    -0.275 OA
ATOM     13  C   UNL A   1      32.372  24.254  22.530  1.00  0.00     0.224 C 
ATOM     14  H   UNL A   1      30.904  22.887  22.851  1.00  0.00     0.169 HD
BRANCH  13  15
ATOM     15  C   UNL A   1      31.390  25.390  22.701  1.00  0.00     0.102 C 
BRANCH  15  16
ATOM     16  C   UNL A   1      30.264  25.137  23.698  1.00  0.00     0.032 C 
BRANCH  16  17
ATOM     17  C   UNL A   1      29.533  26.384  24.216  1.00  0.00     0.128 C 
BRANCH  17  18
ATOM     18  N   UNL A   1      30.364  27.541  24.563  1.00  0.00    -0.293 N 
ATOM     19  C   UNL A   1      31.082  27.551  25.750  1.00  0.00     0.266 C 
ATOM     20  C   UNL A   1      30.598  28.604  23.710  1.00  0.00     0.148 C 
ATOM     21  O   UNL A   1      31.165  26.648  26.564  1.00  0.00    -0.268 OA
ATOM     22  C   UNL A   1      31.778  28.848  25.912  1.00  0.00     0.081 C 
ATOM     23  S   UNL A   1      31.770  29.700  24.423  1.00  0.00    -0.054 SA
ATOM     24  S   UNL A   1      29.914  28.898  22.216  1.00  0.00    -0.052 S 
ATOM     25  C   UNL A   1      32.299  29.223  27.089  1.00  0.00     0.031 C 
BRANCH  25  26
ATOM     26  C   UNL A   1      33.123  30.425  27.252  1.00  0.00    -0.006 A 
ATOM     27  C   UNL A   1      32.423  31.641  27.278  1.00  0.00     0.010 A 
ATOM     28  C   UNL A   1      34.504  30.417  27.502  1.00  0.00     0.048 A 
ATOM     29  C   UNL A   1      33.067  32.814  27.649  1.00  0.00     0.001 A 
ATOM     30  C   UNL A   1      35.144  31.594  27.893  1.00  0.00     0.021 A 
ATOM     31  Cl  UNL A   1      35.458  28.982  27.361  1.00  0.00    -0.084 Cl
ATOM     32  C   UNL A   1      34.411  32.778  27.998  1.00  0.00     0.002 A 
ENDBRANCH  25  26
ENDBRANCH  17  18
ENDBRANCH  16  17
ENDBRANCH  15  16
ENDBRANCH  13  15
ENDBRANCH   6  11
ENDBRANCH   1   5
BRANCH   3  33
ATOM     33  C   UNL A   1      37.414  20.977  24.639  1.00  0.00     0.118 C 
BRANCH  33  34
ATOM     34  C   UNL A   1      38.314  19.761  24.766  1.00  0.00     0.042 C 
BRANCH  34  35
ATOM     35  C   UNL A   1      38.960  19.596  26.128  1.00  0.00     0.118 C 
BRANCH  35  36
ATOM     36  N   UNL A   1      40.276  18.969  26.067  1.00  0.00    -0.352 N 
ATOM     37  C   UNL A   1      41.535  19.520  26.130  1.00  0.00     0.251 C 
ATOM     38  H   UNL A   1      40.261  17.990  25.964  1.00  0.00     0.163 HD
ATOM     39  O   UNL A   1      42.522  18.826  25.902  1.00  0.00    -0.269 OA
BRANCH  37  40
ATOM     40  C   UNL A   1      41.707  20.956  26.441  1.00  0.00     0.039 A 
ATOM     41  C   UNL A   1      42.271  21.329  27.666  1.00  0.00     0.014 A 
ATOM     42  C   UNL A   1      41.315  21.937  25.530  1.00  0.00     0.014 A 
ATOM     43  C   UNL A   1      42.525  22.679  27.933  1.00  0.00     0.010 A 
ATOM     44  C   UNL A   1      41.666  23.263  25.748  1.00  0.00     0.010 A 
ATOM     45  C   UNL A   1      42.269  23.652  26.954  1.00  0.00    -0.014 A 
BRANCH  45  46
ATOM     46  C   UNL A   1      42.581  25.090  27.163  1.00  0.00     0.031 A 
ATOM     47  C   UNL A   1      43.910  25.635  26.704  1.00  0.00     0.074 A 
ATOM     48  C   UNL A   1      41.735  25.877  27.855  1.00  0.00     0.049 A 
ATOM     49  N   UNL A   1      44.465  26.794  26.955  1.00  0.00    -0.248 NA
ATOM     50  C   UNL A   1      44.744  24.735  25.889  1.00  0.00     0.031 C 
ATOM     51  C   UNL A   1      40.440  25.473  28.409  1.00  0.00     0.029 A 
ATOM     52  N   UNL A   1      41.859  27.191  28.234  1.00  0.00    -0.354 N 
ATOM     53  C   UNL A   1      45.722  26.746  26.364  1.00  0.00     0.074 A 
ATOM     54  C   UNL A   1      45.868  25.428  25.785  1.00  0.00     0.031 C 
ATOM     55  C   UNL A   1      39.887  26.518  29.049  1.00  0.00     0.029 A 
ATOM     56  C   UNL A   1      40.803  27.651  28.982  1.00  0.00     0.049 A 
ATOM     57  H   UNL A   1      42.633  27.750  27.994  1.00  0.00     0.167 HD
ATOM     58  C   UNL A   1      46.663  27.716  26.286  1.00  0.00     0.037 A 
ATOM     59  C   UNL A   1      40.614  28.846  29.567  1.00  0.00     0.037 A 
ATOM     60  C   UNL A   1      46.503  29.042  26.823  1.00  0.00     0.049 A 
ATOM     61  C   UNL A   1      41.671  29.909  29.465  1.00  0.00     0.074 A 
ATOM     62  C   UNL A   1      47.372  30.116  26.737  1.00  0.00     0.029 A 
ATOM     63  N   UNL A   1      45.400  29.475  27.538  1.00  0.00    -0.354 N 
ATOM     64  N   UNL A   1      42.839  29.862  28.875  1.00  0.00    -0.248 NA
ATOM     65  C   UNL A   1      41.379  31.193  30.121  1.00  0.00     0.031 C 
ATOM     66  C   UNL A   1      46.812  31.187  27.438  1.00  0.00     0.029 A 
ATOM     67  C   UNL A   1      45.573  30.795  27.914  1.00  0.00     0.049 A 
ATOM     68  H   UNL A   1      44.610  28.925  27.749  1.00  0.00     0.167 HD
ATOM     69  C   UNL A   1      43.409  31.113  29.070  1.00  0.00     0.074 A 
ATOM     70  C   UNL A   1      42.459  31.900  29.825  1.00  0.00     0.031 C 
ATOM     71  C   UNL A   1      44.615  31.570  28.657  1.00  0.00     0.037 A 
BRANCH  58  72
ATOM     72  C   UNL A   1      47.950  27.384  25.589  1.00  0.00     0.057 A 
ATOM     73  C   UNL A   1      49.072  26.924  26.291  1.00  0.00     0.134 A 
ATOM     74  C   UNL A   1      48.056  27.485  24.196  1.00  0.00     0.134 A 
ATOM     75  F   UNL A   1      49.040  26.815  27.628  1.00  0.00    -0.206 F 
ATOM     76  C   UNL A   1      50.262  26.604  25.635  1.00  0.00     0.040 A 
ATOM     77  C   UNL A   1      49.230  27.137  23.527  1.00  0.00     0.040 A 
ATOM     78  F   UNL A   1      47.016  27.909  23.463  1.00  0.00    -0.206 F 
ATOM     79  C   UNL A   1      50.340  26.703  24.248  1.00  0.00     0.006 A 
ENDBRANCH  58  72
BRANCH  59  80
ATOM     80  C   UNL A   1      39.389  29.132  30.347  1.00  0.00     0.057 A 
ATOM     81  C   UNL A   1      39.285  28.738  31.687  1.00  0.00     0.134 A 
ATOM     82  C   UNL A   1      38.256  29.664  29.730  1.00  0.00     0.134 A 
ATOM     83  F   UNL A   1      40.335  28.187  32.312  1.00  0.00    -0.206 F 
ATOM     84  C   UNL A   1      38.078  28.833  32.378  1.00  0.00     0.040 A 
ATOM     85  C   UNL A   1      37.041  29.750  30.407  1.00  0.00     0.040 A 
ATOM     86  F   UNL A   1      38.306  30.077  28.456  1.00  0.00    -0.206 F 
ATOM     87  C   UNL A   1      36.948  29.329  31.733  1.00  0.00     0.006 A 
ENDBRANCH  59  80
BRANCH  71  88
ATOM     88  C   UNL A   1      44.954  32.996  28.965  1.00  0.00     0.057 A 
ATOM     89  C   UNL A   1      45.628  33.363  30.135  1.00  0.00     0.134 A 
ATOM     90  C   UNL A   1      44.639  34.009  28.051  1.00  0.00     0.134 A 
ATOM     91  F   UNL A   1      45.939  32.441  31.060  1.00  0.00    -0.206 F 
ATOM     92  C   UNL A   1      45.970  34.692  30.390  1.00  0.00     0.040 A 
ATOM     93  C   UNL A   1      44.997  35.337  28.282  1.00  0.00     0.040 A 
ATOM     94  F   UNL A   1      43.993  33.721  26.910  1.00  0.00    -0.206 F 
ATOM     95  C   UNL A   1      45.662  35.682  29.457  1.00  0.00     0.006 A 
ENDBRANCH  71  88
ENDBRANCH  45  46
ENDBRANCH  37  40
ENDBRANCH  35  36
ENDBRANCH  34  35
ENDBRANCH  33  34
ENDBRANCH   3  33
TORSDOF 16
ENDMDL
MODEL 3
REMARK VINA RESULT:     -11.6      5.055      9.123
REMARK SMILES O=C(CCCN1C(=O)/C(=C/c2ccccc2Cl)SC1=S)Nc1cccc(C(=O)NCCCNC(=O)c2ccc(-c3c4nc(c(-c5c(F)cccc5F)c5ccc([nH]5)c(-c5c(F)cccc5F)c5nc(c(-c6c(F)cccc6F)c6ccc3[nH]6)C=C5)C=C4)cc2)c1
REMARK SMILES IDX 27 1 28 2 29 3 26 5 22 6 23 7 90 8 24 9 25 10 21 11 1 12
REMARK SMILES IDX 2 13 3 15 4 16 5 17 6 18 7 19 19 20 8 21 9 22 18 23 20 24
REMARK SMILES IDX 10 25 11 26 12 27 16 28 13 29 15 30 17 31 14 32 30 33 31 34
REMARK SMILES IDX 32 35 33 36 34 37 35 39 36 40 37 41 89 42 38 43 88 44 39 45
REMARK SMILES IDX 40 46 41 47 82 48 42 49 87 50 81 51 83 52 43 53 86 54 80 55
REMARK SMILES IDX 79 56 44 58 70 59 53 60 69 61 54 62 57 63 68 64 84 65 55 66
REMARK SMILES IDX 56 67 67 69 85 70 58 71 45 72 46 73 51 74 47 75 48 76 50 77
REMARK SMILES IDX 52 78 49 79 71 80 72 81 77 82 73 83 74 84 76 85 78 86 75 87
REMARK SMILES IDX 59 88 60 89 65 90 61 91 62 92 64 93 66 94 63 95
REMARK H PARENT 29 4 21 14 33 38 83 57 57 68
REMARK Flexibility Score: inf
ROOT
ATOM      1  C   UNL A   1      34.764  21.509  26.466  1.00  0.00     0.251 C 
ATOM      2  O   UNL A   1      34.154  21.471  27.532  1.00  0.00    -0.269 OA
ATOM      3  N   UNL A   1      36.070  21.957  26.460  1.00  0.00    -0.352 N 
ATOM      4  H   UNL A   1      36.424  22.177  27.351  1.00  0.00     0.163 HD
ENDROOT
BRANCH   1   5
ATOM      5  C   UNL A   1      34.061  21.152  25.209  1.00  0.00     0.041 A 
ATOM      6  C   UNL A   1      32.736  21.867  23.323  1.00  0.00     0.041 A 
ATOM      7  C   UNL A   1      32.291  20.554  23.148  1.00  0.00     0.026 A 
ATOM      8  C   UNL A   1      33.724  22.123  24.270  1.00  0.00     0.040 A 
ATOM      9  C   UNL A   1      32.800  19.526  23.947  1.00  0.00     0.003 A 
ATOM     10  C   UNL A   1      33.657  19.830  25.006  1.00  0.00     0.014 A 
BRANCH   6  11
ATOM     11  N   UNL A   1      32.045  22.909  22.667  1.00  0.00    -0.326 N 
ATOM     12  O   UNL A   1      33.744  24.461  22.333  1.00  0.00    -0.275 OA
ATOM     13  C   UNL A   1      32.554  24.164  22.384  1.00  0.00     0.224 C 
ATOM     14  H   UNL A   1      31.119  22.727  22.385  1.00  0.00     0.169 HD
BRANCH  13  15
ATOM     15  C   UNL A   1      31.508  25.247  22.250  1.00  0.00     0.102 C 
BRANCH  15  16
ATOM     16  C   UNL A   1      30.115  24.877  22.751  1.00  0.00     0.032 C 
BRANCH  16  17
ATOM     17  C   UNL A   1      29.464  25.872  23.721  1.00  0.00     0.128 C 
BRANCH  17  18
ATOM     18  N   UNL A   1      30.357  26.567  24.654  1.00  0.00    -0.293 N 
ATOM     19  C   UNL A   1      30.649  27.910  24.469  1.00  0.00     0.266 C 
ATOM     20  C   UNL A   1      30.843  26.001  25.819  1.00  0.00     0.148 C 
ATOM     21  O   UNL A   1      30.190  28.649  23.615  1.00  0.00    -0.268 OA
ATOM     22  C   UNL A   1      31.626  28.364  25.486  1.00  0.00     0.081 C 
ATOM     23  S   UNL A   1      31.736  27.200  26.742  1.00  0.00    -0.054 SA
ATOM     24  S   UNL A   1      30.674  24.429  26.352  1.00  0.00    -0.052 S 
ATOM     25  C   UNL A   1      32.286  29.523  25.359  1.00  0.00     0.031 C 
BRANCH  25  26
ATOM     26  C   UNL A   1      33.141  30.076  26.412  1.00  0.00    -0.006 A 
ATOM     27  C   UNL A   1      34.316  29.356  26.680  1.00  0.00     0.010 A 
ATOM     28  C   UNL A   1      32.924  31.306  27.054  1.00  0.00     0.048 A 
ATOM     29  C   UNL A   1      35.304  29.900  27.491  1.00  0.00     0.001 A 
ATOM     30  C   UNL A   1      33.926  31.857  27.853  1.00  0.00     0.021 A 
ATOM     31  Cl  UNL A   1      31.447  32.188  26.876  1.00  0.00    -0.084 Cl
ATOM     32  C   UNL A   1      35.125  31.165  28.036  1.00  0.00     0.002 A 
ENDBRANCH  25  26
ENDBRANCH  17  18
ENDBRANCH  16  17
ENDBRANCH  15  16
ENDBRANCH  13  15
ENDBRANCH   6  11
ENDBRANCH   1   5
BRANCH   3  33
ATOM     33  C   UNL A   1      37.025  22.165  25.371  1.00  0.00     0.118 C 
BRANCH  33  34
ATOM     34  C   UNL A   1      37.666  23.542  25.362  1.00  0.00     0.042 C 
BRANCH  34  35
ATOM     35  C   UNL A   1      38.563  23.826  26.551  1.00  0.00     0.118 C 
BRANCH  35  36
ATOM     36  N   UNL A   1      39.983  23.757  26.228  1.00  0.00    -0.352 N 
ATOM     37  C   UNL A   1      41.018  24.604  26.551  1.00  0.00     0.251 C 
ATOM     38  H   UNL A   1      40.246  22.976  25.690  1.00  0.00     0.163 HD
ATOM     39  O   UNL A   1      42.125  24.444  26.045  1.00  0.00    -0.269 OA
BRANCH  37  40
ATOM     40  C   UNL A   1      40.798  25.731  27.485  1.00  0.00     0.039 A 
ATOM     41  C   UNL A   1      39.744  25.664  28.403  1.00  0.00     0.014 A 
ATOM     42  C   UNL A   1      41.625  26.853  27.459  1.00  0.00     0.014 A 
ATOM     43  C   UNL A   1      39.583  26.679  29.352  1.00  0.00     0.010 A 
ATOM     44  C   UNL A   1      41.533  27.804  28.467  1.00  0.00     0.010 A 
ATOM     45  C   UNL A   1      40.507  27.734  29.422  1.00  0.00    -0.014 A 
BRANCH  45  46
ATOM     46  C   UNL A   1      40.418  28.801  30.452  1.00  0.00     0.031 A 
ATOM     47  C   UNL A   1      41.297  28.727  31.675  1.00  0.00     0.074 A 
ATOM     48  C   UNL A   1      39.485  29.767  30.352  1.00  0.00     0.049 A 
ATOM     49  N   UNL A   1      41.250  29.433  32.776  1.00  0.00    -0.248 NA
ATOM     50  C   UNL A   1      42.342  27.690  31.672  1.00  0.00     0.031 C 
ATOM     51  C   UNL A   1      38.527  29.932  29.255  1.00  0.00     0.029 A 
ATOM     52  N   UNL A   1      39.172  30.787  31.217  1.00  0.00    -0.354 N 
ATOM     53  C   UNL A   1      42.227  28.899  33.608  1.00  0.00     0.074 A 
ATOM     54  C   UNL A   1      42.819  27.781  32.905  1.00  0.00     0.031 C 
ATOM     55  C   UNL A   1      37.742  30.993  29.509  1.00  0.00     0.029 A 
ATOM     56  C   UNL A   1      38.114  31.558  30.801  1.00  0.00     0.049 A 
ATOM     57  H   UNL A   1      39.659  30.950  32.057  1.00  0.00     0.167 HD
ATOM     58  C   UNL A   1      42.618  29.314  34.836  1.00  0.00     0.037 A 
ATOM     59  C   UNL A   1      37.503  32.588  31.410  1.00  0.00     0.037 A 
ATOM     60  C   UNL A   1      42.062  30.451  35.520  1.00  0.00     0.049 A 
ATOM     61  C   UNL A   1      37.956  33.032  32.772  1.00  0.00     0.074 A 
ATOM     62  C   UNL A   1      42.436  30.990  36.739  1.00  0.00     0.029 A 
ATOM     63  N   UNL A   1      41.019  31.226  35.042  1.00  0.00    -0.354 N 
ATOM     64  N   UNL A   1      38.902  32.541  33.532  1.00  0.00    -0.248 NA
ATOM     65  C   UNL A   1      37.242  34.175  33.362  1.00  0.00     0.031 C 
ATOM     66  C   UNL A   1      41.590  32.067  37.018  1.00  0.00     0.029 A 
ATOM     67  C   UNL A   1      40.726  32.229  35.949  1.00  0.00     0.049 A 
ATOM     68  H   UNL A   1      40.554  31.084  34.186  1.00  0.00     0.167 HD
ATOM     69  C   UNL A   1      38.912  33.328  34.675  1.00  0.00     0.074 A 
ATOM     70  C   UNL A   1      37.885  34.332  34.509  1.00  0.00     0.031 C 
ATOM     71  C   UNL A   1      39.707  33.228  35.767  1.00  0.00     0.037 A 
BRANCH  58  72
ATOM     72  C   UNL A   1      43.705  28.537  35.521  1.00  0.00     0.057 A 
ATOM     73  C   UNL A   1      43.420  27.472  36.384  1.00  0.00     0.134 A 
ATOM     74  C   UNL A   1      45.054  28.830  35.280  1.00  0.00     0.134 A 
ATOM     75  F   UNL A   1      42.149  27.146  36.665  1.00  0.00    -0.206 F 
ATOM     76  C   UNL A   1      44.436  26.744  37.007  1.00  0.00     0.040 A 
ATOM     77  C   UNL A   1      46.078  28.090  35.872  1.00  0.00     0.040 A 
ATOM     78  F   UNL A   1      45.397  29.832  34.456  1.00  0.00    -0.206 F 
ATOM     79  C   UNL A   1      45.770  27.048  36.744  1.00  0.00     0.006 A 
ENDBRANCH  58  72
BRANCH  59  80
ATOM     80  C   UNL A   1      36.358  33.281  30.778  1.00  0.00     0.057 A 
ATOM     81  C   UNL A   1      36.553  34.157  29.704  1.00  0.00     0.134 A 
ATOM     82  C   UNL A   1      35.078  33.195  31.330  1.00  0.00     0.134 A 
ATOM     83  F   UNL A   1      37.772  34.303  29.165  1.00  0.00    -0.206 F 
ATOM     84  C   UNL A   1      35.517  34.954  29.221  1.00  0.00     0.040 A 
ATOM     85  C   UNL A   1      34.038  33.997  30.865  1.00  0.00     0.040 A 
ATOM     86  F   UNL A   1      34.830  32.357  32.346  1.00  0.00    -0.206 F 
ATOM     87  C   UNL A   1      34.257  34.884  29.811  1.00  0.00     0.006 A 
ENDBRANCH  59  80
BRANCH  71  88
ATOM     88  C   UNL A   1      39.533  34.257  36.842  1.00  0.00     0.057 A 
ATOM     89  C   UNL A   1      38.794  34.001  38.003  1.00  0.00     0.134 A 
ATOM     90  C   UNL A   1      40.156  35.506  36.731  1.00  0.00     0.134 A 
ATOM     91  F   UNL A   1      38.156  32.831  38.159  1.00  0.00    -0.206 F 
ATOM     92  C   UNL A   1      38.673  34.957  39.012  1.00  0.00     0.040 A 
ATOM     93  C   UNL A   1      40.064  36.460  37.743  1.00  0.00     0.040 A 
ATOM     94  F   UNL A   1      40.880  35.811  35.642  1.00  0.00    -0.206 F 
ATOM     95  C   UNL A   1      39.317  36.187  38.887  1.00  0.00     0.006 A 
ENDBRANCH  71  88
ENDBRANCH  45  46
ENDBRANCH  37  40
ENDBRANCH  35  36
ENDBRANCH  34  35
ENDBRANCH  33  34
ENDBRANCH   3  33
TORSDOF 16
ENDMDL
