MODEL 1
REMARK VINA RESULT:     -10.9      0.000      0.000
REMARK SMILES N#Cc1cnc2cc(C(=O)NCCCNC(=O)c3ccc(-c4c5nc(c(-c6c(F)cccc6F)c6ccc([nH]6)c(-c6c(F)cccc6F)c6nc(c(-c7c(F)cccc7F)c7ccc4[nH]7)C=C6)C=C5)cc3)[nH]c2c1
REMARK SMILES IDX 13 1 12 2 11 3 9 4 10 5 8 7 3 8 4 9 74 10 5 11 73 12 6 13
REMARK SMILES IDX 72 14 7 15 2 17 1 18 14 19 15 20 16 21 17 23 18 24 19 25
REMARK SMILES IDX 71 26 20 27 70 28 21 29 22 30 23 31 64 32 24 33 69 34 63 35
REMARK SMILES IDX 65 36 25 37 68 38 62 39 61 40 26 42 52 43 35 44 51 45 36 46
REMARK SMILES IDX 39 47 50 48 66 49 37 50 38 51 49 53 67 54 40 55 27 56 28 57
REMARK SMILES IDX 33 58 29 59 30 60 32 61 34 62 31 63 53 64 54 65 59 66 55 67
REMARK SMILES IDX 56 68 58 69 60 70 57 71 41 72 42 73 47 74 43 75 44 76 46 77
REMARK SMILES IDX 48 78 45 79
REMARK H PARENT 11 6 72 16 15 22 65 41 39 52
REMARK Flexibility Score: inf
ROOT
ATOM      1  C   UNL A   1      34.697  35.139  28.429  1.00  0.00     0.042 C 
ENDROOT
BRANCH   1   2
ATOM      2  C   UNL A   1      33.265  34.904  28.925  1.00  0.00     0.118 C 
BRANCH   2   3
ATOM      3  N   UNL A   1      32.971  35.602  30.165  1.00  0.00    -0.351 N 
ATOM      4  C   UNL A   1      33.543  35.536  31.407  1.00  0.00     0.267 C 
ATOM      5  O   UNL A   1      33.149  36.347  32.246  1.00  0.00    -0.268 OA
ATOM      6  H   UNL A   1      32.222  36.237  30.101  1.00  0.00     0.163 HD
BRANCH   4   7
ATOM      7  C   UNL A   1      34.536  34.543  31.750  1.00  0.00     0.107 A 
ATOM      8  C   UNL A   1      38.169  32.502  33.639  1.00  0.00     0.072 A 
ATOM      9  C   UNL A   1      37.349  31.420  33.333  1.00  0.00     0.131 A 
ATOM     10  C   UNL A   1      37.771  33.791  33.262  1.00  0.00     0.049 A 
ATOM     11  N   UNL A   1      36.160  31.491  32.696  1.00  0.00    -0.253 NA
ATOM     12  C   UNL A   1      36.528  33.878  32.631  1.00  0.00     0.066 A 
ATOM     13  C   UNL A   1      35.769  32.745  32.375  1.00  0.00     0.089 A 
ATOM     14  N   UNL A   1      35.793  34.947  32.182  1.00  0.00    -0.349 N 
ATOM     15  C   UNL A   1      34.552  33.159  31.798  1.00  0.00     0.062 A 
ATOM     16  H   UNL A   1      36.114  35.877  32.168  1.00  0.00     0.167 HD
BRANCH   8  17
ATOM     17  C   UNL A   1      39.380  32.286  34.351  1.00  0.00     0.101 C 
ATOM     18  N   UNL A   1      40.369  32.094  34.946  1.00  0.00    -0.192 NA
ENDBRANCH   8  17
ENDBRANCH   4   7
ENDBRANCH   2   3
ENDBRANCH   1   2
BRANCH   1  19
ATOM     19  C   UNL A   1      35.433  33.820  28.260  1.00  0.00     0.118 C 
BRANCH  19  20
ATOM     20  N   UNL A   1      34.532  32.661  28.166  1.00  0.00    -0.352 N 
ATOM     21  C   UNL A   1      34.842  31.325  27.977  1.00  0.00     0.251 C 
ATOM     22  H   UNL A   1      33.572  32.864  28.249  1.00  0.00     0.163 HD
ATOM     23  O   UNL A   1      33.982  30.527  27.624  1.00  0.00    -0.269 OA
BRANCH  21  24
ATOM     24  C   UNL A   1      36.225  30.873  28.225  1.00  0.00     0.039 A 
ATOM     25  C   UNL A   1      37.105  31.547  29.074  1.00  0.00     0.014 A 
ATOM     26  C   UNL A   1      36.625  29.700  27.601  1.00  0.00     0.014 A 
ATOM     27  C   UNL A   1      38.374  31.003  29.267  1.00  0.00     0.010 A 
ATOM     28  C   UNL A   1      37.707  29.015  28.062  1.00  0.00     0.010 A 
ATOM     29  C   UNL A   1      38.664  29.726  28.745  1.00  0.00    -0.014 A 
BRANCH  29  30
ATOM     30  C   UNL A   1      39.903  29.015  29.020  1.00  0.00     0.031 A 
ATOM     31  C   UNL A   1      40.132  28.895  30.473  1.00  0.00     0.074 A 
ATOM     32  C   UNL A   1      40.669  28.396  28.090  1.00  0.00     0.049 A 
ATOM     33  N   UNL A   1      40.900  29.654  31.173  1.00  0.00    -0.248 NA
ATOM     34  C   UNL A   1      39.240  28.044  31.276  1.00  0.00     0.031 C 
ATOM     35  C   UNL A   1      40.425  28.191  26.656  1.00  0.00     0.029 A 
ATOM     36  N   UNL A   1      41.877  27.781  28.265  1.00  0.00    -0.354 N 
ATOM     37  C   UNL A   1      40.797  29.195  32.476  1.00  0.00     0.074 A 
ATOM     38  C   UNL A   1      39.615  28.378  32.514  1.00  0.00     0.031 C 
ATOM     39  C   UNL A   1      41.345  27.335  26.143  1.00  0.00     0.029 A 
ATOM     40  C   UNL A   1      42.345  27.061  27.158  1.00  0.00     0.049 A 
ATOM     41  H   UNL A   1      42.381  27.839  29.108  1.00  0.00     0.167 HD
ATOM     42  C   UNL A   1      41.868  29.310  33.306  1.00  0.00     0.037 A 
ATOM     43  C   UNL A   1      43.501  26.340  27.088  1.00  0.00     0.037 A 
ATOM     44  C   UNL A   1      42.828  30.243  32.751  1.00  0.00     0.049 A 
ATOM     45  C   UNL A   1      44.395  26.868  28.151  1.00  0.00     0.074 A 
ATOM     46  C   UNL A   1      42.806  31.584  32.422  1.00  0.00     0.029 A 
ATOM     47  N   UNL A   1      43.874  29.697  32.045  1.00  0.00    -0.354 N 
ATOM     48  N   UNL A   1      44.902  28.067  28.127  1.00  0.00    -0.248 NA
ATOM     49  C   UNL A   1      44.289  26.249  29.461  1.00  0.00     0.031 C 
ATOM     50  C   UNL A   1      43.537  31.678  31.199  1.00  0.00     0.029 A 
ATOM     51  C   UNL A   1      44.055  30.420  30.895  1.00  0.00     0.049 A 
ATOM     52  H   UNL A   1      44.406  28.916  32.322  1.00  0.00     0.167 HD
ATOM     53  C   UNL A   1      44.752  28.531  29.425  1.00  0.00     0.074 A 
ATOM     54  C   UNL A   1      44.412  27.345  30.214  1.00  0.00     0.031 C 
ATOM     55  C   UNL A   1      44.608  29.865  29.680  1.00  0.00     0.037 A 
BRANCH  42  56
ATOM     56  C   UNL A   1      42.261  28.282  34.338  1.00  0.00     0.057 A 
ATOM     57  C   UNL A   1      42.673  27.011  33.891  1.00  0.00     0.134 A 
ATOM     58  C   UNL A   1      41.977  28.363  35.716  1.00  0.00     0.134 A 
ATOM     59  F   UNL A   1      42.971  26.796  32.601  1.00  0.00    -0.206 F 
ATOM     60  C   UNL A   1      42.706  25.892  34.731  1.00  0.00     0.040 A 
ATOM     61  C   UNL A   1      42.051  27.261  36.573  1.00  0.00     0.040 A 
ATOM     62  F   UNL A   1      41.520  29.475  36.300  1.00  0.00    -0.206 F 
ATOM     63  C   UNL A   1      42.384  26.013  36.075  1.00  0.00     0.006 A 
ENDBRANCH  42  56
BRANCH  43  64
ATOM     64  C   UNL A   1      43.768  25.009  26.474  1.00  0.00     0.057 A 
ATOM     65  C   UNL A   1      42.895  23.924  26.681  1.00  0.00     0.134 A 
ATOM     66  C   UNL A   1      44.673  24.866  25.411  1.00  0.00     0.134 A 
ATOM     67  F   UNL A   1      41.965  23.971  27.646  1.00  0.00    -0.206 F 
ATOM     68  C   UNL A   1      42.891  22.790  25.852  1.00  0.00     0.040 A 
ATOM     69  C   UNL A   1      44.678  23.739  24.575  1.00  0.00     0.040 A 
ATOM     70  F   UNL A   1      45.514  25.859  25.087  1.00  0.00    -0.206 F 
ATOM     71  C   UNL A   1      43.773  22.704  24.782  1.00  0.00     0.006 A 
ENDBRANCH  43  64
BRANCH  55  72
ATOM     72  C   UNL A   1      44.867  30.835  28.555  1.00  0.00     0.057 A 
ATOM     73  C   UNL A   1      43.932  31.193  27.570  1.00  0.00     0.134 A 
ATOM     74  C   UNL A   1      46.060  31.566  28.581  1.00  0.00     0.134 A 
ATOM     75  F   UNL A   1      42.731  30.604  27.506  1.00  0.00    -0.206 F 
ATOM     76  C   UNL A   1      44.181  32.220  26.652  1.00  0.00     0.040 A 
ATOM     77  C   UNL A   1      46.308  32.613  27.692  1.00  0.00     0.040 A 
ATOM     78  F   UNL A   1      46.985  31.309  29.519  1.00  0.00    -0.206 F 
ATOM     79  C   UNL A   1      45.368  32.942  26.720  1.00  0.00     0.006 A 
ENDBRANCH  55  72
ENDBRANCH  29  30
ENDBRANCH  21  24
ENDBRANCH  19  20
ENDBRANCH   1  19
TORSDOF 11
ENDMDL
MODEL 2
REMARK VINA RESULT:     -10.9      5.768     10.262
REMARK SMILES N#Cc1cnc2cc(C(=O)NCCCNC(=O)c3ccc(-c4c5nc(c(-c6c(F)cccc6F)c6ccc([nH]6)c(-c6c(F)cccc6F)c6nc(c(-c7c(F)cccc7F)c7ccc4[nH]7)C=C6)C=C5)cc3)[nH]c2c1
REMARK SMILES IDX 13 1 12 2 11 3 9 4 10 5 8 7 3 8 4 9 74 10 5 11 73 12 6 13
REMARK SMILES IDX 72 14 7 15 2 17 1 18 14 19 15 20 16 21 17 23 18 24 19 25
REMARK SMILES IDX 71 26 20 27 70 28 21 29 22 30 23 31 64 32 24 33 69 34 63 35
REMARK SMILES IDX 65 36 25 37 68 38 62 39 61 40 26 42 52 43 35 44 51 45 36 46
REMARK SMILES IDX 39 47 50 48 66 49 37 50 38 51 49 53 67 54 40 55 27 56 28 57
REMARK SMILES IDX 33 58 29 59 30 60 32 61 34 62 31 63 53 64 54 65 59 66 55 67
REMARK SMILES IDX 56 68 58 69 60 70 57 71 41 72 42 73 47 74 43 75 44 76 46 77
REMARK SMILES IDX 48 78 45 79
REMARK H PARENT 11 6 72 16 15 22 65 41 39 52
REMARK Flexibility Score: inf
ROOT
ATOM      1  C   UNL A   1      43.742  37.408  26.921  1.00  0.00     0.042 C 
ENDROOT
BRANCH   1   2
ATOM      2  C   UNL A   1      42.252  37.494  27.273  1.00  0.00     0.118 C 
BRANCH   2   3
ATOM      3  N   UNL A   1      41.947  38.572  28.198  1.00  0.00    -0.351 N 
ATOM      4  C   UNL A   1      41.892  39.930  28.030  1.00  0.00     0.267 C 
ATOM      5  O   UNL A   1      41.484  40.593  28.984  1.00  0.00    -0.268 OA
ATOM      6  H   UNL A   1      41.745  38.271  29.113  1.00  0.00     0.163 HD
BRANCH   4   7
ATOM      7  C   UNL A   1      42.325  40.577  26.812  1.00  0.00     0.107 A 
ATOM      8  C   UNL A   1      42.260  42.749  22.786  1.00  0.00     0.072 A 
ATOM      9  C   UNL A   1      43.512  43.092  23.286  1.00  0.00     0.131 A 
ATOM     10  C   UNL A   1      41.455  41.860  23.509  1.00  0.00     0.049 A 
ATOM     11  N   UNL A   1      44.045  42.647  24.445  1.00  0.00    -0.253 NA
ATOM     12  C   UNL A   1      41.982  41.419  24.724  1.00  0.00     0.066 A 
ATOM     13  C   UNL A   1      43.239  41.823  25.152  1.00  0.00     0.089 A 
ATOM     14  N   UNL A   1      41.477  40.611  25.712  1.00  0.00    -0.349 N 
ATOM     15  C   UNL A   1      43.460  41.271  26.430  1.00  0.00     0.062 A 
ATOM     16  H   UNL A   1      40.626  40.121  25.650  1.00  0.00     0.167 HD
BRANCH   8  17
ATOM     17  C   UNL A   1      41.809  43.325  21.568  1.00  0.00     0.101 C 
ATOM     18  N   UNL A   1      41.435  43.783  20.558  1.00  0.00    -0.192 NA
ENDBRANCH   8  17
ENDBRANCH   4   7
ENDBRANCH   2   3
ENDBRANCH   1   2
BRANCH   1  19
ATOM     19  C   UNL A   1      44.182  35.959  26.785  1.00  0.00     0.118 C 
BRANCH  19  20
ATOM     20  N   UNL A   1      45.428  35.661  27.508  1.00  0.00    -0.352 N 
ATOM     21  C   UNL A   1      45.630  35.482  28.866  1.00  0.00     0.251 C 
ATOM     22  H   UNL A   1      46.232  35.576  26.946  1.00  0.00     0.163 HD
ATOM     23  O   UNL A   1      46.758  35.537  29.343  1.00  0.00    -0.269 OA
BRANCH  21  24
ATOM     24  C   UNL A   1      44.466  35.206  29.729  1.00  0.00     0.039 A 
ATOM     25  C   UNL A   1      43.781  36.203  30.424  1.00  0.00     0.014 A 
ATOM     26  C   UNL A   1      44.034  33.888  29.801  1.00  0.00     0.014 A 
ATOM     27  C   UNL A   1      42.666  35.830  31.176  1.00  0.00     0.010 A 
ATOM     28  C   UNL A   1      42.777  33.604  30.237  1.00  0.00     0.010 A 
ATOM     29  C   UNL A   1      42.175  34.513  31.073  1.00  0.00    -0.014 A 
BRANCH  29  30
ATOM     30  C   UNL A   1      40.937  34.073  31.699  1.00  0.00     0.031 A 
ATOM     31  C   UNL A   1      41.102  33.939  33.159  1.00  0.00     0.074 A 
ATOM     32  C   UNL A   1      39.743  33.959  31.069  1.00  0.00     0.049 A 
ATOM     33  N   UNL A   1      41.322  32.838  33.788  1.00  0.00    -0.248 NA
ATOM     34  C   UNL A   1      41.312  35.146  33.975  1.00  0.00     0.031 C 
ATOM     35  C   UNL A   1      39.365  34.324  29.697  1.00  0.00     0.029 A 
ATOM     36  N   UNL A   1      38.566  33.482  31.572  1.00  0.00    -0.354 N 
ATOM     37  C   UNL A   1      41.426  33.182  35.126  1.00  0.00     0.074 A 
ATOM     38  C   UNL A   1      41.641  34.604  35.151  1.00  0.00     0.031 C 
ATOM     39  C   UNL A   1      38.019  34.243  29.546  1.00  0.00     0.029 A 
ATOM     40  C   UNL A   1      37.448  33.660  30.746  1.00  0.00     0.049 A 
ATOM     41  H   UNL A   1      38.507  33.044  32.452  1.00  0.00     0.167 HD
ATOM     42  C   UNL A   1      41.031  32.290  36.073  1.00  0.00     0.037 A 
ATOM     43  C   UNL A   1      36.164  33.301  31.029  1.00  0.00     0.037 A 
ATOM     44  C   UNL A   1      40.901  30.971  35.488  1.00  0.00     0.049 A 
ATOM     45  C   UNL A   1      36.238  32.252  32.078  1.00  0.00     0.074 A 
ATOM     46  C   UNL A   1      41.766  30.090  34.869  1.00  0.00     0.029 A 
ATOM     47  N   UNL A   1      39.636  30.594  35.103  1.00  0.00    -0.354 N 
ATOM     48  N   UNL A   1      36.739  31.068  31.871  1.00  0.00    -0.248 NA
ATOM     49  C   UNL A   1      36.234  32.706  33.459  1.00  0.00     0.031 C 
ATOM     50  C   UNL A   1      41.015  29.528  33.792  1.00  0.00     0.029 A 
ATOM     51  C   UNL A   1      39.708  30.009  33.866  1.00  0.00     0.049 A 
ATOM     52  H   UNL A   1      38.814  30.723  35.630  1.00  0.00     0.167 HD
ATOM     53  C   UNL A   1      37.520  30.822  32.989  1.00  0.00     0.074 A 
ATOM     54  C   UNL A   1      37.129  31.849  33.958  1.00  0.00     0.031 C 
ATOM     55  C   UNL A   1      38.620  30.017  32.912  1.00  0.00     0.037 A 
BRANCH  42  56
ATOM     56  C   UNL A   1      40.335  32.664  37.358  1.00  0.00     0.057 A 
ATOM     57  C   UNL A   1      39.127  33.385  37.279  1.00  0.00     0.134 A 
ATOM     58  C   UNL A   1      40.919  32.624  38.640  1.00  0.00     0.134 A 
ATOM     59  F   UNL A   1      38.470  33.503  36.116  1.00  0.00    -0.206 F 
ATOM     60  C   UNL A   1      38.597  34.087  38.368  1.00  0.00     0.040 A 
ATOM     61  C   UNL A   1      40.373  33.284  39.744  1.00  0.00     0.040 A 
ATOM     62  F   UNL A   1      42.093  32.034  38.887  1.00  0.00    -0.206 F 
ATOM     63  C   UNL A   1      39.227  34.047  39.603  1.00  0.00     0.006 A 
ENDBRANCH  42  56
BRANCH  43  64
ATOM     64  C   UNL A   1      34.886  34.025  30.781  1.00  0.00     0.057 A 
ATOM     65  C   UNL A   1      34.520  35.142  31.556  1.00  0.00     0.134 A 
ATOM     66  C   UNL A   1      34.177  33.860  29.580  1.00  0.00     0.134 A 
ATOM     67  F   UNL A   1      35.159  35.415  32.702  1.00  0.00    -0.206 F 
ATOM     68  C   UNL A   1      33.545  36.063  31.139  1.00  0.00     0.040 A 
ATOM     69  C   UNL A   1      33.201  34.774  29.152  1.00  0.00     0.040 A 
ATOM     70  F   UNL A   1      34.478  32.863  28.737  1.00  0.00    -0.206 F 
ATOM     71  C   UNL A   1      32.894  35.889  29.923  1.00  0.00     0.006 A 
ENDBRANCH  43  64
BRANCH  55  72
ATOM     72  C   UNL A   1      38.821  29.206  31.657  1.00  0.00     0.057 A 
ATOM     73  C   UNL A   1      39.454  29.671  30.492  1.00  0.00     0.134 A 
ATOM     74  C   UNL A   1      38.513  27.841  31.702  1.00  0.00     0.134 A 
ATOM     75  F   UNL A   1      39.855  30.943  30.380  1.00  0.00    -0.206 F 
ATOM     76  C   UNL A   1      39.753  28.817  29.423  1.00  0.00     0.040 A 
ATOM     77  C   UNL A   1      38.834  26.974  30.656  1.00  0.00     0.040 A 
ATOM     78  F   UNL A   1      37.945  27.317  32.798  1.00  0.00    -0.206 F 
ATOM     79  C   UNL A   1      39.454  27.461  29.509  1.00  0.00     0.006 A 
ENDBRANCH  55  72
ENDBRANCH  29  30
ENDBRANCH  21  24
ENDBRANCH  19  20
ENDBRANCH   1  19
TORSDOF 11
ENDMDL
MODEL 3
REMARK VINA RESULT:     -10.8      3.190      5.215
REMARK SMILES N#Cc1cnc2cc(C(=O)NCCCNC(=O)c3ccc(-c4c5nc(c(-c6c(F)cccc6F)c6ccc([nH]6)c(-c6c(F)cccc6F)c6nc(c(-c7c(F)cccc7F)c7ccc4[nH]7)C=C6)C=C5)cc3)[nH]c2c1
REMARK SMILES IDX 13 1 12 2 11 3 9 4 10 5 8 7 3 8 4 9 74 10 5 11 73 12 6 13
REMARK SMILES IDX 72 14 7 15 2 17 1 18 14 19 15 20 16 21 17 23 18 24 19 25
REMARK SMILES IDX 71 26 20 27 70 28 21 29 22 30 23 31 64 32 24 33 69 34 63 35
REMARK SMILES IDX 65 36 25 37 68 38 62 39 61 40 26 42 52 43 35 44 51 45 36 46
REMARK SMILES IDX 39 47 50 48 66 49 37 50 38 51 49 53 67 54 40 55 27 56 28 57
REMARK SMILES IDX 33 58 29 59 30 60 32 61 34 62 31 63 53 64 54 65 59 66 55 67
REMARK SMILES IDX 56 68 58 69 60 70 57 71 41 72 42 73 47 74 43 75 44 76 46 77
REMARK SMILES IDX 48 78 45 79
REMARK H PARENT 11 6 72 16 15 22 65 41 39 52
REMARK Flexibility Score: inf
ROOT
ATOM      1  C   UNL A   1      33.183  31.063  27.341  1.00  0.00     0.042 C 
ENDROOT
BRANCH   1   2
ATOM      2  C   UNL A   1      33.352  29.938  26.313  1.00  0.00     0.118 C 
BRANCH   2   3
ATOM      3  N   UNL A   1      32.312  29.933  25.298  1.00  0.00    -0.351 N 
ATOM      4  C   UNL A   1      31.474  28.945  24.855  1.00  0.00     0.267 C 
ATOM      5  O   UNL A   1      30.601  29.274  24.052  1.00  0.00    -0.268 OA
ATOM      6  H   UNL A   1      32.188  30.798  24.846  1.00  0.00     0.163 HD
BRANCH   4   7
ATOM      7  C   UNL A   1      31.618  27.567  25.267  1.00  0.00     0.107 A 
ATOM      8  C   UNL A   1      33.457  23.494  26.249  1.00  0.00     0.072 A 
ATOM      9  C   UNL A   1      32.309  23.496  27.035  1.00  0.00     0.131 A 
ATOM     10  C   UNL A   1      33.697  24.570  25.386  1.00  0.00     0.049 A 
ATOM     11  N   UNL A   1      31.376  24.473  27.060  1.00  0.00    -0.253 NA
ATOM     12  C   UNL A   1      32.755  25.600  25.427  1.00  0.00     0.066 A 
ATOM     13  C   UNL A   1      31.642  25.524  26.254  1.00  0.00     0.089 A 
ATOM     14  N   UNL A   1      32.683  26.813  24.790  1.00  0.00    -0.349 N 
ATOM     15  C   UNL A   1      30.924  26.730  26.125  1.00  0.00     0.062 A 
ATOM     16  H   UNL A   1      33.304  27.110  24.086  1.00  0.00     0.167 HD
BRANCH   8  17
ATOM     17  C   UNL A   1      34.376  22.416  26.353  1.00  0.00     0.101 C 
ATOM     18  N   UNL A   1      35.141  21.535  26.452  1.00  0.00    -0.192 NA
ENDBRANCH   8  17
ENDBRANCH   4   7
ENDBRANCH   2   3
ENDBRANCH   1   2
BRANCH   1  19
ATOM     19  C   UNL A   1      34.535  31.553  27.832  1.00  0.00     0.118 C 
BRANCH  19  20
ATOM     20  N   UNL A   1      34.491  32.114  29.191  1.00  0.00    -0.352 N 
ATOM     21  C   UNL A   1      35.288  31.821  30.285  1.00  0.00     0.251 C 
ATOM     22  H   UNL A   1      33.796  32.795  29.345  1.00  0.00     0.163 HD
ATOM     23  O   UNL A   1      34.943  32.145  31.415  1.00  0.00    -0.269 OA
BRANCH  21  24
ATOM     24  C   UNL A   1      36.571  31.126  30.064  1.00  0.00     0.039 A 
ATOM     25  C   UNL A   1      37.784  31.799  29.910  1.00  0.00     0.014 A 
ATOM     26  C   UNL A   1      36.541  29.739  30.053  1.00  0.00     0.014 A 
ATOM     27  C   UNL A   1      38.941  31.036  29.752  1.00  0.00     0.010 A 
ATOM     28  C   UNL A   1      37.686  29.029  30.246  1.00  0.00     0.010 A 
ATOM     29  C   UNL A   1      38.873  29.637  29.919  1.00  0.00    -0.014 A 
BRANCH  29  30
ATOM     30  C   UNL A   1      40.046  28.778  29.921  1.00  0.00     0.031 A 
ATOM     31  C   UNL A   1      40.590  28.628  31.284  1.00  0.00     0.074 A 
ATOM     32  C   UNL A   1      40.494  28.069  28.856  1.00  0.00     0.049 A 
ATOM     33  N   UNL A   1      41.586  29.285  31.767  1.00  0.00    -0.248 NA
ATOM     34  C   UNL A   1      39.812  27.894  32.295  1.00  0.00     0.031 C 
ATOM     35  C   UNL A   1      39.900  27.897  27.524  1.00  0.00     0.029 A 
ATOM     36  N   UNL A   1      41.625  27.307  28.765  1.00  0.00    -0.354 N 
ATOM     37  C   UNL A   1      41.735  28.841  33.071  1.00  0.00     0.074 A 
ATOM     38  C   UNL A   1      40.503  28.178  33.403  1.00  0.00     0.031 C 
ATOM     39  C   UNL A   1      40.564  26.933  26.837  1.00  0.00     0.029 A 
ATOM     40  C   UNL A   1      41.732  26.535  27.601  1.00  0.00     0.049 A 
ATOM     41  H   UNL A   1      42.315  27.301  29.467  1.00  0.00     0.167 HD
ATOM     42  C   UNL A   1      42.975  28.820  33.627  1.00  0.00     0.037 A 
ATOM     43  C   UNL A   1      42.743  25.676  27.286  1.00  0.00     0.037 A 
ATOM     44  C   UNL A   1      43.886  29.626  32.839  1.00  0.00     0.049 A 
ATOM     45  C   UNL A   1      43.917  26.087  28.099  1.00  0.00     0.074 A 
ATOM     46  C   UNL A   1      43.952  30.960  32.487  1.00  0.00     0.029 A 
ATOM     47  N   UNL A   1      44.665  28.955  31.927  1.00  0.00    -0.354 N 
ATOM     48  N   UNL A   1      44.547  27.213  27.925  1.00  0.00    -0.248 NA
ATOM     49  C   UNL A   1      44.044  25.484  29.415  1.00  0.00     0.031 C 
ATOM     50  C   UNL A   1      44.383  30.964  31.127  1.00  0.00     0.029 A 
ATOM     51  C   UNL A   1      44.659  29.650  30.746  1.00  0.00     0.049 A 
ATOM     52  H   UNL A   1      45.147  28.113  32.095  1.00  0.00     0.167 HD
ATOM     53  C   UNL A   1      44.760  27.691  29.209  1.00  0.00     0.074 A 
ATOM     54  C   UNL A   1      44.472  26.556  30.088  1.00  0.00     0.031 C 
ATOM     55  C   UNL A   1      44.843  29.032  29.452  1.00  0.00     0.037 A 
BRANCH  42  56
ATOM     56  C   UNL A   1      43.469  27.750  34.569  1.00  0.00     0.057 A 
ATOM     57  C   UNL A   1      43.505  26.419  34.108  1.00  0.00     0.134 A 
ATOM     58  C   UNL A   1      43.620  27.900  35.962  1.00  0.00     0.134 A 
ATOM     59  F   UNL A   1      43.370  26.137  32.804  1.00  0.00    -0.206 F 
ATOM     60  C   UNL A   1      43.589  25.324  34.975  1.00  0.00     0.040 A 
ATOM     61  C   UNL A   1      43.750  26.814  36.833  1.00  0.00     0.040 A 
ATOM     62  F   UNL A   1      43.554  29.084  36.578  1.00  0.00    -0.206 F 
ATOM     63  C   UNL A   1      43.701  25.519  36.344  1.00  0.00     0.006 A 
ENDBRANCH  42  56
BRANCH  43  64
ATOM     64  C   UNL A   1      42.696  24.323  26.665  1.00  0.00     0.057 A 
ATOM     65  C   UNL A   1      43.394  24.044  25.474  1.00  0.00     0.134 A 
ATOM     66  C   UNL A   1      42.265  23.202  27.392  1.00  0.00     0.134 A 
ATOM     67  F   UNL A   1      43.884  25.040  24.722  1.00  0.00    -0.206 F 
ATOM     68  C   UNL A   1      43.686  22.735  25.059  1.00  0.00     0.040 A 
ATOM     69  C   UNL A   1      42.551  21.889  26.989  1.00  0.00     0.040 A 
ATOM     70  F   UNL A   1      41.639  23.347  28.569  1.00  0.00    -0.206 F 
ATOM     71  C   UNL A   1      43.279  21.651  25.828  1.00  0.00     0.006 A 
ENDBRANCH  43  64
BRANCH  55  72
ATOM     72  C   UNL A   1      44.950  29.963  28.271  1.00  0.00     0.057 A 
ATOM     73  C   UNL A   1      43.862  30.588  27.640  1.00  0.00     0.134 A 
ATOM     74  C   UNL A   1      46.227  30.377  27.875  1.00  0.00     0.134 A 
ATOM     75  F   UNL A   1      42.601  30.317  27.998  1.00  0.00    -0.206 F 
ATOM     76  C   UNL A   1      44.042  31.567  26.654  1.00  0.00     0.040 A 
ATOM     77  C   UNL A   1      46.420  31.373  26.917  1.00  0.00     0.040 A 
ATOM     78  F   UNL A   1      47.314  29.854  28.463  1.00  0.00    -0.206 F 
ATOM     79  C   UNL A   1      45.325  31.971  26.300  1.00  0.00     0.006 A 
ENDBRANCH  55  72
ENDBRANCH  29  30
ENDBRANCH  21  24
ENDBRANCH  19  20
ENDBRANCH   1  19
TORSDOF 11
ENDMDL
