MODEL 1
REMARK VINA RESULT:      -9.3      0.000      0.000
REMARK SMILES CC(C)[N@@H+]1CCC[C@H]1CC(=O)NCCCNC(=O)c1ccc(-c2c3nc(c(-c4c(F)cccc4F)c4ccc([nH]4)c(-c4c(F)cccc4F)c4nc(c(-c5c(F)cccc5F)c5ccc2[nH]5)C=C4)C=C3)cc1
REMARK SMILES IDX 14 1 13 2 12 3 10 4 11 5 9 7 8 8 4 9 5 10 6 12 7 13 2 14
REMARK SMILES IDX 1 15 3 16 15 17 16 18 17 19 18 21 19 22 20 23 72 24 21 25
REMARK SMILES IDX 71 26 22 27 23 28 24 29 65 30 25 31 70 32 64 33 66 34 26 35
REMARK SMILES IDX 69 36 63 37 62 38 27 40 53 41 36 42 52 43 37 44 40 45 51 46
REMARK SMILES IDX 67 47 38 48 39 49 50 51 68 52 41 53 28 54 29 55 34 56 30 57
REMARK SMILES IDX 31 58 33 59 35 60 32 61 54 62 55 63 60 64 56 65 57 66 59 67
REMARK SMILES IDX 61 68 58 69 42 70 43 71 48 72 44 73 45 74 47 75 49 76 46 77
REMARK H PARENT 12 6 4 11 16 20 66 39 40 50
REMARK Flexibility Score: inf
ROOT
ATOM      1  C   UNL A   1      33.566  35.544  32.189  1.00  0.00     0.042 C 
ENDROOT
BRANCH   1   2
ATOM      2  C   UNL A   1      34.976  35.363  32.750  1.00  0.00     0.117 C 
BRANCH   2   3
ATOM      3  N   UNL A   1      34.995  35.034  34.161  1.00  0.00    -0.356 N 
ATOM      4  C   UNL A   1      35.526  33.971  34.818  1.00  0.00     0.225 C 
ATOM      5  O   UNL A   1      35.457  33.972  36.049  1.00  0.00    -0.275 OA
ATOM      6  H   UNL A   1      34.547  35.692  34.740  1.00  0.00     0.163 HD
BRANCH   4   7
ATOM      7  C   UNL A   1      36.174  32.821  34.075  1.00  0.00     0.164 C 
BRANCH   7   8
ATOM      8  C   UNL A   1      37.660  32.619  34.401  1.00  0.00     0.193 C 
ATOM      9  N   UNL A   1      37.874  32.651  35.866  1.00  0.00    -0.330 N 
ATOM     10  C   UNL A   1      38.215  31.283  36.280  1.00  0.00     0.262 C 
ATOM     11  H   UNL A   1      37.004  32.967  36.294  1.00  0.00     0.348 HD
ATOM     12  C   UNL A   1      38.931  30.667  35.101  1.00  0.00     0.067 C 
ATOM     13  C   UNL A   1      38.216  31.272  33.912  1.00  0.00     0.071 C 
BRANCH   9  14
ATOM     14  C   UNL A   1      38.801  33.671  36.388  1.00  0.00     0.177 C 
ATOM     15  C   UNL A   1      38.950  34.973  35.591  1.00  0.00     0.075 C 
ATOM     16  C   UNL A   1      38.415  33.992  37.837  1.00  0.00     0.075 C 
ENDBRANCH   9  14
ENDBRANCH   7   8
ENDBRANCH   4   7
ENDBRANCH   2   3
ENDBRANCH   1   2
BRANCH   1  17
ATOM     17  C   UNL A   1      33.474  36.328  30.884  1.00  0.00     0.118 C 
BRANCH  17  18
ATOM     18  N   UNL A   1      32.788  35.601  29.829  1.00  0.00    -0.352 N 
ATOM     19  C   UNL A   1      33.214  34.550  29.055  1.00  0.00     0.251 C 
ATOM     20  H   UNL A   1      31.872  35.909  29.641  1.00  0.00     0.163 HD
ATOM     21  O   UNL A   1      32.522  34.183  28.107  1.00  0.00    -0.269 OA
BRANCH  19  22
ATOM     22  C   UNL A   1      34.501  33.867  29.321  1.00  0.00     0.039 A 
ATOM     23  C   UNL A   1      35.629  34.263  28.593  1.00  0.00     0.014 A 
ATOM     24  C   UNL A   1      34.603  32.812  30.233  1.00  0.00     0.014 A 
ATOM     25  C   UNL A   1      36.863  33.646  28.819  1.00  0.00     0.010 A 
ATOM     26  C   UNL A   1      35.847  32.238  30.502  1.00  0.00     0.010 A 
ATOM     27  C   UNL A   1      36.989  32.647  29.796  1.00  0.00    -0.014 A 
BRANCH  27  28
ATOM     28  C   UNL A   1      38.306  32.027  30.093  1.00  0.00     0.031 A 
ATOM     29  C   UNL A   1      39.329  32.759  30.917  1.00  0.00     0.074 A 
ATOM     30  C   UNL A   1      38.610  30.825  29.568  1.00  0.00     0.049 A 
ATOM     31  N   UNL A   1      40.552  32.405  31.223  1.00  0.00    -0.248 NA
ATOM     32  C   UNL A   1      38.933  34.073  31.444  1.00  0.00     0.031 C 
ATOM     33  C   UNL A   1      37.728  30.028  28.714  1.00  0.00     0.029 A 
ATOM     34  N   UNL A   1      39.753  30.071  29.662  1.00  0.00    -0.354 N 
ATOM     35  C   UNL A   1      41.078  33.458  31.961  1.00  0.00     0.074 A 
ATOM     36  C   UNL A   1      40.053  34.480  32.022  1.00  0.00     0.031 C 
ATOM     37  C   UNL A   1      38.358  28.892  28.373  1.00  0.00     0.029 A 
ATOM     38  C   UNL A   1      39.696  28.895  28.957  1.00  0.00     0.049 A 
ATOM     39  H   UNL A   1      40.540  30.348  30.186  1.00  0.00     0.167 HD
ATOM     40  C   UNL A   1      42.294  33.559  32.548  1.00  0.00     0.037 A 
ATOM     41  C   UNL A   1      40.618  27.928  28.791  1.00  0.00     0.037 A 
ATOM     42  C   UNL A   1      43.304  32.533  32.513  1.00  0.00     0.049 A 
ATOM     43  C   UNL A   1      41.956  28.054  29.461  1.00  0.00     0.074 A 
ATOM     44  C   UNL A   1      44.537  32.514  33.142  1.00  0.00     0.029 A 
ATOM     45  N   UNL A   1      43.198  31.345  31.806  1.00  0.00    -0.354 N 
ATOM     46  N   UNL A   1      42.413  29.025  30.212  1.00  0.00    -0.248 NA
ATOM     47  C   UNL A   1      42.902  26.946  29.266  1.00  0.00     0.031 C 
ATOM     48  C   UNL A   1      45.193  31.330  32.786  1.00  0.00     0.029 A 
ATOM     49  C   UNL A   1      44.353  30.595  31.966  1.00  0.00     0.049 A 
ATOM     50  H   UNL A   1      42.418  31.074  31.271  1.00  0.00     0.167 HD
ATOM     51  C   UNL A   1      43.692  28.641  30.594  1.00  0.00     0.074 A 
ATOM     52  C   UNL A   1      43.933  27.341  30.001  1.00  0.00     0.031 C 
ATOM     53  C   UNL A   1      44.584  29.306  31.367  1.00  0.00     0.037 A 
BRANCH  40  54
ATOM     54  C   UNL A   1      42.600  34.834  33.278  1.00  0.00     0.057 A 
ATOM     55  C   UNL A   1      43.056  35.978  32.610  1.00  0.00     0.134 A 
ATOM     56  C   UNL A   1      42.420  34.924  34.664  1.00  0.00     0.134 A 
ATOM     57  F   UNL A   1      43.259  35.953  31.284  1.00  0.00    -0.206 F 
ATOM     58  C   UNL A   1      43.353  37.155  33.298  1.00  0.00     0.040 A 
ATOM     59  C   UNL A   1      42.690  36.103  35.359  1.00  0.00     0.040 A 
ATOM     60  F   UNL A   1      41.978  33.867  35.364  1.00  0.00    -0.206 F 
ATOM     61  C   UNL A   1      43.166  37.220  34.677  1.00  0.00     0.006 A 
ENDBRANCH  40  54
BRANCH  41  62
ATOM     62  C   UNL A   1      40.290  26.740  27.966  1.00  0.00     0.057 A 
ATOM     63  C   UNL A   1      40.808  26.597  26.673  1.00  0.00     0.134 A 
ATOM     64  C   UNL A   1      39.475  25.714  28.456  1.00  0.00     0.134 A 
ATOM     65  F   UNL A   1      41.579  27.557  26.145  1.00  0.00    -0.206 F 
ATOM     66  C   UNL A   1      40.520  25.475  25.894  1.00  0.00     0.040 A 
ATOM     67  C   UNL A   1      39.195  24.579  27.695  1.00  0.00     0.040 A 
ATOM     68  F   UNL A   1      38.956  25.793  29.689  1.00  0.00    -0.206 F 
ATOM     69  C   UNL A   1      39.717  24.459  26.408  1.00  0.00     0.006 A 
ENDBRANCH  41  62
BRANCH  53  70
ATOM     70  C   UNL A   1      45.898  28.632  31.631  1.00  0.00     0.057 A 
ATOM     71  C   UNL A   1      47.012  28.848  30.811  1.00  0.00     0.134 A 
ATOM     72  C   UNL A   1      46.059  27.788  32.736  1.00  0.00     0.134 A 
ATOM     73  F   UNL A   1      46.919  29.634  29.728  1.00  0.00    -0.206 F 
ATOM     74  C   UNL A   1      48.238  28.233  31.072  1.00  0.00     0.040 A 
ATOM     75  C   UNL A   1      47.285  27.185  33.020  1.00  0.00     0.040 A 
ATOM     76  F   UNL A   1      45.031  27.545  33.563  1.00  0.00    -0.206 F 
ATOM     77  C   UNL A   1      48.378  27.403  32.183  1.00  0.00     0.006 A 
ENDBRANCH  53  70
ENDBRANCH  27  28
ENDBRANCH  19  22
ENDBRANCH  17  18
ENDBRANCH   1  17
TORSDOF 12
ENDMDL
MODEL 2
REMARK VINA RESULT:      -9.2      5.270     11.006
REMARK SMILES CC(C)[N@@H+]1CCC[C@H]1CC(=O)NCCCNC(=O)c1ccc(-c2c3nc(c(-c4c(F)cccc4F)c4ccc([nH]4)c(-c4c(F)cccc4F)c4nc(c(-c5c(F)cccc5F)c5ccc2[nH]5)C=C4)C=C3)cc1
REMARK SMILES IDX 14 1 13 2 12 3 10 4 11 5 9 7 8 8 4 9 5 10 6 12 7 13 2 14
REMARK SMILES IDX 1 15 3 16 15 17 16 18 17 19 18 21 19 22 20 23 72 24 21 25
REMARK SMILES IDX 71 26 22 27 23 28 24 29 65 30 25 31 70 32 64 33 66 34 26 35
REMARK SMILES IDX 69 36 63 37 62 38 27 40 53 41 36 42 52 43 37 44 40 45 51 46
REMARK SMILES IDX 67 47 38 48 39 49 50 51 68 52 41 53 28 54 29 55 34 56 30 57
REMARK SMILES IDX 31 58 33 59 35 60 32 61 54 62 55 63 60 64 56 65 57 66 59 67
REMARK SMILES IDX 61 68 58 69 42 70 43 71 48 72 44 73 45 74 47 75 49 76 46 77
REMARK H PARENT 12 6 4 11 16 20 66 39 40 50
REMARK Flexibility Score: inf
ROOT
ATOM      1  C   UNL A   1      37.708  19.576  24.990  1.00  0.00     0.042 C 
ENDROOT
BRANCH   1   2
ATOM      2  C   UNL A   1      36.474  20.477  25.007  1.00  0.00     0.117 C 
BRANCH   2   3
ATOM      3  N   UNL A   1      36.751  21.819  25.479  1.00  0.00    -0.356 N 
ATOM      4  C   UNL A   1      36.461  23.029  24.935  1.00  0.00     0.225 C 
ATOM      5  O   UNL A   1      36.756  24.031  25.589  1.00  0.00    -0.275 OA
ATOM      6  H   UNL A   1      37.229  21.860  26.339  1.00  0.00     0.163 HD
BRANCH   4   7
ATOM      7  C   UNL A   1      35.808  23.152  23.573  1.00  0.00     0.164 C 
BRANCH   7   8
ATOM      8  C   UNL A   1      34.318  23.516  23.622  1.00  0.00     0.193 C 
ATOM      9  N   UNL A   1      34.151  24.961  23.907  1.00  0.00    -0.330 N 
ATOM     10  C   UNL A   1      33.649  25.585  22.676  1.00  0.00     0.262 C 
ATOM     11  H   UNL A   1      35.066  25.327  24.167  1.00  0.00     0.348 HD
ATOM     12  C   UNL A   1      32.826  24.523  21.985  1.00  0.00     0.067 C 
ATOM     13  C   UNL A   1      33.580  23.249  22.300  1.00  0.00     0.071 C 
BRANCH   9  14
ATOM     14  C   UNL A   1      33.378  25.324  25.108  1.00  0.00     0.177 C 
ATOM     15  C   UNL A   1      33.151  24.235  26.165  1.00  0.00     0.075 C 
ATOM     16  C   UNL A   1      34.027  26.551  25.759  1.00  0.00     0.075 C 
ENDBRANCH   9  14
ENDBRANCH   7   8
ENDBRANCH   4   7
ENDBRANCH   2   3
ENDBRANCH   1   2
BRANCH   1  17
ATOM     17  C   UNL A   1      38.921  20.108  25.747  1.00  0.00     0.118 C 
BRANCH  17  18
ATOM     18  N   UNL A   1      39.994  19.134  25.860  1.00  0.00    -0.352 N 
ATOM     19  C   UNL A   1      41.330  19.313  26.121  1.00  0.00     0.251 C 
ATOM     20  H   UNL A   1      39.720  18.197  25.730  1.00  0.00     0.163 HD
ATOM     21  O   UNL A   1      42.095  18.356  26.018  1.00  0.00    -0.269 OA
BRANCH  19  22
ATOM     22  C   UNL A   1      41.872  20.639  26.499  1.00  0.00     0.039 A 
ATOM     23  C   UNL A   1      42.209  21.536  25.479  1.00  0.00     0.014 A 
ATOM     24  C   UNL A   1      42.102  20.991  27.833  1.00  0.00     0.014 A 
ATOM     25  C   UNL A   1      42.719  22.799  25.795  1.00  0.00     0.010 A 
ATOM     26  C   UNL A   1      42.553  22.273  28.150  1.00  0.00     0.010 A 
ATOM     27  C   UNL A   1      42.868  23.189  27.134  1.00  0.00    -0.014 A 
BRANCH  27  28
ATOM     28  C   UNL A   1      43.348  24.552  27.486  1.00  0.00     0.031 A 
ATOM     29  C   UNL A   1      42.377  25.621  27.905  1.00  0.00     0.074 A 
ATOM     30  C   UNL A   1      44.656  24.848  27.370  1.00  0.00     0.049 A 
ATOM     31  N   UNL A   1      42.603  26.879  28.186  1.00  0.00    -0.248 NA
ATOM     32  C   UNL A   1      40.962  25.229  27.994  1.00  0.00     0.031 C 
ATOM     33  C   UNL A   1      45.698  23.918  26.932  1.00  0.00     0.029 A 
ATOM     34  N   UNL A   1      45.331  26.022  27.596  1.00  0.00    -0.354 N 
ATOM     35  C   UNL A   1      41.361  27.434  28.466  1.00  0.00     0.074 A 
ATOM     36  C   UNL A   1      40.381  26.384  28.282  1.00  0.00     0.031 C 
ATOM     37  C   UNL A   1      46.881  24.554  26.932  1.00  0.00     0.029 A 
ATOM     38  C   UNL A   1      46.677  25.940  27.341  1.00  0.00     0.049 A 
ATOM     39  H   UNL A   1      44.890  26.844  27.913  1.00  0.00     0.167 HD
ATOM     40  C   UNL A   1      41.063  28.697  28.855  1.00  0.00     0.037 A 
ATOM     41  C   UNL A   1      47.641  26.878  27.418  1.00  0.00     0.037 A 
ATOM     42  C   UNL A   1      42.037  29.736  29.067  1.00  0.00     0.049 A 
ATOM     43  C   UNL A   1      47.291  28.268  27.865  1.00  0.00     0.074 A 
ATOM     44  C   UNL A   1      41.839  31.023  29.535  1.00  0.00     0.029 A 
ATOM     45  N   UNL A   1      43.395  29.607  28.818  1.00  0.00    -0.354 N 
ATOM     46  N   UNL A   1      46.121  28.759  28.193  1.00  0.00    -0.248 NA
ATOM     47  C   UNL A   1      48.397  29.232  27.960  1.00  0.00     0.031 C 
ATOM     48  C   UNL A   1      43.072  31.685  29.536  1.00  0.00     0.029 A 
ATOM     49  C   UNL A   1      44.044  30.798  29.103  1.00  0.00     0.049 A 
ATOM     50  H   UNL A   1      43.834  28.789  28.489  1.00  0.00     0.167 HD
ATOM     51  C   UNL A   1      46.350  30.082  28.548  1.00  0.00     0.074 A 
ATOM     52  C   UNL A   1      47.773  30.313  28.409  1.00  0.00     0.031 C 
ATOM     53  C   UNL A   1      45.460  31.018  28.955  1.00  0.00     0.037 A 
BRANCH  40  54
ATOM     54  C   UNL A   1      39.616  29.023  29.076  1.00  0.00     0.057 A 
ATOM     55  C   UNL A   1      39.030  28.966  30.349  1.00  0.00     0.134 A 
ATOM     56  C   UNL A   1      38.800  29.416  28.008  1.00  0.00     0.134 A 
ATOM     57  F   UNL A   1      39.755  28.585  31.412  1.00  0.00    -0.206 F 
ATOM     58  C   UNL A   1      37.680  29.256  30.544  1.00  0.00     0.040 A 
ATOM     59  C   UNL A   1      37.454  29.733  28.196  1.00  0.00     0.040 A 
ATOM     60  F   UNL A   1      39.299  29.500  26.765  1.00  0.00    -0.206 F 
ATOM     61  C   UNL A   1      36.889  29.645  29.466  1.00  0.00     0.006 A 
ENDBRANCH  40  54
BRANCH  41  62
ATOM     62  C   UNL A   1      49.038  26.516  27.082  1.00  0.00     0.057 A 
ATOM     63  C   UNL A   1      49.922  26.065  28.069  1.00  0.00     0.134 A 
ATOM     64  C   UNL A   1      49.515  26.587  25.768  1.00  0.00     0.134 A 
ATOM     65  F   UNL A   1      49.525  25.994  29.348  1.00  0.00    -0.206 F 
ATOM     66  C   UNL A   1      51.235  25.703  27.763  1.00  0.00     0.040 A 
ATOM     67  C   UNL A   1      50.819  26.212  25.445  1.00  0.00     0.040 A 
ATOM     68  F   UNL A   1      48.713  27.005  24.779  1.00  0.00    -0.206 F 
ATOM     69  C   UNL A   1      51.684  25.770  26.445  1.00  0.00     0.006 A 
ENDBRANCH  41  62
BRANCH  53  70
ATOM     70  C   UNL A   1      46.000  32.376  29.295  1.00  0.00     0.057 A 
ATOM     71  C   UNL A   1      46.067  33.400  28.343  1.00  0.00     0.134 A 
ATOM     72  C   UNL A   1      46.425  32.671  30.596  1.00  0.00     0.134 A 
ATOM     73  F   UNL A   1      45.690  33.176  27.075  1.00  0.00    -0.206 F 
ATOM     74  C   UNL A   1      46.554  34.667  28.670  1.00  0.00     0.040 A 
ATOM     75  C   UNL A   1      46.893  33.939  30.940  1.00  0.00     0.040 A 
ATOM     76  F   UNL A   1      46.380  31.734  31.556  1.00  0.00    -0.206 F 
ATOM     77  C   UNL A   1      46.963  34.941  29.973  1.00  0.00     0.006 A 
ENDBRANCH  53  70
ENDBRANCH  27  28
ENDBRANCH  19  22
ENDBRANCH  17  18
ENDBRANCH   1  17
TORSDOF 12
ENDMDL
MODEL 3
REMARK VINA RESULT:      -9.1      5.395     11.214
REMARK SMILES CC(C)[N@@H+]1CCC[C@H]1CC(=O)NCCCNC(=O)c1ccc(-c2c3nc(c(-c4c(F)cccc4F)c4ccc([nH]4)c(-c4c(F)cccc4F)c4nc(c(-c5c(F)cccc5F)c5ccc2[nH]5)C=C4)C=C3)cc1
REMARK SMILES IDX 14 1 13 2 12 3 10 4 11 5 9 7 8 8 4 9 5 10 6 12 7 13 2 14
REMARK SMILES IDX 1 15 3 16 15 17 16 18 17 19 18 21 19 22 20 23 72 24 21 25
REMARK SMILES IDX 71 26 22 27 23 28 24 29 65 30 25 31 70 32 64 33 66 34 26 35
REMARK SMILES IDX 69 36 63 37 62 38 27 40 53 41 36 42 52 43 37 44 40 45 51 46
REMARK SMILES IDX 67 47 38 48 39 49 50 51 68 52 41 53 28 54 29 55 34 56 30 57
REMARK SMILES IDX 31 58 33 59 35 60 32 61 54 62 55 63 60 64 56 65 57 66 59 67
REMARK SMILES IDX 61 68 58 69 42 70 43 71 48 72 44 73 45 74 47 75 49 76 46 77
REMARK H PARENT 12 6 4 11 16 20 66 39 40 50
REMARK Flexibility Score: inf
ROOT
ATOM      1  C   UNL A   1      37.467  19.651  24.973  1.00  0.00     0.042 C 
ENDROOT
BRANCH   1   2
ATOM      2  C   UNL A   1      36.227  20.545  24.986  1.00  0.00     0.117 C 
BRANCH   2   3
ATOM      3  N   UNL A   1      34.984  19.801  24.976  1.00  0.00    -0.356 N 
ATOM      4  C   UNL A   1      33.774  20.086  25.522  1.00  0.00     0.225 C 
ATOM      5  O   UNL A   1      32.852  19.298  25.302  1.00  0.00    -0.275 OA
ATOM      6  H   UNL A   1      35.023  18.944  24.491  1.00  0.00     0.163 HD
BRANCH   4   7
ATOM      7  C   UNL A   1      33.559  21.318  26.377  1.00  0.00     0.164 C 
BRANCH   7   8
ATOM      8  C   UNL A   1      33.205  22.581  25.581  1.00  0.00     0.193 C 
ATOM      9  N   UNL A   1      32.083  22.306  24.653  1.00  0.00    -0.330 N 
ATOM     10  C   UNL A   1      30.913  23.029  25.169  1.00  0.00     0.262 C 
ATOM     11  H   UNL A   1      31.930  21.298  24.650  1.00  0.00     0.348 HD
ATOM     12  C   UNL A   1      31.463  24.256  25.860  1.00  0.00     0.067 C 
ATOM     13  C   UNL A   1      32.756  23.755  26.466  1.00  0.00     0.071 C 
BRANCH   9  14
ATOM     14  C   UNL A   1      32.327  22.533  23.217  1.00  0.00     0.177 C 
ATOM     15  C   UNL A   1      33.719  23.027  22.801  1.00  0.00     0.075 C 
ATOM     16  C   UNL A   1      31.984  21.250  22.451  1.00  0.00     0.075 C 
ENDBRANCH   9  14
ENDBRANCH   7   8
ENDBRANCH   4   7
ENDBRANCH   2   3
ENDBRANCH   1   2
BRANCH   1  17
ATOM     17  C   UNL A   1      38.702  20.233  25.655  1.00  0.00     0.118 C 
BRANCH  17  18
ATOM     18  N   UNL A   1      39.805  19.289  25.735  1.00  0.00    -0.352 N 
ATOM     19  C   UNL A   1      41.120  19.490  26.076  1.00  0.00     0.251 C 
ATOM     20  H   UNL A   1      39.573  18.359  25.511  1.00  0.00     0.163 HD
ATOM     21  O   UNL A   1      41.925  18.572  25.928  1.00  0.00    -0.269 OA
BRANCH  19  22
ATOM     22  C   UNL A   1      41.594  20.795  26.593  1.00  0.00     0.039 A 
ATOM     23  C   UNL A   1      42.003  21.767  25.674  1.00  0.00     0.014 A 
ATOM     24  C   UNL A   1      41.689  21.055  27.964  1.00  0.00     0.014 A 
ATOM     25  C   UNL A   1      42.452  23.013  26.122  1.00  0.00     0.010 A 
ATOM     26  C   UNL A   1      42.079  22.320  28.409  1.00  0.00     0.010 A 
ATOM     27  C   UNL A   1      42.466  23.310  27.493  1.00  0.00    -0.014 A 
BRANCH  27  28
ATOM     28  C   UNL A   1      42.879  24.652  27.982  1.00  0.00     0.031 A 
ATOM     29  C   UNL A   1      41.852  25.715  28.259  1.00  0.00     0.074 A 
ATOM     30  C   UNL A   1      44.187  24.938  28.119  1.00  0.00     0.049 A 
ATOM     31  N   UNL A   1      42.028  26.959  28.627  1.00  0.00    -0.248 NA
ATOM     32  C   UNL A   1      40.444  25.336  28.072  1.00  0.00     0.031 C 
ATOM     33  C   UNL A   1      45.288  24.014  27.841  1.00  0.00     0.029 A 
ATOM     34  N   UNL A   1      44.815  26.094  28.512  1.00  0.00    -0.354 N 
ATOM     35  C   UNL A   1      40.758  27.517  28.698  1.00  0.00     0.074 A 
ATOM     36  C   UNL A   1      39.824  26.486  28.296  1.00  0.00     0.031 C 
ATOM     37  C   UNL A   1      46.454  24.635  28.083  1.00  0.00     0.029 A 
ATOM     38  C   UNL A   1      46.184  26.007  28.503  1.00  0.00     0.049 A 
ATOM     39  H   UNL A   1      44.327  26.908  28.775  1.00  0.00     0.167 HD
ATOM     40  C   UNL A   1      40.400  28.767  29.077  1.00  0.00     0.037 A 
ATOM     41  C   UNL A   1      47.122  26.930  28.792  1.00  0.00     0.037 A 
ATOM     42  C   UNL A   1      41.323  29.786  29.505  1.00  0.00     0.049 A 
ATOM     43  C   UNL A   1      46.702  28.305  29.224  1.00  0.00     0.074 A 
ATOM     44  C   UNL A   1      41.048  31.056  29.981  1.00  0.00     0.029 A 
ATOM     45  N   UNL A   1      42.703  29.651  29.504  1.00  0.00    -0.354 N 
ATOM     46  N   UNL A   1      45.494  28.797  29.352  1.00  0.00    -0.248 NA
ATOM     47  C   UNL A   1      47.776  29.252  29.558  1.00  0.00     0.031 C 
ATOM     48  C   UNL A   1      42.263  31.704  30.233  1.00  0.00     0.029 A 
ATOM     49  C   UNL A   1      43.294  30.823  29.949  1.00  0.00     0.049 A 
ATOM     50  H   UNL A   1      43.191  28.842  29.227  1.00  0.00     0.167 HD
ATOM     51  C   UNL A   1      45.660  30.102  29.797  1.00  0.00     0.074 A 
ATOM     52  C   UNL A   1      47.085  30.322  29.929  1.00  0.00     0.031 C 
ATOM     53  C   UNL A   1      44.714  31.032  30.071  1.00  0.00     0.037 A 
BRANCH  40  54
ATOM     54  C   UNL A   1      38.938  29.101  29.044  1.00  0.00     0.057 A 
ATOM     55  C   UNL A   1      38.307  29.542  27.872  1.00  0.00     0.134 A 
ATOM     56  C   UNL A   1      38.147  28.966  30.192  1.00  0.00     0.134 A 
ATOM     57  F   UNL A   1      39.012  29.703  26.741  1.00  0.00    -0.206 F 
ATOM     58  C   UNL A   1      36.950  29.866  27.852  1.00  0.00     0.040 A 
ATOM     59  C   UNL A   1      36.783  29.264  30.177  1.00  0.00     0.040 A 
ATOM     60  F   UNL A   1      38.686  28.542  31.345  1.00  0.00    -0.206 F 
ATOM     61  C   UNL A   1      36.184  29.723  29.006  1.00  0.00     0.006 A 
ENDBRANCH  40  54
BRANCH  41  62
ATOM     62  C   UNL A   1      48.556  26.565  28.703  1.00  0.00     0.057 A 
ATOM     63  C   UNL A   1      49.236  26.045  29.810  1.00  0.00     0.134 A 
ATOM     64  C   UNL A   1      49.270  26.703  27.508  1.00  0.00     0.134 A 
ATOM     65  F   UNL A   1      48.607  25.909  30.985  1.00  0.00    -0.206 F 
ATOM     66  C   UNL A   1      50.582  25.681  29.733  1.00  0.00     0.040 A 
ATOM     67  C   UNL A   1      50.610  26.326  27.412  1.00  0.00     0.040 A 
ATOM     68  F   UNL A   1      48.670  27.189  26.412  1.00  0.00    -0.206 F 
ATOM     69  C   UNL A   1      51.270  25.814  28.529  1.00  0.00     0.006 A 
ENDBRANCH  41  62
BRANCH  53  70
ATOM     70  C   UNL A   1      45.189  32.369  30.559  1.00  0.00     0.057 A 
ATOM     71  C   UNL A   1      45.410  32.619  31.919  1.00  0.00     0.134 A 
ATOM     72  C   UNL A   1      45.461  33.404  29.657  1.00  0.00     0.134 A 
ATOM     73  F   UNL A   1      45.153  31.673  32.835  1.00  0.00    -0.206 F 
ATOM     74  C   UNL A   1      45.870  33.859  32.366  1.00  0.00     0.040 A 
ATOM     75  C   UNL A   1      45.942  34.640  30.089  1.00  0.00     0.040 A 
ATOM     76  F   UNL A   1      45.276  33.225  28.340  1.00  0.00    -0.206 F 
ATOM     77  C   UNL A   1      46.142  34.872  31.449  1.00  0.00     0.006 A 
ENDBRANCH  53  70
ENDBRANCH  27  28
ENDBRANCH  19  22
ENDBRANCH  17  18
ENDBRANCH   1  17
TORSDOF 12
ENDMDL
