MODEL 1
REMARK VINA RESULT:     -13.4      0.000      0.000
REMARK SMILES CC1(C)O[C@@H]2C[C@@H]3[C@H]4CCC5=CC(=O)C=C[C@@]5(C)[C@]4(F)[C@H](O)C[C@]3(C)[C@]2(C(=O)NCCCNC(=O)c2ccc(-c3c4nc(c(-c5c(F)cccc5F)c5ccc([nH]5)c(-c5c(F)cccc5F)c5nc(c(-c6c(F)cccc6F)c6ccc3[nH]6)C=C5)C=C4)cc2)O1
REMARK SMILES IDX 31 1 30 2 29 3 27 4 28 5 26 7 1 8 2 9 4 10 90 11 3 12 5 13
REMARK SMILES IDX 6 14 24 15 7 16 23 17 25 18 8 19 21 20 9 21 19 22 10 23
REMARK SMILES IDX 17 24 20 25 11 26 16 27 18 28 12 29 15 30 13 31 14 32 22 33
REMARK SMILES IDX 32 35 33 36 34 37 35 39 36 40 37 41 89 42 38 43 88 44 39 45
REMARK SMILES IDX 40 46 41 47 82 48 42 49 87 50 81 51 83 52 43 53 86 54 80 55
REMARK SMILES IDX 79 56 44 58 70 59 53 60 69 61 54 62 57 63 68 64 84 65 55 66
REMARK SMILES IDX 56 67 67 69 85 70 58 71 45 72 46 73 51 74 47 75 48 76 50 77
REMARK SMILES IDX 52 78 49 79 71 80 72 81 77 82 73 83 74 84 76 85 78 86 75 87
REMARK SMILES IDX 59 88 60 89 65 90 61 91 62 92 64 93 66 94 63 95
REMARK H PARENT 29 6 22 34 33 38 83 57 57 68
REMARK Flexibility Score: inf
ROOT
ATOM      1  C   UNL A   1      37.246  20.562  24.527  1.00  0.00     0.042 C 
ENDROOT
BRANCH   1   2
ATOM      2  C   UNL A   1      36.012  20.020  25.233  1.00  0.00     0.117 C 
BRANCH   2   3
ATOM      3  N   UNL A   1      34.847  20.227  24.412  1.00  0.00    -0.353 N 
ATOM      4  C   UNL A   1      33.932  21.219  24.387  1.00  0.00     0.255 C 
ATOM      5  O   UNL A   1      32.901  20.945  23.753  1.00  0.00    -0.272 OA
ATOM      6  H   UNL A   1      34.688  19.517  23.749  1.00  0.00     0.163 HD
BRANCH   4   7
ATOM      7  C   UNL A   1      34.159  22.630  24.944  1.00  0.00     0.181 C 
ATOM      8  C   UNL A   1      32.657  21.718  27.777  1.00  0.00     0.075 C 
ATOM      9  C   UNL A   1      33.238  22.947  27.089  1.00  0.00     0.164 C 
ATOM     10  O   UNL A   1      34.658  22.970  27.268  1.00  0.00    -0.344 OA
ATOM     11  O   UNL A   1      32.921  22.865  25.691  1.00  0.00    -0.331 OA
ATOM     12  C   UNL A   1      32.639  24.221  27.707  1.00  0.00     0.075 C 
ATOM     13  C   UNL A   1      35.251  23.077  25.967  1.00  0.00     0.164 C 
ATOM     14  C   UNL A   1      35.577  24.611  25.634  1.00  0.00     0.040 C 
ATOM     15  C   UNL A   1      34.326  23.695  23.773  1.00  0.00     0.014 C 
ATOM     16  C   UNL A   1      34.416  24.952  24.681  1.00  0.00     0.008 C 
ATOM     17  C   UNL A   1      33.277  23.816  22.646  1.00  0.00     0.046 C 
ATOM     18  C   UNL A   1      35.648  23.387  22.996  1.00  0.00     0.015 C 
ATOM     19  C   UNL A   1      33.329  26.051  24.652  1.00  0.00     0.035 C 
ATOM     20  C   UNL A   1      32.075  24.718  22.887  1.00  0.00     0.154 C 
ATOM     21  C   UNL A   1      33.776  27.392  25.216  1.00  0.00     0.012 C 
ATOM     22  C   UNL A   1      32.484  26.148  23.378  1.00  0.00     0.152 C 
ATOM     23  C   UNL A   1      32.524  28.134  25.678  1.00  0.00     0.032 C 
ATOM     24  C   UNL A   1      31.243  27.131  23.626  1.00  0.00     0.044 C 
ATOM     25  F   UNL A   1      33.305  26.697  22.422  1.00  0.00    -0.239 F 
ATOM     26  C   UNL A   1      31.552  28.328  24.548  1.00  0.00    -0.053 C 
ATOM     27  C   UNL A   1      30.708  27.669  22.298  1.00  0.00    -0.009 C 
ATOM     28  C   UNL A   1      30.030  26.394  24.276  1.00  0.00     0.024 C 
ATOM     29  C   UNL A   1      30.881  29.491  24.437  1.00  0.00     0.052 C 
ATOM     30  C   UNL A   1      29.856  28.710  22.271  1.00  0.00     0.048 C 
ATOM     31  C   UNL A   1      29.821  29.649  23.415  1.00  0.00     0.178 C 
ATOM     32  O   UNL A   1      28.994  30.547  23.484  1.00  0.00    -0.290 OA
BRANCH  20  33
ATOM     33  O   UNL A   1      31.210  24.028  23.779  1.00  0.00    -0.390 OA
ATOM     34  H   UNL A   1      30.830  24.656  24.413  1.00  0.00     0.211 HD
ENDBRANCH  20  33
ENDBRANCH   4   7
ENDBRANCH   2   3
ENDBRANCH   1   2
BRANCH   1  35
ATOM     35  C   UNL A   1      38.367  20.873  25.514  1.00  0.00     0.118 C 
BRANCH  35  36
ATOM     36  N   UNL A   1      39.275  19.737  25.664  1.00  0.00    -0.352 N 
ATOM     37  C   UNL A   1      40.610  19.735  25.948  1.00  0.00     0.251 C 
ATOM     38  H   UNL A   1      38.866  18.849  25.543  1.00  0.00     0.163 HD
ATOM     39  O   UNL A   1      41.294  18.731  25.716  1.00  0.00    -0.269 OA
BRANCH  37  40
ATOM     40  C   UNL A   1      41.225  20.936  26.529  1.00  0.00     0.039 A 
ATOM     41  C   UNL A   1      41.857  21.860  25.697  1.00  0.00     0.014 A 
ATOM     42  C   UNL A   1      41.150  21.150  27.909  1.00  0.00     0.014 A 
ATOM     43  C   UNL A   1      42.346  23.046  26.243  1.00  0.00     0.010 A 
ATOM     44  C   UNL A   1      41.556  22.366  28.436  1.00  0.00     0.010 A 
ATOM     45  C   UNL A   1      42.152  23.327  27.607  1.00  0.00    -0.014 A 
BRANCH  45  46
ATOM     46  C   UNL A   1      42.537  24.634  28.188  1.00  0.00     0.031 A 
ATOM     47  C   UNL A   1      41.507  25.712  28.361  1.00  0.00     0.074 A 
ATOM     48  C   UNL A   1      43.832  24.872  28.470  1.00  0.00     0.049 A 
ATOM     49  N   UNL A   1      41.667  26.951  28.750  1.00  0.00    -0.248 NA
ATOM     50  C   UNL A   1      40.117  25.361  28.027  1.00  0.00     0.031 C 
ATOM     51  C   UNL A   1      44.927  23.916  28.288  1.00  0.00     0.029 A 
ATOM     52  N   UNL A   1      44.451  25.998  28.950  1.00  0.00    -0.354 N 
ATOM     53  C   UNL A   1      40.404  27.526  28.701  1.00  0.00     0.074 A 
ATOM     54  C   UNL A   1      39.499  26.523  28.186  1.00  0.00     0.031 C 
ATOM     55  C   UNL A   1      46.080  24.491  28.666  1.00  0.00     0.029 A 
ATOM     56  C   UNL A   1      45.814  25.867  29.069  1.00  0.00     0.049 A 
ATOM     57  H   UNL A   1      43.965  26.821  29.186  1.00  0.00     0.167 HD
ATOM     58  C   UNL A   1      40.031  28.771  29.077  1.00  0.00     0.037 A 
ATOM     59  C   UNL A   1      46.745  26.765  29.440  1.00  0.00     0.037 A 
ATOM     60  C   UNL A   1      40.939  29.760  29.596  1.00  0.00     0.049 A 
ATOM     61  C   UNL A   1      46.310  28.153  29.818  1.00  0.00     0.074 A 
ATOM     62  C   UNL A   1      40.654  31.033  30.058  1.00  0.00     0.029 A 
ATOM     63  N   UNL A   1      42.311  29.589  29.713  1.00  0.00    -0.354 N 
ATOM     64  N   UNL A   1      45.101  28.660  29.843  1.00  0.00    -0.248 NA
ATOM     65  C   UNL A   1      47.365  29.094  30.217  1.00  0.00     0.031 C 
ATOM     66  C   UNL A   1      41.861  31.651  30.403  1.00  0.00     0.029 A 
ATOM     67  C   UNL A   1      42.891  30.744  30.207  1.00  0.00     0.049 A 
ATOM     68  H   UNL A   1      42.799  28.766  29.478  1.00  0.00     0.167 HD
ATOM     69  C   UNL A   1      45.248  29.971  30.275  1.00  0.00     0.074 A 
ATOM     70  C   UNL A   1      46.661  30.173  30.523  1.00  0.00     0.031 C 
ATOM     71  C   UNL A   1      44.301  30.926  30.445  1.00  0.00     0.037 A 
BRANCH  58  72
ATOM     72  C   UNL A   1      38.580  29.131  28.944  1.00  0.00     0.057 A 
ATOM     73  C   UNL A   1      37.697  29.043  30.030  1.00  0.00     0.134 A 
ATOM     74  C   UNL A   1      38.065  29.606  27.731  1.00  0.00     0.134 A 
ATOM     75  F   UNL A   1      38.121  28.585  31.217  1.00  0.00    -0.206 F 
ATOM     76  C   UNL A   1      36.350  29.390  29.906  1.00  0.00     0.040 A 
ATOM     77  C   UNL A   1      36.727  29.984  27.603  1.00  0.00     0.040 A 
ATOM     78  F   UNL A   1      38.856  29.719  26.653  1.00  0.00    -0.206 F 
ATOM     79  C   UNL A   1      35.865  29.869  28.691  1.00  0.00     0.006 A 
ENDBRANCH  58  72
BRANCH  59  80
ATOM     80  C   UNL A   1      48.180  26.380  29.464  1.00  0.00     0.057 A 
ATOM     81  C   UNL A   1      48.766  25.837  30.614  1.00  0.00     0.134 A 
ATOM     82  C   UNL A   1      49.001  26.551  28.342  1.00  0.00     0.134 A 
ATOM     83  F   UNL A   1      48.036  25.663  31.725  1.00  0.00    -0.206 F 
ATOM     84  C   UNL A   1      50.119  25.499  30.654  1.00  0.00     0.040 A 
ATOM     85  C   UNL A   1      50.349  26.191  28.360  1.00  0.00     0.040 A 
ATOM     86  F   UNL A   1      48.500  27.057  27.206  1.00  0.00    -0.206 F 
ATOM     87  C   UNL A   1      50.914  25.672  29.523  1.00  0.00     0.006 A 
ENDBRANCH  59  80
BRANCH  71  88
ATOM     88  C   UNL A   1      44.758  32.269  30.932  1.00  0.00     0.057 A 
ATOM     89  C   UNL A   1      45.081  33.303  30.044  1.00  0.00     0.134 A 
ATOM     90  C   UNL A   1      44.823  32.549  32.303  1.00  0.00     0.134 A 
ATOM     91  F   UNL A   1      45.053  33.095  28.719  1.00  0.00    -0.206 F 
ATOM     92  C   UNL A   1      45.468  34.563  30.503  1.00  0.00     0.040 A 
ATOM     93  C   UNL A   1      45.180  33.813  32.773  1.00  0.00     0.040 A 
ATOM     94  F   UNL A   1      44.517  31.605  33.207  1.00  0.00    -0.206 F 
ATOM     95  C   UNL A   1      45.508  34.823  31.871  1.00  0.00     0.006 A 
ENDBRANCH  71  88
ENDBRANCH  45  46
ENDBRANCH  37  40
ENDBRANCH  35  36
ENDBRANCH   1  35
TORSDOF 11
ENDMDL
MODEL 2
REMARK VINA RESULT:     -13.3      0.401      5.993
REMARK SMILES CC1(C)O[C@@H]2C[C@@H]3[C@H]4CCC5=CC(=O)C=C[C@@]5(C)[C@]4(F)[C@H](O)C[C@]3(C)[C@]2(C(=O)NCCCNC(=O)c2ccc(-c3c4nc(c(-c5c(F)cccc5F)c5ccc([nH]5)c(-c5c(F)cccc5F)c5nc(c(-c6c(F)cccc6F)c6ccc3[nH]6)C=C5)C=C4)cc2)O1
REMARK SMILES IDX 31 1 30 2 29 3 27 4 28 5 26 7 1 8 2 9 4 10 90 11 3 12 5 13
REMARK SMILES IDX 6 14 24 15 7 16 23 17 25 18 8 19 21 20 9 21 19 22 10 23
REMARK SMILES IDX 17 24 20 25 11 26 16 27 18 28 12 29 15 30 13 31 14 32 22 33
REMARK SMILES IDX 32 35 33 36 34 37 35 39 36 40 37 41 89 42 38 43 88 44 39 45
REMARK SMILES IDX 40 46 41 47 82 48 42 49 87 50 81 51 83 52 43 53 86 54 80 55
REMARK SMILES IDX 79 56 44 58 70 59 53 60 69 61 54 62 57 63 68 64 84 65 55 66
REMARK SMILES IDX 56 67 67 69 85 70 58 71 45 72 46 73 51 74 47 75 48 76 50 77
REMARK SMILES IDX 52 78 49 79 71 80 72 81 77 82 73 83 74 84 76 85 78 86 75 87
REMARK SMILES IDX 59 88 60 89 65 90 61 91 62 92 64 93 66 94 63 95
REMARK H PARENT 29 6 22 34 33 38 83 57 57 68
REMARK Flexibility Score: inf
ROOT
ATOM      1  C   UNL A   1      37.443  20.226  24.536  1.00  0.00     0.042 C 
ENDROOT
BRANCH   1   2
ATOM      2  C   UNL A   1      36.162  19.921  25.298  1.00  0.00     0.117 C 
BRANCH   2   3
ATOM      3  N   UNL A   1      35.022  20.134  24.444  1.00  0.00    -0.353 N 
ATOM      4  C   UNL A   1      34.104  21.122  24.403  1.00  0.00     0.255 C 
ATOM      5  O   UNL A   1      33.094  20.852  23.735  1.00  0.00    -0.272 OA
ATOM      6  H   UNL A   1      34.887  19.431  23.768  1.00  0.00     0.163 HD
BRANCH   4   7
ATOM      7  C   UNL A   1      34.308  22.527  24.984  1.00  0.00     0.181 C 
ATOM      8  C   UNL A   1      32.729  21.573  27.761  1.00  0.00     0.075 C 
ATOM      9  C   UNL A   1      33.323  22.813  27.105  1.00  0.00     0.164 C 
ATOM     10  O   UNL A   1      34.737  22.841  27.325  1.00  0.00    -0.344 OA
ATOM     11  O   UNL A   1      33.047  22.747  25.698  1.00  0.00    -0.331 OA
ATOM     12  C   UNL A   1      32.700  24.077  27.721  1.00  0.00     0.075 C 
ATOM     13  C   UNL A   1      35.367  22.967  26.043  1.00  0.00     0.164 C 
ATOM     14  C   UNL A   1      35.695  24.506  25.740  1.00  0.00     0.040 C 
ATOM     15  C   UNL A   1      34.503  23.608  23.831  1.00  0.00     0.014 C 
ATOM     16  C   UNL A   1      34.560  24.854  24.757  1.00  0.00     0.008 C 
ATOM     17  C   UNL A   1      33.486  23.738  22.676  1.00  0.00     0.046 C 
ATOM     18  C   UNL A   1      35.849  23.315  23.090  1.00  0.00     0.015 C 
ATOM     19  C   UNL A   1      33.470  25.948  24.711  1.00  0.00     0.035 C 
ATOM     20  C   UNL A   1      32.274  24.631  22.894  1.00  0.00     0.154 C 
ATOM     21  C   UNL A   1      33.893  27.283  25.303  1.00  0.00     0.012 C 
ATOM     22  C   UNL A   1      32.661  26.057  23.414  1.00  0.00     0.152 C 
ATOM     23  C   UNL A   1      32.625  28.014  25.738  1.00  0.00     0.032 C 
ATOM     24  C   UNL A   1      31.409  27.031  23.637  1.00  0.00     0.044 C 
ATOM     25  F   UNL A   1      33.507  26.621  22.489  1.00  0.00    -0.239 F 
ATOM     26  C   UNL A   1      31.685  28.218  24.583  1.00  0.00    -0.053 C 
ATOM     27  C   UNL A   1      30.910  27.583  22.301  1.00  0.00    -0.009 C 
ATOM     28  C   UNL A   1      30.181  26.281  24.243  1.00  0.00     0.024 C 
ATOM     29  C   UNL A   1      31.012  29.379  24.467  1.00  0.00     0.052 C 
ATOM     30  C   UNL A   1      30.054  28.620  22.262  1.00  0.00     0.048 C 
ATOM     31  C   UNL A   1      29.981  29.545  23.416  1.00  0.00     0.178 C 
ATOM     32  O   UNL A   1      29.148  30.438  23.472  1.00  0.00    -0.290 OA
BRANCH  20  33
ATOM     33  O   UNL A   1      31.386  23.926  23.751  1.00  0.00    -0.390 OA
ATOM     34  H   UNL A   1      31.805  23.799  24.617  1.00  0.00     0.211 HD
ENDBRANCH  20  33
ENDBRANCH   4   7
ENDBRANCH   2   3
ENDBRANCH   1   2
BRANCH   1  35
ATOM     35  C   UNL A   1      38.566  20.659  25.474  1.00  0.00     0.118 C 
BRANCH  35  36
ATOM     36  N   UNL A   1      39.529  19.580  25.686  1.00  0.00    -0.352 N 
ATOM     37  C   UNL A   1      40.859  19.660  25.983  1.00  0.00     0.251 C 
ATOM     38  H   UNL A   1      39.168  18.668  25.603  1.00  0.00     0.163 HD
ATOM     39  O   UNL A   1      41.597  18.684  25.806  1.00  0.00    -0.269 OA
BRANCH  37  40
ATOM     40  C   UNL A   1      41.403  20.917  26.515  1.00  0.00     0.039 A 
ATOM     41  C   UNL A   1      42.067  21.799  25.660  1.00  0.00     0.014 A 
ATOM     42  C   UNL A   1      41.231  21.226  27.867  1.00  0.00     0.014 A 
ATOM     43  C   UNL A   1      42.488  23.034  26.150  1.00  0.00     0.010 A 
ATOM     44  C   UNL A   1      41.571  22.488  28.330  1.00  0.00     0.010 A 
ATOM     45  C   UNL A   1      42.197  23.405  27.474  1.00  0.00    -0.014 A 
BRANCH  45  46
ATOM     46  C   UNL A   1      42.509  24.761  27.983  1.00  0.00     0.031 A 
ATOM     47  C   UNL A   1      43.893  25.083  28.465  1.00  0.00     0.074 A 
ATOM     48  C   UNL A   1      41.517  25.665  28.092  1.00  0.00     0.049 A 
ATOM     49  N   UNL A   1      44.333  26.173  29.040  1.00  0.00    -0.248 NA
ATOM     50  C   UNL A   1      44.913  24.033  28.305  1.00  0.00     0.031 C 
ATOM     51  C   UNL A   1      40.121  25.441  27.708  1.00  0.00     0.029 A 
ATOM     52  N   UNL A   1      41.525  26.947  28.579  1.00  0.00    -0.354 N 
ATOM     53  C   UNL A   1      45.674  25.936  29.315  1.00  0.00     0.074 A 
ATOM     54  C   UNL A   1      45.961  24.581  28.902  1.00  0.00     0.031 C 
ATOM     55  C   UNL A   1      39.413  26.553  27.959  1.00  0.00     0.029 A 
ATOM     56  C   UNL A   1      40.289  27.547  28.566  1.00  0.00     0.049 A 
ATOM     57  H   UNL A   1      42.339  27.394  28.907  1.00  0.00     0.167 HD
ATOM     58  C   UNL A   1      46.587  26.785  29.841  1.00  0.00     0.037 A 
ATOM     59  C   UNL A   1      39.903  28.756  29.015  1.00  0.00     0.037 A 
ATOM     60  C   UNL A   1      46.293  28.136  30.242  1.00  0.00     0.049 A 
ATOM     61  C   UNL A   1      40.929  29.667  29.629  1.00  0.00     0.074 A 
ATOM     62  C   UNL A   1      47.158  29.097  30.734  1.00  0.00     0.029 A 
ATOM     63  N   UNL A   1      45.032  28.714  30.203  1.00  0.00    -0.354 N 
ATOM     64  N   UNL A   1      42.212  29.461  29.811  1.00  0.00    -0.248 NA
ATOM     65  C   UNL A   1      40.458  30.975  30.101  1.00  0.00     0.031 C 
ATOM     66  C   UNL A   1      46.411  30.237  31.045  1.00  0.00     0.029 A 
ATOM     67  C   UNL A   1      45.089  30.006  30.696  1.00  0.00     0.049 A 
ATOM     68  H   UNL A   1      44.216  28.270  29.874  1.00  0.00     0.167 HD
ATOM     69  C   UNL A   1      42.702  30.617  30.402  1.00  0.00     0.074 A 
ATOM     70  C   UNL A   1      41.584  31.530  30.526  1.00  0.00     0.031 C 
ATOM     71  C   UNL A   1      43.963  30.898  30.813  1.00  0.00     0.037 A 
BRANCH  58  72
ATOM     72  C   UNL A   1      47.990  26.278  30.009  1.00  0.00     0.057 A 
ATOM     73  C   UNL A   1      48.931  26.357  28.972  1.00  0.00     0.134 A 
ATOM     74  C   UNL A   1      48.419  25.741  31.229  1.00  0.00     0.134 A 
ATOM     75  F   UNL A   1      48.583  26.850  27.774  1.00  0.00    -0.206 F 
ATOM     76  C   UNL A   1      50.238  25.895  29.136  1.00  0.00     0.040 A 
ATOM     77  C   UNL A   1      49.732  25.304  31.414  1.00  0.00     0.040 A 
ATOM     78  F   UNL A   1      47.571  25.641  32.265  1.00  0.00    -0.206 F 
ATOM     79  C   UNL A   1      50.643  25.374  30.363  1.00  0.00     0.006 A 
ENDBRANCH  58  72
BRANCH  59  80
ATOM     80  C   UNL A   1      38.481  29.170  28.907  1.00  0.00     0.057 A 
ATOM     81  C   UNL A   1      37.962  29.676  27.709  1.00  0.00     0.134 A 
ATOM     82  C   UNL A   1      37.608  29.076  29.999  1.00  0.00     0.134 A 
ATOM     83  F   UNL A   1      38.751  29.804  26.633  1.00  0.00    -0.206 F 
ATOM     84  C   UNL A   1      36.634  30.093  27.607  1.00  0.00     0.040 A 
ATOM     85  C   UNL A   1      36.271  29.463  29.902  1.00  0.00     0.040 A 
ATOM     86  F   UNL A   1      38.040  28.591  31.172  1.00  0.00    -0.206 F 
ATOM     87  C   UNL A   1      35.783  29.983  28.705  1.00  0.00     0.006 A 
ENDBRANCH  59  80
BRANCH  71  88
ATOM     88  C   UNL A   1      44.203  32.248  31.423  1.00  0.00     0.057 A 
ATOM     89  C   UNL A   1      44.132  32.452  32.807  1.00  0.00     0.134 A 
ATOM     90  C   UNL A   1      44.563  33.340  30.624  1.00  0.00     0.134 A 
ATOM     91  F   UNL A   1      43.778  31.450  33.625  1.00  0.00    -0.206 F 
ATOM     92  C   UNL A   1      44.394  33.701  33.372  1.00  0.00     0.040 A 
ATOM     93  C   UNL A   1      44.857  34.585  31.180  1.00  0.00     0.040 A 
ATOM     94  F   UNL A   1      44.659  33.209  29.292  1.00  0.00    -0.206 F 
ATOM     95  C   UNL A   1      44.768  34.769  32.558  1.00  0.00     0.006 A 
ENDBRANCH  71  88
ENDBRANCH  45  46
ENDBRANCH  37  40
ENDBRANCH  35  36
ENDBRANCH   1  35
TORSDOF 11
ENDMDL
MODEL 3
REMARK VINA RESULT:     -13.2      4.251      9.100
REMARK SMILES CC1(C)O[C@@H]2C[C@@H]3[C@H]4CCC5=CC(=O)C=C[C@@]5(C)[C@]4(F)[C@H](O)C[C@]3(C)[C@]2(C(=O)NCCCNC(=O)c2ccc(-c3c4nc(c(-c5c(F)cccc5F)c5ccc([nH]5)c(-c5c(F)cccc5F)c5nc(c(-c6c(F)cccc6F)c6ccc3[nH]6)C=C5)C=C4)cc2)O1
REMARK SMILES IDX 31 1 30 2 29 3 27 4 28 5 26 7 1 8 2 9 4 10 90 11 3 12 5 13
REMARK SMILES IDX 6 14 24 15 7 16 23 17 25 18 8 19 21 20 9 21 19 22 10 23
REMARK SMILES IDX 17 24 20 25 11 26 16 27 18 28 12 29 15 30 13 31 14 32 22 33
REMARK SMILES IDX 32 35 33 36 34 37 35 39 36 40 37 41 89 42 38 43 88 44 39 45
REMARK SMILES IDX 40 46 41 47 82 48 42 49 87 50 81 51 83 52 43 53 86 54 80 55
REMARK SMILES IDX 79 56 44 58 70 59 53 60 69 61 54 62 57 63 68 64 84 65 55 66
REMARK SMILES IDX 56 67 67 69 85 70 58 71 45 72 46 73 51 74 47 75 48 76 50 77
REMARK SMILES IDX 52 78 49 79 71 80 72 81 77 82 73 83 74 84 76 85 78 86 75 87
REMARK SMILES IDX 59 88 60 89 65 90 61 91 62 92 64 93 66 94 63 95
REMARK H PARENT 29 6 22 34 33 38 83 57 57 68
REMARK Flexibility Score: inf
ROOT
ATOM      1  C   UNL A   1      31.222  32.780  26.203  1.00  0.00     0.042 C 
ENDROOT
BRANCH   1   2
ATOM      2  C   UNL A   1      31.160  31.385  25.597  1.00  0.00     0.117 C 
BRANCH   2   3
ATOM      3  N   UNL A   1      31.354  30.395  26.626  1.00  0.00    -0.353 N 
ATOM      4  C   UNL A   1      31.598  29.070  26.560  1.00  0.00     0.255 C 
ATOM      5  O   UNL A   1      31.427  28.467  27.630  1.00  0.00    -0.272 OA
ATOM      6  H   UNL A   1      31.299  30.749  27.542  1.00  0.00     0.163 HD
BRANCH   4   7
ATOM      7  C   UNL A   1      32.182  28.349  25.337  1.00  0.00     0.181 C 
ATOM      8  C   UNL A   1      29.434  29.115  23.612  1.00  0.00     0.075 C 
ATOM      9  C   UNL A   1      30.722  28.310  23.490  1.00  0.00     0.164 C 
ATOM     10  O   UNL A   1      31.797  29.180  23.118  1.00  0.00    -0.344 OA
ATOM     11  O   UNL A   1      30.995  27.710  24.765  1.00  0.00    -0.331 OA
ATOM     12  C   UNL A   1      30.560  27.231  22.406  1.00  0.00     0.075 C 
ATOM     13  C   UNL A   1      32.842  29.002  24.083  1.00  0.00     0.164 C 
ATOM     14  C   UNL A   1      33.919  27.946  23.540  1.00  0.00     0.040 C 
ATOM     15  C   UNL A   1      33.261  27.260  25.768  1.00  0.00     0.014 C 
ATOM     16  C   UNL A   1      33.525  26.694  24.346  1.00  0.00     0.008 C 
ATOM     17  C   UNL A   1      32.929  26.177  26.818  1.00  0.00     0.046 C 
ATOM     18  C   UNL A   1      34.495  27.993  26.391  1.00  0.00     0.015 C 
ATOM     19  C   UNL A   1      33.156  25.240  23.972  1.00  0.00     0.035 C 
ATOM     20  C   UNL A   1      32.271  24.894  26.331  1.00  0.00     0.154 C 
ATOM     21  C   UNL A   1      33.882  24.701  22.749  1.00  0.00     0.012 C 
ATOM     22  C   UNL A   1      33.036  24.243  25.129  1.00  0.00     0.152 C 
ATOM     23  C   UNL A   1      33.024  23.583  22.163  1.00  0.00     0.032 C 
ATOM     24  C   UNL A   1      32.380  22.880  24.602  1.00  0.00     0.044 C 
ATOM     25  F   UNL A   1      34.321  23.989  25.543  1.00  0.00    -0.239 F 
ATOM     26  C   UNL A   1      32.787  22.489  23.166  1.00  0.00    -0.053 C 
ATOM     27  C   UNL A   1      32.726  21.718  25.535  1.00  0.00    -0.009 C 
ATOM     28  C   UNL A   1      30.819  22.939  24.600  1.00  0.00     0.024 C 
ATOM     29  C   UNL A   1      32.812  21.202  22.769  1.00  0.00     0.052 C 
ATOM     30  C   UNL A   1      32.517  20.445  25.155  1.00  0.00     0.048 C 
ATOM     31  C   UNL A   1      32.446  20.121  23.713  1.00  0.00     0.178 C 
ATOM     32  O   UNL A   1      32.155  19.000  23.320  1.00  0.00    -0.290 OA
BRANCH  20  33
ATOM     33  O   UNL A   1      30.912  25.204  26.049  1.00  0.00    -0.390 OA
ATOM     34  H   UNL A   1      30.756  25.136  25.095  1.00  0.00     0.211 HD
ENDBRANCH  20  33
ENDBRANCH   4   7
ENDBRANCH   2   3
ENDBRANCH   1   2
BRANCH   1  35
ATOM     35  C   UNL A   1      32.357  32.903  27.215  1.00  0.00     0.118 C 
BRANCH  35  36
ATOM     36  N   UNL A   1      32.457  34.263  27.741  1.00  0.00    -0.352 N 
ATOM     37  C   UNL A   1      33.263  34.745  28.732  1.00  0.00     0.251 C 
ATOM     38  H   UNL A   1      31.859  34.924  27.322  1.00  0.00     0.163 HD
ATOM     39  O   UNL A   1      33.000  35.821  29.280  1.00  0.00    -0.269 OA
BRANCH  37  40
ATOM     40  C   UNL A   1      34.445  33.971  29.139  1.00  0.00     0.039 A 
ATOM     41  C   UNL A   1      35.716  34.398  28.753  1.00  0.00     0.014 A 
ATOM     42  C   UNL A   1      34.282  32.828  29.927  1.00  0.00     0.014 A 
ATOM     43  C   UNL A   1      36.836  33.719  29.229  1.00  0.00     0.010 A 
ATOM     44  C   UNL A   1      35.397  32.208  30.470  1.00  0.00     0.010 A 
ATOM     45  C   UNL A   1      36.683  32.651  30.131  1.00  0.00    -0.014 A 
BRANCH  45  46
ATOM     46  C   UNL A   1      37.854  31.998  30.761  1.00  0.00     0.031 A 
ATOM     47  C   UNL A   1      38.580  30.900  30.041  1.00  0.00     0.074 A 
ATOM     48  C   UNL A   1      38.199  32.339  32.017  1.00  0.00     0.049 A 
ATOM     49  N   UNL A   1      39.555  30.139  30.467  1.00  0.00    -0.248 NA
ATOM     50  C   UNL A   1      38.134  30.596  28.671  1.00  0.00     0.031 C 
ATOM     51  C   UNL A   1      37.528  33.354  32.833  1.00  0.00     0.029 A 
ATOM     52  N   UNL A   1      39.185  31.854  32.837  1.00  0.00    -0.354 N 
ATOM     53  C   UNL A   1      39.833  29.265  29.423  1.00  0.00     0.074 A 
ATOM     54  C   UNL A   1      38.885  29.547  28.369  1.00  0.00     0.031 C 
ATOM     55  C   UNL A   1      38.131  33.426  34.030  1.00  0.00     0.029 A 
ATOM     56  C   UNL A   1      39.197  32.432  34.084  1.00  0.00     0.049 A 
ATOM     57  H   UNL A   1      39.823  31.158  32.559  1.00  0.00     0.167 HD
ATOM     58  C   UNL A   1      40.809  28.331  29.345  1.00  0.00     0.037 A 
ATOM     59  C   UNL A   1      39.967  32.172  35.157  1.00  0.00     0.037 A 
ATOM     60  C   UNL A   1      41.753  28.064  30.398  1.00  0.00     0.049 A 
ATOM     61  C   UNL A   1      41.019  31.104  35.057  1.00  0.00     0.074 A 
ATOM     62  C   UNL A   1      42.815  27.177  30.399  1.00  0.00     0.029 A 
ATOM     63  N   UNL A   1      41.741  28.676  31.643  1.00  0.00    -0.354 N 
ATOM     64  N   UNL A   1      41.325  30.339  34.036  1.00  0.00    -0.248 NA
ATOM     65  C   UNL A   1      41.834  30.860  36.254  1.00  0.00     0.031 C 
ATOM     66  C   UNL A   1      43.412  27.214  31.662  1.00  0.00     0.029 A 
ATOM     67  C   UNL A   1      42.756  28.162  32.431  1.00  0.00     0.049 A 
ATOM     68  H   UNL A   1      41.105  29.374  31.923  1.00  0.00     0.167 HD
ATOM     69  C   UNL A   1      42.374  29.537  34.462  1.00  0.00     0.074 A 
ATOM     70  C   UNL A   1      42.669  29.925  35.826  1.00  0.00     0.031 C 
ATOM     71  C   UNL A   1      43.031  28.561  33.789  1.00  0.00     0.037 A 
BRANCH  58  72
ATOM     72  C   UNL A   1      40.906  27.534  28.077  1.00  0.00     0.057 A 
ATOM     73  C   UNL A   1      41.685  27.965  26.993  1.00  0.00     0.134 A 
ATOM     74  C   UNL A   1      40.246  26.305  27.948  1.00  0.00     0.134 A 
ATOM     75  F   UNL A   1      42.334  29.137  27.046  1.00  0.00    -0.206 F 
ATOM     76  C   UNL A   1      41.782  27.214  25.820  1.00  0.00     0.040 A 
ATOM     77  C   UNL A   1      40.360  25.532  26.791  1.00  0.00     0.040 A 
ATOM     78  F   UNL A   1      39.487  25.831  28.949  1.00  0.00    -0.206 F 
ATOM     79  C   UNL A   1      41.125  25.990  25.721  1.00  0.00     0.006 A 
ENDBRANCH  58  72
BRANCH  59  80
ATOM     80  C   UNL A   1      39.764  32.930  36.418  1.00  0.00     0.057 A 
ATOM     81  C   UNL A   1      38.790  32.545  37.347  1.00  0.00     0.134 A 
ATOM     82  C   UNL A   1      40.535  34.060  36.723  1.00  0.00     0.134 A 
ATOM     83  F   UNL A   1      38.010  31.482  37.105  1.00  0.00    -0.206 F 
ATOM     84  C   UNL A   1      38.574  33.268  38.521  1.00  0.00     0.040 A 
ATOM     85  C   UNL A   1      40.348  34.774  37.907  1.00  0.00     0.040 A 
ATOM     86  F   UNL A   1      41.491  34.475  35.881  1.00  0.00    -0.206 F 
ATOM     87  C   UNL A   1      39.358  34.384  38.806  1.00  0.00     0.006 A 
ENDBRANCH  59  80
BRANCH  71  88
ATOM     88  C   UNL A   1      44.140  27.855  34.512  1.00  0.00     0.057 A 
ATOM     89  C   UNL A   1      43.924  26.649  35.192  1.00  0.00     0.134 A 
ATOM     90  C   UNL A   1      45.448  28.355  34.480  1.00  0.00     0.134 A 
ATOM     91  F   UNL A   1      42.692  26.125  35.270  1.00  0.00    -0.206 F 
ATOM     92  C   UNL A   1      44.967  25.976  35.829  1.00  0.00     0.040 A 
ATOM     93  C   UNL A   1      46.504  27.676  35.089  1.00  0.00     0.040 A 
ATOM     94  F   UNL A   1      45.725  29.500  33.838  1.00  0.00    -0.206 F 
ATOM     95  C   UNL A   1      46.263  26.484  35.770  1.00  0.00     0.006 A 
ENDBRANCH  71  88
ENDBRANCH  45  46
ENDBRANCH  37  40
ENDBRANCH  35  36
ENDBRANCH   1  35
TORSDOF 11
ENDMDL
