MODEL 1
REMARK VINA RESULT:      -9.7      0.000      0.000
REMARK SMILES CCc1nc(COC)cc(OCC(=O)NCCCNC(=O)c2ccc(-c3c4nc(c(-c5c(F)cccc5F)c5ccc([nH]5)c(-c5c(F)cccc5F)c5nc(c(-c6c(F)cccc6F)c6ccc3[nH]6)C=C5)C=C4)cc2)n1
REMARK SMILES IDX 16 1 15 2 13 3 14 4 12 6 11 7 10 8 3 9 4 10 76 11 5 12 9 13
REMARK SMILES IDX 2 14 1 15 6 16 7 17 8 18 17 19 18 20 19 21 20 22 21 24 22 25
REMARK SMILES IDX 23 26 75 27 24 28 74 29 25 30 26 31 27 32 68 33 28 34 73 35
REMARK SMILES IDX 67 36 69 37 29 38 72 39 66 40 65 41 30 43 56 44 39 45 55 46
REMARK SMILES IDX 40 47 43 48 54 49 70 50 41 51 42 52 53 54 71 55 44 56 31 57
REMARK SMILES IDX 32 58 37 59 33 60 34 61 36 62 38 63 35 64 57 65 58 66 63 67
REMARK SMILES IDX 59 68 60 69 62 70 64 71 61 72 45 73 46 74 51 75 47 76 48 77
REMARK SMILES IDX 50 78 52 79 49 80
REMARK H PARENT 15 5 19 23 69 42 43 53
REMARK Flexibility Score: inf
ROOT
ATOM      1  C   UNL A   1      32.949  27.572  24.986  1.00  0.00     0.117 C 
ENDROOT
BRANCH   1   2
ATOM      2  N   UNL A   1      32.048  26.821  25.842  1.00  0.00    -0.353 N 
ATOM      3  C   UNL A   1      32.066  25.488  26.131  1.00  0.00     0.258 C 
ATOM      4  O   UNL A   1      31.198  25.032  26.879  1.00  0.00    -0.271 OA
ATOM      5  H   UNL A   1      31.331  27.342  26.269  1.00  0.00     0.163 HD
BRANCH   3   6
ATOM      6  C   UNL A   1      33.155  24.590  25.537  1.00  0.00     0.331 C 
BRANCH   6   7
ATOM      7  O   UNL A   1      33.834  23.754  26.455  1.00  0.00    -0.467 OA
BRANCH   7   8
ATOM      8  C   UNL A   1      34.391  22.599  25.989  1.00  0.00     0.217 A 
ATOM      9  C   UNL A   1      36.362  21.664  25.280  1.00  0.00     0.132 A 
ATOM     10  N   UNL A   1      35.780  20.490  24.986  1.00  0.00    -0.235 NA
ATOM     11  N   UNL A   1      35.706  22.735  25.754  1.00  0.00    -0.198 NA
ATOM     12  C   UNL A   1      34.455  20.386  25.209  1.00  0.00     0.074 A 
ATOM     13  C   UNL A   1      33.718  21.423  25.750  1.00  0.00     0.094 A 
BRANCH   9  14
ATOM     14  C   UNL A   1      37.834  21.798  24.998  1.00  0.00     0.074 C 
ATOM     15  C   UNL A   1      38.604  22.354  26.185  1.00  0.00     0.012 C 
ENDBRANCH   9  14
BRANCH  12  16
ATOM     16  C   UNL A   1      33.764  19.107  24.785  1.00  0.00     0.216 C 
BRANCH  16  17
ATOM     17  O   UNL A   1      32.465  19.322  24.220  1.00  0.00    -0.378 OA
ATOM     18  C   UNL A   1      32.318  18.772  22.919  1.00  0.00     0.195 C 
ENDBRANCH  16  17
ENDBRANCH  12  16
ENDBRANCH   7   8
ENDBRANCH   6   7
ENDBRANCH   3   6
ENDBRANCH   1   2
BRANCH   1  19
ATOM     19  C   UNL A   1      33.963  28.399  25.773  1.00  0.00     0.042 C 
BRANCH  19  20
ATOM     20  C   UNL A   1      33.668  28.548  27.266  1.00  0.00     0.118 C 
BRANCH  20  21
ATOM     21  N   UNL A   1      33.665  29.932  27.717  1.00  0.00    -0.352 N 
ATOM     22  C   UNL A   1      34.632  30.687  28.331  1.00  0.00     0.251 C 
ATOM     23  H   UNL A   1      32.821  30.411  27.553  1.00  0.00     0.163 HD
ATOM     24  O   UNL A   1      34.332  31.814  28.728  1.00  0.00    -0.269 OA
BRANCH  22  25
ATOM     25  C   UNL A   1      36.007  30.184  28.553  1.00  0.00     0.039 A 
ATOM     26  C   UNL A   1      36.900  30.216  27.476  1.00  0.00     0.014 A 
ATOM     27  C   UNL A   1      36.416  29.624  29.767  1.00  0.00     0.014 A 
ATOM     28  C   UNL A   1      38.208  29.751  27.630  1.00  0.00     0.010 A 
ATOM     29  C   UNL A   1      37.741  29.212  29.940  1.00  0.00     0.010 A 
ATOM     30  C   UNL A   1      38.652  29.276  28.874  1.00  0.00    -0.014 A 
BRANCH  30  31
ATOM     31  C   UNL A   1      40.070  28.874  29.064  1.00  0.00     0.031 A 
ATOM     32  C   UNL A   1      41.061  29.807  29.707  1.00  0.00     0.074 A 
ATOM     33  C   UNL A   1      40.477  27.665  28.629  1.00  0.00     0.049 A 
ATOM     34  N   UNL A   1      42.336  29.622  29.941  1.00  0.00    -0.248 NA
ATOM     35  C   UNL A   1      40.558  31.123  30.128  1.00  0.00     0.031 C 
ATOM     36  C   UNL A   1      39.631  26.683  27.948  1.00  0.00     0.029 A 
ATOM     37  N   UNL A   1      41.706  27.057  28.694  1.00  0.00    -0.354 N 
ATOM     38  C   UNL A   1      42.789  30.794  30.531  1.00  0.00     0.074 A 
ATOM     39  C   UNL A   1      41.662  31.702  30.583  1.00  0.00     0.031 C 
ATOM     40  C   UNL A   1      40.359  25.588  27.677  1.00  0.00     0.029 A 
ATOM     41  C   UNL A   1      41.727  25.799  28.141  1.00  0.00     0.049 A 
ATOM     42  H   UNL A   1      42.498  27.482  29.096  1.00  0.00     0.167 HD
ATOM     43  C   UNL A   1      44.025  31.083  31.008  1.00  0.00     0.037 A 
ATOM     44  C   UNL A   1      42.734  24.913  28.021  1.00  0.00     0.037 A 
ATOM     45  C   UNL A   1      45.146  30.179  30.975  1.00  0.00     0.049 A 
ATOM     46  C   UNL A   1      44.090  25.255  28.568  1.00  0.00     0.074 A 
ATOM     47  C   UNL A   1      46.427  30.376  31.465  1.00  0.00     0.029 A 
ATOM     48  N   UNL A   1      45.121  28.907  30.426  1.00  0.00    -0.354 N 
ATOM     49  N   UNL A   1      44.486  26.350  29.170  1.00  0.00    -0.248 NA
ATOM     50  C   UNL A   1      45.138  24.234  28.426  1.00  0.00     0.031 C 
ATOM     51  C   UNL A   1      47.184  29.231  31.189  1.00  0.00     0.029 A 
ATOM     52  C   UNL A   1      46.364  28.310  30.559  1.00  0.00     0.049 A 
ATOM     53  H   UNL A   1      44.335  28.490  30.006  1.00  0.00     0.167 HD
ATOM     54  C   UNL A   1      45.819  26.142  29.495  1.00  0.00     0.074 A 
ATOM     55  C   UNL A   1      46.159  24.809  29.044  1.00  0.00     0.031 C 
ATOM     56  C   UNL A   1      46.687  26.982  30.109  1.00  0.00     0.037 A 
BRANCH  43  57
ATOM     57  C   UNL A   1      44.230  32.434  31.626  1.00  0.00     0.057 A 
ATOM     58  C   UNL A   1      44.038  32.647  32.997  1.00  0.00     0.134 A 
ATOM     59  C   UNL A   1      44.682  33.515  30.859  1.00  0.00     0.134 A 
ATOM     60  F   UNL A   1      43.597  31.653  33.783  1.00  0.00    -0.206 F 
ATOM     61  C   UNL A   1      44.275  33.891  33.581  1.00  0.00     0.040 A 
ATOM     62  C   UNL A   1      44.942  34.759  31.436  1.00  0.00     0.040 A 
ATOM     63  F   UNL A   1      44.893  33.376  29.542  1.00  0.00    -0.206 F 
ATOM     64  C   UNL A   1      44.736  34.951  32.802  1.00  0.00     0.006 A 
ENDBRANCH  43  57
BRANCH  44  65
ATOM     65  C   UNL A   1      42.496  23.600  27.373  1.00  0.00     0.057 A 
ATOM     66  C   UNL A   1      42.157  22.473  28.129  1.00  0.00     0.134 A 
ATOM     67  C   UNL A   1      42.630  23.436  25.989  1.00  0.00     0.134 A 
ATOM     68  F   UNL A   1      42.036  22.566  29.462  1.00  0.00    -0.206 F 
ATOM     69  C   UNL A   1      41.983  21.222  27.536  1.00  0.00     0.040 A 
ATOM     70  C   UNL A   1      42.436  22.196  25.381  1.00  0.00     0.040 A 
ATOM     71  F   UNL A   1      42.949  24.481  25.211  1.00  0.00    -0.206 F 
ATOM     72  C   UNL A   1      42.120  21.082  26.156  1.00  0.00     0.006 A 
ENDBRANCH  44  65
BRANCH  56  73
ATOM     73  C   UNL A   1      48.076  26.470  30.344  1.00  0.00     0.057 A 
ATOM     74  C   UNL A   1      49.097  26.655  29.404  1.00  0.00     0.134 A 
ATOM     75  C   UNL A   1      48.397  25.793  31.527  1.00  0.00     0.134 A 
ATOM     76  F   UNL A   1      48.849  27.282  28.245  1.00  0.00    -0.206 F 
ATOM     77  C   UNL A   1      50.384  26.158  29.620  1.00  0.00     0.040 A 
ATOM     78  C   UNL A   1      49.685  25.312  31.764  1.00  0.00     0.040 A 
ATOM     79  F   UNL A   1      47.464  25.588  32.470  1.00  0.00    -0.206 F 
ATOM     80  C   UNL A   1      50.681  25.488  30.806  1.00  0.00     0.006 A 
ENDBRANCH  56  73
ENDBRANCH  30  31
ENDBRANCH  22  25
ENDBRANCH  20  21
ENDBRANCH  19  20
ENDBRANCH   1  19
TORSDOF 15
ENDMDL
MODEL 2
REMARK VINA RESULT:      -9.7      2.195      2.903
REMARK SMILES CCc1nc(COC)cc(OCC(=O)NCCCNC(=O)c2ccc(-c3c4nc(c(-c5c(F)cccc5F)c5ccc([nH]5)c(-c5c(F)cccc5F)c5nc(c(-c6c(F)cccc6F)c6ccc3[nH]6)C=C5)C=C4)cc2)n1
REMARK SMILES IDX 16 1 15 2 13 3 14 4 12 6 11 7 10 8 3 9 4 10 76 11 5 12 9 13
REMARK SMILES IDX 2 14 1 15 6 16 7 17 8 18 17 19 18 20 19 21 20 22 21 24 22 25
REMARK SMILES IDX 23 26 75 27 24 28 74 29 25 30 26 31 27 32 68 33 28 34 73 35
REMARK SMILES IDX 67 36 69 37 29 38 72 39 66 40 65 41 30 43 56 44 39 45 55 46
REMARK SMILES IDX 40 47 43 48 54 49 70 50 41 51 42 52 53 54 71 55 44 56 31 57
REMARK SMILES IDX 32 58 37 59 33 60 34 61 36 62 38 63 35 64 57 65 58 66 63 67
REMARK SMILES IDX 59 68 60 69 62 70 64 71 61 72 45 73 46 74 51 75 47 76 48 77
REMARK SMILES IDX 50 78 52 79 49 80
REMARK H PARENT 15 5 19 23 69 42 43 53
REMARK Flexibility Score: inf
ROOT
ATOM      1  C   UNL A   1      33.056  26.373  25.111  1.00  0.00     0.117 C 
ENDROOT
BRANCH   1   2
ATOM      2  N   UNL A   1      33.355  26.808  23.759  1.00  0.00    -0.353 N 
ATOM      3  C   UNL A   1      33.462  26.055  22.627  1.00  0.00     0.258 C 
ATOM      4  O   UNL A   1      33.737  26.616  21.565  1.00  0.00    -0.271 OA
ATOM      5  H   UNL A   1      33.499  27.775  23.644  1.00  0.00     0.163 HD
BRANCH   3   6
ATOM      6  C   UNL A   1      33.232  24.542  22.692  1.00  0.00     0.331 C 
BRANCH   6   7
ATOM      7  O   UNL A   1      34.391  23.737  22.585  1.00  0.00    -0.467 OA
BRANCH   7   8
ATOM      8  C   UNL A   1      34.632  22.817  23.563  1.00  0.00     0.217 A 
ATOM      9  C   UNL A   1      36.257  22.008  24.966  1.00  0.00     0.132 A 
ATOM     10  N   UNL A   1      35.450  21.061  25.469  1.00  0.00    -0.235 NA
ATOM     11  N   UNL A   1      35.898  22.877  24.007  1.00  0.00    -0.198 NA
ATOM     12  C   UNL A   1      34.190  21.006  24.990  1.00  0.00     0.074 A 
ATOM     13  C   UNL A   1      33.725  21.902  24.046  1.00  0.00     0.094 A 
BRANCH   9  14
ATOM     14  C   UNL A   1      37.674  22.050  25.469  1.00  0.00     0.074 C 
ATOM     15  C   UNL A   1      38.045  23.405  26.050  1.00  0.00     0.012 C 
ENDBRANCH   9  14
BRANCH  12  16
ATOM     16  C   UNL A   1      33.299  19.880  25.470  1.00  0.00     0.216 C 
BRANCH  16  17
ATOM     17  O   UNL A   1      32.218  19.590  24.576  1.00  0.00    -0.378 OA
ATOM     18  C   UNL A   1      32.313  18.305  23.976  1.00  0.00     0.195 C 
ENDBRANCH  16  17
ENDBRANCH  12  16
ENDBRANCH   7   8
ENDBRANCH   6   7
ENDBRANCH   3   6
ENDBRANCH   1   2
BRANCH   1  19
ATOM     19  C   UNL A   1      33.265  27.474  26.149  1.00  0.00     0.042 C 
BRANCH  19  20
ATOM     20  C   UNL A   1      34.088  28.672  25.675  1.00  0.00     0.118 C 
BRANCH  20  21
ATOM     21  N   UNL A   1      33.727  29.917  26.336  1.00  0.00    -0.352 N 
ATOM     22  C   UNL A   1      34.332  30.612  27.353  1.00  0.00     0.251 C 
ATOM     23  H   UNL A   1      32.905  30.335  25.994  1.00  0.00     0.163 HD
ATOM     24  O   UNL A   1      33.750  31.591  27.823  1.00  0.00    -0.269 OA
BRANCH  22  25
ATOM     25  C   UNL A   1      35.641  30.210  27.917  1.00  0.00     0.039 A 
ATOM     26  C   UNL A   1      35.647  29.518  29.133  1.00  0.00     0.014 A 
ATOM     27  C   UNL A   1      36.856  30.552  27.316  1.00  0.00     0.014 A 
ATOM     28  C   UNL A   1      36.855  29.118  29.711  1.00  0.00     0.010 A 
ATOM     29  C   UNL A   1      38.062  30.103  27.863  1.00  0.00     0.010 A 
ATOM     30  C   UNL A   1      38.073  29.377  29.064  1.00  0.00    -0.014 A 
BRANCH  30  31
ATOM     31  C   UNL A   1      39.349  28.865  29.628  1.00  0.00     0.031 A 
ATOM     32  C   UNL A   1      39.960  29.486  30.854  1.00  0.00     0.074 A 
ATOM     33  C   UNL A   1      39.979  27.845  29.012  1.00  0.00     0.049 A 
ATOM     34  N   UNL A   1      41.071  29.171  31.472  1.00  0.00    -0.248 NA
ATOM     35  C   UNL A   1      39.238  30.617  31.457  1.00  0.00     0.031 C 
ATOM     36  C   UNL A   1      39.520  27.182  27.790  1.00  0.00     0.029 A 
ATOM     37  N   UNL A   1      41.142  27.187  29.330  1.00  0.00    -0.354 N 
ATOM     38  C   UNL A   1      41.184  30.063  32.531  1.00  0.00     0.074 A 
ATOM     39  C   UNL A   1      40.051  30.960  32.448  1.00  0.00     0.031 C 
ATOM     40  C   UNL A   1      40.378  26.199  27.473  1.00  0.00     0.029 A 
ATOM     41  C   UNL A   1      41.461  26.178  28.452  1.00  0.00     0.049 A 
ATOM     42  H   UNL A   1      41.695  27.417  30.110  1.00  0.00     0.167 HD
ATOM     43  C   UNL A   1      42.133  30.118  33.498  1.00  0.00     0.037 A 
ATOM     44  C   UNL A   1      42.506  25.330  28.438  1.00  0.00     0.037 A 
ATOM     45  C   UNL A   1      43.254  29.218  33.596  1.00  0.00     0.049 A 
ATOM     46  C   UNL A   1      43.537  25.407  29.527  1.00  0.00     0.074 A 
ATOM     47  C   UNL A   1      44.247  29.180  34.561  1.00  0.00     0.029 A 
ATOM     48  N   UNL A   1      43.529  28.197  32.700  1.00  0.00    -0.354 N 
ATOM     49  N   UNL A   1      43.599  26.224  30.550  1.00  0.00    -0.248 NA
ATOM     50  C   UNL A   1      44.638  24.436  29.466  1.00  0.00     0.031 C 
ATOM     51  C   UNL A   1      45.138  28.150  34.235  1.00  0.00     0.029 A 
ATOM     52  C   UNL A   1      44.680  27.528  33.086  1.00  0.00     0.049 A 
ATOM     53  H   UNL A   1      42.988  27.980  31.908  1.00  0.00     0.167 HD
ATOM     54  C   UNL A   1      44.731  25.855  31.262  1.00  0.00     0.074 A 
ATOM     55  C   UNL A   1      45.315  24.726  30.567  1.00  0.00     0.031 C 
ATOM     56  C   UNL A   1      45.246  26.405  32.388  1.00  0.00     0.037 A 
BRANCH  43  57
ATOM     57  C   UNL A   1      41.993  31.181  34.546  1.00  0.00     0.057 A 
ATOM     58  C   UNL A   1      41.239  30.968  35.706  1.00  0.00     0.134 A 
ATOM     59  C   UNL A   1      42.665  32.404  34.425  1.00  0.00     0.134 A 
ATOM     60  F   UNL A   1      40.563  29.822  35.876  1.00  0.00    -0.206 F 
ATOM     61  C   UNL A   1      41.147  31.939  36.704  1.00  0.00     0.040 A 
ATOM     62  C   UNL A   1      42.597  33.375  35.425  1.00  0.00     0.040 A 
ATOM     63  F   UNL A   1      43.411  32.668  33.342  1.00  0.00    -0.206 F 
ATOM     64  C   UNL A   1      41.833  33.144  36.569  1.00  0.00     0.006 A 
ENDBRANCH  43  57
BRANCH  44  65
ATOM     65  C   UNL A   1      42.625  24.314  27.364  1.00  0.00     0.057 A 
ATOM     66  C   UNL A   1      43.274  24.608  26.160  1.00  0.00     0.134 A 
ATOM     67  C   UNL A   1      42.069  23.037  27.506  1.00  0.00     0.134 A 
ATOM     68  F   UNL A   1      43.806  25.823  25.960  1.00  0.00    -0.206 F 
ATOM     69  C   UNL A   1      43.346  23.677  25.124  1.00  0.00     0.040 A 
ATOM     70  C   UNL A   1      42.154  22.089  26.486  1.00  0.00     0.040 A 
ATOM     71  F   UNL A   1      41.439  22.694  28.640  1.00  0.00    -0.206 F 
ATOM     72  C   UNL A   1      42.787  22.411  25.287  1.00  0.00     0.006 A 
ENDBRANCH  44  65
BRANCH  56  73
ATOM     73  C   UNL A   1      46.488  25.774  32.945  1.00  0.00     0.057 A 
ATOM     74  C   UNL A   1      46.428  24.757  33.906  1.00  0.00     0.134 A 
ATOM     75  C   UNL A   1      47.754  26.182  32.509  1.00  0.00     0.134 A 
ATOM     76  F   UNL A   1      45.245  24.333  34.374  1.00  0.00    -0.206 F 
ATOM     77  C   UNL A   1      47.587  24.187  34.434  1.00  0.00     0.040 A 
ATOM     78  C   UNL A   1      48.919  25.604  33.014  1.00  0.00     0.040 A 
ATOM     79  F   UNL A   1      47.878  27.149  31.586  1.00  0.00    -0.206 F 
ATOM     80  C   UNL A   1      48.838  24.608  33.985  1.00  0.00     0.006 A 
ENDBRANCH  56  73
ENDBRANCH  30  31
ENDBRANCH  22  25
ENDBRANCH  20  21
ENDBRANCH  19  20
ENDBRANCH   1  19
TORSDOF 15
ENDMDL
MODEL 3
REMARK VINA RESULT:      -9.6      3.038      8.104
REMARK SMILES CCc1nc(COC)cc(OCC(=O)NCCCNC(=O)c2ccc(-c3c4nc(c(-c5c(F)cccc5F)c5ccc([nH]5)c(-c5c(F)cccc5F)c5nc(c(-c6c(F)cccc6F)c6ccc3[nH]6)C=C5)C=C4)cc2)n1
REMARK SMILES IDX 16 1 15 2 13 3 14 4 12 6 11 7 10 8 3 9 4 10 76 11 5 12 9 13
REMARK SMILES IDX 2 14 1 15 6 16 7 17 8 18 17 19 18 20 19 21 20 22 21 24 22 25
REMARK SMILES IDX 23 26 75 27 24 28 74 29 25 30 26 31 27 32 68 33 28 34 73 35
REMARK SMILES IDX 67 36 69 37 29 38 72 39 66 40 65 41 30 43 56 44 39 45 55 46
REMARK SMILES IDX 40 47 43 48 54 49 70 50 41 51 42 52 53 54 71 55 44 56 31 57
REMARK SMILES IDX 32 58 37 59 33 60 34 61 36 62 38 63 35 64 57 65 58 66 63 67
REMARK SMILES IDX 59 68 60 69 62 70 64 71 61 72 45 73 46 74 51 75 47 76 48 77
REMARK SMILES IDX 50 78 52 79 49 80
REMARK H PARENT 15 5 19 23 69 42 43 53
REMARK Flexibility Score: inf
ROOT
ATOM      1  C   UNL A   1      34.077  23.448  24.887  1.00  0.00     0.117 C 
ENDROOT
BRANCH   1   2
ATOM      2  N   UNL A   1      33.628  23.149  26.235  1.00  0.00    -0.353 N 
ATOM      3  C   UNL A   1      32.350  23.038  26.700  1.00  0.00     0.258 C 
ATOM      4  O   UNL A   1      32.174  22.787  27.894  1.00  0.00    -0.271 OA
ATOM      5  H   UNL A   1      34.339  23.008  26.901  1.00  0.00     0.163 HD
BRANCH   3   6
ATOM      6  C   UNL A   1      31.169  23.215  25.741  1.00  0.00     0.331 C 
BRANCH   6   7
ATOM      7  O   UNL A   1      30.329  24.325  25.996  1.00  0.00    -0.467 OA
BRANCH   7   8
ATOM      8  C   UNL A   1      30.739  25.557  25.580  1.00  0.00     0.217 A 
ATOM      9  C   UNL A   1      31.370  27.634  26.324  1.00  0.00     0.132 A 
ATOM     10  N   UNL A   1      31.506  28.116  25.079  1.00  0.00    -0.235 NA
ATOM     11  N   UNL A   1      30.970  26.385  26.613  1.00  0.00    -0.198 NA
ATOM     12  C   UNL A   1      31.245  27.273  24.060  1.00  0.00     0.074 A 
ATOM     13  C   UNL A   1      30.886  25.954  24.271  1.00  0.00     0.094 A 
BRANCH   9  14
ATOM     14  C   UNL A   1      31.622  28.581  27.465  1.00  0.00     0.074 C 
ATOM     15  C   UNL A   1      32.008  29.973  26.991  1.00  0.00     0.012 C 
ENDBRANCH   9  14
BRANCH  12  16
ATOM     16  C   UNL A   1      31.292  27.829  22.652  1.00  0.00     0.216 C 
BRANCH  16  17
ATOM     17  O   UNL A   1      30.017  28.272  22.173  1.00  0.00    -0.378 OA
ATOM     18  C   UNL A   1      29.870  29.685  22.185  1.00  0.00     0.195 C 
ENDBRANCH  16  17
ENDBRANCH  12  16
ENDBRANCH   7   8
ENDBRANCH   6   7
ENDBRANCH   3   6
ENDBRANCH   1   2
BRANCH   1  19
ATOM     19  C   UNL A   1      35.580  23.704  24.807  1.00  0.00     0.042 C 
BRANCH  19  20
ATOM     20  C   UNL A   1      36.344  23.542  26.122  1.00  0.00     0.118 C 
BRANCH  20  21
ATOM     21  N   UNL A   1      37.480  22.638  26.021  1.00  0.00    -0.352 N 
ATOM     22  C   UNL A   1      38.817  22.834  26.259  1.00  0.00     0.251 C 
ATOM     23  H   UNL A   1      37.250  21.726  25.732  1.00  0.00     0.163 HD
ATOM     24  O   UNL A   1      39.602  21.927  25.977  1.00  0.00    -0.269 OA
BRANCH  22  25
ATOM     25  C   UNL A   1      39.345  24.100  26.818  1.00  0.00     0.039 A 
ATOM     26  C   UNL A   1      39.980  24.988  25.943  1.00  0.00     0.014 A 
ATOM     27  C   UNL A   1      39.289  24.401  28.182  1.00  0.00     0.014 A 
ATOM     28  C   UNL A   1      40.499  26.195  26.418  1.00  0.00     0.010 A 
ATOM     29  C   UNL A   1      39.756  25.634  28.649  1.00  0.00     0.010 A 
ATOM     30  C   UNL A   1      40.362  26.545  27.771  1.00  0.00    -0.014 A 
BRANCH  30  31
ATOM     31  C   UNL A   1      40.824  27.872  28.256  1.00  0.00     0.031 A 
ATOM     32  C   UNL A   1      42.286  28.226  28.270  1.00  0.00     0.074 A 
ATOM     33  C   UNL A   1      39.918  28.758  28.714  1.00  0.00     0.049 A 
ATOM     34  N   UNL A   1      42.863  29.332  28.669  1.00  0.00    -0.248 NA
ATOM     35  C   UNL A   1      43.224  27.201  27.787  1.00  0.00     0.031 C 
ATOM     36  C   UNL A   1      38.475  28.525  28.799  1.00  0.00     0.029 A 
ATOM     37  N   UNL A   1      40.077  30.034  29.197  1.00  0.00    -0.354 N 
ATOM     38  C   UNL A   1      44.226  29.137  28.490  1.00  0.00     0.074 A 
ATOM     39  C   UNL A   1      44.396  27.790  27.986  1.00  0.00     0.031 C 
ATOM     40  C   UNL A   1      37.879  29.627  29.282  1.00  0.00     0.029 A 
ATOM     41  C   UNL A   1      38.897  30.634  29.565  1.00  0.00     0.049 A 
ATOM     42  H   UNL A   1      40.953  30.476  29.273  1.00  0.00     0.167 HD
ATOM     43  C   UNL A   1      45.244  30.006  28.705  1.00  0.00     0.037 A 
ATOM     44  C   UNL A   1      38.660  31.858  30.072  1.00  0.00     0.037 A 
ATOM     45  C   UNL A   1      45.082  31.353  29.190  1.00  0.00     0.049 A 
ATOM     46  C   UNL A   1      39.806  32.804  30.290  1.00  0.00     0.074 A 
ATOM     47  C   UNL A   1      46.055  32.315  29.407  1.00  0.00     0.029 A 
ATOM     48  N   UNL A   1      43.869  31.929  29.531  1.00  0.00    -0.354 N 
ATOM     49  N   UNL A   1      41.083  32.620  30.065  1.00  0.00    -0.248 NA
ATOM     50  C   UNL A   1      39.474  34.133  30.823  1.00  0.00     0.031 C 
ATOM     51  C   UNL A   1      45.432  33.466  29.903  1.00  0.00     0.029 A 
ATOM     52  C   UNL A   1      44.069  33.231  29.963  1.00  0.00     0.049 A 
ATOM     53  H   UNL A   1      42.995  31.481  29.474  1.00  0.00     0.167 HD
ATOM     54  C   UNL A   1      41.704  33.812  30.411  1.00  0.00     0.074 A 
ATOM     55  C   UNL A   1      40.662  34.721  30.839  1.00  0.00     0.031 C 
ATOM     56  C   UNL A   1      43.022  34.125  30.381  1.00  0.00     0.037 A 
BRANCH  43  57
ATOM     57  C   UNL A   1      46.634  29.533  28.399  1.00  0.00     0.057 A 
ATOM     58  C   UNL A   1      47.213  29.734  27.140  1.00  0.00     0.134 A 
ATOM     59  C   UNL A   1      47.422  28.929  29.386  1.00  0.00     0.134 A 
ATOM     60  F   UNL A   1      46.506  30.298  26.149  1.00  0.00    -0.206 F 
ATOM     61  C   UNL A   1      48.523  29.337  26.869  1.00  0.00     0.040 A 
ATOM     62  C   UNL A   1      48.741  28.547  29.133  1.00  0.00     0.040 A 
ATOM     63  F   UNL A   1      46.930  28.716  30.615  1.00  0.00    -0.206 F 
ATOM     64  C   UNL A   1      49.294  28.748  27.869  1.00  0.00     0.006 A 
ENDBRANCH  43  57
BRANCH  44  65
ATOM     65  C   UNL A   1      37.272  32.275  30.392  1.00  0.00     0.057 A 
ATOM     66  C   UNL A   1      36.693  31.967  31.627  1.00  0.00     0.134 A 
ATOM     67  C   UNL A   1      36.487  32.966  29.462  1.00  0.00     0.134 A 
ATOM     68  F   UNL A   1      37.391  31.288  32.549  1.00  0.00    -0.206 F 
ATOM     69  C   UNL A   1      35.372  32.308  31.919  1.00  0.00     0.040 A 
ATOM     70  C   UNL A   1      35.172  33.333  29.750  1.00  0.00     0.040 A 
ATOM     71  F   UNL A   1      36.989  33.295  28.262  1.00  0.00    -0.206 F 
ATOM     72  C   UNL A   1      34.608  32.997  30.979  1.00  0.00     0.006 A 
ENDBRANCH  44  65
BRANCH  56  73
ATOM     73  C   UNL A   1      43.400  35.514  30.803  1.00  0.00     0.057 A 
ATOM     74  C   UNL A   1      43.542  36.551  29.872  1.00  0.00     0.134 A 
ATOM     75  C   UNL A   1      43.613  35.818  32.152  1.00  0.00     0.134 A 
ATOM     76  F   UNL A   1      43.365  36.319  28.563  1.00  0.00    -0.206 F 
ATOM     77  C   UNL A   1      43.912  37.837  30.268  1.00  0.00     0.040 A 
ATOM     78  C   UNL A   1      43.961  37.105  32.562  1.00  0.00     0.040 A 
ATOM     79  F   UNL A   1      43.487  34.869  33.093  1.00  0.00    -0.206 F 
ATOM     80  C   UNL A   1      44.119  38.117  31.618  1.00  0.00     0.006 A 
ENDBRANCH  56  73
ENDBRANCH  30  31
ENDBRANCH  22  25
ENDBRANCH  20  21
ENDBRANCH  19  20
ENDBRANCH   1  19
TORSDOF 15
ENDMDL
