MODEL 1
REMARK VINA RESULT:     -12.1      0.000      0.000
REMARK SMILES C[C@H]1CC[C@@H]([C@H](C(=O)NCCCNC(=O)c2ccc(-c3c4nc(c(-c5c(F)cccc5F)c5ccc([nH]5)c(-c5c(F)cccc5F)c5nc(c(-c6c(F)cccc6F)c6ccc3[nH]6)C=C5)C=C4)cc2)[C@@H]2CCS(=O)(=O)C2)C[C@@H]1C
REMARK SMILES IDX 11 1 10 2 9 3 7 4 8 5 6 7 5 8 1 9 2 10 3 11 78 12 4 13 77 14
REMARK SMILES IDX 79 15 70 16 71 17 76 18 72 19 73 20 74 21 75 22 12 23 13 24
REMARK SMILES IDX 14 25 15 27 16 28 17 29 69 30 18 31 68 32 19 33 20 34 21 35
REMARK SMILES IDX 62 36 22 37 67 38 61 39 63 40 23 41 66 42 60 43 59 44 24 46
REMARK SMILES IDX 50 47 33 48 49 49 34 50 37 51 48 52 64 53 35 54 36 55 47 57
REMARK SMILES IDX 65 58 38 59 25 60 26 61 31 62 27 63 28 64 30 65 32 66 29 67
REMARK SMILES IDX 51 68 52 69 57 70 53 71 54 72 56 73 58 74 55 75 39 76 40 77
REMARK SMILES IDX 45 78 41 79 42 80 44 81 46 82 43 83
REMARK H PARENT 9 6 13 26 63 45 37 56
REMARK Flexibility Score: inf
ROOT
ATOM      1  C   UNL A   1      32.016  28.402  27.319  1.00  0.00     0.042 C 
ENDROOT
BRANCH   1   2
ATOM      2  C   UNL A   1      31.403  27.784  26.075  1.00  0.00     0.117 C 
BRANCH   2   3
ATOM      3  N   UNL A   1      30.700  26.593  26.462  1.00  0.00    -0.356 N 
ATOM      4  C   UNL A   1      30.888  25.277  26.220  1.00  0.00     0.223 C 
ATOM      5  O   UNL A   1      29.866  24.640  26.502  1.00  0.00    -0.275 OA
ATOM      6  H   UNL A   1      29.912  26.774  27.024  1.00  0.00     0.163 HD
BRANCH   4   7
ATOM      7  C   UNL A   1      32.256  24.564  25.898  1.00  0.00     0.085 C 
BRANCH   7   8
ATOM      8  C   UNL A   1      32.119  23.044  26.478  1.00  0.00     0.002 C 
ATOM      9  C   UNL A   1      35.479  20.682  25.001  1.00  0.00     0.008 C 
ATOM     10  C   UNL A   1      34.146  20.861  25.761  1.00  0.00    -0.011 C 
ATOM     11  C   UNL A   1      34.378  21.832  26.952  1.00  0.00     0.004 C 
ATOM     12  C   UNL A   1      32.993  21.236  24.793  1.00  0.00    -0.011 C 
ATOM     13  C   UNL A   1      33.163  22.578  27.506  1.00  0.00     0.005 C 
ATOM     14  C   UNL A   1      31.812  21.844  25.540  1.00  0.00     0.008 C 
ATOM     15  C   UNL A   1      32.528  20.048  23.933  1.00  0.00     0.008 C 
ENDBRANCH   7   8
BRANCH   7  16
ATOM     16  C   UNL A   1      33.217  24.734  24.633  1.00  0.00     0.018 C 
ATOM     17  C   UNL A   1      34.028  26.013  24.286  1.00  0.00     0.021 C 
ATOM     18  C   UNL A   1      32.703  24.340  23.264  1.00  0.00     0.141 C 
ATOM     19  C   UNL A   1      33.467  26.733  23.030  1.00  0.00     0.137 C 
ATOM     20  S   UNL A   1      32.075  25.782  22.499  1.00  0.00     0.150 S 
ATOM     21  O   UNL A   1      30.893  26.215  23.224  1.00  0.00    -0.229 OA
ATOM     22  O   UNL A   1      32.100  25.616  21.070  1.00  0.00    -0.229 OA
ENDBRANCH   7  16
ENDBRANCH   4   7
ENDBRANCH   2   3
ENDBRANCH   1   2
BRANCH   1  23
ATOM     23  C   UNL A   1      33.502  28.714  27.252  1.00  0.00     0.118 C 
BRANCH  23  24
ATOM     24  N   UNL A   1      33.727  30.099  27.625  1.00  0.00    -0.352 N 
ATOM     25  C   UNL A   1      34.739  30.653  28.375  1.00  0.00     0.251 C 
ATOM     26  H   UNL A   1      33.055  30.737  27.292  1.00  0.00     0.163 HD
ATOM     27  O   UNL A   1      34.508  31.704  28.972  1.00  0.00    -0.269 OA
BRANCH  25  28
ATOM     28  C   UNL A   1      36.092  30.041  28.475  1.00  0.00     0.039 A 
ATOM     29  C   UNL A   1      36.476  29.462  29.695  1.00  0.00     0.014 A 
ATOM     30  C   UNL A   1      37.039  30.148  27.456  1.00  0.00     0.014 A 
ATOM     31  C   UNL A   1      37.785  28.999  29.887  1.00  0.00     0.010 A 
ATOM     32  C   UNL A   1      38.320  29.611  27.617  1.00  0.00     0.010 A 
ATOM     33  C   UNL A   1      38.721  29.065  28.845  1.00  0.00    -0.014 A 
BRANCH  33  34
ATOM     34  C   UNL A   1      40.141  28.650  29.023  1.00  0.00     0.031 A 
ATOM     35  C   UNL A   1      41.153  29.648  29.525  1.00  0.00     0.074 A 
ATOM     36  C   UNL A   1      40.545  27.414  28.671  1.00  0.00     0.049 A 
ATOM     37  N   UNL A   1      42.458  29.554  29.587  1.00  0.00    -0.248 NA
ATOM     38  C   UNL A   1      40.626  30.939  29.999  1.00  0.00     0.031 C 
ATOM     39  C   UNL A   1      39.677  26.351  28.166  1.00  0.00     0.029 A 
ATOM     40  N   UNL A   1      41.800  26.855  28.658  1.00  0.00    -0.354 N 
ATOM     41  C   UNL A   1      42.906  30.779  30.069  1.00  0.00     0.074 A 
ATOM     42  C   UNL A   1      41.739  31.613  30.251  1.00  0.00     0.031 C 
ATOM     43  C   UNL A   1      40.424  25.270  27.890  1.00  0.00     0.029 A 
ATOM     44  C   UNL A   1      41.828  25.579  28.148  1.00  0.00     0.049 A 
ATOM     45  H   UNL A   1      42.602  27.323  28.983  1.00  0.00     0.167 HD
ATOM     46  C   UNL A   1      44.173  31.171  30.348  1.00  0.00     0.037 A 
ATOM     47  C   UNL A   1      42.868  24.762  27.888  1.00  0.00     0.037 A 
ATOM     48  C   UNL A   1      45.332  30.330  30.197  1.00  0.00     0.049 A 
ATOM     49  C   UNL A   1      44.269  25.230  28.172  1.00  0.00     0.074 A 
ATOM     50  C   UNL A   1      46.651  30.619  30.502  1.00  0.00     0.029 A 
ATOM     51  N   UNL A   1      45.310  29.037  29.697  1.00  0.00    -0.354 N 
ATOM     52  N   UNL A   1      44.675  26.375  28.665  1.00  0.00    -0.248 NA
ATOM     53  C   UNL A   1      45.359  24.292  27.863  1.00  0.00     0.031 C 
ATOM     54  C   UNL A   1      47.433  29.518  30.142  1.00  0.00     0.029 A 
ATOM     55  C   UNL A   1      46.596  28.523  29.666  1.00  0.00     0.049 A 
ATOM     56  H   UNL A   1      44.501  28.556  29.407  1.00  0.00     0.167 HD
ATOM     57  C   UNL A   1      46.058  26.281  28.759  1.00  0.00     0.074 A 
ATOM     58  C   UNL A   1      46.424  24.967  28.276  1.00  0.00     0.031 C 
ATOM     59  C   UNL A   1      46.944  27.203  29.209  1.00  0.00     0.037 A 
BRANCH  46  60
ATOM     60  C   UNL A   1      44.378  32.575  30.840  1.00  0.00     0.057 A 
ATOM     61  C   UNL A   1      44.599  33.644  29.963  1.00  0.00     0.134 A 
ATOM     62  C   UNL A   1      44.306  32.869  32.210  1.00  0.00     0.134 A 
ATOM     63  F   UNL A   1      44.686  33.433  28.641  1.00  0.00    -0.206 F 
ATOM     64  C   UNL A   1      44.770  34.949  30.430  1.00  0.00     0.040 A 
ATOM     65  C   UNL A   1      44.447  34.172  32.685  1.00  0.00     0.040 A 
ATOM     66  F   UNL A   1      44.084  31.895  33.105  1.00  0.00    -0.206 F 
ATOM     67  C   UNL A   1      44.687  35.218  31.795  1.00  0.00     0.006 A 
ENDBRANCH  46  60
BRANCH  47  68
ATOM     68  C   UNL A   1      42.626  23.411  27.317  1.00  0.00     0.057 A 
ATOM     69  C   UNL A   1      42.335  22.321  28.144  1.00  0.00     0.134 A 
ATOM     70  C   UNL A   1      42.695  23.174  25.939  1.00  0.00     0.134 A 
ATOM     71  F   UNL A   1      42.278  22.478  29.475  1.00  0.00    -0.206 F 
ATOM     72  C   UNL A   1      42.137  21.039  27.625  1.00  0.00     0.040 A 
ATOM     73  C   UNL A   1      42.472  21.904  25.403  1.00  0.00     0.040 A 
ATOM     74  F   UNL A   1      42.971  24.177  25.092  1.00  0.00    -0.206 F 
ATOM     75  C   UNL A   1      42.201  20.831  26.248  1.00  0.00     0.006 A 
ENDBRANCH  47  68
BRANCH  59  76
ATOM     76  C   UNL A   1      48.392  26.811  29.265  1.00  0.00     0.057 A 
ATOM     77  C   UNL A   1      48.922  26.070  30.326  1.00  0.00     0.134 A 
ATOM     78  C   UNL A   1      49.247  27.118  28.198  1.00  0.00     0.134 A 
ATOM     79  F   UNL A   1      48.160  25.753  31.383  1.00  0.00    -0.206 F 
ATOM     80  C   UNL A   1      50.255  25.654  30.331  1.00  0.00     0.040 A 
ATOM     81  C   UNL A   1      50.574  26.687  28.178  1.00  0.00     0.040 A 
ATOM     82  F   UNL A   1      48.800  27.819  27.145  1.00  0.00    -0.206 F 
ATOM     83  C   UNL A   1      51.083  25.954  29.249  1.00  0.00     0.006 A 
ENDBRANCH  59  76
ENDBRANCH  33  34
ENDBRANCH  25  28
ENDBRANCH  23  24
ENDBRANCH   1  23
TORSDOF 12
ENDMDL
MODEL 2
REMARK VINA RESULT:     -12.0      1.470      2.648
REMARK SMILES C[C@H]1CC[C@@H]([C@H](C(=O)NCCCNC(=O)c2ccc(-c3c4nc(c(-c5c(F)cccc5F)c5ccc([nH]5)c(-c5c(F)cccc5F)c5nc(c(-c6c(F)cccc6F)c6ccc3[nH]6)C=C5)C=C4)cc2)[C@@H]2CCS(=O)(=O)C2)C[C@@H]1C
REMARK SMILES IDX 11 1 10 2 9 3 7 4 8 5 6 7 5 8 1 9 2 10 3 11 78 12 4 13 77 14
REMARK SMILES IDX 79 15 70 16 71 17 76 18 72 19 73 20 74 21 75 22 12 23 13 24
REMARK SMILES IDX 14 25 15 27 16 28 17 29 69 30 18 31 68 32 19 33 20 34 21 35
REMARK SMILES IDX 62 36 22 37 67 38 61 39 63 40 23 41 66 42 60 43 59 44 24 46
REMARK SMILES IDX 50 47 33 48 49 49 34 50 37 51 48 52 64 53 35 54 36 55 47 57
REMARK SMILES IDX 65 58 38 59 25 60 26 61 31 62 27 63 28 64 30 65 32 66 29 67
REMARK SMILES IDX 51 68 52 69 57 70 53 71 54 72 56 73 58 74 55 75 39 76 40 77
REMARK SMILES IDX 45 78 41 79 42 80 44 81 46 82 43 83
REMARK H PARENT 9 6 13 26 63 45 37 56
REMARK Flexibility Score: inf
ROOT
ATOM      1  C   UNL A   1      34.004  28.814  25.769  1.00  0.00     0.042 C 
ENDROOT
BRANCH   1   2
ATOM      2  C   UNL A   1      33.912  27.435  25.139  1.00  0.00     0.117 C 
BRANCH   2   3
ATOM      3  N   UNL A   1      33.902  27.591  23.712  1.00  0.00    -0.356 N 
ATOM      4  C   UNL A   1      33.105  27.120  22.727  1.00  0.00     0.223 C 
ATOM      5  O   UNL A   1      33.653  27.265  21.628  1.00  0.00    -0.275 OA
ATOM      6  H   UNL A   1      34.630  28.162  23.380  1.00  0.00     0.163 HD
BRANCH   4   7
ATOM      7  C   UNL A   1      31.592  26.697  22.858  1.00  0.00     0.085 C 
BRANCH   7   8
ATOM      8  C   UNL A   1      31.567  25.071  22.734  1.00  0.00     0.002 C 
ATOM      9  C   UNL A   1      33.402  23.374  26.312  1.00  0.00     0.008 C 
ATOM     10  C   UNL A   1      32.764  23.274  24.909  1.00  0.00    -0.011 C 
ATOM     11  C   UNL A   1      31.300  23.792  24.991  1.00  0.00     0.004 C 
ATOM     12  C   UNL A   1      33.661  23.940  23.834  1.00  0.00    -0.011 C 
ATOM     13  C   UNL A   1      30.654  24.297  23.700  1.00  0.00     0.005 C 
ATOM     14  C   UNL A   1      32.877  24.250  22.565  1.00  0.00     0.008 C 
ATOM     15  C   UNL A   1      34.909  23.104  23.500  1.00  0.00     0.008 C 
ENDBRANCH   7   8
BRANCH   7  16
ATOM     16  C   UNL A   1      30.433  27.338  23.751  1.00  0.00     0.018 C 
ATOM     17  C   UNL A   1      28.908  27.167  23.501  1.00  0.00     0.021 C 
ATOM     18  C   UNL A   1      30.503  28.810  24.098  1.00  0.00     0.141 C 
ATOM     19  C   UNL A   1      28.250  28.486  23.013  1.00  0.00     0.137 C 
ATOM     20  S   UNL A   1      29.549  29.680  22.918  1.00  0.00     0.150 S 
ATOM     21  O   UNL A   1      30.203  29.576  21.625  1.00  0.00    -0.229 OA
ATOM     22  O   UNL A   1      29.118  30.933  23.480  1.00  0.00    -0.229 OA
ENDBRANCH   7  16
ENDBRANCH   4   7
ENDBRANCH   2   3
ENDBRANCH   1   2
BRANCH   1  23
ATOM     23  C   UNL A   1      33.636  28.906  27.241  1.00  0.00     0.118 C 
BRANCH  23  24
ATOM     24  N   UNL A   1      33.881  30.254  27.722  1.00  0.00    -0.352 N 
ATOM     25  C   UNL A   1      34.900  30.734  28.511  1.00  0.00     0.251 C 
ATOM     26  H   UNL A   1      33.218  30.926  27.440  1.00  0.00     0.163 HD
ATOM     27  O   UNL A   1      34.685  31.737  29.189  1.00  0.00    -0.269 OA
BRANCH  25  28
ATOM     28  C   UNL A   1      36.245  30.097  28.561  1.00  0.00     0.039 A 
ATOM     29  C   UNL A   1      36.660  29.503  29.764  1.00  0.00     0.014 A 
ATOM     30  C   UNL A   1      37.159  30.192  27.511  1.00  0.00     0.014 A 
ATOM     31  C   UNL A   1      37.966  29.015  29.909  1.00  0.00     0.010 A 
ATOM     32  C   UNL A   1      38.434  29.632  27.625  1.00  0.00     0.010 A 
ATOM     33  C   UNL A   1      38.866  29.070  28.836  1.00  0.00    -0.014 A 
BRANCH  33  34
ATOM     34  C   UNL A   1      40.284  28.629  28.963  1.00  0.00     0.031 A 
ATOM     35  C   UNL A   1      41.337  29.614  29.404  1.00  0.00     0.074 A 
ATOM     36  C   UNL A   1      40.648  27.379  28.618  1.00  0.00     0.049 A 
ATOM     37  N   UNL A   1      42.641  29.493  29.414  1.00  0.00    -0.248 NA
ATOM     38  C   UNL A   1      40.856  30.924  29.876  1.00  0.00     0.031 C 
ATOM     39  C   UNL A   1      39.738  26.325  28.169  1.00  0.00     0.029 A 
ATOM     40  N   UNL A   1      41.890  26.793  28.563  1.00  0.00    -0.354 N 
ATOM     41  C   UNL A   1      43.133  30.717  29.855  1.00  0.00     0.074 A 
ATOM     42  C   UNL A   1      41.992  31.578  30.069  1.00  0.00     0.031 C 
ATOM     43  C   UNL A   1      40.451  25.224  27.882  1.00  0.00     0.029 A 
ATOM     44  C   UNL A   1      41.870  25.507  28.076  1.00  0.00     0.049 A 
ATOM     45  H   UNL A   1      42.714  27.249  28.846  1.00  0.00     0.167 HD
ATOM     46  C   UNL A   1      44.418  31.086  30.074  1.00  0.00     0.037 A 
ATOM     47  C   UNL A   1      42.881  24.664  27.788  1.00  0.00     0.037 A 
ATOM     48  C   UNL A   1      45.553  30.219  29.891  1.00  0.00     0.049 A 
ATOM     49  C   UNL A   1      44.302  25.107  28.006  1.00  0.00     0.074 A 
ATOM     50  C   UNL A   1      46.889  30.485  30.136  1.00  0.00     0.029 A 
ATOM     51  N   UNL A   1      45.483  28.918  29.416  1.00  0.00    -0.354 N 
ATOM     52  N   UNL A   1      44.752  26.252  28.461  1.00  0.00    -0.248 NA
ATOM     53  C   UNL A   1      45.359  24.142  27.669  1.00  0.00     0.031 C 
ATOM     54  C   UNL A   1      47.633  29.361  29.765  1.00  0.00     0.029 A 
ATOM     55  C   UNL A   1      46.756  28.376  29.342  1.00  0.00     0.049 A 
ATOM     56  H   UNL A   1      44.653  28.449  29.168  1.00  0.00     0.167 HD
ATOM     57  C   UNL A   1      46.135  26.130  28.499  1.00  0.00     0.074 A 
ATOM     58  C   UNL A   1      46.454  24.801  28.026  1.00  0.00     0.031 C 
ATOM     59  C   UNL A   1      47.058  27.041  28.896  1.00  0.00     0.037 A 
BRANCH  46  60
ATOM     60  C   UNL A   1      44.672  32.494  30.531  1.00  0.00     0.057 A 
ATOM     61  C   UNL A   1      44.763  32.829  31.888  1.00  0.00     0.134 A 
ATOM     62  C   UNL A   1      44.874  33.522  29.599  1.00  0.00     0.134 A 
ATOM     63  F   UNL A   1      44.573  31.896  32.833  1.00  0.00    -0.206 F 
ATOM     64  C   UNL A   1      45.017  34.138  32.302  1.00  0.00     0.040 A 
ATOM     65  C   UNL A   1      45.158  34.827  30.000  1.00  0.00     0.040 A 
ATOM     66  F   UNL A   1      44.814  33.270  28.282  1.00  0.00    -0.206 F 
ATOM     67  C   UNL A   1      45.224  35.141  31.357  1.00  0.00     0.006 A 
ENDBRANCH  46  60
BRANCH  47  68
ATOM     68  C   UNL A   1      42.588  23.309  27.253  1.00  0.00     0.057 A 
ATOM     69  C   UNL A   1      42.293  22.244  28.111  1.00  0.00     0.134 A 
ATOM     70  C   UNL A   1      42.612  23.042  25.879  1.00  0.00     0.134 A 
ATOM     71  F   UNL A   1      42.278  22.430  29.439  1.00  0.00    -0.206 F 
ATOM     72  C   UNL A   1      42.047  20.958  27.624  1.00  0.00     0.040 A 
ATOM     73  C   UNL A   1      42.341  21.768  25.376  1.00  0.00     0.040 A 
ATOM     74  F   UNL A   1      42.890  24.020  25.004  1.00  0.00    -0.206 F 
ATOM     75  C   UNL A   1      42.066  20.720  26.251  1.00  0.00     0.006 A 
ENDBRANCH  47  68
BRANCH  59  76
ATOM     76  C   UNL A   1      48.498  26.619  28.898  1.00  0.00     0.057 A 
ATOM     77  C   UNL A   1      49.353  26.882  27.822  1.00  0.00     0.134 A 
ATOM     78  C   UNL A   1      49.052  26.007  30.031  1.00  0.00     0.134 A 
ATOM     79  F   UNL A   1      48.883  27.454  26.704  1.00  0.00    -0.206 F 
ATOM     80  C   UNL A   1      50.707  26.543  27.867  1.00  0.00     0.040 A 
ATOM     81  C   UNL A   1      50.409  25.688  30.099  1.00  0.00     0.040 A 
ATOM     82  F   UNL A   1      48.290  25.735  31.101  1.00  0.00    -0.206 F 
ATOM     83  C   UNL A   1      51.241  25.954  29.013  1.00  0.00     0.006 A 
ENDBRANCH  59  76
ENDBRANCH  33  34
ENDBRANCH  25  28
ENDBRANCH  23  24
ENDBRANCH   1  23
TORSDOF 12
ENDMDL
MODEL 3
REMARK VINA RESULT:     -11.9      3.870      7.977
REMARK SMILES C[C@H]1CC[C@@H]([C@H](C(=O)NCCCNC(=O)c2ccc(-c3c4nc(c(-c5c(F)cccc5F)c5ccc([nH]5)c(-c5c(F)cccc5F)c5nc(c(-c6c(F)cccc6F)c6ccc3[nH]6)C=C5)C=C4)cc2)[C@@H]2CCS(=O)(=O)C2)C[C@@H]1C
REMARK SMILES IDX 11 1 10 2 9 3 7 4 8 5 6 7 5 8 1 9 2 10 3 11 78 12 4 13 77 14
REMARK SMILES IDX 79 15 70 16 71 17 76 18 72 19 73 20 74 21 75 22 12 23 13 24
REMARK SMILES IDX 14 25 15 27 16 28 17 29 69 30 18 31 68 32 19 33 20 34 21 35
REMARK SMILES IDX 62 36 22 37 67 38 61 39 63 40 23 41 66 42 60 43 59 44 24 46
REMARK SMILES IDX 50 47 33 48 49 49 34 50 37 51 48 52 64 53 35 54 36 55 47 57
REMARK SMILES IDX 65 58 38 59 25 60 26 61 31 62 27 63 28 64 30 65 32 66 29 67
REMARK SMILES IDX 51 68 52 69 57 70 53 71 54 72 56 73 58 74 55 75 39 76 40 77
REMARK SMILES IDX 45 78 41 79 42 80 44 81 46 82 43 83
REMARK H PARENT 9 6 13 26 63 45 37 56
REMARK Flexibility Score: inf
ROOT
ATOM      1  C   UNL A   1      31.433  31.895  26.516  1.00  0.00     0.042 C 
ENDROOT
BRANCH   1   2
ATOM      2  C   UNL A   1      31.546  30.534  25.852  1.00  0.00     0.117 C 
BRANCH   2   3
ATOM      3  N   UNL A   1      31.681  29.540  26.880  1.00  0.00    -0.356 N 
ATOM      4  C   UNL A   1      31.558  28.195  26.900  1.00  0.00     0.223 C 
ATOM      5  O   UNL A   1      31.465  27.791  28.065  1.00  0.00    -0.275 OA
ATOM      6  H   UNL A   1      31.913  29.920  27.758  1.00  0.00     0.163 HD
BRANCH   4   7
ATOM      7  C   UNL A   1      31.773  27.210  25.688  1.00  0.00     0.085 C 
BRANCH   7   8
ATOM      8  C   UNL A   1      32.653  25.965  26.271  1.00  0.00     0.002 C 
ATOM      9  C   UNL A   1      33.012  22.934  23.152  1.00  0.00     0.008 C 
ATOM     10  C   UNL A   1      33.225  23.472  24.584  1.00  0.00    -0.011 C 
ATOM     11  C   UNL A   1      34.131  24.734  24.511  1.00  0.00     0.004 C 
ATOM     12  C   UNL A   1      31.875  23.647  25.325  1.00  0.00    -0.011 C 
ATOM     13  C   UNL A   1      34.047  25.734  25.665  1.00  0.00     0.005 C 
ATOM     14  C   UNL A   1      32.014  24.571  26.528  1.00  0.00     0.008 C 
ATOM     15  C   UNL A   1      31.253  22.306  25.751  1.00  0.00     0.008 C 
ENDBRANCH   7   8
BRANCH   7  16
ATOM     16  C   UNL A   1      30.787  26.851  24.483  1.00  0.00     0.018 C 
ATOM     17  C   UNL A   1      31.174  26.034  23.219  1.00  0.00     0.021 C 
ATOM     18  C   UNL A   1      29.951  27.953  23.867  1.00  0.00     0.141 C 
ATOM     19  C   UNL A   1      31.218  26.922  21.946  1.00  0.00     0.137 C 
ATOM     20  S   UNL A   1      30.815  28.560  22.474  1.00  0.00     0.150 S 
ATOM     21  O   UNL A   1      32.023  29.228  22.931  1.00  0.00    -0.229 OA
ATOM     22  O   UNL A   1      29.885  29.165  21.558  1.00  0.00    -0.229 OA
ENDBRANCH   7  16
ENDBRANCH   4   7
ENDBRANCH   2   3
ENDBRANCH   1   2
BRANCH   1  23
ATOM     23  C   UNL A   1      32.658  32.375  27.278  1.00  0.00     0.118 C 
BRANCH  23  24
ATOM     24  N   UNL A   1      32.560  33.805  27.507  1.00  0.00    -0.352 N 
ATOM     25  C   UNL A   1      33.110  34.575  28.505  1.00  0.00     0.251 C 
ATOM     26  H   UNL A   1      32.019  34.299  26.848  1.00  0.00     0.163 HD
ATOM     27  O   UNL A   1      32.545  35.625  28.806  1.00  0.00    -0.269 OA
BRANCH  25  28
ATOM     28  C   UNL A   1      34.361  34.192  29.217  1.00  0.00     0.039 A 
ATOM     29  C   UNL A   1      35.592  34.469  28.602  1.00  0.00     0.014 A 
ATOM     30  C   UNL A   1      34.354  33.446  30.396  1.00  0.00     0.014 A 
ATOM     31  C   UNL A   1      36.792  34.005  29.160  1.00  0.00     0.010 A 
ATOM     32  C   UNL A   1      35.553  33.055  30.997  1.00  0.00     0.010 A 
ATOM     33  C   UNL A   1      36.784  33.296  30.369  1.00  0.00    -0.014 A 
BRANCH  33  34
ATOM     34  C   UNL A   1      38.024  32.723  30.964  1.00  0.00     0.031 A 
ATOM     35  C   UNL A   1      38.655  31.502  30.345  1.00  0.00     0.074 A 
ATOM     36  C   UNL A   1      38.547  33.241  32.092  1.00  0.00     0.049 A 
ATOM     37  N   UNL A   1      39.624  30.744  30.795  1.00  0.00    -0.248 NA
ATOM     38  C   UNL A   1      38.104  31.059  29.053  1.00  0.00     0.031 C 
ATOM     39  C   UNL A   1      38.038  34.415  32.801  1.00  0.00     0.029 A 
ATOM     40  N   UNL A   1      39.610  32.824  32.858  1.00  0.00    -0.354 N 
ATOM     41  C   UNL A   1      39.770  29.721  29.865  1.00  0.00     0.074 A 
ATOM     42  C   UNL A   1      38.770  29.934  28.843  1.00  0.00     0.031 C 
ATOM     43  C   UNL A   1      38.785  34.623  33.898  1.00  0.00     0.029 A 
ATOM     44  C   UNL A   1      39.791  33.569  33.998  1.00  0.00     0.049 A 
ATOM     45  H   UNL A   1      40.186  32.065  32.612  1.00  0.00     0.167 HD
ATOM     46  C   UNL A   1      40.665  28.703  29.855  1.00  0.00     0.037 A 
ATOM     47  C   UNL A   1      40.649  33.405  35.025  1.00  0.00     0.037 A 
ATOM     48  C   UNL A   1      41.681  28.509  30.856  1.00  0.00     0.049 A 
ATOM     49  C   UNL A   1      41.610  32.248  35.011  1.00  0.00     0.074 A 
ATOM     50  C   UNL A   1      42.667  27.538  30.906  1.00  0.00     0.029 A 
ATOM     51  N   UNL A   1      41.841  29.301  31.983  1.00  0.00    -0.354 N 
ATOM     52  N   UNL A   1      41.765  31.311  34.106  1.00  0.00    -0.248 NA
ATOM     53  C   UNL A   1      42.518  32.123  36.161  1.00  0.00     0.031 C 
ATOM     54  C   UNL A   1      43.394  27.714  32.087  1.00  0.00     0.029 A 
ATOM     55  C   UNL A   1      42.897  28.828  32.744  1.00  0.00     0.049 A 
ATOM     56  H   UNL A   1      41.287  30.083  32.208  1.00  0.00     0.167 HD
ATOM     57  C   UNL A   1      42.807  30.512  34.559  1.00  0.00     0.074 A 
ATOM     58  C   UNL A   1      43.251  31.072  35.817  1.00  0.00     0.031 C 
ATOM     59  C   UNL A   1      43.348  29.411  33.981  1.00  0.00     0.037 A 
BRANCH  46  60
ATOM     60  C   UNL A   1      40.583  27.712  28.729  1.00  0.00     0.057 A 
ATOM     61  C   UNL A   1      39.732  26.601  28.778  1.00  0.00     0.134 A 
ATOM     62  C   UNL A   1      41.334  27.898  27.560  1.00  0.00     0.134 A 
ATOM     63  F   UNL A   1      38.991  26.359  29.870  1.00  0.00    -0.206 F 
ATOM     64  C   UNL A   1      39.651  25.696  27.718  1.00  0.00     0.040 A 
ATOM     65  C   UNL A   1      41.239  27.016  26.483  1.00  0.00     0.040 A 
ATOM     66  F   UNL A   1      42.161  28.948  27.440  1.00  0.00    -0.206 F 
ATOM     67  C   UNL A   1      40.400  25.906  26.562  1.00  0.00     0.006 A 
ENDBRANCH  46  60
BRANCH  47  68
ATOM     68  C   UNL A   1      40.636  34.360  36.164  1.00  0.00     0.057 A 
ATOM     69  C   UNL A   1      41.398  35.533  36.129  1.00  0.00     0.134 A 
ATOM     70  C   UNL A   1      39.878  34.117  37.315  1.00  0.00     0.134 A 
ATOM     71  F   UNL A   1      42.163  35.810  35.064  1.00  0.00    -0.206 F 
ATOM     72  C   UNL A   1      41.421  36.423  37.205  1.00  0.00     0.040 A 
ATOM     73  C   UNL A   1      39.869  35.012  38.387  1.00  0.00     0.040 A 
ATOM     74  F   UNL A   1      39.127  33.010  37.411  1.00  0.00    -0.206 F 
ATOM     75  C   UNL A   1      40.649  36.165  38.337  1.00  0.00     0.006 A 
ENDBRANCH  47  68
BRANCH  59  76
ATOM     76  C   UNL A   1      44.522  28.771  34.661  1.00  0.00     0.057 A 
ATOM     77  C   UNL A   1      44.368  27.765  35.622  1.00  0.00     0.134 A 
ATOM     78  C   UNL A   1      45.829  29.118  34.290  1.00  0.00     0.134 A 
ATOM     79  F   UNL A   1      43.145  27.395  36.029  1.00  0.00    -0.206 F 
ATOM     80  C   UNL A   1      45.472  27.131  36.197  1.00  0.00     0.040 A 
ATOM     81  C   UNL A   1      46.939  28.474  34.838  1.00  0.00     0.040 A 
ATOM     82  F   UNL A   1      46.046  30.069  33.369  1.00  0.00    -0.206 F 
ATOM     83  C   UNL A   1      46.762  27.478  35.797  1.00  0.00     0.006 A 
ENDBRANCH  59  76
ENDBRANCH  33  34
ENDBRANCH  25  28
ENDBRANCH  23  24
ENDBRANCH   1  23
TORSDOF 12
ENDMDL
