MODEL 1
REMARK VINA RESULT:     -12.4      0.000      0.000
REMARK SMILES CCn1c(N2CCC(C(=O)NCCCNC(=O)c3ccc(-c4c5nc(c(-c6c(F)cccc6F)c6ccc([nH]6)c(-c6c(F)cccc6F)c6nc(c(-c7c(F)cccc7F)c7ccc4[nH]7)C=C6)C=C5)cc3)CC2)nc2cc(C)ccc21
REMARK SMILES IDX 13 1 12 2 11 3 9 4 10 5 8 7 5 8 6 9 73 10 7 11 72 12 4 13
REMARK SMILES IDX 3 14 81 15 74 16 75 17 80 18 76 19 79 20 77 21 78 22 2 23
REMARK SMILES IDX 1 24 14 25 15 26 16 27 17 29 18 30 19 31 71 32 20 33 70 34
REMARK SMILES IDX 21 35 22 36 23 37 64 38 24 39 69 40 63 41 65 42 25 43 68 44
REMARK SMILES IDX 62 45 61 46 26 48 52 49 35 50 51 51 36 52 39 53 50 54 66 55
REMARK SMILES IDX 37 56 38 57 49 59 67 60 40 61 27 62 28 63 33 64 29 65 30 66
REMARK SMILES IDX 32 67 34 68 31 69 53 70 54 71 59 72 55 73 56 74 58 75 60 76
REMARK SMILES IDX 57 77 41 78 42 79 47 80 43 81 44 82 46 83 48 84 45 85
REMARK H PARENT 11 6 15 28 65 47 39 58
REMARK Flexibility Score: inf
ROOT
ATOM      1  C   UNL A   1      33.442  28.967  26.357  1.00  0.00     0.042 C 
ENDROOT
BRANCH   1   2
ATOM      2  C   UNL A   1      33.323  28.863  24.840  1.00  0.00     0.117 C 
BRANCH   2   3
ATOM      3  N   UNL A   1      32.116  29.485  24.317  1.00  0.00    -0.356 N 
ATOM      4  C   UNL A   1      30.942  28.951  23.890  1.00  0.00     0.223 C 
ATOM      5  O   UNL A   1      30.053  29.736  23.546  1.00  0.00    -0.275 OA
ATOM      6  H   UNL A   1      32.157  30.467  24.265  1.00  0.00     0.163 HD
BRANCH   4   7
ATOM      7  C   UNL A   1      30.697  27.450  23.821  1.00  0.00     0.082 C 
ATOM      8  N   UNL A   1      31.499  24.743  24.273  1.00  0.00    -0.342 N 
ATOM      9  C   UNL A   1      31.517  25.248  22.906  1.00  0.00     0.120 C 
ATOM     10  C   UNL A   1      30.485  25.292  25.161  1.00  0.00     0.120 C 
ATOM     11  C   UNL A   1      31.696  26.756  22.890  1.00  0.00     0.035 C 
ATOM     12  C   UNL A   1      30.567  26.815  25.212  1.00  0.00     0.035 C 
BRANCH   8  13
ATOM     13  C   UNL A   1      32.639  24.208  24.770  1.00  0.00     0.206 A 
ATOM     14  N   UNL A   1      32.878  22.849  24.731  1.00  0.00    -0.310 N 
ATOM     15  C   UNL A   1      34.199  22.643  25.065  1.00  0.00     0.070 A 
ATOM     16  N   UNL A   1      33.703  24.864  25.172  1.00  0.00    -0.213 NA
ATOM     17  C   UNL A   1      34.677  23.917  25.353  1.00  0.00     0.091 A 
ATOM     18  C   UNL A   1      35.006  21.501  25.109  1.00  0.00     0.029 A 
ATOM     19  C   UNL A   1      36.019  24.080  25.721  1.00  0.00     0.034 A 
ATOM     20  C   UNL A   1      36.345  21.682  25.463  1.00  0.00     0.006 A 
ATOM     21  C   UNL A   1      36.856  22.953  25.753  1.00  0.00    -0.049 A 
ATOM     22  C   UNL A   1      38.300  23.128  26.098  1.00  0.00     0.044 C 
BRANCH  14  23
ATOM     23  C   UNL A   1      31.991  21.823  24.220  1.00  0.00     0.122 C 
ATOM     24  C   UNL A   1      32.162  21.565  22.731  1.00  0.00     0.028 C 
ENDBRANCH  14  23
ENDBRANCH   8  13
ENDBRANCH   4   7
ENDBRANCH   2   3
ENDBRANCH   1   2
BRANCH   1  25
ATOM     25  C   UNL A   1      34.872  28.948  26.896  1.00  0.00     0.118 C 
BRANCH  25  26
ATOM     26  N   UNL A   1      35.017  29.416  28.263  1.00  0.00    -0.352 N 
ATOM     27  C   UNL A   1      36.069  29.730  29.077  1.00  0.00     0.251 C 
ATOM     28  H   UNL A   1      34.150  29.535  28.711  1.00  0.00     0.163 HD
ATOM     29  O   UNL A   1      35.773  30.300  30.136  1.00  0.00    -0.269 OA
BRANCH  27  30
ATOM     30  C   UNL A   1      37.499  29.394  28.835  1.00  0.00     0.039 A 
ATOM     31  C   UNL A   1      38.221  29.710  27.688  1.00  0.00     0.014 A 
ATOM     32  C   UNL A   1      38.138  28.630  29.835  1.00  0.00     0.014 A 
ATOM     33  C   UNL A   1      39.504  29.193  27.507  1.00  0.00     0.010 A 
ATOM     34  C   UNL A   1      39.431  28.133  29.671  1.00  0.00     0.010 A 
ATOM     35  C   UNL A   1      40.104  28.382  28.483  1.00  0.00    -0.014 A 
BRANCH  35  36
ATOM     36  C   UNL A   1      41.504  27.994  28.272  1.00  0.00     0.031 A 
ATOM     37  C   UNL A   1      41.631  26.696  27.561  1.00  0.00     0.074 A 
ATOM     38  C   UNL A   1      42.606  28.707  28.596  1.00  0.00     0.049 A 
ATOM     39  N   UNL A   1      42.008  25.573  28.074  1.00  0.00    -0.248 NA
ATOM     40  C   UNL A   1      41.130  26.586  26.183  1.00  0.00     0.031 C 
ATOM     41  C   UNL A   1      42.660  30.101  29.036  1.00  0.00     0.029 A 
ATOM     42  N   UNL A   1      43.933  28.356  28.525  1.00  0.00    -0.354 N 
ATOM     43  C   UNL A   1      42.026  24.664  27.021  1.00  0.00     0.074 A 
ATOM     44  C   UNL A   1      41.310  25.285  25.939  1.00  0.00     0.031 C 
ATOM     45  C   UNL A   1      43.938  30.542  28.973  1.00  0.00     0.029 A 
ATOM     46  C   UNL A   1      44.813  29.431  28.630  1.00  0.00     0.049 A 
ATOM     47  H   UNL A   1      44.236  27.426  28.411  1.00  0.00     0.167 HD
ATOM     48  C   UNL A   1      42.914  23.632  27.044  1.00  0.00     0.037 A 
ATOM     49  C   UNL A   1      46.158  29.431  28.432  1.00  0.00     0.037 A 
ATOM     50  C   UNL A   1      43.450  23.456  28.373  1.00  0.00     0.049 A 
ATOM     51  C   UNL A   1      46.666  28.054  28.597  1.00  0.00     0.074 A 
ATOM     52  C   UNL A   1      43.048  22.958  29.592  1.00  0.00     0.029 A 
ATOM     53  N   UNL A   1      44.542  24.241  28.602  1.00  0.00    -0.354 N 
ATOM     54  N   UNL A   1      46.788  27.465  29.750  1.00  0.00    -0.248 NA
ATOM     55  C   UNL A   1      46.792  27.177  27.438  1.00  0.00     0.031 C 
ATOM     56  C   UNL A   1      43.891  23.570  30.575  1.00  0.00     0.029 A 
ATOM     57  C   UNL A   1      44.810  24.393  29.930  1.00  0.00     0.049 A 
ATOM     58  H   UNL A   1      45.078  24.652  27.886  1.00  0.00     0.167 HD
ATOM     59  C   UNL A   1      46.492  26.147  29.481  1.00  0.00     0.074 A 
ATOM     60  C   UNL A   1      46.732  25.993  28.052  1.00  0.00     0.031 C 
ATOM     61  C   UNL A   1      45.729  25.424  30.355  1.00  0.00     0.037 A 
BRANCH  48  62
ATOM     62  C   UNL A   1      43.752  23.215  25.840  1.00  0.00     0.057 A 
ATOM     63  C   UNL A   1      44.689  24.046  25.190  1.00  0.00     0.134 A 
ATOM     64  C   UNL A   1      43.905  21.837  25.580  1.00  0.00     0.134 A 
ATOM     65  F   UNL A   1      44.720  25.371  25.358  1.00  0.00    -0.206 F 
ATOM     66  C   UNL A   1      45.731  23.546  24.402  1.00  0.00     0.040 A 
ATOM     67  C   UNL A   1      44.971  21.325  24.827  1.00  0.00     0.040 A 
ATOM     68  F   UNL A   1      43.078  20.937  26.133  1.00  0.00    -0.206 F 
ATOM     69  C   UNL A   1      45.899  22.180  24.249  1.00  0.00     0.006 A 
ENDBRANCH  48  62
BRANCH  49  70
ATOM     70  C   UNL A   1      47.065  30.510  27.977  1.00  0.00     0.057 A 
ATOM     71  C   UNL A   1      48.005  31.074  28.853  1.00  0.00     0.134 A 
ATOM     72  C   UNL A   1      46.827  31.218  26.787  1.00  0.00     0.134 A 
ATOM     73  F   UNL A   1      48.264  30.511  30.041  1.00  0.00    -0.206 F 
ATOM     74  C   UNL A   1      48.640  32.292  28.584  1.00  0.00     0.040 A 
ATOM     75  C   UNL A   1      47.451  32.442  26.508  1.00  0.00     0.040 A 
ATOM     76  F   UNL A   1      45.928  30.778  25.895  1.00  0.00    -0.206 F 
ATOM     77  C   UNL A   1      48.349  32.990  27.418  1.00  0.00     0.006 A 
ENDBRANCH  49  70
BRANCH  61  78
ATOM     78  C   UNL A   1      45.800  25.838  31.794  1.00  0.00     0.057 A 
ATOM     79  C   UNL A   1      44.690  26.480  32.356  1.00  0.00     0.134 A 
ATOM     80  C   UNL A   1      46.880  25.576  32.652  1.00  0.00     0.134 A 
ATOM     81  F   UNL A   1      43.641  26.818  31.590  1.00  0.00    -0.206 F 
ATOM     82  C   UNL A   1      44.624  26.786  33.715  1.00  0.00     0.040 A 
ATOM     83  C   UNL A   1      46.801  25.817  34.026  1.00  0.00     0.040 A 
ATOM     84  F   UNL A   1      48.048  25.110  32.183  1.00  0.00    -0.206 F 
ATOM     85  C   UNL A   1      45.665  26.418  34.562  1.00  0.00     0.006 A 
ENDBRANCH  61  78
ENDBRANCH  35  36
ENDBRANCH  27  30
ENDBRANCH  25  26
ENDBRANCH   1  25
TORSDOF 12
ENDMDL
MODEL 2
REMARK VINA RESULT:     -12.1      2.035      6.180
REMARK SMILES CCn1c(N2CCC(C(=O)NCCCNC(=O)c3ccc(-c4c5nc(c(-c6c(F)cccc6F)c6ccc([nH]6)c(-c6c(F)cccc6F)c6nc(c(-c7c(F)cccc7F)c7ccc4[nH]7)C=C6)C=C5)cc3)CC2)nc2cc(C)ccc21
REMARK SMILES IDX 13 1 12 2 11 3 9 4 10 5 8 7 5 8 6 9 73 10 7 11 72 12 4 13
REMARK SMILES IDX 3 14 81 15 74 16 75 17 80 18 76 19 79 20 77 21 78 22 2 23
REMARK SMILES IDX 1 24 14 25 15 26 16 27 17 29 18 30 19 31 71 32 20 33 70 34
REMARK SMILES IDX 21 35 22 36 23 37 64 38 24 39 69 40 63 41 65 42 25 43 68 44
REMARK SMILES IDX 62 45 61 46 26 48 52 49 35 50 51 51 36 52 39 53 50 54 66 55
REMARK SMILES IDX 37 56 38 57 49 59 67 60 40 61 27 62 28 63 33 64 29 65 30 66
REMARK SMILES IDX 32 67 34 68 31 69 53 70 54 71 59 72 55 73 56 74 58 75 60 76
REMARK SMILES IDX 57 77 41 78 42 79 47 80 43 81 44 82 46 83 48 84 45 85
REMARK H PARENT 11 6 15 28 65 47 39 58
REMARK Flexibility Score: inf
ROOT
ATOM      1  C   UNL A   1      34.834  29.663  27.554  1.00  0.00     0.042 C 
ENDROOT
BRANCH   1   2
ATOM      2  C   UNL A   1      33.921  28.933  26.573  1.00  0.00     0.117 C 
BRANCH   2   3
ATOM      3  N   UNL A   1      32.817  29.755  26.101  1.00  0.00    -0.356 N 
ATOM      4  C   UNL A   1      31.832  29.506  25.198  1.00  0.00     0.223 C 
ATOM      5  O   UNL A   1      30.978  30.383  25.033  1.00  0.00    -0.275 OA
ATOM      6  H   UNL A   1      32.775  30.650  26.509  1.00  0.00     0.163 HD
BRANCH   4   7
ATOM      7  C   UNL A   1      31.755  28.212  24.401  1.00  0.00     0.082 C 
ATOM      8  N   UNL A   1      32.667  25.573  23.787  1.00  0.00    -0.342 N 
ATOM      9  C   UNL A   1      32.982  26.645  22.851  1.00  0.00     0.120 C 
ATOM     10  C   UNL A   1      31.415  25.688  24.520  1.00  0.00     0.120 C 
ATOM     11  C   UNL A   1      33.016  27.987  23.562  1.00  0.00     0.035 C 
ATOM     12  C   UNL A   1      31.338  27.016  25.269  1.00  0.00     0.035 C 
BRANCH   8  13
ATOM     13  C   UNL A   1      33.691  24.832  24.275  1.00  0.00     0.206 A 
ATOM     14  N   UNL A   1      34.049  23.628  23.705  1.00  0.00    -0.310 N 
ATOM     15  C   UNL A   1      35.258  23.248  24.245  1.00  0.00     0.070 A 
ATOM     16  N   UNL A   1      34.561  25.202  25.187  1.00  0.00    -0.213 NA
ATOM     17  C   UNL A   1      35.538  24.240  25.179  1.00  0.00     0.091 A 
ATOM     18  C   UNL A   1      36.126  22.180  23.990  1.00  0.00     0.029 A 
ATOM     19  C   UNL A   1      36.727  24.174  25.917  1.00  0.00     0.034 A 
ATOM     20  C   UNL A   1      37.314  22.137  24.723  1.00  0.00     0.006 A 
ATOM     21  C   UNL A   1      37.624  23.124  25.666  1.00  0.00    -0.049 A 
ATOM     22  C   UNL A   1      38.916  23.076  26.415  1.00  0.00     0.044 C 
BRANCH  14  23
ATOM     23  C   UNL A   1      33.409  22.970  22.583  1.00  0.00     0.122 C 
ATOM     24  C   UNL A   1      32.511  21.813  22.994  1.00  0.00     0.028 C 
ENDBRANCH  14  23
ENDBRANCH   8  13
ENDBRANCH   4   7
ENDBRANCH   2   3
ENDBRANCH   1   2
BRANCH   1  25
ATOM     25  C   UNL A   1      34.597  31.169  27.659  1.00  0.00     0.118 C 
BRANCH  25  26
ATOM     26  N   UNL A   1      34.542  31.687  29.014  1.00  0.00    -0.352 N 
ATOM     27  C   UNL A   1      35.412  31.755  30.066  1.00  0.00     0.251 C 
ATOM     28  H   UNL A   1      33.667  32.085  29.227  1.00  0.00     0.163 HD
ATOM     29  O   UNL A   1      35.054  32.471  31.010  1.00  0.00    -0.269 OA
BRANCH  27  30
ATOM     30  C   UNL A   1      36.692  31.006  30.197  1.00  0.00     0.039 A 
ATOM     31  C   UNL A   1      37.952  31.494  29.866  1.00  0.00     0.014 A 
ATOM     32  C   UNL A   1      36.589  29.667  30.631  1.00  0.00     0.014 A 
ATOM     33  C   UNL A   1      39.055  30.641  29.872  1.00  0.00     0.010 A 
ATOM     34  C   UNL A   1      37.694  28.816  30.665  1.00  0.00     0.010 A 
ATOM     35  C   UNL A   1      38.928  29.293  30.246  1.00  0.00    -0.014 A 
BRANCH  35  36
ATOM     36  C   UNL A   1      40.159  28.503  30.355  1.00  0.00     0.031 A 
ATOM     37  C   UNL A   1      40.747  28.554  31.718  1.00  0.00     0.074 A 
ATOM     38  C   UNL A   1      40.725  27.736  29.396  1.00  0.00     0.049 A 
ATOM     39  N   UNL A   1      41.815  29.187  32.071  1.00  0.00    -0.248 NA
ATOM     40  C   UNL A   1      39.987  27.991  32.844  1.00  0.00     0.031 C 
ATOM     41  C   UNL A   1      40.140  27.353  28.111  1.00  0.00     0.029 A 
ATOM     42  N   UNL A   1      41.924  27.064  29.400  1.00  0.00    -0.354 N 
ATOM     43  C   UNL A   1      41.997  28.898  33.420  1.00  0.00     0.074 A 
ATOM     44  C   UNL A   1      40.763  28.322  33.879  1.00  0.00     0.031 C 
ATOM     45  C   UNL A   1      40.870  26.351  27.566  1.00  0.00     0.029 A 
ATOM     46  C   UNL A   1      42.051  26.117  28.386  1.00  0.00     0.049 A 
ATOM     47  H   UNL A   1      42.633  27.238  30.061  1.00  0.00     0.167 HD
ATOM     48  C   UNL A   1      43.259  28.863  33.931  1.00  0.00     0.037 A 
ATOM     49  C   UNL A   1      43.031  25.190  28.227  1.00  0.00     0.037 A 
ATOM     50  C   UNL A   1      44.187  29.506  33.031  1.00  0.00     0.049 A 
ATOM     51  C   UNL A   1      44.232  25.632  28.966  1.00  0.00     0.074 A 
ATOM     52  C   UNL A   1      44.530  30.779  32.636  1.00  0.00     0.029 A 
ATOM     53  N   UNL A   1      44.677  28.649  32.088  1.00  0.00    -0.354 N 
ATOM     54  N   UNL A   1      45.011  26.593  28.564  1.00  0.00    -0.248 NA
ATOM     55  C   UNL A   1      44.447  25.195  30.340  1.00  0.00     0.031 C 
ATOM     56  C   UNL A   1      45.157  30.648  31.354  1.00  0.00     0.029 A 
ATOM     57  C   UNL A   1      45.217  29.298  31.018  1.00  0.00     0.049 A 
ATOM     58  H   UNL A   1      44.642  27.668  32.173  1.00  0.00     0.167 HD
ATOM     59  C   UNL A   1      45.419  27.197  29.733  1.00  0.00     0.074 A 
ATOM     60  C   UNL A   1      45.242  26.181  30.762  1.00  0.00     0.031 C 
ATOM     61  C   UNL A   1      45.498  28.560  29.808  1.00  0.00     0.037 A 
BRANCH  48  62
ATOM     62  C   UNL A   1      43.761  27.763  34.860  1.00  0.00     0.057 A 
ATOM     63  C   UNL A   1      43.875  26.403  34.502  1.00  0.00     0.134 A 
ATOM     64  C   UNL A   1      44.508  28.139  35.995  1.00  0.00     0.134 A 
ATOM     65  F   UNL A   1      43.273  25.884  33.428  1.00  0.00    -0.206 F 
ATOM     66  C   UNL A   1      44.714  25.507  35.174  1.00  0.00     0.040 A 
ATOM     67  C   UNL A   1      45.382  27.259  36.649  1.00  0.00     0.040 A 
ATOM     68  F   UNL A   1      44.486  29.403  36.446  1.00  0.00    -0.206 F 
ATOM     69  C   UNL A   1      45.500  25.942  36.227  1.00  0.00     0.006 A 
ENDBRANCH  48  62
BRANCH  49  70
ATOM     70  C   UNL A   1      43.002  23.855  27.586  1.00  0.00     0.057 A 
ATOM     71  C   UNL A   1      43.143  23.723  26.196  1.00  0.00     0.134 A 
ATOM     72  C   UNL A   1      42.528  22.721  28.269  1.00  0.00     0.134 A 
ATOM     73  F   UNL A   1      43.531  24.761  25.442  1.00  0.00    -0.206 F 
ATOM     74  C   UNL A   1      42.795  22.549  25.518  1.00  0.00     0.040 A 
ATOM     75  C   UNL A   1      42.171  21.542  27.602  1.00  0.00     0.040 A 
ATOM     76  F   UNL A   1      42.333  22.752  29.595  1.00  0.00    -0.206 F 
ATOM     77  C   UNL A   1      42.288  21.460  26.219  1.00  0.00     0.006 A 
ENDBRANCH  49  70
BRANCH  61  78
ATOM     78  C   UNL A   1      45.776  29.279  28.523  1.00  0.00     0.057 A 
ATOM     79  C   UNL A   1      44.705  29.881  27.853  1.00  0.00     0.134 A 
ATOM     80  C   UNL A   1      47.051  29.452  27.961  1.00  0.00     0.134 A 
ATOM     81  F   UNL A   1      43.447  29.713  28.292  1.00  0.00    -0.206 F 
ATOM     82  C   UNL A   1      44.894  30.672  26.719  1.00  0.00     0.040 A 
ATOM     83  C   UNL A   1      47.262  30.295  26.867  1.00  0.00     0.040 A 
ATOM     84  F   UNL A   1      48.118  28.791  28.432  1.00  0.00    -0.206 F 
ATOM     85  C   UNL A   1      46.179  30.914  26.246  1.00  0.00     0.006 A 
ENDBRANCH  61  78
ENDBRANCH  35  36
ENDBRANCH  27  30
ENDBRANCH  25  26
ENDBRANCH   1  25
TORSDOF 12
ENDMDL
MODEL 3
REMARK VINA RESULT:     -12.0      3.386      7.236
REMARK SMILES CCn1c(N2CCC(C(=O)NCCCNC(=O)c3ccc(-c4c5nc(c(-c6c(F)cccc6F)c6ccc([nH]6)c(-c6c(F)cccc6F)c6nc(c(-c7c(F)cccc7F)c7ccc4[nH]7)C=C6)C=C5)cc3)CC2)nc2cc(C)ccc21
REMARK SMILES IDX 13 1 12 2 11 3 9 4 10 5 8 7 5 8 6 9 73 10 7 11 72 12 4 13
REMARK SMILES IDX 3 14 81 15 74 16 75 17 80 18 76 19 79 20 77 21 78 22 2 23
REMARK SMILES IDX 1 24 14 25 15 26 16 27 17 29 18 30 19 31 71 32 20 33 70 34
REMARK SMILES IDX 21 35 22 36 23 37 64 38 24 39 69 40 63 41 65 42 25 43 68 44
REMARK SMILES IDX 62 45 61 46 26 48 52 49 35 50 51 51 36 52 39 53 50 54 66 55
REMARK SMILES IDX 37 56 38 57 49 59 67 60 40 61 27 62 28 63 33 64 29 65 30 66
REMARK SMILES IDX 32 67 34 68 31 69 53 70 54 71 59 72 55 73 56 74 58 75 60 76
REMARK SMILES IDX 57 77 41 78 42 79 47 80 43 81 44 82 46 83 48 84 45 85
REMARK H PARENT 11 6 15 28 65 47 39 58
REMARK Flexibility Score: inf
ROOT
ATOM      1  C   UNL A   1      36.468  21.194  24.929  1.00  0.00     0.042 C 
ENDROOT
BRANCH   1   2
ATOM      2  C   UNL A   1      35.146  21.570  25.593  1.00  0.00     0.117 C 
BRANCH   2   3
ATOM      3  N   UNL A   1      34.217  20.455  25.689  1.00  0.00    -0.356 N 
ATOM      4  C   UNL A   1      32.953  20.294  25.215  1.00  0.00     0.223 C 
ATOM      5  O   UNL A   1      32.413  19.199  25.399  1.00  0.00    -0.275 OA
ATOM      6  H   UNL A   1      34.566  19.679  26.183  1.00  0.00     0.163 HD
BRANCH   4   7
ATOM      7  C   UNL A   1      32.201  21.398  24.484  1.00  0.00     0.082 C 
ATOM      8  N   UNL A   1      31.763  24.149  23.842  1.00  0.00    -0.342 N 
ATOM      9  C   UNL A   1      30.817  23.491  24.735  1.00  0.00     0.120 C 
ATOM     10  C   UNL A   1      32.387  23.321  22.821  1.00  0.00     0.120 C 
ATOM     11  C   UNL A   1      31.478  22.330  25.460  1.00  0.00     0.035 C 
ATOM     12  C   UNL A   1      33.076  22.109  23.443  1.00  0.00     0.035 C 
BRANCH   8  13
ATOM     13  C   UNL A   1      32.360  25.285  24.274  1.00  0.00     0.206 A 
ATOM     14  N   UNL A   1      31.954  26.529  23.834  1.00  0.00    -0.310 N 
ATOM     15  C   UNL A   1      32.561  27.477  24.628  1.00  0.00     0.070 A 
ATOM     16  N   UNL A   1      33.236  25.390  25.247  1.00  0.00    -0.213 NA
ATOM     17  C   UNL A   1      33.368  26.734  25.484  1.00  0.00     0.091 A 
ATOM     18  C   UNL A   1      32.459  28.871  24.700  1.00  0.00     0.029 A 
ATOM     19  C   UNL A   1      34.132  27.395  26.454  1.00  0.00     0.034 A 
ATOM     20  C   UNL A   1      33.216  29.513  25.682  1.00  0.00     0.006 A 
ATOM     21  C   UNL A   1      34.033  28.791  26.561  1.00  0.00    -0.049 A 
ATOM     22  C   UNL A   1      34.808  29.498  27.626  1.00  0.00     0.044 C 
BRANCH  14  23
ATOM     23  C   UNL A   1      30.910  26.813  22.868  1.00  0.00     0.122 C 
ATOM     24  C   UNL A   1      29.547  27.039  23.503  1.00  0.00     0.028 C 
ENDBRANCH  14  23
ENDBRANCH   8  13
ENDBRANCH   4   7
ENDBRANCH   2   3
ENDBRANCH   1   2
BRANCH   1  25
ATOM     25  C   UNL A   1      37.596  22.207  25.117  1.00  0.00     0.118 C 
BRANCH  25  26
ATOM     26  N   UNL A   1      38.847  21.648  25.598  1.00  0.00    -0.352 N 
ATOM     27  C   UNL A   1      39.798  22.027  26.502  1.00  0.00     0.251 C 
ATOM     28  H   UNL A   1      39.062  20.789  25.168  1.00  0.00     0.163 HD
ATOM     29  O   UNL A   1      40.638  21.162  26.790  1.00  0.00    -0.269 OA
BRANCH  27  30
ATOM     30  C   UNL A   1      39.947  23.379  27.107  1.00  0.00     0.039 A 
ATOM     31  C   UNL A   1      39.070  24.445  26.930  1.00  0.00     0.014 A 
ATOM     32  C   UNL A   1      41.118  23.599  27.865  1.00  0.00     0.014 A 
ATOM     33  C   UNL A   1      39.405  25.711  27.408  1.00  0.00     0.010 A 
ATOM     34  C   UNL A   1      41.445  24.857  28.370  1.00  0.00     0.010 A 
ATOM     35  C   UNL A   1      40.604  25.930  28.107  1.00  0.00    -0.014 A 
BRANCH  35  36
ATOM     36  C   UNL A   1      40.813  27.259  28.692  1.00  0.00     0.031 A 
ATOM     37  C   UNL A   1      42.060  27.903  28.204  1.00  0.00     0.074 A 
ATOM     38  C   UNL A   1      39.985  27.920  29.531  1.00  0.00     0.049 A 
ATOM     39  N   UNL A   1      43.147  28.080  28.877  1.00  0.00    -0.248 NA
ATOM     40  C   UNL A   1      42.179  28.236  26.777  1.00  0.00     0.031 C 
ATOM     41  C   UNL A   1      38.611  27.561  29.883  1.00  0.00     0.029 A 
ATOM     42  N   UNL A   1      40.171  29.110  30.194  1.00  0.00    -0.354 N 
ATOM     43  C   UNL A   1      44.008  28.768  28.029  1.00  0.00     0.074 A 
ATOM     44  C   UNL A   1      43.439  28.674  26.712  1.00  0.00     0.031 C 
ATOM     45  C   UNL A   1      38.018  28.610  30.501  1.00  0.00     0.029 A 
ATOM     46  C   UNL A   1      39.003  29.660  30.718  1.00  0.00     0.049 A 
ATOM     47  H   UNL A   1      41.053  29.536  30.292  1.00  0.00     0.167 HD
ATOM     48  C   UNL A   1      44.927  29.623  28.559  1.00  0.00     0.037 A 
ATOM     49  C   UNL A   1      38.834  30.889  31.272  1.00  0.00     0.037 A 
ATOM     50  C   UNL A   1      45.085  29.380  29.974  1.00  0.00     0.049 A 
ATOM     51  C   UNL A   1      40.145  31.392  31.729  1.00  0.00     0.074 A 
ATOM     52  C   UNL A   1      45.672  28.451  30.803  1.00  0.00     0.029 A 
ATOM     53  N   UNL A   1      44.184  30.075  30.726  1.00  0.00    -0.354 N 
ATOM     54  N   UNL A   1      40.756  30.947  32.788  1.00  0.00    -0.248 NA
ATOM     55  C   UNL A   1      40.958  32.224  30.849  1.00  0.00     0.031 C 
ATOM     56  C   UNL A   1      44.999  28.555  32.064  1.00  0.00     0.029 A 
ATOM     57  C   UNL A   1      44.049  29.569  31.985  1.00  0.00     0.049 A 
ATOM     58  H   UNL A   1      43.685  30.857  30.394  1.00  0.00     0.167 HD
ATOM     59  C   UNL A   1      42.090  31.003  32.447  1.00  0.00     0.074 A 
ATOM     60  C   UNL A   1      42.162  31.989  31.375  1.00  0.00     0.031 C 
ATOM     61  C   UNL A   1      42.931  29.985  32.801  1.00  0.00     0.037 A 
BRANCH  48  62
ATOM     62  C   UNL A   1      45.196  31.019  28.007  1.00  0.00     0.057 A 
ATOM     63  C   UNL A   1      46.390  31.410  27.366  1.00  0.00     0.134 A 
ATOM     64  C   UNL A   1      44.092  31.863  27.766  1.00  0.00     0.134 A 
ATOM     65  F   UNL A   1      47.521  30.702  27.447  1.00  0.00    -0.206 F 
ATOM     66  C   UNL A   1      46.466  32.510  26.505  1.00  0.00     0.040 A 
ATOM     67  C   UNL A   1      44.149  32.942  26.872  1.00  0.00     0.040 A 
ATOM     68  F   UNL A   1      42.896  31.607  28.318  1.00  0.00    -0.206 F 
ATOM     69  C   UNL A   1      45.335  33.258  26.224  1.00  0.00     0.006 A 
ENDBRANCH  48  62
BRANCH  49  70
ATOM     70  C   UNL A   1      37.638  31.761  31.337  1.00  0.00     0.057 A 
ATOM     71  C   UNL A   1      36.872  31.841  32.510  1.00  0.00     0.134 A 
ATOM     72  C   UNL A   1      37.046  32.287  30.176  1.00  0.00     0.134 A 
ATOM     73  F   UNL A   1      37.317  31.317  33.661  1.00  0.00    -0.206 F 
ATOM     74  C   UNL A   1      35.577  32.372  32.522  1.00  0.00     0.040 A 
ATOM     75  C   UNL A   1      35.749  32.816  30.173  1.00  0.00     0.040 A 
ATOM     76  F   UNL A   1      37.685  32.235  28.998  1.00  0.00    -0.206 F 
ATOM     77  C   UNL A   1      35.004  32.844  31.347  1.00  0.00     0.006 A 
ENDBRANCH  49  70
BRANCH  61  78
ATOM     78  C   UNL A   1      42.564  29.223  34.038  1.00  0.00     0.057 A 
ATOM     79  C   UNL A   1      41.808  28.053  33.898  1.00  0.00     0.134 A 
ATOM     80  C   UNL A   1      42.974  29.560  35.338  1.00  0.00     0.134 A 
ATOM     81  F   UNL A   1      41.328  27.693  32.697  1.00  0.00    -0.206 F 
ATOM     82  C   UNL A   1      41.530  27.220  34.982  1.00  0.00     0.040 A 
ATOM     83  C   UNL A   1      42.759  28.701  36.420  1.00  0.00     0.040 A 
ATOM     84  F   UNL A   1      43.564  30.735  35.603  1.00  0.00    -0.206 F 
ATOM     85  C   UNL A   1      42.040  27.522  36.241  1.00  0.00     0.006 A 
ENDBRANCH  61  78
ENDBRANCH  35  36
ENDBRANCH  27  30
ENDBRANCH  25  26
ENDBRANCH   1  25
TORSDOF 12
ENDMDL
