MODEL 1
REMARK VINA RESULT:     -12.1      0.000      0.000
REMARK SMILES O=C(NCCCNC(=O)c1ccc(-c2c3nc(c(-c4c(F)cccc4F)c4ccc([nH]4)c(-c4c(F)cccc4F)c4nc(c(-c5c(F)cccc5F)c5ccc2[nH]5)C=C4)C=C3)cc1)c1ccc(Cc2nc3ccccc3s2)cc1
REMARK SMILES IDX 5 1 4 2 3 3 1 4 2 5 64 7 65 8 79 9 66 10 78 11 67 12 68 13
REMARK SMILES IDX 69 14 70 15 77 16 71 17 76 18 72 19 75 20 73 21 74 22 6 23
REMARK SMILES IDX 7 24 8 25 9 27 10 28 11 29 63 30 12 31 62 32 13 33 14 34
REMARK SMILES IDX 15 35 56 36 16 37 61 38 55 39 57 40 17 41 60 42 54 43 53 44
REMARK SMILES IDX 18 46 44 47 27 48 43 49 28 50 31 51 42 52 58 53 29 54 30 55
REMARK SMILES IDX 41 57 59 58 32 59 19 60 20 61 25 62 21 63 22 64 24 65 26 66
REMARK SMILES IDX 23 67 45 68 46 69 51 70 47 71 48 72 50 73 52 74 49 75 33 76
REMARK SMILES IDX 34 77 39 78 35 79 36 80 38 81 40 82 37 83
REMARK H PARENT 3 6 7 26 57 45 31 56
REMARK Flexibility Score: inf
ROOT
ATOM      1  C   UNL A   1      37.322  20.612  24.578  1.00  0.00     0.042 C 
ENDROOT
BRANCH   1   2
ATOM      2  C   UNL A   1      35.871  20.790  25.006  1.00  0.00     0.118 C 
BRANCH   2   3
ATOM      3  N   UNL A   1      35.125  19.538  25.019  1.00  0.00    -0.352 N 
ATOM      4  O   UNL A   1      33.308  18.201  25.045  1.00  0.00    -0.269 OA
ATOM      5  C   UNL A   1      33.779  19.317  24.853  1.00  0.00     0.251 C 
ATOM      6  H   UNL A   1      35.668  18.729  25.171  1.00  0.00     0.163 HD
BRANCH   5   7
ATOM      7  C   UNL A   1      32.894  20.438  24.479  1.00  0.00     0.039 A 
ATOM      8  C   UNL A   1      32.624  20.724  23.138  1.00  0.00     0.014 A 
ATOM      9  C   UNL A   1      32.360  21.233  25.495  1.00  0.00     0.014 A 
ATOM     10  C   UNL A   1      31.932  21.888  22.806  1.00  0.00     0.005 A 
ATOM     11  C   UNL A   1      31.652  22.388  25.162  1.00  0.00     0.005 A 
ATOM     12  C   UNL A   1      31.469  22.745  23.816  1.00  0.00    -0.041 A 
BRANCH  12  13
ATOM     13  C   UNL A   1      30.883  24.095  23.457  1.00  0.00     0.103 C 
BRANCH  13  14
ATOM     14  C   UNL A   1      31.335  25.189  24.392  1.00  0.00     0.098 A 
ATOM     15  N   UNL A   1      32.527  25.751  24.381  1.00  0.00    -0.241 NA
ATOM     16  S   UNL A   1      30.262  25.776  25.602  1.00  0.00    -0.118 S 
ATOM     17  C   UNL A   1      32.612  26.723  25.362  1.00  0.00     0.082 A 
ATOM     18  C   UNL A   1      31.468  26.881  26.143  1.00  0.00     0.055 A 
ATOM     19  C   UNL A   1      33.733  27.536  25.623  1.00  0.00     0.030 A 
ATOM     20  C   UNL A   1      31.407  27.822  27.186  1.00  0.00     0.021 A 
ATOM     21  C   UNL A   1      33.684  28.478  26.656  1.00  0.00     0.002 A 
ATOM     22  C   UNL A   1      32.534  28.615  27.427  1.00  0.00     0.002 A 
ENDBRANCH  13  14
ENDBRANCH  12  13
ENDBRANCH   5   7
ENDBRANCH   2   3
ENDBRANCH   1   2
BRANCH   1  23
ATOM     23  C   UNL A   1      38.334  20.739  25.710  1.00  0.00     0.118 C 
BRANCH  23  24
ATOM     24  N   UNL A   1      39.361  19.706  25.677  1.00  0.00    -0.352 N 
ATOM     25  C   UNL A   1      40.703  19.760  25.972  1.00  0.00     0.251 C 
ATOM     26  H   UNL A   1      39.040  18.819  25.397  1.00  0.00     0.163 HD
ATOM     27  O   UNL A   1      41.419  18.800  25.715  1.00  0.00    -0.269 OA
BRANCH  25  28
ATOM     28  C   UNL A   1      41.298  20.976  26.572  1.00  0.00     0.039 A 
ATOM     29  C   UNL A   1      41.875  21.930  25.727  1.00  0.00     0.014 A 
ATOM     30  C   UNL A   1      41.309  21.175  27.954  1.00  0.00     0.014 A 
ATOM     31  C   UNL A   1      42.375  23.121  26.260  1.00  0.00     0.010 A 
ATOM     32  C   UNL A   1      41.730  22.395  28.476  1.00  0.00     0.010 A 
ATOM     33  C   UNL A   1      42.258  23.385  27.633  1.00  0.00    -0.014 A 
BRANCH  33  34
ATOM     34  C   UNL A   1      42.660  24.692  28.215  1.00  0.00     0.031 A 
ATOM     35  C   UNL A   1      41.635  25.769  28.436  1.00  0.00     0.074 A 
ATOM     36  C   UNL A   1      43.961  24.940  28.462  1.00  0.00     0.049 A 
ATOM     37  N   UNL A   1      41.808  27.014  28.802  1.00  0.00    -0.248 NA
ATOM     38  C   UNL A   1      40.230  25.405  28.188  1.00  0.00     0.031 C 
ATOM     39  C   UNL A   1      45.059  23.992  28.261  1.00  0.00     0.029 A 
ATOM     40  N   UNL A   1      44.585  26.075  28.920  1.00  0.00    -0.354 N 
ATOM     41  C   UNL A   1      40.541  27.584  28.815  1.00  0.00     0.074 A 
ATOM     42  C   UNL A   1      39.614  26.564  28.374  1.00  0.00     0.031 C 
ATOM     43  C   UNL A   1      46.217  24.577  28.611  1.00  0.00     0.029 A 
ATOM     44  C   UNL A   1      45.951  25.954  29.012  1.00  0.00     0.049 A 
ATOM     45  H   UNL A   1      44.100  26.897  29.159  1.00  0.00     0.167 HD
ATOM     46  C   UNL A   1      40.179  28.836  29.183  1.00  0.00     0.037 A 
ATOM     47  C   UNL A   1      46.886  26.858  29.362  1.00  0.00     0.037 A 
ATOM     48  C   UNL A   1      41.099  29.843  29.644  1.00  0.00     0.049 A 
ATOM     49  C   UNL A   1      46.462  28.254  29.726  1.00  0.00     0.074 A 
ATOM     50  C   UNL A   1      40.822  31.125  30.084  1.00  0.00     0.029 A 
ATOM     51  N   UNL A   1      42.473  29.679  29.724  1.00  0.00    -0.354 N 
ATOM     52  N   UNL A   1      45.255  28.763  29.778  1.00  0.00    -0.248 NA
ATOM     53  C   UNL A   1      47.531  29.203  30.072  1.00  0.00     0.031 C 
ATOM     54  C   UNL A   1      42.033  31.752  30.394  1.00  0.00     0.029 A 
ATOM     55  C   UNL A   1      43.060  30.846  30.187  1.00  0.00     0.049 A 
ATOM     56  H   UNL A   1      42.960  28.857  29.488  1.00  0.00     0.167 HD
ATOM     57  C   UNL A   1      45.418  30.080  30.189  1.00  0.00     0.074 A 
ATOM     58  C   UNL A   1      46.837  30.288  30.383  1.00  0.00     0.031 C 
ATOM     59  C   UNL A   1      44.474  31.032  30.387  1.00  0.00     0.037 A 
BRANCH  46  60
ATOM     60  C   UNL A   1      38.722  29.185  29.113  1.00  0.00     0.057 A 
ATOM     61  C   UNL A   1      37.894  29.110  30.241  1.00  0.00     0.134 A 
ATOM     62  C   UNL A   1      38.150  29.640  27.919  1.00  0.00     0.134 A 
ATOM     63  F   UNL A   1      38.379  28.671  31.412  1.00  0.00    -0.206 F 
ATOM     64  C   UNL A   1      36.543  29.454  30.178  1.00  0.00     0.040 A 
ATOM     65  C   UNL A   1      36.806  30.012  27.851  1.00  0.00     0.040 A 
ATOM     66  F   UNL A   1      38.888  29.743  26.804  1.00  0.00    -0.206 F 
ATOM     67  C   UNL A   1      35.998  29.914  28.982  1.00  0.00     0.006 A 
ENDBRANCH  46  60
BRANCH  47  68
ATOM     68  C   UNL A   1      48.321  26.475  29.392  1.00  0.00     0.057 A 
ATOM     69  C   UNL A   1      48.886  25.901  30.536  1.00  0.00     0.134 A 
ATOM     70  C   UNL A   1      49.164  26.696  28.297  1.00  0.00     0.134 A 
ATOM     71  F   UNL A   1      48.133  25.684  31.625  1.00  0.00    -0.206 F 
ATOM     72  C   UNL A   1      50.242  25.577  30.598  1.00  0.00     0.040 A 
ATOM     73  C   UNL A   1      50.516  26.355  28.336  1.00  0.00     0.040 A 
ATOM     74  F   UNL A   1      48.682  27.239  27.169  1.00  0.00    -0.206 F 
ATOM     75  C   UNL A   1      51.061  25.802  29.494  1.00  0.00     0.006 A 
ENDBRANCH  47  68
BRANCH  59  76
ATOM     76  C   UNL A   1      44.940  32.374  30.867  1.00  0.00     0.057 A 
ATOM     77  C   UNL A   1      45.243  33.411  29.977  1.00  0.00     0.134 A 
ATOM     78  C   UNL A   1      45.040  32.645  32.238  1.00  0.00     0.134 A 
ATOM     79  F   UNL A   1      45.181  33.208  28.652  1.00  0.00    -0.206 F 
ATOM     80  C   UNL A   1      45.641  34.668  30.432  1.00  0.00     0.040 A 
ATOM     81  C   UNL A   1      45.414  33.904  32.706  1.00  0.00     0.040 A 
ATOM     82  F   UNL A   1      44.758  31.695  33.142  1.00  0.00    -0.206 F 
ATOM     83  C   UNL A   1      45.720  34.920  31.801  1.00  0.00     0.006 A 
ENDBRANCH  59  76
ENDBRANCH  33  34
ENDBRANCH  25  28
ENDBRANCH  23  24
ENDBRANCH   1  23
TORSDOF 12
ENDMDL
MODEL 2
REMARK VINA RESULT:     -12.1      5.065      9.790
REMARK SMILES O=C(NCCCNC(=O)c1ccc(-c2c3nc(c(-c4c(F)cccc4F)c4ccc([nH]4)c(-c4c(F)cccc4F)c4nc(c(-c5c(F)cccc5F)c5ccc2[nH]5)C=C4)C=C3)cc1)c1ccc(Cc2nc3ccccc3s2)cc1
REMARK SMILES IDX 5 1 4 2 3 3 1 4 2 5 64 7 65 8 79 9 66 10 78 11 67 12 68 13
REMARK SMILES IDX 69 14 70 15 77 16 71 17 76 18 72 19 75 20 73 21 74 22 6 23
REMARK SMILES IDX 7 24 8 25 9 27 10 28 11 29 63 30 12 31 62 32 13 33 14 34
REMARK SMILES IDX 15 35 56 36 16 37 61 38 55 39 57 40 17 41 60 42 54 43 53 44
REMARK SMILES IDX 18 46 44 47 27 48 43 49 28 50 31 51 42 52 58 53 29 54 30 55
REMARK SMILES IDX 41 57 59 58 32 59 19 60 20 61 25 62 21 63 22 64 24 65 26 66
REMARK SMILES IDX 23 67 45 68 46 69 51 70 47 71 48 72 50 73 52 74 49 75 33 76
REMARK SMILES IDX 34 77 39 78 35 79 36 80 38 81 40 82 37 83
REMARK H PARENT 3 6 7 26 57 45 31 56
REMARK Flexibility Score: inf
ROOT
ATOM      1  C   UNL A   1      31.516  32.131  26.566  1.00  0.00     0.042 C 
ENDROOT
BRANCH   1   2
ATOM      2  C   UNL A   1      31.784  30.695  26.135  1.00  0.00     0.118 C 
BRANCH   2   3
ATOM      3  N   UNL A   1      31.650  29.740  27.229  1.00  0.00    -0.352 N 
ATOM      4  O   UNL A   1      31.412  27.722  28.208  1.00  0.00    -0.269 OA
ATOM      5  C   UNL A   1      31.695  28.366  27.204  1.00  0.00     0.251 C 
ATOM      6  H   UNL A   1      31.506  30.139  28.118  1.00  0.00     0.163 HD
BRANCH   5   7
ATOM      7  C   UNL A   1      32.046  27.668  25.951  1.00  0.00     0.039 A 
ATOM      8  C   UNL A   1      31.054  27.222  25.074  1.00  0.00     0.014 A 
ATOM      9  C   UNL A   1      33.394  27.427  25.678  1.00  0.00     0.014 A 
ATOM     10  C   UNL A   1      31.401  26.415  23.992  1.00  0.00     0.005 A 
ATOM     11  C   UNL A   1      33.741  26.633  24.585  1.00  0.00     0.005 A 
ATOM     12  C   UNL A   1      32.745  26.088  23.758  1.00  0.00    -0.041 A 
BRANCH  12  13
ATOM     13  C   UNL A   1      33.106  25.066  22.700  1.00  0.00     0.103 C 
BRANCH  13  14
ATOM     14  C   UNL A   1      33.924  23.925  23.253  1.00  0.00     0.098 A 
ATOM     15  N   UNL A   1      35.238  23.837  23.194  1.00  0.00    -0.241 NA
ATOM     16  S   UNL A   1      33.136  22.598  24.012  1.00  0.00    -0.118 S 
ATOM     17  C   UNL A   1      35.671  22.671  23.800  1.00  0.00     0.082 A 
ATOM     18  C   UNL A   1      34.661  21.854  24.307  1.00  0.00     0.055 A 
ATOM     19  C   UNL A   1      37.012  22.261  23.937  1.00  0.00     0.030 A 
ATOM     20  C   UNL A   1      34.946  20.631  24.940  1.00  0.00     0.021 A 
ATOM     21  C   UNL A   1      37.308  21.048  24.568  1.00  0.00     0.002 A 
ATOM     22  C   UNL A   1      36.284  20.245  25.061  1.00  0.00     0.002 A 
ENDBRANCH  13  14
ENDBRANCH  12  13
ENDBRANCH   5   7
ENDBRANCH   2   3
ENDBRANCH   1   2
BRANCH   1  23
ATOM     23  C   UNL A   1      32.680  32.800  27.288  1.00  0.00     0.118 C 
BRANCH  23  24
ATOM     24  N   UNL A   1      32.406  34.186  27.650  1.00  0.00    -0.352 N 
ATOM     25  C   UNL A   1      32.982  35.000  28.597  1.00  0.00     0.251 C 
ATOM     26  H   UNL A   1      31.688  34.611  27.128  1.00  0.00     0.163 HD
ATOM     27  O   UNL A   1      32.479  36.089  28.844  1.00  0.00    -0.269 OA
BRANCH  25  28
ATOM     28  C   UNL A   1      34.185  34.563  29.340  1.00  0.00     0.039 A 
ATOM     29  C   UNL A   1      34.035  34.097  30.650  1.00  0.00     0.014 A 
ATOM     30  C   UNL A   1      35.456  34.626  28.767  1.00  0.00     0.014 A 
ATOM     31  C   UNL A   1      35.143  33.607  31.347  1.00  0.00     0.010 A 
ATOM     32  C   UNL A   1      36.545  34.063  29.428  1.00  0.00     0.010 A 
ATOM     33  C   UNL A   1      36.398  33.538  30.722  1.00  0.00    -0.014 A 
BRANCH  33  34
ATOM     34  C   UNL A   1      37.567  32.905  31.384  1.00  0.00     0.031 A 
ATOM     35  C   UNL A   1      38.217  31.694  30.777  1.00  0.00     0.074 A 
ATOM     36  C   UNL A   1      37.989  33.370  32.577  1.00  0.00     0.049 A 
ATOM     37  N   UNL A   1      39.154  30.923  31.269  1.00  0.00    -0.248 NA
ATOM     38  C   UNL A   1      37.731  31.277  29.451  1.00  0.00     0.031 C 
ATOM     39  C   UNL A   1      37.425  34.519  33.289  1.00  0.00     0.029 A 
ATOM     40  N   UNL A   1      38.982  32.919  33.412  1.00  0.00    -0.354 N 
ATOM     41  C   UNL A   1      39.359  29.926  30.323  1.00  0.00     0.074 A 
ATOM     42  C   UNL A   1      38.417  30.162  29.250  1.00  0.00     0.031 C 
ATOM     43  C   UNL A   1      38.091  34.693  34.442  1.00  0.00     0.029 A 
ATOM     44  C   UNL A   1      39.094  33.642  34.575  1.00  0.00     0.049 A 
ATOM     45  H   UNL A   1      39.559  32.151  33.198  1.00  0.00     0.167 HD
ATOM     46  C   UNL A   1      40.266  28.921  30.336  1.00  0.00     0.037 A 
ATOM     47  C   UNL A   1      39.901  33.466  35.639  1.00  0.00     0.037 A 
ATOM     48  C   UNL A   1      41.219  28.702  31.392  1.00  0.00     0.049 A 
ATOM     49  C   UNL A   1      40.870  32.317  35.647  1.00  0.00     0.074 A 
ATOM     50  C   UNL A   1      42.209  27.738  31.472  1.00  0.00     0.029 A 
ATOM     51  N   UNL A   1      41.300  29.457  32.551  1.00  0.00    -0.354 N 
ATOM     52  N   UNL A   1      41.084  31.411  34.724  1.00  0.00    -0.248 NA
ATOM     53  C   UNL A   1      41.704  32.160  36.847  1.00  0.00     0.031 C 
ATOM     54  C   UNL A   1      42.865  27.886  32.699  1.00  0.00     0.029 A 
ATOM     55  C   UNL A   1      42.310  28.968  33.363  1.00  0.00     0.049 A 
ATOM     56  H   UNL A   1      40.725  30.227  32.766  1.00  0.00     0.167 HD
ATOM     57  C   UNL A   1      42.094  30.597  35.219  1.00  0.00     0.074 A 
ATOM     58  C   UNL A   1      42.458  31.121  36.518  1.00  0.00     0.031 C 
ATOM     59  C   UNL A   1      42.668  29.510  34.648  1.00  0.00     0.037 A 
BRANCH  46  60
ATOM     60  C   UNL A   1      40.279  27.985  29.163  1.00  0.00     0.057 A 
ATOM     61  C   UNL A   1      39.524  26.805  29.156  1.00  0.00     0.134 A 
ATOM     62  C   UNL A   1      41.019  28.287  28.013  1.00  0.00     0.134 A 
ATOM     63  F   UNL A   1      38.802  26.455  30.231  1.00  0.00    -0.206 F 
ATOM     64  C   UNL A   1      39.522  25.947  28.056  1.00  0.00     0.040 A 
ATOM     65  C   UNL A   1      41.004  27.448  26.897  1.00  0.00     0.040 A 
ATOM     66  F   UNL A   1      41.758  29.404  27.950  1.00  0.00    -0.206 F 
ATOM     67  C   UNL A   1      40.259  26.271  26.920  1.00  0.00     0.006 A 
ENDBRANCH  46  60
BRANCH  47  68
ATOM     68  C   UNL A   1      39.836  34.403  36.790  1.00  0.00     0.057 A 
ATOM     69  C   UNL A   1      40.606  35.570  36.810  1.00  0.00     0.134 A 
ATOM     70  C   UNL A   1      39.027  34.144  37.904  1.00  0.00     0.134 A 
ATOM     71  F   UNL A   1      41.416  35.862  35.781  1.00  0.00    -0.206 F 
ATOM     72  C   UNL A   1      40.592  36.438  37.902  1.00  0.00     0.040 A 
ATOM     73  C   UNL A   1      38.985  35.016  38.993  1.00  0.00     0.040 A 
ATOM     74  F   UNL A   1      38.261  33.044  37.944  1.00  0.00    -0.206 F 
ATOM     75  C   UNL A   1      39.776  36.163  38.997  1.00  0.00     0.006 A 
ENDBRANCH  47  68
BRANCH  59  76
ATOM     76  C   UNL A   1      43.771  28.836  35.408  1.00  0.00     0.057 A 
ATOM     77  C   UNL A   1      45.113  29.197  35.234  1.00  0.00     0.134 A 
ATOM     78  C   UNL A   1      43.483  27.849  36.359  1.00  0.00     0.134 A 
ATOM     79  F   UNL A   1      45.455  30.125  34.327  1.00  0.00    -0.206 F 
ATOM     80  C   UNL A   1      46.131  28.590  35.971  1.00  0.00     0.040 A 
ATOM     81  C   UNL A   1      44.489  27.252  37.117  1.00  0.00     0.040 A 
ATOM     82  F   UNL A   1      42.216  27.463  36.577  1.00  0.00    -0.206 F 
ATOM     83  C   UNL A   1      45.819  27.620  36.921  1.00  0.00     0.006 A 
ENDBRANCH  59  76
ENDBRANCH  33  34
ENDBRANCH  25  28
ENDBRANCH  23  24
ENDBRANCH   1  23
TORSDOF 12
ENDMDL
MODEL 3
REMARK VINA RESULT:     -12.0      1.978      2.687
REMARK SMILES O=C(NCCCNC(=O)c1ccc(-c2c3nc(c(-c4c(F)cccc4F)c4ccc([nH]4)c(-c4c(F)cccc4F)c4nc(c(-c5c(F)cccc5F)c5ccc2[nH]5)C=C4)C=C3)cc1)c1ccc(Cc2nc3ccccc3s2)cc1
REMARK SMILES IDX 5 1 4 2 3 3 1 4 2 5 64 7 65 8 79 9 66 10 78 11 67 12 68 13
REMARK SMILES IDX 69 14 70 15 77 16 71 17 76 18 72 19 75 20 73 21 74 22 6 23
REMARK SMILES IDX 7 24 8 25 9 27 10 28 11 29 63 30 12 31 62 32 13 33 14 34
REMARK SMILES IDX 15 35 56 36 16 37 61 38 55 39 57 40 17 41 60 42 54 43 53 44
REMARK SMILES IDX 18 46 44 47 27 48 43 49 28 50 31 51 42 52 58 53 29 54 30 55
REMARK SMILES IDX 41 57 59 58 32 59 19 60 20 61 25 62 21 63 22 64 24 65 26 66
REMARK SMILES IDX 23 67 45 68 46 69 51 70 47 71 48 72 50 73 52 74 49 75 33 76
REMARK SMILES IDX 34 77 39 78 35 79 36 80 38 81 40 82 37 83
REMARK H PARENT 3 6 7 26 57 45 31 56
REMARK Flexibility Score: inf
ROOT
ATOM      1  C   UNL A   1      37.776  19.866  24.892  1.00  0.00     0.042 C 
ENDROOT
BRANCH   1   2
ATOM      2  C   UNL A   1      36.604  20.830  25.020  1.00  0.00     0.118 C 
BRANCH   2   3
ATOM      3  N   UNL A   1      35.319  20.149  25.129  1.00  0.00    -0.352 N 
ATOM      4  O   UNL A   1      33.085  19.953  25.379  1.00  0.00    -0.269 OA
ATOM      5  C   UNL A   1      34.047  20.671  25.127  1.00  0.00     0.251 C 
ATOM      6  H   UNL A   1      35.371  19.169  25.217  1.00  0.00     0.163 HD
BRANCH   5   7
ATOM      7  C   UNL A   1      33.846  22.109  24.858  1.00  0.00     0.039 A 
ATOM      8  C   UNL A   1      33.802  22.596  23.548  1.00  0.00     0.014 A 
ATOM      9  C   UNL A   1      33.738  22.982  25.942  1.00  0.00     0.014 A 
ATOM     10  C   UNL A   1      33.788  23.971  23.323  1.00  0.00     0.005 A 
ATOM     11  C   UNL A   1      33.706  24.358  25.715  1.00  0.00     0.005 A 
ATOM     12  C   UNL A   1      33.773  24.863  24.406  1.00  0.00    -0.041 A 
BRANCH  12  13
ATOM     13  C   UNL A   1      33.944  26.349  24.170  1.00  0.00     0.103 C 
BRANCH  13  14
ATOM     14  C   UNL A   1      32.653  27.027  23.786  1.00  0.00     0.098 A 
ATOM     15  N   UNL A   1      31.447  26.555  24.032  1.00  0.00    -0.241 NA
ATOM     16  S   UNL A   1      32.692  28.525  22.941  1.00  0.00    -0.118 S 
ATOM     17  C   UNL A   1      30.482  27.425  23.555  1.00  0.00     0.082 A 
ATOM     18  C   UNL A   1      30.970  28.564  22.918  1.00  0.00     0.055 A 
ATOM     19  C   UNL A   1      29.087  27.248  23.662  1.00  0.00     0.030 A 
ATOM     20  C   UNL A   1      30.111  29.534  22.373  1.00  0.00     0.021 A 
ATOM     21  C   UNL A   1      28.222  28.207  23.126  1.00  0.00     0.002 A 
ATOM     22  C   UNL A   1      28.731  29.335  22.488  1.00  0.00     0.002 A 
ENDBRANCH  13  14
ENDBRANCH  12  13
ENDBRANCH   5   7
ENDBRANCH   2   3
ENDBRANCH   1   2
BRANCH   1  23
ATOM     23  C   UNL A   1      38.994  20.240  25.728  1.00  0.00     0.118 C 
BRANCH  23  24
ATOM     24  N   UNL A   1      40.000  19.186  25.774  1.00  0.00    -0.352 N 
ATOM     25  C   UNL A   1      41.359  19.246  25.981  1.00  0.00     0.251 C 
ATOM     26  H   UNL A   1      39.648  18.278  25.634  1.00  0.00     0.163 HD
ATOM     27  O   UNL A   1      42.041  18.243  25.813  1.00  0.00    -0.269 OA
BRANCH  25  28
ATOM     28  C   UNL A   1      42.009  20.516  26.376  1.00  0.00     0.039 A 
ATOM     29  C   UNL A   1      42.482  21.370  25.376  1.00  0.00     0.014 A 
ATOM     30  C   UNL A   1      42.172  20.861  27.719  1.00  0.00     0.014 A 
ATOM     31  C   UNL A   1      43.031  22.608  25.719  1.00  0.00     0.010 A 
ATOM     32  C   UNL A   1      42.642  22.128  28.057  1.00  0.00     0.010 A 
ATOM     33  C   UNL A   1      43.067  23.019  27.060  1.00  0.00    -0.014 A 
BRANCH  33  34
ATOM     34  C   UNL A   1      43.522  24.379  27.450  1.00  0.00     0.031 A 
ATOM     35  C   UNL A   1      42.524  25.419  27.872  1.00  0.00     0.074 A 
ATOM     36  C   UNL A   1      44.826  24.701  27.339  1.00  0.00     0.049 A 
ATOM     37  N   UNL A   1      42.708  26.692  28.117  1.00  0.00    -0.248 NA
ATOM     38  C   UNL A   1      41.128  24.976  28.015  1.00  0.00     0.031 C 
ATOM     39  C   UNL A   1      45.893  23.794  26.911  1.00  0.00     0.029 A 
ATOM     40  N   UNL A   1      45.475  25.892  27.561  1.00  0.00    -0.354 N 
ATOM     41  C   UNL A   1      41.453  27.203  28.427  1.00  0.00     0.074 A 
ATOM     42  C   UNL A   1      40.510  26.115  28.293  1.00  0.00     0.031 C 
ATOM     43  C   UNL A   1      47.063  24.453  26.919  1.00  0.00     0.029 A 
ATOM     44  C   UNL A   1      46.824  25.840  27.304  1.00  0.00     0.049 A 
ATOM     45  H   UNL A   1      45.018  26.705  27.875  1.00  0.00     0.167 HD
ATOM     46  C   UNL A   1      41.122  28.458  28.810  1.00  0.00     0.037 A 
ATOM     47  C   UNL A   1      47.760  26.807  27.352  1.00  0.00     0.037 A 
ATOM     48  C   UNL A   1      42.066  29.535  28.966  1.00  0.00     0.049 A 
ATOM     49  C   UNL A   1      47.358  28.202  27.741  1.00  0.00     0.074 A 
ATOM     50  C   UNL A   1      41.832  30.829  29.396  1.00  0.00     0.029 A 
ATOM     51  N   UNL A   1      43.422  29.440  28.697  1.00  0.00    -0.354 N 
ATOM     52  N   UNL A   1      46.177  28.658  28.076  1.00  0.00    -0.248 NA
ATOM     53  C   UNL A   1      48.420  29.220  27.749  1.00  0.00     0.031 C 
ATOM     54  C   UNL A   1      43.042  31.530  29.350  1.00  0.00     0.029 A 
ATOM     55  C   UNL A   1      44.035  30.660  28.931  1.00  0.00     0.049 A 
ATOM     56  H   UNL A   1      43.882  28.627  28.385  1.00  0.00     0.167 HD
ATOM     57  C   UNL A   1      46.358  30.005  28.363  1.00  0.00     0.074 A 
ATOM     58  C   UNL A   1      47.763  30.291  28.173  1.00  0.00     0.031 C 
ATOM     59  C   UNL A   1      45.439  30.924  28.749  1.00  0.00     0.037 A 
BRANCH  46  60
ATOM     60  C   UNL A   1      39.677  28.735  29.102  1.00  0.00     0.057 A 
ATOM     61  C   UNL A   1      39.144  28.582  30.389  1.00  0.00     0.134 A 
ATOM     62  C   UNL A   1      38.819  29.199  28.098  1.00  0.00     0.134 A 
ATOM     63  F   UNL A   1      39.912  28.130  31.392  1.00  0.00    -0.206 F 
ATOM     64  C   UNL A   1      37.804  28.859  30.661  1.00  0.00     0.040 A 
ATOM     65  C   UNL A   1      37.482  29.504  28.365  1.00  0.00     0.040 A 
ATOM     66  F   UNL A   1      39.266  29.375  26.845  1.00  0.00    -0.206 F 
ATOM     67  C   UNL A   1      36.971  29.328  29.649  1.00  0.00     0.006 A 
ENDBRANCH  46  60
BRANCH  47  68
ATOM     68  C   UNL A   1      49.176  26.493  27.031  1.00  0.00     0.057 A 
ATOM     69  C   UNL A   1      49.626  26.481  25.706  1.00  0.00     0.134 A 
ATOM     70  C   UNL A   1      50.104  26.176  28.030  1.00  0.00     0.134 A 
ATOM     71  F   UNL A   1      48.779  26.756  24.704  1.00  0.00    -0.206 F 
ATOM     72  C   UNL A   1      50.941  26.145  25.383  1.00  0.00     0.040 A 
ATOM     73  C   UNL A   1      51.428  25.861  27.724  1.00  0.00     0.040 A 
ATOM     74  F   UNL A   1      49.736  26.176  29.321  1.00  0.00    -0.206 F 
ATOM     75  C   UNL A   1      51.847  25.836  26.395  1.00  0.00     0.006 A 
ENDBRANCH  47  68
BRANCH  59  76
ATOM     76  C   UNL A   1      45.929  32.314  29.022  1.00  0.00     0.057 A 
ATOM     77  C   UNL A   1      46.418  32.689  30.280  1.00  0.00     0.134 A 
ATOM     78  C   UNL A   1      45.958  33.274  28.003  1.00  0.00     0.134 A 
ATOM     79  F   UNL A   1      46.403  31.819  31.301  1.00  0.00    -0.206 F 
ATOM     80  C   UNL A   1      46.907  33.974  30.517  1.00  0.00     0.040 A 
ATOM     81  C   UNL A   1      46.465  34.554  28.221  1.00  0.00     0.040 A 
ATOM     82  F   UNL A   1      45.510  32.975  26.774  1.00  0.00    -0.206 F 
ATOM     83  C   UNL A   1      46.939  34.908  29.484  1.00  0.00     0.006 A 
ENDBRANCH  59  76
ENDBRANCH  33  34
ENDBRANCH  25  28
ENDBRANCH  23  24
ENDBRANCH   1  23
TORSDOF 12
ENDMDL
