MODEL 1
REMARK VINA RESULT:     -12.4      0.000      0.000
REMARK SMILES C[C@@H](NC(=O)CNC(=O)N1CC(=O)Nc2ccccc21)C(=O)NCCCNC(=O)c1ccc(-c2c3nc(c(-c4c(F)cccc4F)c4ccc([nH]4)c(-c4c(F)cccc4F)c4nc(c(-c5c(F)cccc5F)c5ccc2[nH]5)C=C4)C=C3)cc1
REMARK SMILES IDX 24 1 23 2 21 3 22 4 2 6 1 7 3 8 4 9 5 11 6 12 7 13 8 14 9 16
REMARK SMILES IDX 10 17 11 18 20 19 12 20 15 21 19 22 13 23 14 24 16 25 18 26
REMARK SMILES IDX 17 28 25 29 26 30 27 31 28 32 29 34 30 35 31 36 83 37 32 38
REMARK SMILES IDX 82 39 33 40 34 41 35 42 76 43 36 44 81 45 75 46 77 47 37 48
REMARK SMILES IDX 80 49 74 50 73 51 38 53 64 54 47 55 63 56 48 57 51 58 62 59
REMARK SMILES IDX 78 60 49 61 50 62 61 64 79 65 52 66 39 67 40 68 45 69 41 70
REMARK SMILES IDX 42 71 44 72 46 73 43 74 65 75 66 76 71 77 67 78 68 79 70 80
REMARK SMILES IDX 72 81 69 82 53 83 54 84 59 85 55 86 56 87 58 88 60 89 57 90
REMARK H PARENT 23 5 3 10 7 15 14 27 27 33 77 52 51 63
REMARK Flexibility Score: inf
ROOT
ATOM      1  C   UNL A   1      32.119  29.460  25.646  1.00  0.00     0.117 C 
ENDROOT
BRANCH   1   2
ATOM      2  N   UNL A   1      33.173  29.600  24.658  1.00  0.00    -0.354 N 
ATOM      3  C   UNL A   1      33.273  29.034  23.424  1.00  0.00     0.242 C 
ATOM      4  O   UNL A   1      34.340  29.138  22.819  1.00  0.00    -0.273 OA
ATOM      5  H   UNL A   1      33.920  30.188  24.916  1.00  0.00     0.163 HD
BRANCH   3   6
ATOM      6  C   UNL A   1      32.166  28.123  22.875  1.00  0.00     0.168 C 
ATOM      7  C   UNL A   1      30.997  29.043  22.517  1.00  0.00     0.041 C 
BRANCH   6   8
ATOM      8  N   UNL A   1      32.550  27.297  21.730  1.00  0.00    -0.343 N 
ATOM      9  C   UNL A   1      32.625  25.936  21.631  1.00  0.00     0.240 C 
ATOM     10  H   UNL A   1      32.790  27.793  20.914  1.00  0.00     0.164 HD
ATOM     11  O   UNL A   1      32.999  25.462  20.556  1.00  0.00    -0.273 OA
BRANCH   9  12
ATOM     12  C   UNL A   1      32.395  25.041  22.855  1.00  0.00     0.218 C 
BRANCH  12  13
ATOM     13  N   UNL A   1      31.886  23.711  22.520  1.00  0.00    -0.329 N 
ATOM     14  C   UNL A   1      32.320  22.512  23.029  1.00  0.00     0.322 C 
ATOM     15  H   UNL A   1      31.156  23.672  21.861  1.00  0.00     0.165 HD
ATOM     16  O   UNL A   1      32.193  21.505  22.334  1.00  0.00    -0.248 OA
BRANCH  14  17
ATOM     17  N   UNL A   1      32.924  22.560  24.265  1.00  0.00    -0.283 N 
ATOM     18  C   UNL A   1      32.141  22.370  25.483  1.00  0.00     0.227 C 
ATOM     19  C   UNL A   1      34.314  22.806  24.456  1.00  0.00     0.070 A 
ATOM     20  C   UNL A   1      32.426  23.441  26.518  1.00  0.00     0.244 C 
ATOM     21  C   UNL A   1      34.691  23.503  25.625  1.00  0.00     0.065 A 
ATOM     22  C   UNL A   1      35.291  22.520  23.501  1.00  0.00     0.028 A 
ATOM     23  O   UNL A   1      31.603  23.787  27.364  1.00  0.00    -0.273 OA
ATOM     24  N   UNL A   1      33.726  23.874  26.574  1.00  0.00    -0.323 N 
ATOM     25  C   UNL A   1      36.008  23.926  25.815  1.00  0.00     0.028 A 
ATOM     26  C   UNL A   1      36.617  22.922  23.705  1.00  0.00     0.002 A 
ATOM     27  H   UNL A   1      33.993  24.471  27.312  1.00  0.00     0.170 HD
ATOM     28  C   UNL A   1      36.971  23.632  24.853  1.00  0.00     0.002 A 
ENDBRANCH  14  17
ENDBRANCH  12  13
ENDBRANCH   9  12
ENDBRANCH   6   8
ENDBRANCH   3   6
ENDBRANCH   1   2
BRANCH   1  29
ATOM     29  C   UNL A   1      31.626  30.800  26.150  1.00  0.00     0.042 C 
BRANCH  29  30
ATOM     30  C   UNL A   1      32.666  31.546  26.968  1.00  0.00     0.118 C 
BRANCH  30  31
ATOM     31  N   UNL A   1      32.265  32.901  27.329  1.00  0.00    -0.352 N 
ATOM     32  C   UNL A   1      32.947  33.814  28.096  1.00  0.00     0.251 C 
ATOM     33  H   UNL A   1      31.395  33.198  26.978  1.00  0.00     0.163 HD
ATOM     34  O   UNL A   1      32.446  34.902  28.369  1.00  0.00    -0.269 OA
BRANCH  32  35
ATOM     35  C   UNL A   1      34.266  33.444  28.650  1.00  0.00     0.039 A 
ATOM     36  C   UNL A   1      34.307  32.682  29.818  1.00  0.00     0.014 A 
ATOM     37  C   UNL A   1      35.444  33.772  27.974  1.00  0.00     0.014 A 
ATOM     38  C   UNL A   1      35.531  32.190  30.272  1.00  0.00     0.010 A 
ATOM     39  C   UNL A   1      36.646  33.196  28.371  1.00  0.00     0.010 A 
ATOM     40  C   UNL A   1      36.706  32.412  29.533  1.00  0.00    -0.014 A 
BRANCH  40  41
ATOM     41  C   UNL A   1      38.001  31.853  29.995  1.00  0.00     0.031 A 
ATOM     42  C   UNL A   1      38.754  32.525  31.111  1.00  0.00     0.074 A 
ATOM     43  C   UNL A   1      38.506  30.751  29.407  1.00  0.00     0.049 A 
ATOM     44  N   UNL A   1      39.871  32.161  31.689  1.00  0.00    -0.248 NA
ATOM     45  C   UNL A   1      38.193  33.784  31.628  1.00  0.00     0.031 C 
ATOM     46  C   UNL A   1      37.908  30.044  28.273  1.00  0.00     0.029 A 
ATOM     47  N   UNL A   1      39.635  30.025  29.691  1.00  0.00    -0.354 N 
ATOM     48  C   UNL A   1      40.144  33.146  32.631  1.00  0.00     0.074 A 
ATOM     49  C   UNL A   1      39.121  34.158  32.497  1.00  0.00     0.031 C 
ATOM     50  C   UNL A   1      38.652  28.963  27.987  1.00  0.00     0.029 A 
ATOM     51  C   UNL A   1      39.789  28.912  28.900  1.00  0.00     0.049 A 
ATOM     52  H   UNL A   1      40.274  30.276  30.397  1.00  0.00     0.167 HD
ATOM     53  C   UNL A   1      41.136  33.188  33.550  1.00  0.00     0.037 A 
ATOM     54  C   UNL A   1      40.734  27.952  28.921  1.00  0.00     0.037 A 
ATOM     55  C   UNL A   1      42.143  32.172  33.697  1.00  0.00     0.049 A 
ATOM     56  C   UNL A   1      41.816  28.011  29.963  1.00  0.00     0.074 A 
ATOM     57  C   UNL A   1      43.165  32.098  34.627  1.00  0.00     0.029 A 
ATOM     58  N   UNL A   1      42.253  31.050  32.890  1.00  0.00    -0.354 N 
ATOM     59  N   UNL A   1      42.016  28.905  30.901  1.00  0.00    -0.248 NA
ATOM     60  C   UNL A   1      42.794  26.914  29.963  1.00  0.00     0.031 C 
ATOM     61  C   UNL A   1      43.920  30.951  34.355  1.00  0.00     0.029 A 
ATOM     62  C   UNL A   1      43.333  30.283  33.292  1.00  0.00     0.049 A 
ATOM     63  H   UNL A   1      41.651  30.831  32.142  1.00  0.00     0.167 HD
ATOM     64  C   UNL A   1      43.116  28.461  31.624  1.00  0.00     0.074 A 
ATOM     65  C   UNL A   1      43.530  27.210  31.023  1.00  0.00     0.031 C 
ATOM     66  C   UNL A   1      43.726  29.034  32.690  1.00  0.00     0.037 A 
BRANCH  53  67
ATOM     67  C   UNL A   1      41.168  34.373  34.472  1.00  0.00     0.057 A 
ATOM     68  C   UNL A   1      41.851  35.551  34.139  1.00  0.00     0.134 A 
ATOM     69  C   UNL A   1      40.497  34.342  35.702  1.00  0.00     0.134 A 
ATOM     70  F   UNL A   1      42.528  35.640  32.984  1.00  0.00    -0.206 F 
ATOM     71  C   UNL A   1      41.893  36.643  35.007  1.00  0.00     0.040 A 
ATOM     72  C   UNL A   1      40.506  35.439  36.565  1.00  0.00     0.040 A 
ATOM     73  F   UNL A   1      39.821  33.249  36.083  1.00  0.00    -0.206 F 
ATOM     74  C   UNL A   1      41.212  36.591  36.222  1.00  0.00     0.006 A 
ENDBRANCH  53  67
BRANCH  54  75
ATOM     75  C   UNL A   1      40.672  26.823  27.957  1.00  0.00     0.057 A 
ATOM     76  C   UNL A   1      41.399  26.850  26.761  1.00  0.00     0.134 A 
ATOM     77  C   UNL A   1      39.869  25.701  28.197  1.00  0.00     0.134 A 
ATOM     78  F   UNL A   1      42.173  27.905  26.466  1.00  0.00    -0.206 F 
ATOM     79  C   UNL A   1      41.311  25.817  25.826  1.00  0.00     0.040 A 
ATOM     80  C   UNL A   1      39.792  24.649  27.283  1.00  0.00     0.040 A 
ATOM     81  F   UNL A   1      39.155  25.609  29.328  1.00  0.00    -0.206 F 
ATOM     82  C   UNL A   1      40.507  24.710  26.089  1.00  0.00     0.006 A 
ENDBRANCH  54  75
BRANCH  66  83
ATOM     83  C   UNL A   1      44.872  28.285  33.308  1.00  0.00     0.057 A 
ATOM     84  C   UNL A   1      46.200  28.501  32.918  1.00  0.00     0.134 A 
ATOM     85  C   UNL A   1      44.641  27.346  34.321  1.00  0.00     0.134 A 
ATOM     86  F   UNL A   1      46.489  29.380  31.946  1.00  0.00    -0.206 F 
ATOM     87  C   UNL A   1      47.253  27.784  33.488  1.00  0.00     0.040 A 
ATOM     88  C   UNL A   1      45.687  26.645  34.920  1.00  0.00     0.040 A 
ATOM     89  F   UNL A   1      43.394  27.099  34.751  1.00  0.00    -0.206 F 
ATOM     90  C   UNL A   1      46.998  26.856  34.496  1.00  0.00     0.006 A 
ENDBRANCH  66  83
ENDBRANCH  40  41
ENDBRANCH  32  35
ENDBRANCH  30  31
ENDBRANCH  29  30
ENDBRANCH   1  29
TORSDOF 14
ENDMDL
MODEL 2
REMARK VINA RESULT:     -12.4      0.237      1.304
REMARK SMILES C[C@@H](NC(=O)CNC(=O)N1CC(=O)Nc2ccccc21)C(=O)NCCCNC(=O)c1ccc(-c2c3nc(c(-c4c(F)cccc4F)c4ccc([nH]4)c(-c4c(F)cccc4F)c4nc(c(-c5c(F)cccc5F)c5ccc2[nH]5)C=C4)C=C3)cc1
REMARK SMILES IDX 24 1 23 2 21 3 22 4 2 6 1 7 3 8 4 9 5 11 6 12 7 13 8 14 9 16
REMARK SMILES IDX 10 17 11 18 20 19 12 20 15 21 19 22 13 23 14 24 16 25 18 26
REMARK SMILES IDX 17 28 25 29 26 30 27 31 28 32 29 34 30 35 31 36 83 37 32 38
REMARK SMILES IDX 82 39 33 40 34 41 35 42 76 43 36 44 81 45 75 46 77 47 37 48
REMARK SMILES IDX 80 49 74 50 73 51 38 53 64 54 47 55 63 56 48 57 51 58 62 59
REMARK SMILES IDX 78 60 49 61 50 62 61 64 79 65 52 66 39 67 40 68 45 69 41 70
REMARK SMILES IDX 42 71 44 72 46 73 43 74 65 75 66 76 71 77 67 78 68 79 70 80
REMARK SMILES IDX 72 81 69 82 53 83 54 84 59 85 55 86 56 87 58 88 60 89 57 90
REMARK H PARENT 23 5 3 10 7 15 14 27 27 33 77 52 51 63
REMARK Flexibility Score: inf
ROOT
ATOM      1  C   UNL A   1      32.138  29.501  25.663  1.00  0.00     0.117 C 
ENDROOT
BRANCH   1   2
ATOM      2  N   UNL A   1      33.158  29.676  24.645  1.00  0.00    -0.354 N 
ATOM      3  C   UNL A   1      33.269  29.075  23.428  1.00  0.00     0.242 C 
ATOM      4  O   UNL A   1      34.313  29.229  22.794  1.00  0.00    -0.273 OA
ATOM      5  H   UNL A   1      33.870  30.320  24.865  1.00  0.00     0.163 HD
BRANCH   3   6
ATOM      6  C   UNL A   1      32.214  28.074  22.937  1.00  0.00     0.168 C 
ATOM      7  C   UNL A   1      31.005  28.908  22.507  1.00  0.00     0.041 C 
BRANCH   6   8
ATOM      8  N   UNL A   1      32.650  27.190  21.856  1.00  0.00    -0.343 N 
ATOM      9  C   UNL A   1      32.600  25.827  21.779  1.00  0.00     0.240 C 
ATOM     10  H   UNL A   1      33.035  27.642  21.071  1.00  0.00     0.164 HD
ATOM     11  O   UNL A   1      33.053  25.296  20.763  1.00  0.00    -0.273 OA
BRANCH   9  12
ATOM     12  C   UNL A   1      32.135  24.985  22.974  1.00  0.00     0.218 C 
BRANCH  12  13
ATOM     13  N   UNL A   1      31.689  23.641  22.606  1.00  0.00    -0.329 N 
ATOM     14  C   UNL A   1      32.188  22.451  23.076  1.00  0.00     0.322 C 
ATOM     15  H   UNL A   1      30.956  23.584  21.951  1.00  0.00     0.165 HD
ATOM     16  O   UNL A   1      32.104  21.460  22.354  1.00  0.00    -0.248 OA
BRANCH  14  17
ATOM     17  N   UNL A   1      32.800  22.495  24.308  1.00  0.00    -0.283 N 
ATOM     18  C   UNL A   1      32.030  22.271  25.529  1.00  0.00     0.227 C 
ATOM     19  C   UNL A   1      34.186  22.768  24.493  1.00  0.00     0.070 A 
ATOM     20  C   UNL A   1      32.301  23.332  26.578  1.00  0.00     0.244 C 
ATOM     21  C   UNL A   1      34.557  23.456  25.669  1.00  0.00     0.065 A 
ATOM     22  C   UNL A   1      35.161  22.517  23.526  1.00  0.00     0.028 A 
ATOM     23  O   UNL A   1      31.477  23.647  27.435  1.00  0.00    -0.273 OA
ATOM     24  N   UNL A   1      33.591  23.792  26.630  1.00  0.00    -0.323 N 
ATOM     25  C   UNL A   1      35.866  23.904  25.855  1.00  0.00     0.028 A 
ATOM     26  C   UNL A   1      36.480  22.945  23.726  1.00  0.00     0.002 A 
ATOM     27  H   UNL A   1      33.851  24.384  27.374  1.00  0.00     0.170 HD
ATOM     28  C   UNL A   1      36.827  23.645  24.882  1.00  0.00     0.002 A 
ENDBRANCH  14  17
ENDBRANCH  12  13
ENDBRANCH   9  12
ENDBRANCH   6   8
ENDBRANCH   3   6
ENDBRANCH   1   2
BRANCH   1  29
ATOM     29  C   UNL A   1      31.647  30.823  26.213  1.00  0.00     0.042 C 
BRANCH  29  30
ATOM     30  C   UNL A   1      32.729  31.601  26.943  1.00  0.00     0.118 C 
BRANCH  30  31
ATOM     31  N   UNL A   1      32.308  32.931  27.367  1.00  0.00    -0.352 N 
ATOM     32  C   UNL A   1      32.982  33.823  28.167  1.00  0.00     0.251 C 
ATOM     33  H   UNL A   1      31.429  33.228  27.039  1.00  0.00     0.163 HD
ATOM     34  O   UNL A   1      32.465  34.888  28.492  1.00  0.00    -0.269 OA
BRANCH  32  35
ATOM     35  C   UNL A   1      34.313  33.453  28.690  1.00  0.00     0.039 A 
ATOM     36  C   UNL A   1      34.382  32.701  29.863  1.00  0.00     0.014 A 
ATOM     37  C   UNL A   1      35.475  33.770  27.981  1.00  0.00     0.014 A 
ATOM     38  C   UNL A   1      35.615  32.210  30.291  1.00  0.00     0.010 A 
ATOM     39  C   UNL A   1      36.684  33.193  28.352  1.00  0.00     0.010 A 
ATOM     40  C   UNL A   1      36.771  32.420  29.520  1.00  0.00    -0.014 A 
BRANCH  40  41
ATOM     41  C   UNL A   1      38.076  31.861  29.954  1.00  0.00     0.031 A 
ATOM     42  C   UNL A   1      38.879  32.563  31.014  1.00  0.00     0.074 A 
ATOM     43  C   UNL A   1      38.544  30.731  29.390  1.00  0.00     0.049 A 
ATOM     44  N   UNL A   1      40.012  32.206  31.564  1.00  0.00    -0.248 NA
ATOM     45  C   UNL A   1      38.355  33.849  31.504  1.00  0.00     0.031 C 
ATOM     46  C   UNL A   1      37.894  29.990  28.307  1.00  0.00     0.029 A 
ATOM     47  N   UNL A   1      39.674  29.999  29.659  1.00  0.00    -0.354 N 
ATOM     48  C   UNL A   1      40.334  33.221  32.456  1.00  0.00     0.074 A 
ATOM     49  C   UNL A   1      39.319  34.242  32.323  1.00  0.00     0.031 C 
ATOM     50  C   UNL A   1      38.613  28.888  28.034  1.00  0.00     0.029 A 
ATOM     51  C   UNL A   1      39.783  28.856  28.905  1.00  0.00     0.049 A 
ATOM     52  H   UNL A   1      40.342  30.268  30.330  1.00  0.00     0.167 HD
ATOM     53  C   UNL A   1      41.360  33.284  33.336  1.00  0.00     0.037 A 
ATOM     54  C   UNL A   1      40.716  27.884  28.927  1.00  0.00     0.037 A 
ATOM     55  C   UNL A   1      42.359  32.260  33.483  1.00  0.00     0.049 A 
ATOM     56  C   UNL A   1      41.838  27.967  29.925  1.00  0.00     0.074 A 
ATOM     57  C   UNL A   1      43.415  32.207  34.376  1.00  0.00     0.029 A 
ATOM     58  N   UNL A   1      42.424  31.107  32.716  1.00  0.00    -0.354 N 
ATOM     59  N   UNL A   1      42.085  28.893  30.821  1.00  0.00    -0.248 NA
ATOM     60  C   UNL A   1      42.802  26.857  29.930  1.00  0.00     0.031 C 
ATOM     61  C   UNL A   1      44.144  31.039  34.120  1.00  0.00     0.029 A 
ATOM     62  C   UNL A   1      43.509  30.341  33.106  1.00  0.00     0.049 A 
ATOM     63  H   UNL A   1      41.791  30.868  32.000  1.00  0.00     0.167 HD
ATOM     64  C   UNL A   1      43.206  28.460  31.518  1.00  0.00     0.074 A 
ATOM     65  C   UNL A   1      43.581  27.182  30.950  1.00  0.00     0.031 C 
ATOM     66  C   UNL A   1      43.863  29.064  32.538  1.00  0.00     0.037 A 
BRANCH  53  67
ATOM     67  C   UNL A   1      41.442  34.502  34.210  1.00  0.00     0.057 A 
ATOM     68  C   UNL A   1      40.809  34.557  35.460  1.00  0.00     0.134 A 
ATOM     69  C   UNL A   1      42.172  35.627  33.806  1.00  0.00     0.134 A 
ATOM     70  F   UNL A   1      40.080  33.521  35.900  1.00  0.00    -0.206 F 
ATOM     71  C   UNL A   1      40.873  35.699  36.262  1.00  0.00     0.040 A 
ATOM     72  C   UNL A   1      42.268  36.762  34.613  1.00  0.00     0.040 A 
ATOM     73  F   UNL A   1      42.805  35.641  32.624  1.00  0.00    -0.206 F 
ATOM     74  C   UNL A   1      41.611  36.803  35.841  1.00  0.00     0.006 A 
ENDBRANCH  53  67
BRANCH  54  75
ATOM     75  C   UNL A   1      40.604  26.720  28.010  1.00  0.00     0.057 A 
ATOM     76  C   UNL A   1      41.305  26.682  26.800  1.00  0.00     0.134 A 
ATOM     77  C   UNL A   1      39.777  25.631  28.311  1.00  0.00     0.134 A 
ATOM     78  F   UNL A   1      42.100  27.703  26.447  1.00  0.00    -0.206 F 
ATOM     79  C   UNL A   1      41.169  25.616  25.908  1.00  0.00     0.040 A 
ATOM     80  C   UNL A   1      39.652  24.547  27.441  1.00  0.00     0.040 A 
ATOM     81  F   UNL A   1      39.085  25.603  29.459  1.00  0.00    -0.206 F 
ATOM     82  C   UNL A   1      40.343  24.542  26.230  1.00  0.00     0.006 A 
ENDBRANCH  54  75
BRANCH  66  83
ATOM     83  C   UNL A   1      45.022  28.324  33.140  1.00  0.00     0.057 A 
ATOM     84  C   UNL A   1      44.859  27.411  34.190  1.00  0.00     0.134 A 
ATOM     85  C   UNL A   1      46.319  28.516  32.648  1.00  0.00     0.134 A 
ATOM     86  F   UNL A   1      43.644  27.188  34.715  1.00  0.00    -0.206 F 
ATOM     87  C   UNL A   1      45.948  26.744  34.753  1.00  0.00     0.040 A 
ATOM     88  C   UNL A   1      47.412  27.833  33.181  1.00  0.00     0.040 A 
ATOM     89  F   UNL A   1      46.545  29.367  31.635  1.00  0.00    -0.206 F 
ATOM     90  C   UNL A   1      47.229  26.952  34.244  1.00  0.00     0.006 A 
ENDBRANCH  66  83
ENDBRANCH  40  41
ENDBRANCH  32  35
ENDBRANCH  30  31
ENDBRANCH  29  30
ENDBRANCH   1  29
TORSDOF 14
ENDMDL
MODEL 3
REMARK VINA RESULT:     -12.3      3.400      8.675
REMARK SMILES C[C@@H](NC(=O)CNC(=O)N1CC(=O)Nc2ccccc21)C(=O)NCCCNC(=O)c1ccc(-c2c3nc(c(-c4c(F)cccc4F)c4ccc([nH]4)c(-c4c(F)cccc4F)c4nc(c(-c5c(F)cccc5F)c5ccc2[nH]5)C=C4)C=C3)cc1
REMARK SMILES IDX 24 1 23 2 21 3 22 4 2 6 1 7 3 8 4 9 5 11 6 12 7 13 8 14 9 16
REMARK SMILES IDX 10 17 11 18 20 19 12 20 15 21 19 22 13 23 14 24 16 25 18 26
REMARK SMILES IDX 17 28 25 29 26 30 27 31 28 32 29 34 30 35 31 36 83 37 32 38
REMARK SMILES IDX 82 39 33 40 34 41 35 42 76 43 36 44 81 45 75 46 77 47 37 48
REMARK SMILES IDX 80 49 74 50 73 51 38 53 64 54 47 55 63 56 48 57 51 58 62 59
REMARK SMILES IDX 78 60 49 61 50 62 61 64 79 65 52 66 39 67 40 68 45 69 41 70
REMARK SMILES IDX 42 71 44 72 46 73 43 74 65 75 66 76 71 77 67 78 68 79 70 80
REMARK SMILES IDX 72 81 69 82 53 83 54 84 59 85 55 86 56 87 58 88 60 89 57 90
REMARK H PARENT 23 5 3 10 7 15 14 27 27 33 77 52 51 63
REMARK Flexibility Score: inf
ROOT
ATOM      1  C   UNL A   1      35.943  21.024  25.163  1.00  0.00     0.117 C 
ENDROOT
BRANCH   1   2
ATOM      2  N   UNL A   1      35.031  19.896  25.195  1.00  0.00    -0.354 N 
ATOM      3  C   UNL A   1      33.677  19.883  25.046  1.00  0.00     0.242 C 
ATOM      4  O   UNL A   1      33.073  18.838  25.292  1.00  0.00    -0.273 OA
ATOM      5  H   UNL A   1      35.449  19.017  25.344  1.00  0.00     0.163 HD
BRANCH   3   6
ATOM      6  C   UNL A   1      32.895  21.175  24.773  1.00  0.00     0.168 C 
ATOM      7  C   UNL A   1      32.411  21.080  23.325  1.00  0.00     0.041 C 
BRANCH   6   8
ATOM      8  N   UNL A   1      31.776  21.429  25.682  1.00  0.00    -0.343 N 
ATOM      9  C   UNL A   1      31.013  22.554  25.822  1.00  0.00     0.240 C 
ATOM     10  H   UNL A   1      31.539  20.682  26.278  1.00  0.00     0.164 HD
ATOM     11  O   UNL A   1      30.129  22.541  26.681  1.00  0.00    -0.273 OA
BRANCH   9  12
ATOM     12  C   UNL A   1      31.344  23.834  25.043  1.00  0.00     0.218 C 
BRANCH  12  13
ATOM     13  N   UNL A   1      30.172  24.473  24.444  1.00  0.00    -0.329 N 
ATOM     14  C   UNL A   1      30.008  25.811  24.183  1.00  0.00     0.322 C 
ATOM     15  H   UNL A   1      29.422  23.882  24.203  1.00  0.00     0.165 HD
ATOM     16  O   UNL A   1      28.865  26.265  24.171  1.00  0.00    -0.248 OA
BRANCH  14  17
ATOM     17  N   UNL A   1      31.162  26.543  24.016  1.00  0.00    -0.283 N 
ATOM     18  C   UNL A   1      31.794  26.648  22.703  1.00  0.00     0.227 C 
ATOM     19  C   UNL A   1      31.825  27.224  25.078  1.00  0.00     0.070 A 
ATOM     20  C   UNL A   1      33.283  26.367  22.762  1.00  0.00     0.244 C 
ATOM     21  C   UNL A   1      33.232  27.320  25.003  1.00  0.00     0.065 A 
ATOM     22  C   UNL A   1      31.182  27.674  26.232  1.00  0.00     0.028 A 
ATOM     23  O   UNL A   1      33.915  25.924  21.805  1.00  0.00    -0.273 OA
ATOM     24  N   UNL A   1      33.921  26.811  23.891  1.00  0.00    -0.323 N 
ATOM     25  C   UNL A   1      33.974  27.827  26.071  1.00  0.00     0.028 A 
ATOM     26  C   UNL A   1      31.926  28.207  27.292  1.00  0.00     0.002 A 
ATOM     27  H   UNL A   1      34.905  26.772  23.923  1.00  0.00     0.170 HD
ATOM     28  C   UNL A   1      33.317  28.273  27.215  1.00  0.00     0.002 A 
ENDBRANCH  14  17
ENDBRANCH  12  13
ENDBRANCH   9  12
ENDBRANCH   6   8
ENDBRANCH   3   6
ENDBRANCH   1   2
BRANCH   1  29
ATOM     29  C   UNL A   1      37.299  20.647  24.606  1.00  0.00     0.042 C 
BRANCH  29  30
ATOM     30  C   UNL A   1      38.418  20.780  25.625  1.00  0.00     0.118 C 
BRANCH  30  31
ATOM     31  N   UNL A   1      39.420  19.725  25.536  1.00  0.00    -0.352 N 
ATOM     32  C   UNL A   1      40.731  19.759  25.946  1.00  0.00     0.251 C 
ATOM     33  H   UNL A   1      39.119  18.881  25.130  1.00  0.00     0.163 HD
ATOM     34  O   UNL A   1      41.477  18.805  25.743  1.00  0.00    -0.269 OA
BRANCH  32  35
ATOM     35  C   UNL A   1      41.254  20.990  26.575  1.00  0.00     0.039 A 
ATOM     36  C   UNL A   1      41.771  21.990  25.752  1.00  0.00     0.014 A 
ATOM     37  C   UNL A   1      41.153  21.188  27.955  1.00  0.00     0.014 A 
ATOM     38  C   UNL A   1      42.126  23.219  26.307  1.00  0.00     0.010 A 
ATOM     39  C   UNL A   1      41.410  22.446  28.489  1.00  0.00     0.010 A 
ATOM     40  C   UNL A   1      41.914  23.471  27.674  1.00  0.00    -0.014 A 
BRANCH  40  41
ATOM     41  C   UNL A   1      42.254  24.794  28.256  1.00  0.00     0.031 A 
ATOM     42  C   UNL A   1      43.675  25.106  28.634  1.00  0.00     0.074 A 
ATOM     43  C   UNL A   1      41.285  25.709  28.455  1.00  0.00     0.049 A 
ATOM     44  N   UNL A   1      44.179  26.219  29.105  1.00  0.00    -0.248 NA
ATOM     45  C   UNL A   1      44.657  24.018  28.489  1.00  0.00     0.031 C 
ATOM     46  C   UNL A   1      39.859  25.507  28.193  1.00  0.00     0.029 A 
ATOM     47  N   UNL A   1      41.357  27.000  28.915  1.00  0.00    -0.354 N 
ATOM     48  C   UNL A   1      45.529  25.962  29.314  1.00  0.00     0.074 A 
ATOM     49  C   UNL A   1      45.752  24.571  28.989  1.00  0.00     0.031 C 
ATOM     50  C   UNL A   1      39.198  26.646  28.455  1.00  0.00     0.029 A 
ATOM     51  C   UNL A   1      40.147  27.650  28.924  1.00  0.00     0.049 A 
ATOM     52  H   UNL A   1      42.197  27.421  29.210  1.00  0.00     0.167 HD
ATOM     53  C   UNL A   1      46.504  26.814  29.704  1.00  0.00     0.037 A 
ATOM     54  C   UNL A   1      39.842  28.919  29.258  1.00  0.00     0.037 A 
ATOM     55  C   UNL A   1      46.287  28.203  30.007  1.00  0.00     0.049 A 
ATOM     56  C   UNL A   1      40.946  29.854  29.672  1.00  0.00     0.074 A 
ATOM     57  C   UNL A   1      47.216  29.164  30.368  1.00  0.00     0.029 A 
ATOM     58  N   UNL A   1      45.050  28.830  29.984  1.00  0.00    -0.354 N 
ATOM     59  N   UNL A   1      42.231  29.620  29.785  1.00  0.00    -0.248 NA
ATOM     60  C   UNL A   1      40.559  31.236  29.985  1.00  0.00     0.031 C 
ATOM     61  C   UNL A   1      46.534  30.363  30.604  1.00  0.00     0.029 A 
ATOM     62  C   UNL A   1      45.190  30.162  30.336  1.00  0.00     0.049 A 
ATOM     63  H   UNL A   1      44.199  28.393  29.750  1.00  0.00     0.167 HD
ATOM     64  C   UNL A   1      42.809  30.831  30.144  1.00  0.00     0.074 A 
ATOM     65  C   UNL A   1      41.735  31.800  30.216  1.00  0.00     0.031 C 
ATOM     66  C   UNL A   1      44.111  31.117  30.390  1.00  0.00     0.037 A 
BRANCH  53  67
ATOM     67  C   UNL A   1      47.896  26.262  29.814  1.00  0.00     0.057 A 
ATOM     68  C   UNL A   1      48.399  25.762  31.024  1.00  0.00     0.134 A 
ATOM     69  C   UNL A   1      48.740  26.216  28.697  1.00  0.00     0.134 A 
ATOM     70  F   UNL A   1      47.649  25.792  32.136  1.00  0.00    -0.206 F 
ATOM     71  C   UNL A   1      49.700  25.266  31.125  1.00  0.00     0.040 A 
ATOM     72  C   UNL A   1      50.032  25.694  28.779  1.00  0.00     0.040 A 
ATOM     73  F   UNL A   1      48.322  26.675  27.508  1.00  0.00    -0.206 F 
ATOM     74  C   UNL A   1      50.518  25.225  29.998  1.00  0.00     0.006 A 
ENDBRANCH  53  67
BRANCH  54  75
ATOM     75  C   UNL A   1      38.439  29.400  29.166  1.00  0.00     0.057 A 
ATOM     76  C   UNL A   1      37.900  29.831  27.949  1.00  0.00     0.134 A 
ATOM     77  C   UNL A   1      37.613  29.461  30.295  1.00  0.00     0.134 A 
ATOM     78  F   UNL A   1      38.647  29.814  26.835  1.00  0.00    -0.206 F 
ATOM     79  C   UNL A   1      36.599  30.331  27.859  1.00  0.00     0.040 A 
ATOM     80  C   UNL A   1      36.302  29.934  30.215  1.00  0.00     0.040 A 
ATOM     81  F   UNL A   1      38.067  29.054  31.489  1.00  0.00    -0.206 F 
ATOM     82  C   UNL A   1      35.795  30.380  28.996  1.00  0.00     0.006 A 
ENDBRANCH  54  75
BRANCH  66  83
ATOM     83  C   UNL A   1      44.452  32.545  30.706  1.00  0.00     0.057 A 
ATOM     84  C   UNL A   1      44.745  33.480  29.704  1.00  0.00     0.134 A 
ATOM     85  C   UNL A   1      44.469  32.993  32.033  1.00  0.00     0.134 A 
ATOM     86  F   UNL A   1      44.756  33.113  28.414  1.00  0.00    -0.206 F 
ATOM     87  C   UNL A   1      45.078  34.799  30.013  1.00  0.00     0.040 A 
ATOM     88  C   UNL A   1      44.770  34.317  32.353  1.00  0.00     0.040 A 
ATOM     89  F   UNL A   1      44.186  32.153  33.040  1.00  0.00    -0.206 F 
ATOM     90  C   UNL A   1      45.087  35.222  31.342  1.00  0.00     0.006 A 
ENDBRANCH  66  83
ENDBRANCH  40  41
ENDBRANCH  32  35
ENDBRANCH  30  31
ENDBRANCH  29  30
ENDBRANCH   1  29
TORSDOF 14
ENDMDL
