MODEL 1
REMARK VINA RESULT:      -8.9      0.000      0.000
REMARK SMILES CC(C)[C@H](NC(=O)OCc1ccccc1)C(=O)NCC(=O)NCCCNC(=O)c1ccc(-c2c3nc(c(-c4c(F)cccc4F)c4ccc([nH]4)c(-c4c(F)cccc4F)c4nc(c(-c5c(F)cccc5F)c5ccc2[nH]5)C=C4)C=C3)cc1
REMARK SMILES IDX 20 1 21 2 22 3 19 5 18 6 16 7 17 8 4 10 2 11 1 12 3 13 5 14
REMARK SMILES IDX 6 15 7 17 8 18 9 19 10 20 11 21 15 22 12 23 14 24 13 25
REMARK SMILES IDX 23 26 24 27 25 28 26 29 27 30 28 32 29 33 30 34 82 35 31 36
REMARK SMILES IDX 81 37 32 38 33 39 34 40 75 41 35 42 80 43 74 44 76 45 36 46
REMARK SMILES IDX 79 47 73 48 72 49 37 51 63 52 46 53 62 54 47 55 50 56 61 57
REMARK SMILES IDX 77 58 48 59 49 60 60 62 78 63 51 64 38 65 39 66 44 67 40 68
REMARK SMILES IDX 41 69 43 70 45 71 42 72 64 73 65 74 70 75 66 76 67 77 69 78
REMARK SMILES IDX 71 79 68 80 52 81 53 82 58 83 54 84 55 85 57 86 59 87 56 88
REMARK H PARENT 22 4 18 9 5 16 26 31 76 50 50 61
REMARK Flexibility Score: inf
ROOT
ATOM      1  C   UNL A   1      35.943  34.054  34.886  1.00  0.00     0.239 C 
ATOM      2  O   UNL A   1      35.810  33.567  36.013  1.00  0.00    -0.273 OA
ATOM      3  N   UNL A   1      34.885  34.729  34.339  1.00  0.00    -0.355 N 
ATOM      4  H   UNL A   1      34.067  34.717  34.887  1.00  0.00     0.163 HD
ENDROOT
BRANCH   1   5
ATOM      5  C   UNL A   1      37.252  33.872  34.122  1.00  0.00     0.216 C 
BRANCH   5   6
ATOM      6  N   UNL A   1      38.261  34.866  34.410  1.00  0.00    -0.345 N 
ATOM      7  C   UNL A   1      39.207  34.900  35.385  1.00  0.00     0.243 C 
ATOM      8  O   UNL A   1      40.067  35.786  35.311  1.00  0.00    -0.273 OA
ATOM      9  H   UNL A   1      38.265  35.642  33.804  1.00  0.00     0.164 HD
BRANCH   7  10
ATOM     10  C   UNL A   1      39.261  33.877  36.558  1.00  0.00     0.177 C 
BRANCH  10  11
ATOM     11  C   UNL A   1      38.629  34.370  37.905  1.00  0.00     0.015 C 
ATOM     12  C   UNL A   1      37.987  33.326  38.838  1.00  0.00     0.010 C 
ATOM     13  C   UNL A   1      39.573  35.288  38.692  1.00  0.00     0.010 C 
ENDBRANCH  10  11
BRANCH  10  14
ATOM     14  N   UNL A   1      40.546  33.191  36.713  1.00  0.00    -0.309 N 
ATOM     15  C   UNL A   1      40.705  31.832  36.611  1.00  0.00     0.408 C 
ATOM     16  H   UNL A   1      41.342  33.738  36.901  1.00  0.00     0.167 HD
ATOM     17  O   UNL A   1      41.619  31.264  37.221  1.00  0.00    -0.225 OA
BRANCH  15  18
ATOM     18  O   UNL A   1      39.887  31.245  35.715  1.00  0.00    -0.445 OA
BRANCH  18  19
ATOM     19  C   UNL A   1      40.275  31.221  34.321  1.00  0.00     0.270 C 
BRANCH  19  20
ATOM     20  C   UNL A   1      39.512  30.142  33.570  1.00  0.00    -0.011 A 
ATOM     21  C   UNL A   1      38.141  30.256  33.317  1.00  0.00     0.007 A 
ATOM     22  C   UNL A   1      40.166  28.993  33.103  1.00  0.00     0.007 A 
ATOM     23  C   UNL A   1      37.478  29.321  32.514  1.00  0.00     0.000 A 
ATOM     24  C   UNL A   1      39.510  28.067  32.281  1.00  0.00     0.000 A 
ATOM     25  C   UNL A   1      38.170  28.248  31.963  1.00  0.00     0.000 A 
ENDBRANCH  19  20
ENDBRANCH  18  19
ENDBRANCH  15  18
ENDBRANCH  10  14
ENDBRANCH   7  10
ENDBRANCH   5   6
ENDBRANCH   1   5
BRANCH   3  26
ATOM     26  C   UNL A   1      34.756  35.464  33.084  1.00  0.00     0.117 C 
BRANCH  26  27
ATOM     27  C   UNL A   1      33.327  35.504  32.536  1.00  0.00     0.042 C 
BRANCH  27  28
ATOM     28  C   UNL A   1      33.092  36.286  31.243  1.00  0.00     0.118 C 
BRANCH  28  29
ATOM     29  N   UNL A   1      32.733  35.431  30.122  1.00  0.00    -0.352 N 
ATOM     30  C   UNL A   1      33.397  34.471  29.393  1.00  0.00     0.251 C 
ATOM     31  H   UNL A   1      31.809  35.571  29.817  1.00  0.00     0.163 HD
ATOM     32  O   UNL A   1      32.800  34.051  28.395  1.00  0.00    -0.269 OA
BRANCH  30  33
ATOM     33  C   UNL A   1      34.747  33.890  29.693  1.00  0.00     0.039 A 
ATOM     34  C   UNL A   1      35.801  34.263  28.840  1.00  0.00     0.014 A 
ATOM     35  C   UNL A   1      35.024  32.911  30.649  1.00  0.00     0.014 A 
ATOM     36  C   UNL A   1      37.076  33.678  28.934  1.00  0.00     0.010 A 
ATOM     37  C   UNL A   1      36.332  32.381  30.799  1.00  0.00     0.010 A 
ATOM     38  C   UNL A   1      37.374  32.731  29.924  1.00  0.00    -0.014 A 
BRANCH  38  39
ATOM     39  C   UNL A   1      38.741  32.104  29.980  1.00  0.00     0.031 A 
ATOM     40  C   UNL A   1      39.889  32.757  30.722  1.00  0.00     0.074 A 
ATOM     41  C   UNL A   1      38.970  30.899  29.409  1.00  0.00     0.049 A 
ATOM     42  N   UNL A   1      41.096  32.295  30.961  1.00  0.00    -0.248 NA
ATOM     43  C   UNL A   1      39.660  34.108  31.252  1.00  0.00     0.031 C 
ATOM     44  C   UNL A   1      37.999  30.136  28.626  1.00  0.00     0.029 A 
ATOM     45  N   UNL A   1      40.090  30.093  29.419  1.00  0.00    -0.354 N 
ATOM     46  C   UNL A   1      41.764  33.294  31.663  1.00  0.00     0.074 A 
ATOM     47  C   UNL A   1      40.846  34.409  31.762  1.00  0.00     0.031 C 
ATOM     48  C   UNL A   1      38.543  28.959  28.275  1.00  0.00     0.029 A 
ATOM     49  C   UNL A   1      39.912  28.888  28.780  1.00  0.00     0.049 A 
ATOM     50  H   UNL A   1      40.938  30.357  29.844  1.00  0.00     0.167 HD
ATOM     51  C   UNL A   1      43.009  33.286  32.204  1.00  0.00     0.037 A 
ATOM     52  C   UNL A   1      40.740  27.834  28.623  1.00  0.00     0.037 A 
ATOM     53  C   UNL A   1      43.939  32.185  32.142  1.00  0.00     0.049 A 
ATOM     54  C   UNL A   1      42.121  27.849  29.222  1.00  0.00     0.074 A 
ATOM     55  C   UNL A   1      45.198  32.088  32.712  1.00  0.00     0.029 A 
ATOM     56  N   UNL A   1      43.718  30.995  31.468  1.00  0.00    -0.354 N 
ATOM     57  N   UNL A   1      42.699  28.774  29.948  1.00  0.00    -0.248 NA
ATOM     58  C   UNL A   1      42.961  26.663  28.988  1.00  0.00     0.031 C 
ATOM     59  C   UNL A   1      45.757  30.857  32.348  1.00  0.00     0.029 A 
ATOM     60  C   UNL A   1      44.825  30.168  31.593  1.00  0.00     0.049 A 
ATOM     61  H   UNL A   1      42.896  30.770  30.975  1.00  0.00     0.167 HD
ATOM     62  C   UNL A   1      43.950  28.269  30.283  1.00  0.00     0.074 A 
ATOM     63  C   UNL A   1      44.046  26.952  29.693  1.00  0.00     0.031 C 
ATOM     64  C   UNL A   1      44.928  28.851  31.020  1.00  0.00     0.037 A 
BRANCH  51  65
ATOM     65  C   UNL A   1      43.450  34.523  32.938  1.00  0.00     0.057 A 
ATOM     66  C   UNL A   1      43.434  34.595  34.337  1.00  0.00     0.134 A 
ATOM     67  C   UNL A   1      43.950  35.633  32.242  1.00  0.00     0.134 A 
ATOM     68  F   UNL A   1      42.966  33.569  35.064  1.00  0.00    -0.206 F 
ATOM     69  C   UNL A   1      43.866  35.734  35.016  1.00  0.00     0.040 A 
ATOM     70  C   UNL A   1      44.412  36.767  32.912  1.00  0.00     0.040 A 
ATOM     71  F   UNL A   1      44.013  35.625  30.902  1.00  0.00    -0.206 F 
ATOM     72  C   UNL A   1      44.364  36.824  34.303  1.00  0.00     0.006 A 
ENDBRANCH  51  65
BRANCH  52  73
ATOM     73  C   UNL A   1      40.273  26.629  27.887  1.00  0.00     0.057 A 
ATOM     74  C   UNL A   1      39.423  25.696  28.493  1.00  0.00     0.134 A 
ATOM     75  C   UNL A   1      40.688  26.369  26.575  1.00  0.00     0.134 A 
ATOM     76  F   UNL A   1      39.016  25.875  29.758  1.00  0.00    -0.206 F 
ATOM     77  C   UNL A   1      39.014  24.539  27.827  1.00  0.00     0.040 A 
ATOM     78  C   UNL A   1      40.266  25.229  25.889  1.00  0.00     0.040 A 
ATOM     79  F   UNL A   1      41.505  27.222  25.942  1.00  0.00    -0.206 F 
ATOM     80  C   UNL A   1      39.431  24.306  26.519  1.00  0.00     0.006 A 
ENDBRANCH  52  73
BRANCH  64  81
ATOM     81  C   UNL A   1      46.177  28.055  31.272  1.00  0.00     0.057 A 
ATOM     82  C   UNL A   1      46.307  27.202  32.376  1.00  0.00     0.134 A 
ATOM     83  C   UNL A   1      47.257  28.121  30.382  1.00  0.00     0.134 A 
ATOM     84  F   UNL A   1      45.316  27.098  33.275  1.00  0.00    -0.206 F 
ATOM     85  C   UNL A   1      47.474  26.467  32.600  1.00  0.00     0.040 A 
ATOM     86  C   UNL A   1      48.420  27.373  30.580  1.00  0.00     0.040 A 
ATOM     87  F   UNL A   1      47.199  28.911  29.298  1.00  0.00    -0.206 F 
ATOM     88  C   UNL A   1      48.533  26.547  31.696  1.00  0.00     0.006 A 
ENDBRANCH  64  81
ENDBRANCH  38  39
ENDBRANCH  30  33
ENDBRANCH  28  29
ENDBRANCH  27  28
ENDBRANCH  26  27
ENDBRANCH   3  26
TORSDOF 17
ENDMDL
MODEL 2
REMARK VINA RESULT:      -8.6      5.115     10.762
REMARK SMILES CC(C)[C@H](NC(=O)OCc1ccccc1)C(=O)NCC(=O)NCCCNC(=O)c1ccc(-c2c3nc(c(-c4c(F)cccc4F)c4ccc([nH]4)c(-c4c(F)cccc4F)c4nc(c(-c5c(F)cccc5F)c5ccc2[nH]5)C=C4)C=C3)cc1
REMARK SMILES IDX 20 1 21 2 22 3 19 5 18 6 16 7 17 8 4 10 2 11 1 12 3 13 5 14
REMARK SMILES IDX 6 15 7 17 8 18 9 19 10 20 11 21 15 22 12 23 14 24 13 25
REMARK SMILES IDX 23 26 24 27 25 28 26 29 27 30 28 32 29 33 30 34 82 35 31 36
REMARK SMILES IDX 81 37 32 38 33 39 34 40 75 41 35 42 80 43 74 44 76 45 36 46
REMARK SMILES IDX 79 47 73 48 72 49 37 51 63 52 46 53 62 54 47 55 50 56 61 57
REMARK SMILES IDX 77 58 48 59 49 60 60 62 78 63 51 64 38 65 39 66 44 67 40 68
REMARK SMILES IDX 41 69 43 70 45 71 42 72 64 73 65 74 70 75 66 76 67 77 69 78
REMARK SMILES IDX 71 79 68 80 52 81 53 82 58 83 54 84 55 85 57 86 59 87 56 88
REMARK H PARENT 22 4 18 9 5 16 26 31 76 50 50 61
REMARK Flexibility Score: inf
ROOT
ATOM      1  C   UNL A   1      30.797  27.127  25.215  1.00  0.00     0.239 C 
ATOM      2  O   UNL A   1      30.528  27.102  24.010  1.00  0.00    -0.273 OA
ATOM      3  N   UNL A   1      31.494  28.199  25.706  1.00  0.00    -0.355 N 
ATOM      4  H   UNL A   1      31.775  28.848  25.022  1.00  0.00     0.163 HD
ENDROOT
BRANCH   1   5
ATOM      5  C   UNL A   1      30.383  25.966  26.117  1.00  0.00     0.216 C 
BRANCH   5   6
ATOM      6  N   UNL A   1      31.485  25.214  26.674  1.00  0.00    -0.345 N 
ATOM      7  C   UNL A   1      32.289  24.279  26.102  1.00  0.00     0.243 C 
ATOM      8  O   UNL A   1      33.275  23.907  26.748  1.00  0.00    -0.273 OA
ATOM      9  H   UNL A   1      31.685  25.409  27.618  1.00  0.00     0.164 HD
BRANCH   7  10
ATOM     10  C   UNL A   1      32.033  23.686  24.685  1.00  0.00     0.177 C 
BRANCH  10  11
ATOM     11  C   UNL A   1      32.441  22.183  24.506  1.00  0.00     0.015 C 
ATOM     12  C   UNL A   1      31.814  21.137  25.447  1.00  0.00     0.010 C 
ATOM     13  C   UNL A   1      32.345  21.721  23.047  1.00  0.00     0.010 C 
ENDBRANCH  10  11
BRANCH  10  14
ATOM     14  N   UNL A   1      32.437  24.553  23.576  1.00  0.00    -0.309 N 
ATOM     15  C   UNL A   1      33.612  25.261  23.545  1.00  0.00     0.408 C 
ATOM     16  H   UNL A   1      31.829  24.632  22.806  1.00  0.00     0.167 HD
ATOM     17  O   UNL A   1      33.689  26.314  22.902  1.00  0.00    -0.225 OA
BRANCH  15  18
ATOM     18  O   UNL A   1      34.646  24.641  24.147  1.00  0.00    -0.445 OA
BRANCH  18  19
ATOM     19  C   UNL A   1      35.420  23.675  23.396  1.00  0.00     0.270 C 
BRANCH  19  20
ATOM     20  C   UNL A   1      36.539  23.102  24.249  1.00  0.00    -0.011 A 
ATOM     21  C   UNL A   1      37.204  23.879  25.202  1.00  0.00     0.007 A 
ATOM     22  C   UNL A   1      36.939  21.766  24.106  1.00  0.00     0.007 A 
ATOM     23  C   UNL A   1      38.141  23.308  26.071  1.00  0.00     0.000 A 
ATOM     24  C   UNL A   1      37.860  21.185  24.987  1.00  0.00     0.000 A 
ATOM     25  C   UNL A   1      38.440  21.951  25.990  1.00  0.00     0.000 A 
ENDBRANCH  19  20
ENDBRANCH  18  19
ENDBRANCH  15  18
ENDBRANCH  10  14
ENDBRANCH   7  10
ENDBRANCH   5   6
ENDBRANCH   1   5
BRANCH   3  26
ATOM     26  C   UNL A   1      31.892  28.548  27.067  1.00  0.00     0.117 C 
BRANCH  26  27
ATOM     27  C   UNL A   1      33.404  28.489  27.301  1.00  0.00     0.042 C 
BRANCH  27  28
ATOM     28  C   UNL A   1      34.203  29.767  27.043  1.00  0.00     0.118 C 
BRANCH  28  29
ATOM     29  N   UNL A   1      34.535  30.483  28.266  1.00  0.00    -0.352 N 
ATOM     30  C   UNL A   1      35.649  30.548  29.070  1.00  0.00     0.251 C 
ATOM     31  H   UNL A   1      33.797  31.046  28.590  1.00  0.00     0.163 HD
ATOM     32  O   UNL A   1      35.507  31.166  30.131  1.00  0.00    -0.269 OA
BRANCH  30  33
ATOM     33  C   UNL A   1      36.999  29.959  28.783  1.00  0.00     0.039 A 
ATOM     34  C   UNL A   1      37.723  29.468  29.885  1.00  0.00     0.014 A 
ATOM     35  C   UNL A   1      37.658  29.980  27.553  1.00  0.00     0.014 A 
ATOM     36  C   UNL A   1      39.051  29.023  29.763  1.00  0.00     0.010 A 
ATOM     37  C   UNL A   1      38.968  29.453  27.413  1.00  0.00     0.010 A 
ATOM     38  C   UNL A   1      39.700  28.994  28.521  1.00  0.00    -0.014 A 
BRANCH  38  39
ATOM     39  C   UNL A   1      41.132  28.537  28.429  1.00  0.00     0.031 A 
ATOM     40  C   UNL A   1      41.492  27.104  28.094  1.00  0.00     0.074 A 
ATOM     41  C   UNL A   1      42.147  29.416  28.592  1.00  0.00     0.049 A 
ATOM     42  N   UNL A   1      42.673  26.574  27.866  1.00  0.00    -0.248 NA
ATOM     43  C   UNL A   1      40.388  26.138  28.018  1.00  0.00     0.031 C 
ATOM     44  C   UNL A   1      41.996  30.825  28.951  1.00  0.00     0.029 A 
ATOM     45  N   UNL A   1      43.511  29.256  28.453  1.00  0.00    -0.354 N 
ATOM     46  C   UNL A   1      42.453  25.222  27.623  1.00  0.00     0.074 A 
ATOM     47  C   UNL A   1      41.031  25.001  27.787  1.00  0.00     0.031 C 
ATOM     48  C   UNL A   1      43.206  31.411  28.956  1.00  0.00     0.029 A 
ATOM     49  C   UNL A   1      44.227  30.418  28.629  1.00  0.00     0.049 A 
ATOM     50  H   UNL A   1      43.932  28.390  28.248  1.00  0.00     0.167 HD
ATOM     51  C   UNL A   1      43.335  24.252  27.268  1.00  0.00     0.037 A 
ATOM     52  C   UNL A   1      45.548  30.672  28.528  1.00  0.00     0.037 A 
ATOM     53  C   UNL A   1      44.751  24.443  27.076  1.00  0.00     0.049 A 
ATOM     54  C   UNL A   1      46.510  29.580  28.143  1.00  0.00     0.074 A 
ATOM     55  C   UNL A   1      45.697  23.517  26.665  1.00  0.00     0.029 A 
ATOM     56  N   UNL A   1      45.429  25.633  27.283  1.00  0.00    -0.354 N 
ATOM     57  N   UNL A   1      46.266  28.329  27.843  1.00  0.00    -0.248 NA
ATOM     58  C   UNL A   1      47.935  29.945  28.072  1.00  0.00     0.031 C 
ATOM     59  C   UNL A   1      46.953  24.134  26.666  1.00  0.00     0.029 A 
ATOM     60  C   UNL A   1      46.782  25.458  27.029  1.00  0.00     0.049 A 
ATOM     61  H   UNL A   1      45.011  26.478  27.569  1.00  0.00     0.167 HD
ATOM     62  C   UNL A   1      47.496  27.769  27.517  1.00  0.00     0.074 A 
ATOM     63  C   UNL A   1      48.485  28.817  27.643  1.00  0.00     0.031 C 
ATOM     64  C   UNL A   1      47.773  26.497  27.141  1.00  0.00     0.037 A 
BRANCH  51  65
ATOM     65  C   UNL A   1      42.787  22.869  27.047  1.00  0.00     0.057 A 
ATOM     66  C   UNL A   1      42.437  22.035  28.117  1.00  0.00     0.134 A 
ATOM     67  C   UNL A   1      42.554  22.386  25.752  1.00  0.00     0.134 A 
ATOM     68  F   UNL A   1      42.635  22.434  29.382  1.00  0.00    -0.206 F 
ATOM     69  C   UNL A   1      41.906  20.762  27.909  1.00  0.00     0.040 A 
ATOM     70  C   UNL A   1      41.996  21.126  25.531  1.00  0.00     0.040 A 
ATOM     71  F   UNL A   1      42.848  23.139  24.681  1.00  0.00    -0.206 F 
ATOM     72  C   UNL A   1      41.678  20.305  26.611  1.00  0.00     0.006 A 
ENDBRANCH  51  65
BRANCH  52  73
ATOM     73  C   UNL A   1      46.056  32.050  28.759  1.00  0.00     0.057 A 
ATOM     74  C   UNL A   1      46.188  32.959  27.702  1.00  0.00     0.134 A 
ATOM     75  C   UNL A   1      46.447  32.480  30.033  1.00  0.00     0.134 A 
ATOM     76  F   UNL A   1      45.858  32.596  26.455  1.00  0.00    -0.206 F 
ATOM     77  C   UNL A   1      46.706  34.241  27.900  1.00  0.00     0.040 A 
ATOM     78  C   UNL A   1      46.942  33.767  30.249  1.00  0.00     0.040 A 
ATOM     79  F   UNL A   1      46.349  31.655  31.085  1.00  0.00    -0.206 F 
ATOM     80  C   UNL A   1      47.079  34.649  29.178  1.00  0.00     0.006 A 
ENDBRANCH  52  73
BRANCH  64  81
ATOM     81  C   UNL A   1      49.198  26.167  26.795  1.00  0.00     0.057 A 
ATOM     82  C   UNL A   1      49.724  26.386  25.515  1.00  0.00     0.134 A 
ATOM     83  C   UNL A   1      50.066  25.647  27.765  1.00  0.00     0.134 A 
ATOM     84  F   UNL A   1      48.947  26.871  24.535  1.00  0.00    -0.206 F 
ATOM     85  C   UNL A   1      51.051  26.076  25.206  1.00  0.00     0.040 A 
ATOM     86  C   UNL A   1      51.401  25.356  27.476  1.00  0.00     0.040 A 
ATOM     87  F   UNL A   1      49.632  25.420  29.015  1.00  0.00    -0.206 F 
ATOM     88  C   UNL A   1      51.895  25.564  26.190  1.00  0.00     0.006 A 
ENDBRANCH  64  81
ENDBRANCH  38  39
ENDBRANCH  30  33
ENDBRANCH  28  29
ENDBRANCH  27  28
ENDBRANCH  26  27
ENDBRANCH   3  26
TORSDOF 17
ENDMDL
MODEL 3
REMARK VINA RESULT:      -8.6      5.632     11.101
REMARK SMILES CC(C)[C@H](NC(=O)OCc1ccccc1)C(=O)NCC(=O)NCCCNC(=O)c1ccc(-c2c3nc(c(-c4c(F)cccc4F)c4ccc([nH]4)c(-c4c(F)cccc4F)c4nc(c(-c5c(F)cccc5F)c5ccc2[nH]5)C=C4)C=C3)cc1
REMARK SMILES IDX 20 1 21 2 22 3 19 5 18 6 16 7 17 8 4 10 2 11 1 12 3 13 5 14
REMARK SMILES IDX 6 15 7 17 8 18 9 19 10 20 11 21 15 22 12 23 14 24 13 25
REMARK SMILES IDX 23 26 24 27 25 28 26 29 27 30 28 32 29 33 30 34 82 35 31 36
REMARK SMILES IDX 81 37 32 38 33 39 34 40 75 41 35 42 80 43 74 44 76 45 36 46
REMARK SMILES IDX 79 47 73 48 72 49 37 51 63 52 46 53 62 54 47 55 50 56 61 57
REMARK SMILES IDX 77 58 48 59 49 60 60 62 78 63 51 64 38 65 39 66 44 67 40 68
REMARK SMILES IDX 41 69 43 70 45 71 42 72 64 73 65 74 70 75 66 76 67 77 69 78
REMARK SMILES IDX 71 79 68 80 52 81 53 82 58 83 54 84 55 85 57 86 59 87 56 88
REMARK H PARENT 22 4 18 9 5 16 26 31 76 50 50 61
REMARK Flexibility Score: inf
ROOT
ATOM      1  C   UNL A   1      33.373  28.842  23.397  1.00  0.00     0.239 C 
ATOM      2  O   UNL A   1      34.417  28.963  22.749  1.00  0.00    -0.273 OA
ATOM      3  N   UNL A   1      33.235  29.560  24.554  1.00  0.00    -0.355 N 
ATOM      4  H   UNL A   1      34.030  30.085  24.804  1.00  0.00     0.163 HD
ENDROOT
BRANCH   1   5
ATOM      5  C   UNL A   1      32.283  27.884  22.921  1.00  0.00     0.216 C 
BRANCH   5   6
ATOM      6  N   UNL A   1      32.689  26.989  21.861  1.00  0.00    -0.345 N 
ATOM      7  C   UNL A   1      32.975  25.661  21.894  1.00  0.00     0.243 C 
ATOM      8  O   UNL A   1      33.132  25.087  20.810  1.00  0.00    -0.273 OA
ATOM      9  H   UNL A   1      32.771  27.407  20.973  1.00  0.00     0.164 HD
BRANCH   7  10
ATOM     10  C   UNL A   1      33.090  24.846  23.215  1.00  0.00     0.177 C 
BRANCH  10  11
ATOM     11  C   UNL A   1      32.705  25.627  24.519  1.00  0.00     0.015 C 
ATOM     12  C   UNL A   1      31.505  25.126  25.345  1.00  0.00     0.010 C 
ATOM     13  C   UNL A   1      33.914  25.883  25.426  1.00  0.00     0.010 C 
ENDBRANCH  10  11
BRANCH  10  14
ATOM     14  N   UNL A   1      34.309  24.043  23.336  1.00  0.00    -0.309 N 
ATOM     15  C   UNL A   1      34.352  22.798  23.912  1.00  0.00     0.408 C 
ATOM     16  H   UNL A   1      35.147  24.418  22.981  1.00  0.00     0.167 HD
ATOM     17  O   UNL A   1      35.392  22.392  24.442  1.00  0.00    -0.225 OA
BRANCH  15  18
ATOM     18  O   UNL A   1      33.239  22.062  23.721  1.00  0.00    -0.445 OA
BRANCH  18  19
ATOM     19  C   UNL A   1      32.903  21.033  24.682  1.00  0.00     0.270 C 
BRANCH  19  20
ATOM     20  C   UNL A   1      33.303  19.661  24.163  1.00  0.00    -0.011 A 
ATOM     21  C   UNL A   1      34.445  19.006  24.632  1.00  0.00     0.007 A 
ATOM     22  C   UNL A   1      32.531  19.008  23.192  1.00  0.00     0.007 A 
ATOM     23  C   UNL A   1      34.731  17.692  24.244  1.00  0.00     0.000 A 
ATOM     24  C   UNL A   1      32.802  17.686  22.818  1.00  0.00     0.000 A 
ATOM     25  C   UNL A   1      33.888  17.017  23.368  1.00  0.00     0.000 A 
ENDBRANCH  19  20
ENDBRANCH  18  19
ENDBRANCH  15  18
ENDBRANCH  10  14
ENDBRANCH   7  10
ENDBRANCH   5   6
ENDBRANCH   1   5
BRANCH   3  26
ATOM     26  C   UNL A   1      32.116  29.686  25.483  1.00  0.00     0.117 C 
BRANCH  26  27
ATOM     27  C   UNL A   1      32.530  29.643  26.957  1.00  0.00     0.042 C 
BRANCH  27  28
ATOM     28  C   UNL A   1      34.027  29.600  27.264  1.00  0.00     0.118 C 
BRANCH  28  29
ATOM     29  N   UNL A   1      34.403  30.466  28.371  1.00  0.00    -0.352 N 
ATOM     30  C   UNL A   1      35.549  30.637  29.113  1.00  0.00     0.251 C 
ATOM     31  H   UNL A   1      33.673  31.063  28.652  1.00  0.00     0.163 HD
ATOM     32  O   UNL A   1      35.445  31.383  30.092  1.00  0.00    -0.269 OA
BRANCH  30  33
ATOM     33  C   UNL A   1      36.891  30.021  28.845  1.00  0.00     0.039 A 
ATOM     34  C   UNL A   1      37.622  29.587  29.965  1.00  0.00     0.014 A 
ATOM     35  C   UNL A   1      37.537  29.967  27.609  1.00  0.00     0.014 A 
ATOM     36  C   UNL A   1      38.946  29.124  29.854  1.00  0.00     0.010 A 
ATOM     37  C   UNL A   1      38.841  29.422  27.485  1.00  0.00     0.010 A 
ATOM     38  C   UNL A   1      39.581  29.020  28.609  1.00  0.00    -0.014 A 
BRANCH  38  39
ATOM     39  C   UNL A   1      41.008  28.546  28.528  1.00  0.00     0.031 A 
ATOM     40  C   UNL A   1      41.354  27.112  28.184  1.00  0.00     0.074 A 
ATOM     41  C   UNL A   1      42.032  29.411  28.709  1.00  0.00     0.049 A 
ATOM     42  N   UNL A   1      42.531  26.570  27.963  1.00  0.00    -0.248 NA
ATOM     43  C   UNL A   1      40.240  26.160  28.088  1.00  0.00     0.031 C 
ATOM     44  C   UNL A   1      41.895  30.819  29.080  1.00  0.00     0.029 A 
ATOM     45  N   UNL A   1      43.395  29.236  28.583  1.00  0.00    -0.354 N 
ATOM     46  C   UNL A   1      42.298  25.222  27.706  1.00  0.00     0.074 A 
ATOM     47  C   UNL A   1      40.872  25.018  27.854  1.00  0.00     0.031 C 
ATOM     48  C   UNL A   1      43.111  31.390  29.103  1.00  0.00     0.029 A 
ATOM     49  C   UNL A   1      44.123  30.387  28.777  1.00  0.00     0.049 A 
ATOM     50  H   UNL A   1      43.808  28.367  28.375  1.00  0.00     0.167 HD
ATOM     51  C   UNL A   1      43.171  24.245  27.352  1.00  0.00     0.037 A 
ATOM     52  C   UNL A   1      45.449  30.626  28.692  1.00  0.00     0.037 A 
ATOM     53  C   UNL A   1      44.592  24.421  27.176  1.00  0.00     0.049 A 
ATOM     54  C   UNL A   1      46.401  29.526  28.308  1.00  0.00     0.074 A 
ATOM     55  C   UNL A   1      45.531  23.487  26.767  1.00  0.00     0.029 A 
ATOM     56  N   UNL A   1      45.282  25.600  27.401  1.00  0.00    -0.354 N 
ATOM     57  N   UNL A   1      46.146  28.281  27.994  1.00  0.00    -0.248 NA
ATOM     58  C   UNL A   1      47.831  29.874  28.255  1.00  0.00     0.031 C 
ATOM     59  C   UNL A   1      46.794  24.089  26.787  1.00  0.00     0.029 A 
ATOM     60  C   UNL A   1      46.635  25.411  27.159  1.00  0.00     0.049 A 
ATOM     61  H   UNL A   1      44.871  26.448  27.690  1.00  0.00     0.167 HD
ATOM     62  C   UNL A   1      47.372  27.708  27.675  1.00  0.00     0.074 A 
ATOM     63  C   UNL A   1      48.372  28.744  27.821  1.00  0.00     0.031 C 
ATOM     64  C   UNL A   1      47.638  26.437  27.291  1.00  0.00     0.037 A 
BRANCH  51  65
ATOM     65  C   UNL A   1      42.609  22.871  27.112  1.00  0.00     0.057 A 
ATOM     66  C   UNL A   1      42.445  22.357  25.819  1.00  0.00     0.134 A 
ATOM     67  C   UNL A   1      42.280  22.031  28.185  1.00  0.00     0.134 A 
ATOM     68  F   UNL A   1      42.739  23.108  24.747  1.00  0.00    -0.206 F 
ATOM     69  C   UNL A   1      41.946  21.072  25.600  1.00  0.00     0.040 A 
ATOM     70  C   UNL A   1      41.808  20.734  27.979  1.00  0.00     0.040 A 
ATOM     71  F   UNL A   1      42.430  22.451  29.451  1.00  0.00    -0.206 F 
ATOM     72  C   UNL A   1      41.631  20.253  26.683  1.00  0.00     0.006 A 
ENDBRANCH  51  65
BRANCH  52  73
ATOM     73  C   UNL A   1      45.971  31.996  28.941  1.00  0.00     0.057 A 
ATOM     74  C   UNL A   1      46.380  32.393  30.220  1.00  0.00     0.134 A 
ATOM     75  C   UNL A   1      46.045  32.946  27.915  1.00  0.00     0.134 A 
ATOM     76  F   UNL A   1      46.304  31.537  31.249  1.00  0.00    -0.206 F 
ATOM     77  C   UNL A   1      46.830  33.690  30.474  1.00  0.00     0.040 A 
ATOM     78  C   UNL A   1      46.517  34.238  28.150  1.00  0.00     0.040 A 
ATOM     79  F   UNL A   1      45.663  32.629  26.670  1.00  0.00    -0.206 F 
ATOM     80  C   UNL A   1      46.905  34.615  29.436  1.00  0.00     0.006 A 
ENDBRANCH  52  73
BRANCH  64  81
ATOM     81  C   UNL A   1      49.062  26.092  26.957  1.00  0.00     0.057 A 
ATOM     82  C   UNL A   1      49.937  25.541  27.902  1.00  0.00     0.134 A 
ATOM     83  C   UNL A   1      49.558  26.288  25.661  1.00  0.00     0.134 A 
ATOM     84  F   UNL A   1      49.532  25.337  29.165  1.00  0.00    -0.206 F 
ATOM     85  C   UNL A   1      51.259  25.225  27.579  1.00  0.00     0.040 A 
ATOM     86  C   UNL A   1      50.870  25.953  25.318  1.00  0.00     0.040 A 
ATOM     87  F   UNL A   1      48.773  26.804  24.702  1.00  0.00    -0.206 F 
ATOM     88  C   UNL A   1      51.727  25.425  26.281  1.00  0.00     0.006 A 
ENDBRANCH  64  81
ENDBRANCH  38  39
ENDBRANCH  30  33
ENDBRANCH  28  29
ENDBRANCH  27  28
ENDBRANCH  26  27
ENDBRANCH   3  26
TORSDOF 17
ENDMDL
