MODEL 1
REMARK VINA RESULT:     -13.4      0.000      0.000
REMARK SMILES C[C@@H]1CC[C@H](C)c2nc3cc(F)c(Cl)cc3c(C(=O)NCCCNC(=O)c3ccc(-c4c5nc(c(-c6c(F)cccc6F)c6ccc([nH]6)c(-c6c(F)cccc6F)c6nc(c(-c7c(F)cccc7F)c7ccc4[nH]7)C=C6)C=C5)cc3)c21
REMARK SMILES IDX 23 1 22 2 21 3 20 4 18 5 19 6 17 8 1 9 2 10 3 11 81 12 4 13
REMARK SMILES IDX 7 14 5 15 8 16 16 17 6 18 9 19 15 20 10 21 13 22 11 23 14 24
REMARK SMILES IDX 12 25 24 26 25 27 26 29 27 30 28 31 80 32 29 33 79 34 30 35
REMARK SMILES IDX 31 36 32 37 73 38 33 39 78 40 72 41 74 42 34 43 77 44 71 45
REMARK SMILES IDX 70 46 35 48 61 49 44 50 60 51 45 52 48 53 59 54 75 55 46 56
REMARK SMILES IDX 47 57 58 59 76 60 49 61 36 62 37 63 42 64 38 65 39 66 41 67
REMARK SMILES IDX 43 68 40 69 62 70 63 71 68 72 64 73 65 74 67 75 69 76 66 77
REMARK SMILES IDX 50 78 51 79 56 80 52 81 53 82 55 83 57 84 54 85
REMARK H PARENT 20 7 24 28 74 47 48 58
REMARK Flexibility Score: inf
ROOT
ATOM      1  C   UNL A   1      33.286  29.185  24.973  1.00  0.00     0.118 C 
ENDROOT
BRANCH   1   2
ATOM      2  C   UNL A   1      33.318  29.328  23.460  1.00  0.00     0.042 C 
BRANCH   2   3
ATOM      3  C   UNL A   1      34.343  28.428  22.751  1.00  0.00     0.118 C 
BRANCH   3   4
ATOM      4  N   UNL A   1      33.660  27.600  21.765  1.00  0.00    -0.352 N 
ATOM      5  C   UNL A   1      32.946  26.424  21.834  1.00  0.00     0.252 C 
ATOM      6  O   UNL A   1      33.045  25.705  20.840  1.00  0.00    -0.269 OA
ATOM      7  H   UNL A   1      33.723  27.959  20.851  1.00  0.00     0.163 HD
BRANCH   5   8
ATOM      8  C   UNL A   1      32.001  26.033  22.943  1.00  0.00     0.054 A 
ATOM      9  C   UNL A   1      33.651  23.117  22.759  1.00  0.00     0.013 C 
ATOM     10  C   UNL A   1      33.751  24.271  23.766  1.00  0.00     0.019 C 
ATOM     11  C   UNL A   1      34.239  23.767  25.136  1.00  0.00     0.009 C 
ATOM     12  C   UNL A   1      32.418  25.012  23.852  1.00  0.00    -0.010 A 
ATOM     13  C   UNL A   1      33.169  22.960  25.847  1.00  0.00     0.010 C 
ATOM     14  C   UNL A   1      31.518  24.642  24.862  1.00  0.00     0.048 A 
ATOM     15  C   UNL A   1      31.928  23.821  26.074  1.00  0.00     0.035 C 
ATOM     16  N   UNL A   1      30.256  25.120  24.918  1.00  0.00    -0.252 NA
ATOM     17  C   UNL A   1      30.739  26.672  23.157  1.00  0.00     0.015 A 
ATOM     18  C   UNL A   1      30.787  22.952  26.616  1.00  0.00     0.014 C 
ATOM     19  C   UNL A   1      29.872  26.084  24.092  1.00  0.00     0.074 A 
ATOM     20  C   UNL A   1      30.282  27.872  22.569  1.00  0.00     0.034 A 
ATOM     21  C   UNL A   1      28.566  26.529  24.230  1.00  0.00     0.069 A 
ATOM     22  C   UNL A   1      28.965  28.313  22.690  1.00  0.00     0.077 A 
ATOM     23  C   UNL A   1      28.097  27.610  23.502  1.00  0.00     0.143 A 
ATOM     24  Cl  UNL A   1      28.447  29.704  21.825  1.00  0.00    -0.081 Cl
ATOM     25  F   UNL A   1      26.818  27.984  23.636  1.00  0.00    -0.205 F 
ENDBRANCH   5   8
ENDBRANCH   3   4
ENDBRANCH   2   3
ENDBRANCH   1   2
BRANCH   1  26
ATOM     26  N   UNL A   1      32.698  30.343  25.627  1.00  0.00    -0.352 N 
ATOM     27  C   UNL A   1      33.057  31.012  26.772  1.00  0.00     0.251 C 
ATOM     28  H   UNL A   1      31.907  30.711  25.170  1.00  0.00     0.163 HD
ATOM     29  O   UNL A   1      32.264  31.828  27.252  1.00  0.00    -0.269 OA
BRANCH  27  30
ATOM     30  C   UNL A   1      34.350  30.769  27.456  1.00  0.00     0.039 A 
ATOM     31  C   UNL A   1      34.725  29.498  27.885  1.00  0.00     0.014 A 
ATOM     32  C   UNL A   1      35.248  31.832  27.627  1.00  0.00     0.014 A 
ATOM     33  C   UNL A   1      35.873  29.327  28.652  1.00  0.00     0.010 A 
ATOM     34  C   UNL A   1      36.472  31.631  28.279  1.00  0.00     0.010 A 
ATOM     35  C   UNL A   1      36.775  30.385  28.844  1.00  0.00    -0.014 A 
BRANCH  35  36
ATOM     36  C   UNL A   1      38.033  30.128  29.601  1.00  0.00     0.031 A 
ATOM     37  C   UNL A   1      38.213  30.619  31.012  1.00  0.00     0.074 A 
ATOM     38  C   UNL A   1      38.996  29.377  29.028  1.00  0.00     0.049 A 
ATOM     39  N   UNL A   1      39.202  30.391  31.842  1.00  0.00    -0.248 NA
ATOM     40  C   UNL A   1      37.163  31.487  31.563  1.00  0.00     0.031 C 
ATOM     41  C   UNL A   1      38.951  28.862  27.657  1.00  0.00     0.029 A 
ATOM     42  N   UNL A   1      40.174  28.878  29.528  1.00  0.00    -0.354 N 
ATOM     43  C   UNL A   1      38.902  31.099  32.998  1.00  0.00     0.074 A 
ATOM     44  C   UNL A   1      37.661  31.798  32.752  1.00  0.00     0.031 C 
ATOM     45  C   UNL A   1      39.999  28.053  27.455  1.00  0.00     0.029 A 
ATOM     46  C   UNL A   1      40.835  28.051  28.651  1.00  0.00     0.049 A 
ATOM     47  H   UNL A   1      40.513  29.094  30.427  1.00  0.00     0.167 HD
ATOM     48  C   UNL A   1      39.591  31.149  34.164  1.00  0.00     0.037 A 
ATOM     49  C   UNL A   1      41.986  27.365  28.783  1.00  0.00     0.037 A 
ATOM     50  C   UNL A   1      40.813  30.429  34.411  1.00  0.00     0.049 A 
ATOM     51  C   UNL A   1      42.742  27.447  30.076  1.00  0.00     0.074 A 
ATOM     52  C   UNL A   1      41.556  30.375  35.578  1.00  0.00     0.029 A 
ATOM     53  N   UNL A   1      41.476  29.647  33.477  1.00  0.00    -0.354 N 
ATOM     54  N   UNL A   1      42.417  28.081  31.176  1.00  0.00    -0.248 NA
ATOM     55  C   UNL A   1      44.023  26.732  30.148  1.00  0.00     0.031 C 
ATOM     56  C   UNL A   1      42.699  29.610  35.331  1.00  0.00     0.029 A 
ATOM     57  C   UNL A   1      42.639  29.136  34.030  1.00  0.00     0.049 A 
ATOM     58  H   UNL A   1      41.166  29.479  32.557  1.00  0.00     0.167 HD
ATOM     59  C   UNL A   1      43.446  27.838  32.074  1.00  0.00     0.074 A 
ATOM     60  C   UNL A   1      44.400  26.985  31.396  1.00  0.00     0.031 C 
ATOM     61  C   UNL A   1      43.582  28.286  33.345  1.00  0.00     0.037 A 
BRANCH  48  62
ATOM     62  C   UNL A   1      39.050  32.022  35.261  1.00  0.00     0.057 A 
ATOM     63  C   UNL A   1      38.256  31.511  36.296  1.00  0.00     0.134 A 
ATOM     64  C   UNL A   1      39.369  33.386  35.309  1.00  0.00     0.134 A 
ATOM     65  F   UNL A   1      37.908  30.215  36.311  1.00  0.00    -0.206 F 
ATOM     66  C   UNL A   1      37.777  32.328  37.322  1.00  0.00     0.040 A 
ATOM     67  C   UNL A   1      38.920  34.207  36.345  1.00  0.00     0.040 A 
ATOM     68  F   UNL A   1      40.135  33.941  34.358  1.00  0.00    -0.206 F 
ATOM     69  C   UNL A   1      38.115  33.680  37.352  1.00  0.00     0.006 A 
ENDBRANCH  48  62
BRANCH  49  70
ATOM     70  C   UNL A   1      42.461  26.533  27.649  1.00  0.00     0.057 A 
ATOM     71  C   UNL A   1      42.098  25.188  27.534  1.00  0.00     0.134 A 
ATOM     72  C   UNL A   1      43.214  27.089  26.605  1.00  0.00     0.134 A 
ATOM     73  F   UNL A   1      41.390  24.595  28.506  1.00  0.00    -0.206 F 
ATOM     74  C   UNL A   1      42.450  24.429  26.416  1.00  0.00     0.040 A 
ATOM     75  C   UNL A   1      43.549  26.351  25.469  1.00  0.00     0.040 A 
ATOM     76  F   UNL A   1      43.584  28.377  26.650  1.00  0.00    -0.206 F 
ATOM     77  C   UNL A   1      43.165  25.016  25.373  1.00  0.00     0.006 A 
ENDBRANCH  49  70
BRANCH  61  78
ATOM     78  C   UNL A   1      44.802  27.868  34.111  1.00  0.00     0.057 A 
ATOM     79  C   UNL A   1      45.938  28.683  34.180  1.00  0.00     0.134 A 
ATOM     80  C   UNL A   1      44.789  26.704  34.891  1.00  0.00     0.134 A 
ATOM     81  F   UNL A   1      46.016  29.805  33.451  1.00  0.00    -0.206 F 
ATOM     82  C   UNL A   1      47.016  28.358  35.006  1.00  0.00     0.040 A 
ATOM     83  C   UNL A   1      45.849  26.381  35.737  1.00  0.00     0.040 A 
ATOM     84  F   UNL A   1      43.724  25.887  34.876  1.00  0.00    -0.206 F 
ATOM     85  C   UNL A   1      46.966  27.212  35.799  1.00  0.00     0.006 A 
ENDBRANCH  61  78
ENDBRANCH  35  36
ENDBRANCH  27  30
ENDBRANCH   1  26
TORSDOF 10
ENDMDL
MODEL 2
REMARK VINA RESULT:     -13.1      4.210      8.663
REMARK SMILES C[C@@H]1CC[C@H](C)c2nc3cc(F)c(Cl)cc3c(C(=O)NCCCNC(=O)c3ccc(-c4c5nc(c(-c6c(F)cccc6F)c6ccc([nH]6)c(-c6c(F)cccc6F)c6nc(c(-c7c(F)cccc7F)c7ccc4[nH]7)C=C6)C=C5)cc3)c21
REMARK SMILES IDX 23 1 22 2 21 3 20 4 18 5 19 6 17 8 1 9 2 10 3 11 81 12 4 13
REMARK SMILES IDX 7 14 5 15 8 16 16 17 6 18 9 19 15 20 10 21 13 22 11 23 14 24
REMARK SMILES IDX 12 25 24 26 25 27 26 29 27 30 28 31 80 32 29 33 79 34 30 35
REMARK SMILES IDX 31 36 32 37 73 38 33 39 78 40 72 41 74 42 34 43 77 44 71 45
REMARK SMILES IDX 70 46 35 48 61 49 44 50 60 51 45 52 48 53 59 54 75 55 46 56
REMARK SMILES IDX 47 57 58 59 76 60 49 61 36 62 37 63 42 64 38 65 39 66 41 67
REMARK SMILES IDX 43 68 40 69 62 70 63 71 68 72 64 73 65 74 67 75 69 76 66 77
REMARK SMILES IDX 50 78 51 79 56 80 52 81 53 82 55 83 57 84 54 85
REMARK H PARENT 20 7 24 28 74 47 48 58
REMARK Flexibility Score: inf
ROOT
ATOM      1  C   UNL A   1      35.827  22.110  26.170  1.00  0.00     0.118 C 
ENDROOT
BRANCH   1   2
ATOM      2  C   UNL A   1      34.694  21.502  26.981  1.00  0.00     0.042 C 
BRANCH   2   3
ATOM      3  C   UNL A   1      34.033  22.464  27.981  1.00  0.00     0.118 C 
BRANCH   3   4
ATOM      4  N   UNL A   1      32.606  22.551  27.698  1.00  0.00    -0.352 N 
ATOM      5  C   UNL A   1      31.848  23.308  26.832  1.00  0.00     0.252 C 
ATOM      6  O   UNL A   1      30.725  23.594  27.248  1.00  0.00    -0.269 OA
ATOM      7  H   UNL A   1      32.067  21.934  28.244  1.00  0.00     0.163 HD
BRANCH   5   8
ATOM      8  C   UNL A   1      32.238  23.689  25.425  1.00  0.00     0.054 A 
ATOM      9  C   UNL A   1      31.200  26.726  26.405  1.00  0.00     0.013 C 
ATOM     10  C   UNL A   1      32.612  26.149  26.233  1.00  0.00     0.019 C 
ATOM     11  C   UNL A   1      33.629  27.262  25.925  1.00  0.00     0.009 C 
ATOM     12  C   UNL A   1      32.606  25.048  25.175  1.00  0.00    -0.010 A 
ATOM     13  C   UNL A   1      33.453  27.806  24.519  1.00  0.00     0.010 C 
ATOM     14  C   UNL A   1      32.941  25.391  23.858  1.00  0.00     0.048 A 
ATOM     15  C   UNL A   1      33.649  26.688  23.497  1.00  0.00     0.035 C 
ATOM     16  N   UNL A   1      32.806  24.530  22.827  1.00  0.00    -0.252 NA
ATOM     17  C   UNL A   1      32.308  22.748  24.351  1.00  0.00     0.015 A 
ATOM     18  C   UNL A   1      33.283  27.195  22.098  1.00  0.00     0.014 C 
ATOM     19  C   UNL A   1      32.486  23.263  23.056  1.00  0.00     0.074 A 
ATOM     20  C   UNL A   1      32.273  21.339  24.449  1.00  0.00     0.034 A 
ATOM     21  C   UNL A   1      32.386  22.442  21.943  1.00  0.00     0.069 A 
ATOM     22  C   UNL A   1      32.153  20.512  23.333  1.00  0.00     0.077 A 
ATOM     23  C   UNL A   1      32.176  21.080  22.075  1.00  0.00     0.143 A 
ATOM     24  Cl  UNL A   1      31.970  18.817  23.542  1.00  0.00    -0.081 Cl
ATOM     25  F   UNL A   1      32.046  20.328  20.974  1.00  0.00    -0.205 F 
ENDBRANCH   5   8
ENDBRANCH   3   4
ENDBRANCH   2   3
ENDBRANCH   1   2
BRANCH   1  26
ATOM     26  N   UNL A   1      36.853  21.135  25.834  1.00  0.00    -0.352 N 
ATOM     27  C   UNL A   1      38.219  21.254  25.752  1.00  0.00     0.251 C 
ATOM     28  H   UNL A   1      36.509  20.235  25.632  1.00  0.00     0.163 HD
ATOM     29  O   UNL A   1      38.861  20.342  25.222  1.00  0.00    -0.269 OA
BRANCH  27  30
ATOM     30  C   UNL A   1      38.939  22.448  26.257  1.00  0.00     0.039 A 
ATOM     31  C   UNL A   1      38.529  23.741  25.939  1.00  0.00     0.014 A 
ATOM     32  C   UNL A   1      40.028  22.279  27.124  1.00  0.00     0.014 A 
ATOM     33  C   UNL A   1      39.309  24.834  26.305  1.00  0.00     0.010 A 
ATOM     34  C   UNL A   1      40.732  23.391  27.606  1.00  0.00     0.010 A 
ATOM     35  C   UNL A   1      40.409  24.680  27.161  1.00  0.00    -0.014 A 
BRANCH  35  36
ATOM     36  C   UNL A   1      41.160  25.893  27.592  1.00  0.00     0.031 A 
ATOM     37  C   UNL A   1      42.563  26.157  27.117  1.00  0.00     0.074 A 
ATOM     38  C   UNL A   1      40.536  26.804  28.366  1.00  0.00     0.049 A 
ATOM     39  N   UNL A   1      43.314  27.213  27.316  1.00  0.00    -0.248 NA
ATOM     40  C   UNL A   1      43.219  25.101  26.331  1.00  0.00     0.031 C 
ATOM     41  C   UNL A   1      39.184  26.653  28.911  1.00  0.00     0.029 A 
ATOM     42  N   UNL A   1      40.926  28.049  28.794  1.00  0.00    -0.354 N 
ATOM     43  C   UNL A   1      44.528  26.941  26.700  1.00  0.00     0.074 A 
ATOM     44  C   UNL A   1      44.432  25.605  26.154  1.00  0.00     0.031 C 
ATOM     45  C   UNL A   1      38.825  27.789  29.522  1.00  0.00     0.029 A 
ATOM     46  C   UNL A   1      39.946  28.724  29.483  1.00  0.00     0.049 A 
ATOM     47  H   UNL A   1      41.821  28.422  28.625  1.00  0.00     0.167 HD
ATOM     48  C   UNL A   1      45.618  27.738  26.586  1.00  0.00     0.037 A 
ATOM     49  C   UNL A   1      39.940  29.955  30.029  1.00  0.00     0.037 A 
ATOM     50  C   UNL A   1      45.697  29.077  27.109  1.00  0.00     0.049 A 
ATOM     51  C   UNL A   1      41.162  30.815  29.906  1.00  0.00     0.074 A 
ATOM     52  C   UNL A   1      46.738  29.982  26.998  1.00  0.00     0.029 A 
ATOM     53  N   UNL A   1      44.702  29.701  27.847  1.00  0.00    -0.354 N 
ATOM     54  N   UNL A   1      42.283  30.561  29.276  1.00  0.00    -0.248 NA
ATOM     55  C   UNL A   1      41.129  32.124  30.573  1.00  0.00     0.031 C 
ATOM     56  C   UNL A   1      46.398  31.128  27.720  1.00  0.00     0.029 A 
ATOM     57  C   UNL A   1      45.120  30.964  28.231  1.00  0.00     0.049 A 
ATOM     58  H   UNL A   1      43.827  29.304  28.067  1.00  0.00     0.167 HD
ATOM     59  C   UNL A   1      43.086  31.677  29.462  1.00  0.00     0.074 A 
ATOM     60  C   UNL A   1      42.319  32.618  30.252  1.00  0.00     0.031 C 
ATOM     61  C   UNL A   1      44.346  31.894  29.017  1.00  0.00     0.037 A 
BRANCH  48  62
ATOM     62  C   UNL A   1      46.823  27.182  25.880  1.00  0.00     0.057 A 
ATOM     63  C   UNL A   1      47.071  27.428  24.523  1.00  0.00     0.134 A 
ATOM     64  C   UNL A   1      47.775  26.429  26.581  1.00  0.00     0.134 A 
ATOM     65  F   UNL A   1      46.199  28.138  23.790  1.00  0.00    -0.206 F 
ATOM     66  C   UNL A   1      48.205  26.924  23.884  1.00  0.00     0.040 A 
ATOM     67  C   UNL A   1      48.927  25.945  25.960  1.00  0.00     0.040 A 
ATOM     68  F   UNL A   1      47.608  26.165  27.886  1.00  0.00    -0.206 F 
ATOM     69  C   UNL A   1      49.141  26.185  24.605  1.00  0.00     0.006 A 
ENDBRANCH  48  62
BRANCH  49  70
ATOM     70  C   UNL A   1      38.714  30.429  30.721  1.00  0.00     0.057 A 
ATOM     71  C   UNL A   1      37.717  31.126  30.032  1.00  0.00     0.134 A 
ATOM     72  C   UNL A   1      38.470  30.113  32.064  1.00  0.00     0.134 A 
ATOM     73  F   UNL A   1      37.897  31.469  28.748  1.00  0.00    -0.206 F 
ATOM     74  C   UNL A   1      36.515  31.479  30.648  1.00  0.00     0.040 A 
ATOM     75  C   UNL A   1      37.262  30.435  32.685  1.00  0.00     0.040 A 
ATOM     76  F   UNL A   1      39.382  29.435  32.777  1.00  0.00    -0.206 F 
ATOM     77  C   UNL A   1      36.280  31.119  31.975  1.00  0.00     0.006 A 
ENDBRANCH  49  70
BRANCH  61  78
ATOM     78  C   UNL A   1      44.996  33.203  29.357  1.00  0.00     0.057 A 
ATOM     79  C   UNL A   1      45.847  33.332  30.461  1.00  0.00     0.134 A 
ATOM     80  C   UNL A   1      44.873  34.303  28.498  1.00  0.00     0.134 A 
ATOM     81  F   UNL A   1      45.999  32.319  31.325  1.00  0.00    -0.206 F 
ATOM     82  C   UNL A   1      46.559  34.510  30.695  1.00  0.00     0.040 A 
ATOM     83  C   UNL A   1      45.598  35.476  28.708  1.00  0.00     0.040 A 
ATOM     84  F   UNL A   1      44.081  34.237  27.416  1.00  0.00    -0.206 F 
ATOM     85  C   UNL A   1      46.447  35.580  29.808  1.00  0.00     0.006 A 
ENDBRANCH  61  78
ENDBRANCH  35  36
ENDBRANCH  27  30
ENDBRANCH   1  26
TORSDOF 10
ENDMDL
MODEL 3
REMARK VINA RESULT:     -13.0      3.227      7.514
REMARK SMILES C[C@@H]1CC[C@H](C)c2nc3cc(F)c(Cl)cc3c(C(=O)NCCCNC(=O)c3ccc(-c4c5nc(c(-c6c(F)cccc6F)c6ccc([nH]6)c(-c6c(F)cccc6F)c6nc(c(-c7c(F)cccc7F)c7ccc4[nH]7)C=C6)C=C5)cc3)c21
REMARK SMILES IDX 23 1 22 2 21 3 20 4 18 5 19 6 17 8 1 9 2 10 3 11 81 12 4 13
REMARK SMILES IDX 7 14 5 15 8 16 16 17 6 18 9 19 15 20 10 21 13 22 11 23 14 24
REMARK SMILES IDX 12 25 24 26 25 27 26 29 27 30 28 31 80 32 29 33 79 34 30 35
REMARK SMILES IDX 31 36 32 37 73 38 33 39 78 40 72 41 74 42 34 43 77 44 71 45
REMARK SMILES IDX 70 46 35 48 61 49 44 50 60 51 45 52 48 53 59 54 75 55 46 56
REMARK SMILES IDX 47 57 58 59 76 60 49 61 36 62 37 63 42 64 38 65 39 66 41 67
REMARK SMILES IDX 43 68 40 69 62 70 63 71 68 72 64 73 65 74 67 75 69 76 66 77
REMARK SMILES IDX 50 78 51 79 56 80 52 81 53 82 55 83 57 84 54 85
REMARK H PARENT 20 7 24 28 74 47 48 58
REMARK Flexibility Score: inf
ROOT
ATOM      1  C   UNL A   1      39.738  23.244  26.875  1.00  0.00     0.118 C 
ENDROOT
BRANCH   1   2
ATOM      2  C   UNL A   1      38.715  22.455  26.075  1.00  0.00     0.042 C 
BRANCH   2   3
ATOM      3  C   UNL A   1      37.445  23.239  25.707  1.00  0.00     0.118 C 
BRANCH   3   4
ATOM      4  N   UNL A   1      36.332  22.769  26.522  1.00  0.00    -0.352 N 
ATOM      5  C   UNL A   1      34.965  22.928  26.455  1.00  0.00     0.252 C 
ATOM      6  O   UNL A   1      34.398  22.954  27.548  1.00  0.00    -0.269 OA
ATOM      7  H   UNL A   1      36.619  22.217  27.285  1.00  0.00     0.163 HD
BRANCH   5   8
ATOM      8  C   UNL A   1      34.143  22.949  25.190  1.00  0.00     0.054 A 
ATOM      9  C   UNL A   1      35.299  19.814  24.879  1.00  0.00     0.013 C 
ATOM     10  C   UNL A   1      33.931  20.345  25.326  1.00  0.00     0.019 C 
ATOM     11  C   UNL A   1      32.820  19.319  25.039  1.00  0.00     0.009 C 
ATOM     12  C   UNL A   1      33.656  21.704  24.684  1.00  0.00    -0.010 A 
ATOM     13  C   UNL A   1      32.528  19.213  23.553  1.00  0.00     0.010 C 
ATOM     14  C   UNL A   1      32.915  21.738  23.495  1.00  0.00     0.048 A 
ATOM     15  C   UNL A   1      32.074  20.567  23.011  1.00  0.00     0.035 C 
ATOM     16  N   UNL A   1      32.762  22.866  22.769  1.00  0.00    -0.252 NA
ATOM     17  C   UNL A   1      33.785  24.155  24.511  1.00  0.00     0.015 A 
ATOM     18  C   UNL A   1      31.966  20.504  21.484  1.00  0.00     0.014 C 
ATOM     19  C   UNL A   1      33.192  24.028  23.244  1.00  0.00     0.074 A 
ATOM     20  C   UNL A   1      33.910  25.476  24.997  1.00  0.00     0.034 A 
ATOM     21  C   UNL A   1      32.978  25.138  22.442  1.00  0.00     0.069 A 
ATOM     22  C   UNL A   1      33.714  26.595  24.188  1.00  0.00     0.077 A 
ATOM     23  C   UNL A   1      33.278  26.414  22.891  1.00  0.00     0.143 A 
ATOM     24  Cl  UNL A   1      34.027  28.165  24.812  1.00  0.00    -0.081 Cl
ATOM     25  F   UNL A   1      33.093  27.457  22.071  1.00  0.00    -0.205 F 
ENDBRANCH   5   8
ENDBRANCH   3   4
ENDBRANCH   2   3
ENDBRANCH   1   2
BRANCH   1  26
ATOM     26  N   UNL A   1      40.679  23.954  26.023  1.00  0.00    -0.352 N 
ATOM     27  C   UNL A   1      41.106  25.260  26.044  1.00  0.00     0.251 C 
ATOM     28  H   UNL A   1      41.077  23.406  25.309  1.00  0.00     0.163 HD
ATOM     29  O   UNL A   1      41.736  25.691  25.074  1.00  0.00    -0.269 OA
BRANCH  27  30
ATOM     30  C   UNL A   1      40.817  26.167  27.181  1.00  0.00     0.039 A 
ATOM     31  C   UNL A   1      41.473  27.387  27.331  1.00  0.00     0.014 A 
ATOM     32  C   UNL A   1      39.817  25.820  28.100  1.00  0.00     0.014 A 
ATOM     33  C   UNL A   1      41.288  28.146  28.482  1.00  0.00     0.010 A 
ATOM     34  C   UNL A   1      39.532  26.656  29.189  1.00  0.00     0.010 A 
ATOM     35  C   UNL A   1      40.300  27.805  29.419  1.00  0.00    -0.014 A 
BRANCH  35  36
ATOM     36  C   UNL A   1      40.083  28.698  30.593  1.00  0.00     0.031 A 
ATOM     37  C   UNL A   1      40.960  28.617  31.813  1.00  0.00     0.074 A 
ATOM     38  C   UNL A   1      39.125  29.645  30.522  1.00  0.00     0.049 A 
ATOM     39  N   UNL A   1      40.969  29.389  32.871  1.00  0.00    -0.248 NA
ATOM     40  C   UNL A   1      41.944  27.526  31.865  1.00  0.00     0.031 C 
ATOM     41  C   UNL A   1      38.194  29.810  29.403  1.00  0.00     0.029 A 
ATOM     42  N   UNL A   1      38.798  30.669  31.376  1.00  0.00    -0.354 N 
ATOM     43  C   UNL A   1      41.938  28.868  33.718  1.00  0.00     0.074 A 
ATOM     44  C   UNL A   1      42.471  27.690  33.070  1.00  0.00     0.031 C 
ATOM     45  C   UNL A   1      37.465  30.917  29.595  1.00  0.00     0.029 A 
ATOM     46  C   UNL A   1      37.819  31.500  30.886  1.00  0.00     0.049 A 
ATOM     47  H   UNL A   1      39.224  30.796  32.254  1.00  0.00     0.167 HD
ATOM     48  C   UNL A   1      42.357  29.338  34.918  1.00  0.00     0.037 A 
ATOM     49  C   UNL A   1      37.257  32.607  31.408  1.00  0.00     0.037 A 
ATOM     50  C   UNL A   1      41.841  30.527  35.544  1.00  0.00     0.049 A 
ATOM     51  C   UNL A   1      37.724  33.101  32.745  1.00  0.00     0.074 A 
ATOM     52  C   UNL A   1      42.239  31.112  36.733  1.00  0.00     0.029 A 
ATOM     53  N   UNL A   1      40.812  31.307  35.039  1.00  0.00    -0.354 N 
ATOM     54  N   UNL A   1      38.678  32.624  33.508  1.00  0.00    -0.248 NA
ATOM     55  C   UNL A   1      37.037  34.274  33.302  1.00  0.00     0.031 C 
ATOM     56  C   UNL A   1      41.410  32.210  36.978  1.00  0.00     0.029 A 
ATOM     57  C   UNL A   1      40.535  32.346  35.912  1.00  0.00     0.049 A 
ATOM     58  H   UNL A   1      40.345  31.145  34.186  1.00  0.00     0.167 HD
ATOM     59  C   UNL A   1      38.713  33.440  34.629  1.00  0.00     0.074 A 
ATOM     60  C   UNL A   1      37.695  34.453  34.442  1.00  0.00     0.031 C 
ATOM     61  C   UNL A   1      39.519  33.351  35.714  1.00  0.00     0.037 A 
BRANCH  48  62
ATOM     62  C   UNL A   1      43.419  28.559  35.643  1.00  0.00     0.057 A 
ATOM     63  C   UNL A   1      44.784  28.829  35.479  1.00  0.00     0.134 A 
ATOM     64  C   UNL A   1      43.067  27.557  36.558  1.00  0.00     0.134 A 
ATOM     65  F   UNL A   1      45.192  29.772  34.616  1.00  0.00    -0.206 F 
ATOM     66  C   UNL A   1      45.760  28.113  36.175  1.00  0.00     0.040 A 
ATOM     67  C   UNL A   1      44.032  26.855  37.282  1.00  0.00     0.040 A 
ATOM     68  F   UNL A   1      41.778  27.254  36.775  1.00  0.00    -0.206 F 
ATOM     69  C   UNL A   1      45.384  27.127  37.085  1.00  0.00     0.006 A 
ENDBRANCH  48  62
BRANCH  49  70
ATOM     70  C   UNL A   1      36.206  33.315  30.635  1.00  0.00     0.057 A 
ATOM     71  C   UNL A   1      36.524  34.069  29.501  1.00  0.00     0.134 A 
ATOM     72  C   UNL A   1      34.849  33.176  30.958  1.00  0.00     0.134 A 
ATOM     73  F   UNL A   1      37.805  34.249  29.148  1.00  0.00    -0.206 F 
ATOM     74  C   UNL A   1      35.531  34.646  28.706  1.00  0.00     0.040 A 
ATOM     75  C   UNL A   1      33.846  33.725  30.158  1.00  0.00     0.040 A 
ATOM     76  F   UNL A   1      34.478  32.456  32.027  1.00  0.00    -0.206 F 
ATOM     77  C   UNL A   1      34.187  34.461  29.027  1.00  0.00     0.006 A 
ENDBRANCH  49  70
BRANCH  61  78
ATOM     78  C   UNL A   1      39.354  34.374  36.798  1.00  0.00     0.057 A 
ATOM     79  C   UNL A   1      38.630  34.096  37.963  1.00  0.00     0.134 A 
ATOM     80  C   UNL A   1      40.035  35.597  36.733  1.00  0.00     0.134 A 
ATOM     81  F   UNL A   1      37.948  32.948  38.083  1.00  0.00    -0.206 F 
ATOM     82  C   UNL A   1      38.595  34.997  39.029  1.00  0.00     0.040 A 
ATOM     83  C   UNL A   1      40.027  36.494  37.801  1.00  0.00     0.040 A 
ATOM     84  F   UNL A   1      40.756  35.918  35.647  1.00  0.00    -0.206 F 
ATOM     85  C   UNL A   1      39.308  36.192  38.955  1.00  0.00     0.006 A 
ENDBRANCH  61  78
ENDBRANCH  35  36
ENDBRANCH  27  30
ENDBRANCH   1  26
TORSDOF 10
ENDMDL
