MODEL 1
REMARK VINA RESULT:      -9.6      0.000      0.000
REMARK SMILES CC(C)N1C[C@@H](C(=O)N[C@@H](C)CC(=O)NCCCNC(=O)c2ccc(-c3c4nc(c(-c5c(F)cccc5F)c5ccc([nH]5)c(-c5c(F)cccc5F)c5nc(c(-c6c(F)cccc6F)c6ccc3[nH]6)C=C5)C=C4)cc2)CC1=O
REMARK SMILES IDX 16 1 15 2 13 3 14 4 12 6 10 7 11 8 9 9 7 10 8 11 6 13 4 14
REMARK SMILES IDX 5 15 77 16 76 17 78 18 2 19 1 20 3 21 17 22 18 23 19 24
REMARK SMILES IDX 20 25 21 27 22 28 23 29 75 30 24 31 74 32 25 33 26 34 27 35
REMARK SMILES IDX 68 36 28 37 73 38 67 39 69 40 29 41 72 42 66 43 65 44 30 46
REMARK SMILES IDX 56 47 39 48 55 49 40 50 43 51 54 52 70 53 41 54 42 55 53 57
REMARK SMILES IDX 71 58 44 59 31 60 32 61 37 62 33 63 34 64 36 65 38 66 35 67
REMARK SMILES IDX 57 68 58 69 63 70 59 71 60 72 62 73 64 74 61 75 45 76 46 77
REMARK SMILES IDX 51 78 47 79 48 80 50 81 52 82 49 83
REMARK H PARENT 15 5 9 12 19 26 69 45 43 56
REMARK Flexibility Score: inf
ROOT
ATOM      1  C   UNL A   1      34.393  34.032  30.272  1.00  0.00     0.117 C 
ENDROOT
BRANCH   1   2
ATOM      2  N   UNL A   1      35.077  34.738  31.345  1.00  0.00    -0.356 N 
ATOM      3  C   UNL A   1      35.558  34.278  32.533  1.00  0.00     0.222 C 
ATOM      4  O   UNL A   1      36.020  35.100  33.325  1.00  0.00    -0.275 OA
ATOM      5  H   UNL A   1      35.214  35.700  31.187  1.00  0.00     0.163 HD
BRANCH   3   6
ATOM      6  C   UNL A   1      35.541  32.803  32.872  1.00  0.00     0.124 C 
BRANCH   6   7
ATOM      7  C   UNL A   1      36.929  32.171  33.069  1.00  0.00     0.088 C 
ATOM      8  C   UNL A   1      37.805  32.509  31.857  1.00  0.00     0.031 C 
BRANCH   7   9
ATOM      9  N   UNL A   1      36.860  30.713  33.164  1.00  0.00    -0.353 N 
ATOM     10  C   UNL A   1      37.800  29.749  33.320  1.00  0.00     0.225 C 
ATOM     11  O   UNL A   1      37.403  28.582  33.222  1.00  0.00    -0.275 OA
ATOM     12  H   UNL A   1      35.942  30.359  33.101  1.00  0.00     0.163 HD
BRANCH  10  13
ATOM     13  C   UNL A   1      39.264  30.010  33.603  1.00  0.00     0.107 C 
ATOM     14  N   UNL A   1      41.214  28.960  34.380  1.00  0.00    -0.339 N 
ATOM     15  C   UNL A   1      40.246  28.889  33.309  1.00  0.00     0.133 C 
ATOM     16  C   UNL A   1      40.815  29.797  35.410  1.00  0.00     0.223 C 
ATOM     17  C   UNL A   1      39.497  30.422  35.048  1.00  0.00     0.115 C 
ATOM     18  O   UNL A   1      41.400  29.988  36.461  1.00  0.00    -0.275 OA
BRANCH  14  19
ATOM     19  C   UNL A   1      42.385  28.086  34.489  1.00  0.00     0.078 C 
ATOM     20  C   UNL A   1      42.109  26.912  35.426  1.00  0.00     0.031 C 
ATOM     21  C   UNL A   1      42.890  27.596  33.134  1.00  0.00     0.031 C 
ENDBRANCH  14  19
ENDBRANCH  10  13
ENDBRANCH   7   9
ENDBRANCH   6   7
ENDBRANCH   3   6
ENDBRANCH   1   2
BRANCH   1  22
ATOM     22  C   UNL A   1      35.373  33.225  29.430  1.00  0.00     0.042 C 
BRANCH  22  23
ATOM     23  C   UNL A   1      34.925  32.934  28.007  1.00  0.00     0.118 C 
BRANCH  23  24
ATOM     24  N   UNL A   1      34.200  31.682  27.893  1.00  0.00    -0.352 N 
ATOM     25  C   UNL A   1      34.652  30.385  27.867  1.00  0.00     0.251 C 
ATOM     26  H   UNL A   1      33.223  31.779  27.824  1.00  0.00     0.163 HD
ATOM     27  O   UNL A   1      33.865  29.492  27.562  1.00  0.00    -0.269 OA
BRANCH  25  28
ATOM     28  C   UNL A   1      36.063  30.040  28.175  1.00  0.00     0.039 A 
ATOM     29  C   UNL A   1      36.374  29.608  29.469  1.00  0.00     0.014 A 
ATOM     30  C   UNL A   1      37.089  30.189  27.238  1.00  0.00     0.014 A 
ATOM     31  C   UNL A   1      37.690  29.261  29.799  1.00  0.00     0.010 A 
ATOM     32  C   UNL A   1      38.385  29.763  27.542  1.00  0.00     0.010 A 
ATOM     33  C   UNL A   1      38.700  29.293  28.825  1.00  0.00    -0.014 A 
BRANCH  33  34
ATOM     34  C   UNL A   1      40.083  28.832  29.126  1.00  0.00     0.031 A 
ATOM     35  C   UNL A   1      41.056  29.743  29.825  1.00  0.00     0.074 A 
ATOM     36  C   UNL A   1      40.483  27.609  28.721  1.00  0.00     0.049 A 
ATOM     37  N   UNL A   1      42.329  29.559  30.077  1.00  0.00    -0.248 NA
ATOM     38  C   UNL A   1      40.535  31.039  30.288  1.00  0.00     0.031 C 
ATOM     39  C   UNL A   1      39.647  26.634  28.020  1.00  0.00     0.029 A 
ATOM     40  N   UNL A   1      41.701  26.982  28.830  1.00  0.00    -0.354 N 
ATOM     41  C   UNL A   1      42.759  30.712  30.724  1.00  0.00     0.074 A 
ATOM     42  C   UNL A   1      41.627  31.611  30.778  1.00  0.00     0.031 C 
ATOM     43  C   UNL A   1      40.368  25.527  27.778  1.00  0.00     0.029 A 
ATOM     44  C   UNL A   1      41.731  25.734  28.255  1.00  0.00     0.049 A 
ATOM     45  H   UNL A   1      42.478  27.388  29.277  1.00  0.00     0.167 HD
ATOM     46  C   UNL A   1      43.978  30.985  31.248  1.00  0.00     0.037 A 
ATOM     47  C   UNL A   1      42.749  24.863  28.105  1.00  0.00     0.037 A 
ATOM     48  C   UNL A   1      45.104  30.088  31.200  1.00  0.00     0.049 A 
ATOM     49  C   UNL A   1      44.112  25.230  28.625  1.00  0.00     0.074 A 
ATOM     50  C   UNL A   1      46.372  30.269  31.724  1.00  0.00     0.029 A 
ATOM     51  N   UNL A   1      45.097  28.842  30.593  1.00  0.00    -0.354 N 
ATOM     52  N   UNL A   1      44.491  26.303  29.276  1.00  0.00    -0.248 NA
ATOM     53  C   UNL A   1      45.195  24.262  28.385  1.00  0.00     0.031 C 
ATOM     54  C   UNL A   1      47.148  29.155  31.391  1.00  0.00     0.029 A 
ATOM     55  C   UNL A   1      46.348  28.256  30.705  1.00  0.00     0.049 A 
ATOM     56  H   UNL A   1      44.320  28.434  30.146  1.00  0.00     0.167 HD
ATOM     57  C   UNL A   1      45.842  26.126  29.548  1.00  0.00     0.074 A 
ATOM     58  C   UNL A   1      46.213  24.834  29.012  1.00  0.00     0.031 C 
ATOM     59  C   UNL A   1      46.701  26.962  30.181  1.00  0.00     0.037 A 
BRANCH  46  60
ATOM     60  C   UNL A   1      44.164  32.312  31.929  1.00  0.00     0.057 A 
ATOM     61  C   UNL A   1      43.891  32.480  33.292  1.00  0.00     0.134 A 
ATOM     62  C   UNL A   1      44.683  33.411  31.234  1.00  0.00     0.134 A 
ATOM     63  F   UNL A   1      43.384  31.470  34.015  1.00  0.00    -0.206 F 
ATOM     64  C   UNL A   1      44.110  33.700  33.937  1.00  0.00     0.040 A 
ATOM     65  C   UNL A   1      44.933  34.627  31.872  1.00  0.00     0.040 A 
ATOM     66  F   UNL A   1      44.976  33.316  29.928  1.00  0.00    -0.206 F 
ATOM     67  C   UNL A   1      44.643  34.775  33.227  1.00  0.00     0.006 A 
ENDBRANCH  46  60
BRANCH  47  68
ATOM     68  C   UNL A   1      42.536  23.561  27.418  1.00  0.00     0.057 A 
ATOM     69  C   UNL A   1      42.242  22.401  28.145  1.00  0.00     0.134 A 
ATOM     70  C   UNL A   1      42.674  23.432  26.030  1.00  0.00     0.134 A 
ATOM     71  F   UNL A   1      42.120  22.454  29.480  1.00  0.00    -0.206 F 
ATOM     72  C   UNL A   1      42.125  21.156  27.524  1.00  0.00     0.040 A 
ATOM     73  C   UNL A   1      42.528  22.200  25.392  1.00  0.00     0.040 A 
ATOM     74  F   UNL A   1      42.953  24.504  25.274  1.00  0.00    -0.206 F 
ATOM     75  C   UNL A   1      42.267  21.054  26.141  1.00  0.00     0.006 A 
ENDBRANCH  47  68
BRANCH  59  76
ATOM     76  C   UNL A   1      48.115  26.492  30.362  1.00  0.00     0.057 A 
ATOM     77  C   UNL A   1      48.512  25.756  31.486  1.00  0.00     0.134 A 
ATOM     78  C   UNL A   1      49.081  26.739  29.378  1.00  0.00     0.134 A 
ATOM     79  F   UNL A   1      47.640  25.497  32.472  1.00  0.00    -0.206 F 
ATOM     80  C   UNL A   1      49.824  25.303  31.634  1.00  0.00     0.040 A 
ATOM     81  C   UNL A   1      50.387  26.266  29.500  1.00  0.00     0.040 A 
ATOM     82  F   UNL A   1      48.765  27.431  28.272  1.00  0.00    -0.206 F 
ATOM     83  C   UNL A   1      50.764  25.550  30.635  1.00  0.00     0.006 A 
ENDBRANCH  59  76
ENDBRANCH  33  34
ENDBRANCH  25  28
ENDBRANCH  23  24
ENDBRANCH  22  23
ENDBRANCH   1  22
TORSDOF 14
ENDMDL
MODEL 2
REMARK VINA RESULT:      -9.6      4.446      9.895
REMARK SMILES CC(C)N1C[C@@H](C(=O)N[C@@H](C)CC(=O)NCCCNC(=O)c2ccc(-c3c4nc(c(-c5c(F)cccc5F)c5ccc([nH]5)c(-c5c(F)cccc5F)c5nc(c(-c6c(F)cccc6F)c6ccc3[nH]6)C=C5)C=C4)cc2)CC1=O
REMARK SMILES IDX 16 1 15 2 13 3 14 4 12 6 10 7 11 8 9 9 7 10 8 11 6 13 4 14
REMARK SMILES IDX 5 15 77 16 76 17 78 18 2 19 1 20 3 21 17 22 18 23 19 24
REMARK SMILES IDX 20 25 21 27 22 28 23 29 75 30 24 31 74 32 25 33 26 34 27 35
REMARK SMILES IDX 68 36 28 37 73 38 67 39 69 40 29 41 72 42 66 43 65 44 30 46
REMARK SMILES IDX 56 47 39 48 55 49 40 50 43 51 54 52 70 53 41 54 42 55 53 57
REMARK SMILES IDX 71 58 44 59 31 60 32 61 37 62 33 63 34 64 36 65 38 66 35 67
REMARK SMILES IDX 57 68 58 69 63 70 59 71 60 72 62 73 64 74 61 75 45 76 46 77
REMARK SMILES IDX 51 78 47 79 48 80 50 81 52 82 49 83
REMARK H PARENT 15 5 9 12 19 26 69 45 43 56
REMARK Flexibility Score: inf
ROOT
ATOM      1  C   UNL A   1      31.426  30.638  25.977  1.00  0.00     0.117 C 
ENDROOT
BRANCH   1   2
ATOM      2  N   UNL A   1      32.739  30.102  26.301  1.00  0.00    -0.356 N 
ATOM      3  C   UNL A   1      33.087  28.924  26.887  1.00  0.00     0.222 C 
ATOM      4  O   UNL A   1      34.277  28.737  27.144  1.00  0.00    -0.275 OA
ATOM      5  H   UNL A   1      33.495  30.683  26.057  1.00  0.00     0.163 HD
BRANCH   3   6
ATOM      6  C   UNL A   1      32.052  27.866  27.206  1.00  0.00     0.124 C 
BRANCH   6   7
ATOM      7  C   UNL A   1      32.103  26.622  26.303  1.00  0.00     0.088 C 
ATOM      8  C   UNL A   1      31.429  26.952  24.967  1.00  0.00     0.031 C 
BRANCH   7   9
ATOM      9  N   UNL A   1      31.383  25.491  26.888  1.00  0.00    -0.353 N 
ATOM     10  C   UNL A   1      31.401  24.157  26.646  1.00  0.00     0.225 C 
ATOM     11  O   UNL A   1      30.550  23.486  27.240  1.00  0.00    -0.275 OA
ATOM     12  H   UNL A   1      30.757  25.751  27.603  1.00  0.00     0.163 HD
BRANCH  10  13
ATOM     13  C   UNL A   1      32.377  23.462  25.721  1.00  0.00     0.107 C 
ATOM     14  N   UNL A   1      33.205  21.337  25.164  1.00  0.00    -0.339 N 
ATOM     15  C   UNL A   1      31.978  22.100  25.175  1.00  0.00     0.133 C 
ATOM     16  C   UNL A   1      34.231  21.959  25.858  1.00  0.00     0.223 C 
ATOM     17  C   UNL A   1      33.743  23.286  26.365  1.00  0.00     0.115 C 
ATOM     18  O   UNL A   1      35.344  21.510  26.067  1.00  0.00    -0.275 OA
BRANCH  14  19
ATOM     19  C   UNL A   1      33.312  19.961  24.672  1.00  0.00     0.078 C 
ATOM     20  C   UNL A   1      32.905  18.959  25.750  1.00  0.00     0.031 C 
ATOM     21  C   UNL A   1      32.527  19.727  23.384  1.00  0.00     0.031 C 
ENDBRANCH  14  19
ENDBRANCH  10  13
ENDBRANCH   7   9
ENDBRANCH   6   7
ENDBRANCH   3   6
ENDBRANCH   1   2
BRANCH   1  22
ATOM     22  C   UNL A   1      31.269  32.063  26.493  1.00  0.00     0.042 C 
BRANCH  22  23
ATOM     23  C   UNL A   1      32.468  32.621  27.243  1.00  0.00     0.118 C 
BRANCH  23  24
ATOM     24  N   UNL A   1      32.315  34.025  27.578  1.00  0.00    -0.352 N 
ATOM     25  C   UNL A   1      32.965  34.800  28.507  1.00  0.00     0.251 C 
ATOM     26  H   UNL A   1      31.634  34.500  27.050  1.00  0.00     0.163 HD
ATOM     27  O   UNL A   1      32.527  35.921  28.752  1.00  0.00    -0.269 OA
BRANCH  25  28
ATOM     28  C   UNL A   1      34.162  34.310  29.237  1.00  0.00     0.039 A 
ATOM     29  C   UNL A   1      33.970  33.623  30.442  1.00  0.00     0.014 A 
ATOM     30  C   UNL A   1      35.463  34.564  28.795  1.00  0.00     0.014 A 
ATOM     31  C   UNL A   1      35.069  33.133  31.156  1.00  0.00     0.010 A 
ATOM     32  C   UNL A   1      36.554  34.003  29.463  1.00  0.00     0.010 A 
ATOM     33  C   UNL A   1      36.370  33.280  30.650  1.00  0.00    -0.014 A 
BRANCH  33  34
ATOM     34  C   UNL A   1      37.544  32.680  31.341  1.00  0.00     0.031 A 
ATOM     35  C   UNL A   1      38.235  31.473  30.766  1.00  0.00     0.074 A 
ATOM     36  C   UNL A   1      37.957  33.188  32.521  1.00  0.00     0.049 A 
ATOM     37  N   UNL A   1      39.201  30.749  31.275  1.00  0.00    -0.248 NA
ATOM     38  C   UNL A   1      37.768  31.007  29.450  1.00  0.00     0.031 C 
ATOM     39  C   UNL A   1      37.366  34.343  33.198  1.00  0.00     0.029 A 
ATOM     40  N   UNL A   1      38.964  32.789  33.366  1.00  0.00    -0.354 N 
ATOM     41  C   UNL A   1      39.456  29.746  30.346  1.00  0.00     0.074 A 
ATOM     42  C   UNL A   1      38.507  29.921  29.268  1.00  0.00     0.031 C 
ATOM     43  C   UNL A   1      38.031  34.571  34.342  1.00  0.00     0.029 A 
ATOM     44  C   UNL A   1      39.057  33.547  34.509  1.00  0.00     0.049 A 
ATOM     45  H   UNL A   1      39.562  32.032  33.172  1.00  0.00     0.167 HD
ATOM     46  C   UNL A   1      40.409  28.784  30.378  1.00  0.00     0.037 A 
ATOM     47  C   UNL A   1      39.860  33.418  35.583  1.00  0.00     0.037 A 
ATOM     48  C   UNL A   1      41.358  28.613  31.448  1.00  0.00     0.049 A 
ATOM     49  C   UNL A   1      40.855  32.289  35.625  1.00  0.00     0.074 A 
ATOM     50  C   UNL A   1      42.375  27.681  31.556  1.00  0.00     0.029 A 
ATOM     51  N   UNL A   1      41.405  29.391  32.594  1.00  0.00    -0.354 N 
ATOM     52  N   UNL A   1      41.115  31.379  34.718  1.00  0.00    -0.248 NA
ATOM     53  C   UNL A   1      41.667  32.167  36.846  1.00  0.00     0.031 C 
ATOM     54  C   UNL A   1      43.007  27.862  32.790  1.00  0.00     0.029 A 
ATOM     55  C   UNL A   1      42.417  28.941  33.428  1.00  0.00     0.049 A 
ATOM     56  H   UNL A   1      40.808  30.149  32.789  1.00  0.00     0.167 HD
ATOM     57  C   UNL A   1      42.136  30.598  35.246  1.00  0.00     0.074 A 
ATOM     58  C   UNL A   1      42.465  31.154  36.541  1.00  0.00     0.031 C 
ATOM     59  C   UNL A   1      42.745  29.514  34.707  1.00  0.00     0.037 A 
BRANCH  46  60
ATOM     60  C   UNL A   1      40.483  27.837  29.214  1.00  0.00     0.057 A 
ATOM     61  C   UNL A   1      39.692  26.682  29.157  1.00  0.00     0.134 A 
ATOM     62  C   UNL A   1      41.299  28.114  28.110  1.00  0.00     0.134 A 
ATOM     63  F   UNL A   1      38.894  26.353  30.185  1.00  0.00    -0.206 F 
ATOM     64  C   UNL A   1      39.724  25.827  28.054  1.00  0.00     0.040 A 
ATOM     65  C   UNL A   1      41.319  27.283  26.990  1.00  0.00     0.040 A 
ATOM     66  F   UNL A   1      42.075  29.209  28.094  1.00  0.00    -0.206 F 
ATOM     67  C   UNL A   1      40.533  26.133  26.961  1.00  0.00     0.006 A 
ENDBRANCH  46  60
BRANCH  47  68
ATOM     68  C   UNL A   1      39.757  34.366  36.724  1.00  0.00     0.057 A 
ATOM     69  C   UNL A   1      40.496  35.556  36.743  1.00  0.00     0.134 A 
ATOM     70  C   UNL A   1      38.965  34.084  37.844  1.00  0.00     0.134 A 
ATOM     71  F   UNL A   1      41.292  35.872  35.711  1.00  0.00    -0.206 F 
ATOM     72  C   UNL A   1      40.477  36.413  37.844  1.00  0.00     0.040 A 
ATOM     73  C   UNL A   1      38.910  34.949  38.938  1.00  0.00     0.040 A 
ATOM     74  F   UNL A   1      38.230  32.963  37.890  1.00  0.00    -0.206 F 
ATOM     75  C   UNL A   1      39.680  36.110  38.947  1.00  0.00     0.006 A 
ENDBRANCH  47  68
BRANCH  59  76
ATOM     76  C   UNL A   1      43.853  28.879  35.499  1.00  0.00     0.057 A 
ATOM     77  C   UNL A   1      43.611  27.837  36.403  1.00  0.00     0.134 A 
ATOM     78  C   UNL A   1      45.181  29.285  35.320  1.00  0.00     0.134 A 
ATOM     79  F   UNL A   1      42.360  27.410  36.632  1.00  0.00    -0.206 F 
ATOM     80  C   UNL A   1      44.650  27.237  37.117  1.00  0.00     0.040 A 
ATOM     81  C   UNL A   1      46.231  28.674  36.006  1.00  0.00     0.040 A 
ATOM     82  F   UNL A   1      45.483  30.272  34.462  1.00  0.00    -0.206 F 
ATOM     83  C   UNL A   1      45.965  27.649  36.913  1.00  0.00     0.006 A 
ENDBRANCH  59  76
ENDBRANCH  33  34
ENDBRANCH  25  28
ENDBRANCH  23  24
ENDBRANCH  22  23
ENDBRANCH   1  22
TORSDOF 14
ENDMDL
MODEL 3
REMARK VINA RESULT:      -9.6      4.366      9.728
REMARK SMILES CC(C)N1C[C@@H](C(=O)N[C@@H](C)CC(=O)NCCCNC(=O)c2ccc(-c3c4nc(c(-c5c(F)cccc5F)c5ccc([nH]5)c(-c5c(F)cccc5F)c5nc(c(-c6c(F)cccc6F)c6ccc3[nH]6)C=C5)C=C4)cc2)CC1=O
REMARK SMILES IDX 16 1 15 2 13 3 14 4 12 6 10 7 11 8 9 9 7 10 8 11 6 13 4 14
REMARK SMILES IDX 5 15 77 16 76 17 78 18 2 19 1 20 3 21 17 22 18 23 19 24
REMARK SMILES IDX 20 25 21 27 22 28 23 29 75 30 24 31 74 32 25 33 26 34 27 35
REMARK SMILES IDX 68 36 28 37 73 38 67 39 69 40 29 41 72 42 66 43 65 44 30 46
REMARK SMILES IDX 56 47 39 48 55 49 40 50 43 51 54 52 70 53 41 54 42 55 53 57
REMARK SMILES IDX 71 58 44 59 31 60 32 61 37 62 33 63 34 64 36 65 38 66 35 67
REMARK SMILES IDX 57 68 58 69 63 70 59 71 60 72 62 73 64 74 61 75 45 76 46 77
REMARK SMILES IDX 51 78 47 79 48 80 50 81 52 82 49 83
REMARK H PARENT 15 5 9 12 19 26 69 45 43 56
REMARK Flexibility Score: inf
ROOT
ATOM      1  C   UNL A   1      31.454  30.346  26.022  1.00  0.00     0.117 C 
ENDROOT
BRANCH   1   2
ATOM      2  N   UNL A   1      31.104  30.126  24.627  1.00  0.00    -0.356 N 
ATOM      3  C   UNL A   1      31.015  28.969  23.916  1.00  0.00     0.222 C 
ATOM      4  O   UNL A   1      30.789  29.051  22.708  1.00  0.00    -0.275 OA
ATOM      5  H   UNL A   1      30.899  30.943  24.118  1.00  0.00     0.163 HD
BRANCH   3   6
ATOM      6  C   UNL A   1      31.175  27.619  24.583  1.00  0.00     0.124 C 
BRANCH   6   7
ATOM      7  C   UNL A   1      32.482  26.884  24.243  1.00  0.00     0.088 C 
ATOM      8  C   UNL A   1      33.665  27.714  24.755  1.00  0.00     0.031 C 
BRANCH   7   9
ATOM      9  N   UNL A   1      32.658  26.717  22.800  1.00  0.00    -0.353 N 
ATOM     10  C   UNL A   1      33.053  25.673  22.030  1.00  0.00     0.225 C 
ATOM     11  O   UNL A   1      33.226  25.918  20.831  1.00  0.00    -0.275 OA
ATOM     12  H   UNL A   1      32.446  27.527  22.283  1.00  0.00     0.163 HD
BRANCH  10  13
ATOM     13  C   UNL A   1      33.284  24.266  22.538  1.00  0.00     0.107 C 
ATOM     14  N   UNL A   1      32.915  22.889  24.404  1.00  0.00    -0.339 N 
ATOM     15  C   UNL A   1      32.198  23.646  23.402  1.00  0.00     0.133 C 
ATOM     16  C   UNL A   1      34.273  23.169  24.418  1.00  0.00     0.223 C 
ATOM     17  C   UNL A   1      34.580  24.152  23.324  1.00  0.00     0.115 C 
ATOM     18  O   UNL A   1      35.098  22.730  25.199  1.00  0.00    -0.275 OA
BRANCH  14  19
ATOM     19  C   UNL A   1      32.271  22.080  25.440  1.00  0.00     0.078 C 
ATOM     20  C   UNL A   1      30.879  22.617  25.771  1.00  0.00     0.031 C 
ATOM     21  C   UNL A   1      32.212  20.597  25.087  1.00  0.00     0.031 C 
ENDBRANCH  14  19
ENDBRANCH  10  13
ENDBRANCH   7   9
ENDBRANCH   6   7
ENDBRANCH   3   6
ENDBRANCH   1   2
BRANCH   1  22
ATOM     22  C   UNL A   1      31.383  31.826  26.382  1.00  0.00     0.042 C 
BRANCH  22  23
ATOM     23  C   UNL A   1      32.672  32.431  26.913  1.00  0.00     0.118 C 
BRANCH  23  24
ATOM     24  N   UNL A   1      32.489  33.773  27.433  1.00  0.00    -0.352 N 
ATOM     25  C   UNL A   1      33.131  34.434  28.452  1.00  0.00     0.251 C 
ATOM     26  H   UNL A   1      31.788  34.295  26.982  1.00  0.00     0.163 HD
ATOM     27  O   UNL A   1      32.668  35.501  28.848  1.00  0.00    -0.269 OA
BRANCH  25  28
ATOM     28  C   UNL A   1      34.350  33.884  29.097  1.00  0.00     0.039 A 
ATOM     29  C   UNL A   1      34.195  32.901  30.081  1.00  0.00     0.014 A 
ATOM     30  C   UNL A   1      35.631  34.357  28.798  1.00  0.00     0.014 A 
ATOM     31  C   UNL A   1      35.318  32.347  30.706  1.00  0.00     0.010 A 
ATOM     32  C   UNL A   1      36.755  33.745  29.360  1.00  0.00     0.010 A 
ATOM     33  C   UNL A   1      36.611  32.732  30.319  1.00  0.00    -0.014 A 
BRANCH  33  34
ATOM     34  C   UNL A   1      37.820  32.084  30.899  1.00  0.00     0.031 A 
ATOM     35  C   UNL A   1      38.514  30.968  30.165  1.00  0.00     0.074 A 
ATOM     36  C   UNL A   1      38.263  32.462  32.115  1.00  0.00     0.049 A 
ATOM     37  N   UNL A   1      39.510  30.213  30.556  1.00  0.00    -0.248 NA
ATOM     38  C   UNL A   1      38.011  30.646  28.820  1.00  0.00     0.031 C 
ATOM     39  C   UNL A   1      37.674  33.518  32.940  1.00  0.00     0.029 A 
ATOM     40  N   UNL A   1      39.306  31.992  32.876  1.00  0.00    -0.354 N 
ATOM     41  C   UNL A   1      39.753  29.330  29.510  1.00  0.00     0.074 A 
ATOM     42  C   UNL A   1      38.764  29.606  28.490  1.00  0.00     0.031 C 
ATOM     43  C   UNL A   1      38.373  33.628  34.081  1.00  0.00     0.029 A 
ATOM     44  C   UNL A   1      39.424  32.616  34.095  1.00  0.00     0.049 A 
ATOM     45  H   UNL A   1      39.912  31.277  32.576  1.00  0.00     0.167 HD
ATOM     46  C   UNL A   1      40.725  28.393  29.399  1.00  0.00     0.037 A 
ATOM     47  C   UNL A   1      40.266  32.382  35.121  1.00  0.00     0.037 A 
ATOM     48  C   UNL A   1      41.713  28.122  30.411  1.00  0.00     0.049 A 
ATOM     49  C   UNL A   1      41.283  31.280  35.000  1.00  0.00     0.074 A 
ATOM     50  C   UNL A   1      42.751  27.208  30.378  1.00  0.00     0.029 A 
ATOM     51  N   UNL A   1      41.785  28.764  31.637  1.00  0.00    -0.354 N 
ATOM     52  N   UNL A   1      41.529  30.486  33.986  1.00  0.00    -0.248 NA
ATOM     53  C   UNL A   1      42.140  31.037  36.172  1.00  0.00     0.031 C 
ATOM     54  C   UNL A   1      43.422  27.260  31.603  1.00  0.00     0.029 A 
ATOM     55  C   UNL A   1      42.834  28.244  32.380  1.00  0.00     0.049 A 
ATOM     56  H   UNL A   1      41.180  29.480  31.937  1.00  0.00     0.167 HD
ATOM     57  C   UNL A   1      42.584  29.674  34.386  1.00  0.00     0.074 A 
ATOM     58  C   UNL A   1      42.946  30.085  35.726  1.00  0.00     0.031 C 
ATOM     59  C   UNL A   1      43.195  28.673  33.706  1.00  0.00     0.037 A 
BRANCH  46  60
ATOM     60  C   UNL A   1      40.777  27.588  28.131  1.00  0.00     0.057 A 
ATOM     61  C   UNL A   1      41.506  28.021  27.016  1.00  0.00     0.134 A 
ATOM     62  C   UNL A   1      40.150  26.338  28.046  1.00  0.00     0.134 A 
ATOM     63  F   UNL A   1      42.123  29.213  27.029  1.00  0.00    -0.206 F 
ATOM     64  C   UNL A   1      41.595  27.250  25.856  1.00  0.00     0.040 A 
ATOM     65  C   UNL A   1      40.255  25.545  26.902  1.00  0.00     0.040 A 
ATOM     66  F   UNL A   1      39.444  25.857  29.080  1.00  0.00    -0.206 F 
ATOM     67  C   UNL A   1      40.976  26.003  25.801  1.00  0.00     0.006 A 
ENDBRANCH  46  60
BRANCH  47  68
ATOM     68  C   UNL A   1      40.184  33.190  36.366  1.00  0.00     0.057 A 
ATOM     69  C   UNL A   1      39.273  32.867  37.379  1.00  0.00     0.134 A 
ATOM     70  C   UNL A   1      40.972  34.334  36.552  1.00  0.00     0.134 A 
ATOM     71  F   UNL A   1      38.473  31.798  37.251  1.00  0.00    -0.206 F 
ATOM     72  C   UNL A   1      39.123  33.666  38.514  1.00  0.00     0.040 A 
ATOM     73  C   UNL A   1      40.857  35.124  37.697  1.00  0.00     0.040 A 
ATOM     74  F   UNL A   1      41.867  34.699  35.623  1.00  0.00    -0.206 F 
ATOM     75  C   UNL A   1      39.919  34.799  38.675  1.00  0.00     0.006 A 
ENDBRANCH  47  68
BRANCH  59  76
ATOM     76  C   UNL A   1      44.341  27.978  34.383  1.00  0.00     0.057 A 
ATOM     77  C   UNL A   1      44.157  26.809  35.133  1.00  0.00     0.134 A 
ATOM     78  C   UNL A   1      45.649  28.458  34.245  1.00  0.00     0.134 A 
ATOM     79  F   UNL A   1      42.928  26.304  35.316  1.00  0.00    -0.206 F 
ATOM     80  C   UNL A   1      45.232  26.156  35.739  1.00  0.00     0.040 A 
ATOM     81  C   UNL A   1      46.735  27.798  34.821  1.00  0.00     0.040 A 
ATOM     82  F   UNL A   1      45.896  29.568  33.532  1.00  0.00    -0.206 F 
ATOM     83  C   UNL A   1      46.526  26.646  35.576  1.00  0.00     0.006 A 
ENDBRANCH  59  76
ENDBRANCH  33  34
ENDBRANCH  25  28
ENDBRANCH  23  24
ENDBRANCH  22  23
ENDBRANCH   1  22
TORSDOF 14
ENDMDL
