MODEL 1
REMARK VINA RESULT:     -10.8      0.000      0.000
REMARK SMILES C[N@H+]1CCO[C@H](C[C@@H](NC(=O)OC(C)(C)C)C(=O)NCCCNC(=O)c2ccc(-c3c4nc(c(-c5c(F)cccc5F)c5ccc([nH]5)c(-c5c(F)cccc5F)c5nc(c(-c6c(F)cccc6F)c6ccc3[nH]6)C=C5)C=C4)cc2)C1
REMARK SMILES IDX 20 1 19 2 17 3 18 4 8 6 7 7 6 8 1 9 2 10 3 11 80 12 4 14
REMARK SMILES IDX 5 15 9 16 10 17 11 19 12 20 13 21 14 22 15 23 16 24 21 25
REMARK SMILES IDX 22 26 23 27 24 28 25 30 26 31 27 32 79 33 28 34 78 35 29 36
REMARK SMILES IDX 30 37 31 38 72 39 32 40 77 41 71 42 73 43 33 44 76 45 70 46
REMARK SMILES IDX 69 47 34 49 60 50 43 51 59 52 44 53 47 54 58 55 74 56 45 57
REMARK SMILES IDX 46 58 57 60 75 61 48 62 35 63 36 64 41 65 37 66 38 67 40 68
REMARK SMILES IDX 42 69 39 70 61 71 62 72 67 73 63 74 64 75 66 76 68 77 65 78
REMARK SMILES IDX 49 79 50 80 55 81 51 82 52 83 54 84 56 85 53 86
REMARK H PARENT 19 5 2 13 9 18 23 29 73 48 47 59
REMARK Flexibility Score: inf
ROOT
ATOM      1  C   UNL A   1      32.233  27.008  26.203  1.00  0.00     0.117 C 
ENDROOT
BRANCH   1   2
ATOM      2  N   UNL A   1      31.503  25.869  26.729  1.00  0.00    -0.354 N 
ATOM      3  C   UNL A   1      31.845  24.545  26.693  1.00  0.00     0.242 C 
ATOM      4  O   UNL A   1      31.071  23.738  27.214  1.00  0.00    -0.273 OA
ATOM      5  H   UNL A   1      30.649  26.077  27.171  1.00  0.00     0.163 HD
BRANCH   3   6
ATOM      6  C   UNL A   1      33.048  24.074  25.846  1.00  0.00     0.177 C 
BRANCH   6   7
ATOM      7  C   UNL A   1      33.906  23.250  26.844  1.00  0.00     0.073 C 
BRANCH   7   8
ATOM      8  C   UNL A   1      35.237  22.699  26.341  1.00  0.00     0.176 C 
ATOM      9  C   UNL A   1      38.325  23.132  25.980  1.00  0.00     0.332 C 
ATOM     10  N   UNL A   1      37.275  23.395  24.999  1.00  0.00    -0.333 N 
ATOM     11  C   UNL A   1      36.992  22.213  24.159  1.00  0.00     0.290 C 
ATOM     12  C   UNL A   1      36.016  23.833  25.624  1.00  0.00     0.294 C 
ATOM     13  H   UNL A   1      37.637  24.149  24.416  1.00  0.00     0.348 HD
ATOM     14  C   UNL A   1      36.184  21.110  24.871  1.00  0.00     0.222 C 
ATOM     15  O   UNL A   1      34.971  21.613  25.449  1.00  0.00    -0.366 OA
ENDBRANCH   7   8
ENDBRANCH   6   7
BRANCH   6  16
ATOM     16  N   UNL A   1      32.711  23.332  24.621  1.00  0.00    -0.310 N 
ATOM     17  C   UNL A   1      33.108  23.603  23.339  1.00  0.00     0.408 C 
ATOM     18  H   UNL A   1      32.131  22.545  24.738  1.00  0.00     0.167 HD
ATOM     19  O   UNL A   1      33.035  22.741  22.471  1.00  0.00    -0.225 OA
BRANCH  17  20
ATOM     20  O   UNL A   1      33.447  24.893  23.138  1.00  0.00    -0.444 OA
BRANCH  20  21
ATOM     21  C   UNL A   1      32.612  25.814  22.385  1.00  0.00     0.106 C 
ATOM     22  C   UNL A   1      32.689  25.517  20.888  1.00  0.00     0.056 C 
ATOM     23  C   UNL A   1      31.156  25.831  22.876  1.00  0.00     0.056 C 
ATOM     24  C   UNL A   1      33.221  27.201  22.656  1.00  0.00     0.056 C 
ENDBRANCH  20  21
ENDBRANCH  17  20
ENDBRANCH   6  16
ENDBRANCH   3   6
ENDBRANCH   1   2
BRANCH   1  25
ATOM     25  C   UNL A   1      32.382  28.115  27.223  1.00  0.00     0.042 C 
BRANCH  25  26
ATOM     26  C   UNL A   1      33.769  28.733  27.231  1.00  0.00     0.118 C 
BRANCH  26  27
ATOM     27  N   UNL A   1      33.787  30.089  27.766  1.00  0.00    -0.352 N 
ATOM     28  C   UNL A   1      34.791  30.741  28.439  1.00  0.00     0.251 C 
ATOM     29  H   UNL A   1      32.965  30.611  27.625  1.00  0.00     0.163 HD
ATOM     30  O   UNL A   1      34.587  31.827  28.968  1.00  0.00    -0.269 OA
BRANCH  28  31
ATOM     31  C   UNL A   1      36.113  30.095  28.543  1.00  0.00     0.039 A 
ATOM     32  C   UNL A   1      37.005  30.186  27.474  1.00  0.00     0.014 A 
ATOM     33  C   UNL A   1      36.488  29.460  29.730  1.00  0.00     0.014 A 
ATOM     34  C   UNL A   1      38.308  29.714  27.629  1.00  0.00     0.010 A 
ATOM     35  C   UNL A   1      37.811  29.090  29.919  1.00  0.00     0.010 A 
ATOM     36  C   UNL A   1      38.733  29.208  28.868  1.00  0.00    -0.014 A 
BRANCH  36  37
ATOM     37  C   UNL A   1      40.138  28.791  29.098  1.00  0.00     0.031 A 
ATOM     38  C   UNL A   1      41.117  29.763  29.692  1.00  0.00     0.074 A 
ATOM     39  C   UNL A   1      40.550  27.578  28.681  1.00  0.00     0.049 A 
ATOM     40  N   UNL A   1      42.405  29.630  29.879  1.00  0.00    -0.248 NA
ATOM     41  C   UNL A   1      40.586  31.077  30.093  1.00  0.00     0.031 C 
ATOM     42  C   UNL A   1      39.708  26.575  28.024  1.00  0.00     0.029 A 
ATOM     43  N   UNL A   1      41.788  26.989  28.733  1.00  0.00    -0.354 N 
ATOM     44  C   UNL A   1      42.838  30.845  30.391  1.00  0.00     0.074 A 
ATOM     45  C   UNL A   1      41.691  31.724  30.431  1.00  0.00     0.031 C 
ATOM     46  C   UNL A   1      40.449  25.489  27.753  1.00  0.00     0.029 A 
ATOM     47  C   UNL A   1      41.823  25.732  28.180  1.00  0.00     0.049 A 
ATOM     48  H   UNL A   1      42.575  27.426  29.129  1.00  0.00     0.167 HD
ATOM     49  C   UNL A   1      44.077  31.191  30.814  1.00  0.00     0.037 A 
ATOM     50  C   UNL A   1      42.851  24.876  28.027  1.00  0.00     0.037 A 
ATOM     51  C   UNL A   1      45.205  30.299  30.807  1.00  0.00     0.049 A 
ATOM     52  C   UNL A   1      44.212  25.270  28.529  1.00  0.00     0.074 A 
ATOM     53  C   UNL A   1      46.479  30.517  31.298  1.00  0.00     0.029 A 
ATOM     54  N   UNL A   1      45.192  29.017  30.278  1.00  0.00    -0.354 N 
ATOM     55  N   UNL A   1      44.589  26.392  29.096  1.00  0.00    -0.248 NA
ATOM     56  C   UNL A   1      45.287  24.282  28.377  1.00  0.00     0.031 C 
ATOM     57  C   UNL A   1      47.251  29.384  31.024  1.00  0.00     0.029 A 
ATOM     58  C   UNL A   1      46.445  28.441  30.406  1.00  0.00     0.049 A 
ATOM     59  H   UNL A   1      44.409  28.581  29.872  1.00  0.00     0.167 HD
ATOM     60  C   UNL A   1      45.938  26.236  29.387  1.00  0.00     0.074 A 
ATOM     61  C   UNL A   1      46.307  24.905  28.949  1.00  0.00     0.031 C 
ATOM     62  C   UNL A   1      46.793  27.115  29.964  1.00  0.00     0.037 A 
BRANCH  49  63
ATOM     63  C   UNL A   1      44.270  32.592  31.319  1.00  0.00     0.057 A 
ATOM     64  C   UNL A   1      44.221  32.900  32.685  1.00  0.00     0.134 A 
ATOM     65  C   UNL A   1      44.524  33.642  30.429  1.00  0.00     0.134 A 
ATOM     66  F   UNL A   1      43.967  31.943  33.591  1.00  0.00    -0.206 F 
ATOM     67  C   UNL A   1      44.387  34.207  33.146  1.00  0.00     0.040 A 
ATOM     68  C   UNL A   1      44.721  34.949  30.880  1.00  0.00     0.040 A 
ATOM     69  F   UNL A   1      44.589  33.417  29.109  1.00  0.00    -0.206 F 
ATOM     70  C   UNL A   1      44.645  35.235  32.241  1.00  0.00     0.006 A 
ENDBRANCH  49  63
BRANCH  50  71
ATOM     71  C   UNL A   1      42.625  23.555  27.390  1.00  0.00     0.057 A 
ATOM     72  C   UNL A   1      42.226  22.447  28.147  1.00  0.00     0.134 A 
ATOM     73  C   UNL A   1      42.790  23.369  26.013  1.00  0.00     0.134 A 
ATOM     74  F   UNL A   1      42.066  22.558  29.473  1.00  0.00    -0.206 F 
ATOM     75  C   UNL A   1      42.015  21.197  27.559  1.00  0.00     0.040 A 
ATOM     76  C   UNL A   1      42.559  22.132  25.408  1.00  0.00     0.040 A 
ATOM     77  F   UNL A   1      43.160  24.394  25.230  1.00  0.00    -0.206 F 
ATOM     78  C   UNL A   1      42.177  21.040  26.184  1.00  0.00     0.006 A 
ENDBRANCH  50  71
BRANCH  62  79
ATOM     79  C   UNL A   1      48.206  26.658  30.175  1.00  0.00     0.057 A 
ATOM     80  C   UNL A   1      48.587  25.941  31.316  1.00  0.00     0.134 A 
ATOM     81  C   UNL A   1      49.186  26.900  29.203  1.00  0.00     0.134 A 
ATOM     82  F   UNL A   1      47.700  25.689  32.289  1.00  0.00    -0.206 F 
ATOM     83  C   UNL A   1      49.899  25.496  31.491  1.00  0.00     0.040 A 
ATOM     84  C   UNL A   1      50.493  26.436  29.355  1.00  0.00     0.040 A 
ATOM     85  F   UNL A   1      48.884  27.573  28.083  1.00  0.00    -0.206 F 
ATOM     86  C   UNL A   1      50.853  25.736  30.504  1.00  0.00     0.006 A 
ENDBRANCH  62  79
ENDBRANCH  36  37
ENDBRANCH  28  31
ENDBRANCH  26  27
ENDBRANCH  25  26
ENDBRANCH   1  25
TORSDOF 15
ENDMDL
MODEL 2
REMARK VINA RESULT:     -10.7      1.909      4.097
REMARK SMILES C[N@H+]1CCO[C@H](C[C@@H](NC(=O)OC(C)(C)C)C(=O)NCCCNC(=O)c2ccc(-c3c4nc(c(-c5c(F)cccc5F)c5ccc([nH]5)c(-c5c(F)cccc5F)c5nc(c(-c6c(F)cccc6F)c6ccc3[nH]6)C=C5)C=C4)cc2)C1
REMARK SMILES IDX 20 1 19 2 17 3 18 4 8 6 7 7 6 8 1 9 2 10 3 11 80 12 4 14
REMARK SMILES IDX 5 15 9 16 10 17 11 19 12 20 13 21 14 22 15 23 16 24 21 25
REMARK SMILES IDX 22 26 23 27 24 28 25 30 26 31 27 32 79 33 28 34 78 35 29 36
REMARK SMILES IDX 30 37 31 38 72 39 32 40 77 41 71 42 73 43 33 44 76 45 70 46
REMARK SMILES IDX 69 47 34 49 60 50 43 51 59 52 44 53 47 54 58 55 74 56 45 57
REMARK SMILES IDX 46 58 57 60 75 61 48 62 35 63 36 64 41 65 37 66 38 67 40 68
REMARK SMILES IDX 42 69 39 70 61 71 62 72 67 73 63 74 64 75 66 76 68 77 65 78
REMARK SMILES IDX 49 79 50 80 55 81 51 82 52 83 54 84 56 85 53 86
REMARK H PARENT 19 5 2 13 9 18 23 29 73 48 47 59
REMARK Flexibility Score: inf
ROOT
ATOM      1  C   UNL A   1      31.819  27.793  26.124  1.00  0.00     0.117 C 
ENDROOT
BRANCH   1   2
ATOM      2  N   UNL A   1      32.375  28.593  25.048  1.00  0.00    -0.354 N 
ATOM      3  C   UNL A   1      32.255  28.410  23.697  1.00  0.00     0.242 C 
ATOM      4  O   UNL A   1      32.811  29.225  22.956  1.00  0.00    -0.273 OA
ATOM      5  H   UNL A   1      32.908  29.372  25.327  1.00  0.00     0.163 HD
BRANCH   3   6
ATOM      6  C   UNL A   1      31.627  27.113  23.140  1.00  0.00     0.177 C 
BRANCH   6   7
ATOM      7  C   UNL A   1      30.098  27.356  23.267  1.00  0.00     0.073 C 
BRANCH   7   8
ATOM      8  C   UNL A   1      29.577  28.752  22.938  1.00  0.00     0.176 C 
ATOM      9  C   UNL A   1      27.554  31.057  23.605  1.00  0.00     0.332 C 
ATOM     10  N   UNL A   1      27.402  30.012  22.596  1.00  0.00    -0.333 N 
ATOM     11  C   UNL A   1      27.965  30.413  21.291  1.00  0.00     0.290 C 
ATOM     12  C   UNL A   1      28.028  28.741  23.002  1.00  0.00     0.294 C 
ATOM     13  H   UNL A   1      26.395  29.873  22.506  1.00  0.00     0.348 HD
ATOM     14  C   UNL A   1      29.504  30.382  21.230  1.00  0.00     0.222 C 
ATOM     15  O   UNL A   1      30.038  29.113  21.633  1.00  0.00    -0.366 OA
ENDBRANCH   7   8
ENDBRANCH   6   7
BRANCH   6  16
ATOM     16  N   UNL A   1      32.043  26.739  21.780  1.00  0.00    -0.310 N 
ATOM     17  C   UNL A   1      32.945  25.777  21.412  1.00  0.00     0.408 C 
ATOM     18  H   UNL A   1      31.621  27.240  21.045  1.00  0.00     0.167 HD
ATOM     19  O   UNL A   1      32.959  25.344  20.266  1.00  0.00    -0.225 OA
BRANCH  17  20
ATOM     20  O   UNL A   1      33.841  25.478  22.376  1.00  0.00    -0.444 OA
BRANCH  20  21
ATOM     21  C   UNL A   1      33.798  24.235  23.127  1.00  0.00     0.106 C 
ATOM     22  C   UNL A   1      32.713  23.308  22.582  1.00  0.00     0.056 C 
ATOM     23  C   UNL A   1      35.161  23.526  23.181  1.00  0.00     0.056 C 
ATOM     24  C   UNL A   1      33.427  24.660  24.559  1.00  0.00     0.056 C 
ENDBRANCH  20  21
ENDBRANCH  17  20
ENDBRANCH   6  16
ENDBRANCH   3   6
ENDBRANCH   1   2
BRANCH   1  25
ATOM     25  C   UNL A   1      32.339  28.215  27.480  1.00  0.00     0.042 C 
BRANCH  25  26
ATOM     26  C   UNL A   1      33.732  28.815  27.421  1.00  0.00     0.118 C 
BRANCH  26  27
ATOM     27  N   UNL A   1      33.783  30.191  27.903  1.00  0.00    -0.352 N 
ATOM     28  C   UNL A   1      34.811  30.851  28.532  1.00  0.00     0.251 C 
ATOM     29  H   UNL A   1      32.967  30.720  27.759  1.00  0.00     0.163 HD
ATOM     30  O   UNL A   1      34.635  31.960  29.022  1.00  0.00    -0.269 OA
BRANCH  28  31
ATOM     31  C   UNL A   1      36.125  30.187  28.634  1.00  0.00     0.039 A 
ATOM     32  C   UNL A   1      36.989  30.210  27.539  1.00  0.00     0.014 A 
ATOM     33  C   UNL A   1      36.520  29.605  29.841  1.00  0.00     0.014 A 
ATOM     34  C   UNL A   1      38.288  29.723  27.684  1.00  0.00     0.010 A 
ATOM     35  C   UNL A   1      37.841  29.221  30.014  1.00  0.00     0.010 A 
ATOM     36  C   UNL A   1      38.737  29.271  28.936  1.00  0.00    -0.014 A 
BRANCH  36  37
ATOM     37  C   UNL A   1      40.140  28.840  29.150  1.00  0.00     0.031 A 
ATOM     38  C   UNL A   1      41.136  29.805  29.728  1.00  0.00     0.074 A 
ATOM     39  C   UNL A   1      40.534  27.622  28.735  1.00  0.00     0.049 A 
ATOM     40  N   UNL A   1      42.425  29.660  29.900  1.00  0.00    -0.248 NA
ATOM     41  C   UNL A   1      40.624  31.126  30.129  1.00  0.00     0.031 C 
ATOM     42  C   UNL A   1      39.675  26.625  28.092  1.00  0.00     0.029 A 
ATOM     43  N   UNL A   1      41.767  27.021  28.774  1.00  0.00    -0.354 N 
ATOM     44  C   UNL A   1      42.877  30.873  30.401  1.00  0.00     0.074 A 
ATOM     45  C   UNL A   1      41.739  31.763  30.451  1.00  0.00     0.031 C 
ATOM     46  C   UNL A   1      40.402  25.530  27.817  1.00  0.00     0.029 A 
ATOM     47  C   UNL A   1      41.783  25.760  28.226  1.00  0.00     0.049 A 
ATOM     48  H   UNL A   1      42.564  27.452  29.158  1.00  0.00     0.167 HD
ATOM     49  C   UNL A   1      44.123  31.208  30.807  1.00  0.00     0.037 A 
ATOM     50  C   UNL A   1      42.800  24.893  28.065  1.00  0.00     0.037 A 
ATOM     51  C   UNL A   1      45.243  30.305  30.791  1.00  0.00     0.049 A 
ATOM     52  C   UNL A   1      44.171  25.276  28.548  1.00  0.00     0.074 A 
ATOM     53  C   UNL A   1      46.525  30.513  31.266  1.00  0.00     0.029 A 
ATOM     54  N   UNL A   1      45.211  29.021  30.268  1.00  0.00    -0.354 N 
ATOM     55  N   UNL A   1      44.567  26.396  29.105  1.00  0.00    -0.248 NA
ATOM     56  C   UNL A   1      45.235  24.277  28.388  1.00  0.00     0.031 C 
ATOM     57  C   UNL A   1      47.282  29.370  30.987  1.00  0.00     0.029 A 
ATOM     58  C   UNL A   1      46.459  28.433  30.384  1.00  0.00     0.049 A 
ATOM     59  H   UNL A   1      44.418  28.590  29.873  1.00  0.00     0.167 HD
ATOM     60  C   UNL A   1      45.917  26.228  29.381  1.00  0.00     0.074 A 
ATOM     61  C   UNL A   1      46.268  24.892  28.945  1.00  0.00     0.031 C 
ATOM     62  C   UNL A   1      46.788  27.101  29.943  1.00  0.00     0.037 A 
BRANCH  49  63
ATOM     63  C   UNL A   1      44.337  32.609  31.304  1.00  0.00     0.057 A 
ATOM     64  C   UNL A   1      44.667  33.660  30.438  1.00  0.00     0.134 A 
ATOM     65  C   UNL A   1      44.193  32.913  32.663  1.00  0.00     0.134 A 
ATOM     66  F   UNL A   1      44.834  33.435  29.126  1.00  0.00    -0.206 F 
ATOM     67  C   UNL A   1      44.878  34.957  30.910  1.00  0.00     0.040 A 
ATOM     68  C   UNL A   1      44.373  34.212  33.143  1.00  0.00     0.040 A 
ATOM     69  F   UNL A   1      43.874  31.955  33.546  1.00  0.00    -0.206 F 
ATOM     70  C   UNL A   1      44.724  35.236  32.267  1.00  0.00     0.006 A 
ENDBRANCH  49  63
BRANCH  50  71
ATOM     71  C   UNL A   1      42.553  23.572  27.437  1.00  0.00     0.057 A 
ATOM     72  C   UNL A   1      42.642  23.403  26.051  1.00  0.00     0.134 A 
ATOM     73  C   UNL A   1      42.235  22.446  28.205  1.00  0.00     0.134 A 
ATOM     74  F   UNL A   1      42.928  24.447  25.260  1.00  0.00    -0.206 F 
ATOM     75  C   UNL A   1      42.406  22.164  25.448  1.00  0.00     0.040 A 
ATOM     76  C   UNL A   1      42.021  21.197  27.619  1.00  0.00     0.040 A 
ATOM     77  F   UNL A   1      42.146  22.539  29.540  1.00  0.00    -0.206 F 
ATOM     78  C   UNL A   1      42.100  21.056  26.235  1.00  0.00     0.006 A 
ENDBRANCH  50  71
BRANCH  62  79
ATOM     79  C   UNL A   1      48.199  26.631  30.139  1.00  0.00     0.057 A 
ATOM     80  C   UNL A   1      49.205  26.903  29.203  1.00  0.00     0.134 A 
ATOM     81  C   UNL A   1      48.563  25.937  31.301  1.00  0.00     0.134 A 
ATOM     82  F   UNL A   1      48.918  27.551  28.065  1.00  0.00    -0.206 F 
ATOM     83  C   UNL A   1      50.521  26.484  29.408  1.00  0.00     0.040 A 
ATOM     84  C   UNL A   1      49.881  25.538  31.528  1.00  0.00     0.040 A 
ATOM     85  F   UNL A   1      47.650  25.653  32.241  1.00  0.00    -0.206 F 
ATOM     86  C   UNL A   1      50.863  25.807  30.577  1.00  0.00     0.006 A 
ENDBRANCH  62  79
ENDBRANCH  36  37
ENDBRANCH  28  31
ENDBRANCH  26  27
ENDBRANCH  25  26
ENDBRANCH   1  25
TORSDOF 15
ENDMDL
MODEL 3
REMARK VINA RESULT:     -10.6      2.327      7.120
REMARK SMILES C[N@H+]1CCO[C@H](C[C@@H](NC(=O)OC(C)(C)C)C(=O)NCCCNC(=O)c2ccc(-c3c4nc(c(-c5c(F)cccc5F)c5ccc([nH]5)c(-c5c(F)cccc5F)c5nc(c(-c6c(F)cccc6F)c6ccc3[nH]6)C=C5)C=C4)cc2)C1
REMARK SMILES IDX 20 1 19 2 17 3 18 4 8 6 7 7 6 8 1 9 2 10 3 11 80 12 4 14
REMARK SMILES IDX 5 15 9 16 10 17 11 19 12 20 13 21 14 22 15 23 16 24 21 25
REMARK SMILES IDX 22 26 23 27 24 28 25 30 26 31 27 32 79 33 28 34 78 35 29 36
REMARK SMILES IDX 30 37 31 38 72 39 32 40 77 41 71 42 73 43 33 44 76 45 70 46
REMARK SMILES IDX 69 47 34 49 60 50 43 51 59 52 44 53 47 54 58 55 74 56 45 57
REMARK SMILES IDX 46 58 57 60 75 61 48 62 35 63 36 64 41 65 37 66 38 67 40 68
REMARK SMILES IDX 42 69 39 70 61 71 62 72 67 73 63 74 64 75 66 76 68 77 65 78
REMARK SMILES IDX 49 79 50 80 55 81 51 82 52 83 54 84 56 85 53 86
REMARK H PARENT 19 5 2 13 9 18 23 29 73 48 47 59
REMARK Flexibility Score: inf
ROOT
ATOM      1  C   UNL A   1      36.307  21.865  24.936  1.00  0.00     0.117 C 
ENDROOT
BRANCH   1   2
ATOM      2  N   UNL A   1      35.678  21.595  26.216  1.00  0.00    -0.354 N 
ATOM      3  C   UNL A   1      34.368  21.298  26.479  1.00  0.00     0.242 C 
ATOM      4  O   UNL A   1      34.051  21.095  27.654  1.00  0.00    -0.273 OA
ATOM      5  H   UNL A   1      36.273  21.629  26.999  1.00  0.00     0.163 HD
BRANCH   3   6
ATOM      6  C   UNL A   1      33.303  21.424  25.367  1.00  0.00     0.177 C 
BRANCH   6   7
ATOM      7  C   UNL A   1      33.621  20.241  24.412  1.00  0.00     0.073 C 
BRANCH   7   8
ATOM      8  C   UNL A   1      33.696  18.844  25.021  1.00  0.00     0.176 C 
ATOM      9  C   UNL A   1      35.339  16.197  25.402  1.00  0.00     0.332 C 
ATOM     10  N   UNL A   1      34.302  16.458  24.407  1.00  0.00    -0.333 N 
ATOM     11  C   UNL A   1      32.956  16.103  24.901  1.00  0.00     0.290 C 
ATOM     12  C   UNL A   1      34.281  17.865  23.970  1.00  0.00     0.294 C 
ATOM     13  H   UNL A   1      34.540  15.866  23.612  1.00  0.00     0.348 HD
ATOM     14  C   UNL A   1      32.370  17.105  25.915  1.00  0.00     0.222 C 
ATOM     15  O   UNL A   1      32.379  18.450  25.416  1.00  0.00    -0.366 OA
ENDBRANCH   7   8
ENDBRANCH   6   7
BRANCH   6  16
ATOM     16  N   UNL A   1      31.905  21.439  25.825  1.00  0.00    -0.310 N 
ATOM     17  C   UNL A   1      31.130  22.529  26.119  1.00  0.00     0.408 C 
ATOM     18  H   UNL A   1      31.475  20.561  25.933  1.00  0.00     0.167 HD
ATOM     19  O   UNL A   1      29.910  22.427  26.169  1.00  0.00    -0.225 OA
BRANCH  17  20
ATOM     20  O   UNL A   1      31.841  23.627  26.449  1.00  0.00    -0.444 OA
BRANCH  20  21
ATOM     21  C   UNL A   1      31.808  24.847  25.659  1.00  0.00     0.106 C 
ATOM     22  C   UNL A   1      31.689  24.528  24.170  1.00  0.00     0.056 C 
ATOM     23  C   UNL A   1      30.705  25.817  26.112  1.00  0.00     0.056 C 
ATOM     24  C   UNL A   1      33.168  25.518  25.925  1.00  0.00     0.056 C 
ENDBRANCH  20  21
ENDBRANCH  17  20
ENDBRANCH   6  16
ENDBRANCH   3   6
ENDBRANCH   1   2
BRANCH   1  25
ATOM     25  C   UNL A   1      37.463  20.931  24.657  1.00  0.00     0.042 C 
BRANCH  25  26
ATOM     26  C   UNL A   1      38.573  21.036  25.687  1.00  0.00     0.118 C 
BRANCH  26  27
ATOM     27  N   UNL A   1      39.474  19.889  25.675  1.00  0.00    -0.352 N 
ATOM     28  C   UNL A   1      40.810  19.834  25.992  1.00  0.00     0.251 C 
ATOM     29  H   UNL A   1      39.069  19.036  25.402  1.00  0.00     0.163 HD
ATOM     30  O   UNL A   1      41.463  18.821  25.771  1.00  0.00    -0.269 OA
BRANCH  28  31
ATOM     31  C   UNL A   1      41.453  21.028  26.572  1.00  0.00     0.039 A 
ATOM     32  C   UNL A   1      42.021  21.980  25.724  1.00  0.00     0.014 A 
ATOM     33  C   UNL A   1      41.428  21.231  27.954  1.00  0.00     0.014 A 
ATOM     34  C   UNL A   1      42.487  23.180  26.259  1.00  0.00     0.010 A 
ATOM     35  C   UNL A   1      41.793  22.465  28.470  1.00  0.00     0.010 A 
ATOM     36  C   UNL A   1      42.331  23.450  27.629  1.00  0.00    -0.014 A 
BRANCH  36  37
ATOM     37  C   UNL A   1      42.724  24.756  28.214  1.00  0.00     0.031 A 
ATOM     38  C   UNL A   1      41.684  25.815  28.440  1.00  0.00     0.074 A 
ATOM     39  C   UNL A   1      44.024  25.018  28.446  1.00  0.00     0.049 A 
ATOM     40  N   UNL A   1      41.835  27.050  28.844  1.00  0.00    -0.248 NA
ATOM     41  C   UNL A   1      40.290  25.451  28.133  1.00  0.00     0.031 C 
ATOM     42  C   UNL A   1      45.134  24.095  28.197  1.00  0.00     0.029 A 
ATOM     43  N   UNL A   1      44.636  26.148  28.928  1.00  0.00    -0.354 N 
ATOM     44  C   UNL A   1      40.566  27.614  28.813  1.00  0.00     0.074 A 
ATOM     45  C   UNL A   1      39.666  26.608  28.295  1.00  0.00     0.031 C 
ATOM     46  C   UNL A   1      46.287  24.688  28.547  1.00  0.00     0.029 A 
ATOM     47  C   UNL A   1      46.003  26.043  29.007  1.00  0.00     0.049 A 
ATOM     48  H   UNL A   1      44.140  26.956  29.191  1.00  0.00     0.167 HD
ATOM     49  C   UNL A   1      40.182  28.851  29.204  1.00  0.00     0.037 A 
ATOM     50  C   UNL A   1      46.925  26.944  29.398  1.00  0.00     0.037 A 
ATOM     51  C   UNL A   1      41.076  29.833  29.754  1.00  0.00     0.049 A 
ATOM     52  C   UNL A   1      46.472  28.303  29.854  1.00  0.00     0.074 A 
ATOM     53  C   UNL A   1      40.775  31.081  30.268  1.00  0.00     0.029 A 
ATOM     54  N   UNL A   1      42.450  29.676  29.859  1.00  0.00    -0.354 N 
ATOM     55  N   UNL A   1      45.256  28.793  29.905  1.00  0.00    -0.248 NA
ATOM     56  C   UNL A   1      47.513  29.230  30.312  1.00  0.00     0.031 C 
ATOM     57  C   UNL A   1      41.974  31.699  30.640  1.00  0.00     0.029 A 
ATOM     58  C   UNL A   1      43.015  30.816  30.404  1.00  0.00     0.049 A 
ATOM     59  H   UNL A   1      42.950  28.873  29.586  1.00  0.00     0.167 HD
ATOM     60  C   UNL A   1      45.384  30.076  30.420  1.00  0.00     0.074 A 
ATOM     61  C   UNL A   1      46.795  30.281  30.680  1.00  0.00     0.031 C 
ATOM     62  C   UNL A   1      44.422  31.001  30.655  1.00  0.00     0.037 A 
BRANCH  49  63
ATOM     63  C   UNL A   1      38.730  29.205  29.051  1.00  0.00     0.057 A 
ATOM     64  C   UNL A   1      38.193  29.615  27.823  1.00  0.00     0.134 A 
ATOM     65  C   UNL A   1      37.856  29.119  30.141  1.00  0.00     0.134 A 
ATOM     66  F   UNL A   1      38.978  29.733  26.741  1.00  0.00    -0.206 F 
ATOM     67  C   UNL A   1      36.846  29.957  27.692  1.00  0.00     0.040 A 
ATOM     68  C   UNL A   1      36.501  29.430  30.017  1.00  0.00     0.040 A 
ATOM     69  F   UNL A   1      38.303  28.730  31.344  1.00  0.00    -0.206 F 
ATOM     70  C   UNL A   1      35.994  29.858  28.791  1.00  0.00     0.006 A 
ENDBRANCH  49  63
BRANCH  50  71
ATOM     71  C   UNL A   1      48.363  26.579  29.395  1.00  0.00     0.057 A 
ATOM     72  C   UNL A   1      49.185  26.887  28.305  1.00  0.00     0.134 A 
ATOM     73  C   UNL A   1      48.954  25.925  30.483  1.00  0.00     0.134 A 
ATOM     74  F   UNL A   1      48.674  27.500  27.227  1.00  0.00    -0.206 F 
ATOM     75  C   UNL A   1      50.539  26.545  28.289  1.00  0.00     0.040 A 
ATOM     76  C   UNL A   1      50.311  25.599  30.491  1.00  0.00     0.040 A 
ATOM     77  F   UNL A   1      48.223  25.612  31.563  1.00  0.00    -0.206 F 
ATOM     78  C   UNL A   1      51.105  25.903  29.388  1.00  0.00     0.006 A 
ENDBRANCH  50  71
BRANCH  62  79
ATOM     79  C   UNL A   1      44.859  32.310  31.243  1.00  0.00     0.057 A 
ATOM     80  C   UNL A   1      44.957  32.502  32.627  1.00  0.00     0.134 A 
ATOM     81  C   UNL A   1      45.231  33.375  30.412  1.00  0.00     0.134 A 
ATOM     82  F   UNL A   1      44.603  31.526  33.476  1.00  0.00    -0.206 F 
ATOM     83  C   UNL A   1      45.391  33.715  33.164  1.00  0.00     0.040 A 
ATOM     84  C   UNL A   1      45.692  34.582  30.938  1.00  0.00     0.040 A 
ATOM     85  F   UNL A   1      45.170  33.253  29.078  1.00  0.00    -0.206 F 
ATOM     86  C   UNL A   1      45.768  34.756  32.318  1.00  0.00     0.006 A 
ENDBRANCH  62  79
ENDBRANCH  36  37
ENDBRANCH  28  31
ENDBRANCH  26  27
ENDBRANCH  25  26
ENDBRANCH   1  25
TORSDOF 15
ENDMDL
