MODEL 1
REMARK VINA RESULT:     -12.4      0.000      0.000
REMARK SMILES Cc1nn(C)cc1-c1cc(C(F)(F)F)nc(N2CCC[C@@H]2C(=O)NCCCNC(=O)c2ccc(-c3c4nc(c(-c5c(F)cccc5F)c5ccc([nH]5)c(-c5c(F)cccc5F)c5nc(c(-c6c(F)cccc6F)c6ccc3[nH]6)C=C5)C=C4)cc2)n1
REMARK SMILES IDX 26 1 25 2 24 3 22 4 23 5 21 7 17 8 18 9 19 10 20 11 16 12
REMARK SMILES IDX 8 13 9 14 85 15 10 16 15 17 7 18 1 19 2 20 3 21 4 22 6 23
REMARK SMILES IDX 5 24 11 25 12 26 13 27 14 28 27 29 28 30 29 31 30 33 31 34
REMARK SMILES IDX 32 35 84 36 33 37 83 38 34 39 35 40 36 41 77 42 37 43 82 44
REMARK SMILES IDX 76 45 78 46 38 47 81 48 75 49 74 50 39 52 65 53 48 54 64 55
REMARK SMILES IDX 49 56 52 57 63 58 79 59 50 60 51 61 62 63 80 64 53 65 40 66
REMARK SMILES IDX 41 67 46 68 42 69 43 70 45 71 47 72 44 73 66 74 67 75 72 76
REMARK SMILES IDX 68 77 69 78 71 79 73 80 70 81 54 82 55 83 60 84 56 85 57 86
REMARK SMILES IDX 59 87 61 88 58 89
REMARK H PARENT 24 6 28 32 78 51 52 62
REMARK Flexibility Score: inf
ROOT
ATOM      1  C   UNL A   1      35.666  23.514  24.792  1.00  0.00     0.042 C 
ENDROOT
BRANCH   1   2
ATOM      2  C   UNL A   1      34.545  24.542  24.725  1.00  0.00     0.117 C 
BRANCH   2   3
ATOM      3  N   UNL A   1      34.450  25.168  23.419  1.00  0.00    -0.354 N 
ATOM      4  C   UNL A   1      33.409  25.283  22.546  1.00  0.00     0.242 C 
ATOM      5  O   UNL A   1      33.654  25.876  21.487  1.00  0.00    -0.273 OA
ATOM      6  H   UNL A   1      35.287  25.585  23.109  1.00  0.00     0.163 HD
BRANCH   4   7
ATOM      7  C   UNL A   1      32.019  24.649  22.777  1.00  0.00     0.174 C 
ATOM      8  N   UNL A   1      31.342  25.089  23.987  1.00  0.00    -0.329 N 
ATOM      9  C   UNL A   1      30.842  24.013  24.805  1.00  0.00     0.120 C 
ATOM     10  C   UNL A   1      31.665  22.810  24.355  1.00  0.00     0.024 C 
ATOM     11  C   UNL A   1      32.088  23.122  22.920  1.00  0.00     0.037 C 
BRANCH   8  12
ATOM     12  C   UNL A   1      31.175  26.402  24.281  1.00  0.00     0.227 A 
ATOM     13  C   UNL A   1      30.332  28.466  23.774  1.00  0.00     0.080 A 
ATOM     14  C   UNL A   1      31.127  29.083  24.711  1.00  0.00     0.062 A 
ATOM     15  N   UNL A   1      30.373  27.145  23.520  1.00  0.00    -0.213 NA
ATOM     16  C   UNL A   1      31.944  28.252  25.444  1.00  0.00     0.150 A 
ATOM     17  N   UNL A   1      31.933  26.908  25.264  1.00  0.00    -0.208 NA
BRANCH  13  18
ATOM     18  C   UNL A   1      29.345  29.234  23.046  1.00  0.00     0.041 A 
ATOM     19  C   UNL A   1      27.027  28.133  23.582  1.00  0.00     0.069 C 
ATOM     20  C   UNL A   1      27.939  29.089  22.909  1.00  0.00     0.069 A 
ATOM     21  N   UNL A   1      27.437  29.969  22.030  1.00  0.00    -0.178 NA
ATOM     22  N   UNL A   1      28.506  30.684  21.635  1.00  0.00    -0.275 N 
ATOM     23  C   UNL A   1      29.670  30.288  22.219  1.00  0.00     0.119 A 
ATOM     24  C   UNL A   1      28.341  31.718  20.644  1.00  0.00     0.173 C 
ENDBRANCH  13  18
BRANCH  16  25
ATOM     25  C   UNL A   1      32.939  28.839  26.427  1.00  0.00     0.433 C 
ATOM     26  F   UNL A   1      32.367  29.272  27.585  1.00  0.00    -0.165 F 
ATOM     27  F   UNL A   1      33.899  27.939  26.793  1.00  0.00    -0.165 F 
ATOM     28  F   UNL A   1      33.620  29.913  25.930  1.00  0.00    -0.165 F 
ENDBRANCH  16  25
ENDBRANCH   8  12
ENDBRANCH   4   7
ENDBRANCH   2   3
ENDBRANCH   1   2
BRANCH   1  29
ATOM     29  C   UNL A   1      36.454  23.552  26.094  1.00  0.00     0.118 C 
BRANCH  29  30
ATOM     30  N   UNL A   1      37.569  22.616  26.096  1.00  0.00    -0.352 N 
ATOM     31  C   UNL A   1      38.904  22.826  26.316  1.00  0.00     0.251 C 
ATOM     32  H   UNL A   1      37.325  21.681  25.909  1.00  0.00     0.163 HD
ATOM     33  O   UNL A   1      39.702  21.911  26.095  1.00  0.00    -0.269 OA
BRANCH  31  34
ATOM     34  C   UNL A   1      39.410  24.127  26.802  1.00  0.00     0.039 A 
ATOM     35  C   UNL A   1      39.250  24.442  28.155  1.00  0.00     0.014 A 
ATOM     36  C   UNL A   1      39.974  25.066  25.933  1.00  0.00     0.014 A 
ATOM     37  C   UNL A   1      39.679  25.679  28.641  1.00  0.00     0.010 A 
ATOM     38  C   UNL A   1      40.471  26.268  26.431  1.00  0.00     0.010 A 
ATOM     39  C   UNL A   1      40.307  26.597  27.785  1.00  0.00    -0.014 A 
BRANCH  39  40
ATOM     40  C   UNL A   1      40.744  27.926  28.275  1.00  0.00     0.031 A 
ATOM     41  C   UNL A   1      42.209  28.263  28.325  1.00  0.00     0.074 A 
ATOM     42  C   UNL A   1      39.831  28.813  28.714  1.00  0.00     0.049 A 
ATOM     43  N   UNL A   1      42.797  29.343  28.774  1.00  0.00    -0.248 NA
ATOM     44  C   UNL A   1      43.141  27.234  27.834  1.00  0.00     0.031 C 
ATOM     45  C   UNL A   1      38.385  28.590  28.756  1.00  0.00     0.029 A 
ATOM     46  N   UNL A   1      39.988  30.079  29.216  1.00  0.00    -0.354 N 
ATOM     47  C   UNL A   1      44.160  29.114  28.639  1.00  0.00     0.074 A 
ATOM     48  C   UNL A   1      44.316  27.777  28.112  1.00  0.00     0.031 C 
ATOM     49  C   UNL A   1      37.785  29.693  29.235  1.00  0.00     0.029 A 
ATOM     50  C   UNL A   1      38.805  30.686  29.560  1.00  0.00     0.049 A 
ATOM     51  H   UNL A   1      40.865  30.513  29.321  1.00  0.00     0.167 HD
ATOM     52  C   UNL A   1      45.191  29.952  28.907  1.00  0.00     0.037 A 
ATOM     53  C   UNL A   1      38.570  31.907  30.076  1.00  0.00     0.037 A 
ATOM     54  C   UNL A   1      45.033  31.297  29.392  1.00  0.00     0.049 A 
ATOM     55  C   UNL A   1      39.728  32.830  30.334  1.00  0.00     0.074 A 
ATOM     56  C   UNL A   1      46.010  32.245  29.645  1.00  0.00     0.029 A 
ATOM     57  N   UNL A   1      43.815  31.889  29.688  1.00  0.00    -0.354 N 
ATOM     58  N   UNL A   1      41.010  32.621  30.153  1.00  0.00    -0.248 NA
ATOM     59  C   UNL A   1      39.405  34.165  30.857  1.00  0.00     0.031 C 
ATOM     60  C   UNL A   1      45.382  33.402  30.120  1.00  0.00     0.029 A 
ATOM     61  C   UNL A   1      44.014  33.187  30.128  1.00  0.00     0.049 A 
ATOM     62  H   UNL A   1      42.937  31.451  29.600  1.00  0.00     0.167 HD
ATOM     63  C   UNL A   1      41.642  33.804  30.509  1.00  0.00     0.074 A 
ATOM     64  C   UNL A   1      40.603  34.731  30.908  1.00  0.00     0.031 C 
ATOM     65  C   UNL A   1      42.965  34.099  30.505  1.00  0.00     0.037 A 
BRANCH  52  66
ATOM     66  C   UNL A   1      46.579  29.434  28.671  1.00  0.00     0.057 A 
ATOM     67  C   UNL A   1      47.219  29.576  27.434  1.00  0.00     0.134 A 
ATOM     68  C   UNL A   1      47.292  28.804  29.699  1.00  0.00     0.134 A 
ATOM     69  F   UNL A   1      46.586  30.157  26.403  1.00  0.00    -0.206 F 
ATOM     70  C   UNL A   1      48.509  29.085  27.217  1.00  0.00     0.040 A 
ATOM     71  C   UNL A   1      48.590  28.333  29.503  1.00  0.00     0.040 A 
ATOM     72  F   UNL A   1      46.740  28.641  30.910  1.00  0.00    -0.206 F 
ATOM     73  C   UNL A   1      49.200  28.466  28.256  1.00  0.00     0.006 A 
ENDBRANCH  52  66
BRANCH  53  74
ATOM     74  C   UNL A   1      37.178  32.343  30.344  1.00  0.00     0.057 A 
ATOM     75  C   UNL A   1      36.457  33.070  29.390  1.00  0.00     0.134 A 
ATOM     76  C   UNL A   1      36.539  32.048  31.554  1.00  0.00     0.134 A 
ATOM     77  F   UNL A   1      37.024  33.396  28.220  1.00  0.00    -0.206 F 
ATOM     78  C   UNL A   1      35.154  33.505  29.636  1.00  0.00     0.040 A 
ATOM     79  C   UNL A   1      35.228  32.459  31.804  1.00  0.00     0.040 A 
ATOM     80  F   UNL A   1      37.175  31.348  32.503  1.00  0.00    -0.206 F 
ATOM     81  C   UNL A   1      34.534  33.196  30.846  1.00  0.00     0.006 A 
ENDBRANCH  53  74
BRANCH  65  82
ATOM     82  C   UNL A   1      43.357  35.490  30.901  1.00  0.00     0.057 A 
ATOM     83  C   UNL A   1      43.614  35.836  32.232  1.00  0.00     0.134 A 
ATOM     84  C   UNL A   1      43.511  36.488  29.929  1.00  0.00     0.134 A 
ATOM     85  F   UNL A   1      43.471  34.929  33.210  1.00  0.00    -0.206 F 
ATOM     86  C   UNL A   1      43.988  37.133  32.588  1.00  0.00     0.040 A 
ATOM     87  C   UNL A   1      43.907  37.781  30.269  1.00  0.00     0.040 A 
ATOM     88  F   UNL A   1      43.288  36.218  28.634  1.00  0.00    -0.206 F 
ATOM     89  C   UNL A   1      44.142  38.108  31.604  1.00  0.00     0.006 A 
ENDBRANCH  65  82
ENDBRANCH  39  40
ENDBRANCH  31  34
ENDBRANCH  29  30
ENDBRANCH   1  29
TORSDOF 13
ENDMDL
MODEL 2
REMARK VINA RESULT:     -12.4      3.330      8.385
REMARK SMILES Cc1nn(C)cc1-c1cc(C(F)(F)F)nc(N2CCC[C@@H]2C(=O)NCCCNC(=O)c2ccc(-c3c4nc(c(-c5c(F)cccc5F)c5ccc([nH]5)c(-c5c(F)cccc5F)c5nc(c(-c6c(F)cccc6F)c6ccc3[nH]6)C=C5)C=C4)cc2)n1
REMARK SMILES IDX 26 1 25 2 24 3 22 4 23 5 21 7 17 8 18 9 19 10 20 11 16 12
REMARK SMILES IDX 8 13 9 14 85 15 10 16 15 17 7 18 1 19 2 20 3 21 4 22 6 23
REMARK SMILES IDX 5 24 11 25 12 26 13 27 14 28 27 29 28 30 29 31 30 33 31 34
REMARK SMILES IDX 32 35 84 36 33 37 83 38 34 39 35 40 36 41 77 42 37 43 82 44
REMARK SMILES IDX 76 45 78 46 38 47 81 48 75 49 74 50 39 52 65 53 48 54 64 55
REMARK SMILES IDX 49 56 52 57 63 58 79 59 50 60 51 61 62 63 80 64 53 65 40 66
REMARK SMILES IDX 41 67 46 68 42 69 43 70 45 71 47 72 44 73 66 74 67 75 72 76
REMARK SMILES IDX 68 77 69 78 71 79 73 80 70 81 54 82 55 83 60 84 56 85 57 86
REMARK SMILES IDX 59 87 61 88 58 89
REMARK H PARENT 24 6 28 32 78 51 52 62
REMARK Flexibility Score: inf
ROOT
ATOM      1  C   UNL A   1      32.489  27.916  26.897  1.00  0.00     0.042 C 
ENDROOT
BRANCH   1   2
ATOM      2  C   UNL A   1      32.510  26.627  26.087  1.00  0.00     0.117 C 
BRANCH   2   3
ATOM      3  N   UNL A   1      31.860  25.530  26.780  1.00  0.00    -0.354 N 
ATOM      4  C   UNL A   1      31.087  24.504  26.323  1.00  0.00     0.242 C 
ATOM      5  O   UNL A   1      30.662  23.721  27.184  1.00  0.00    -0.273 OA
ATOM      6  H   UNL A   1      32.005  25.526  27.754  1.00  0.00     0.163 HD
BRANCH   4   7
ATOM      7  C   UNL A   1      30.662  24.339  24.847  1.00  0.00     0.174 C 
ATOM      8  N   UNL A   1      31.763  24.177  23.910  1.00  0.00    -0.329 N 
ATOM      9  C   UNL A   1      31.698  25.055  22.770  1.00  0.00     0.120 C 
ATOM     10  C   UNL A   1      30.780  26.181  23.237  1.00  0.00     0.024 C 
ATOM     11  C   UNL A   1      29.896  25.560  24.318  1.00  0.00     0.037 C 
BRANCH   8  12
ATOM     12  C   UNL A   1      32.733  23.249  24.095  1.00  0.00     0.227 A 
ATOM     13  C   UNL A   1      33.379  21.084  24.449  1.00  0.00     0.080 A 
ATOM     14  C   UNL A   1      34.658  21.461  24.788  1.00  0.00     0.062 A 
ATOM     15  N   UNL A   1      32.403  21.958  24.144  1.00  0.00    -0.213 NA
ATOM     16  C   UNL A   1      34.917  22.812  24.734  1.00  0.00     0.150 A 
ATOM     17  N   UNL A   1      33.971  23.701  24.340  1.00  0.00    -0.208 NA
BRANCH  13  18
ATOM     18  C   UNL A   1      33.044  19.680  24.347  1.00  0.00     0.041 A 
ATOM     19  C   UNL A   1      32.156  19.319  21.907  1.00  0.00     0.069 C 
ATOM     20  C   UNL A   1      32.480  18.911  23.295  1.00  0.00     0.069 A 
ATOM     21  N   UNL A   1      32.229  17.653  23.685  1.00  0.00    -0.178 NA
ATOM     22  N   UNL A   1      32.655  17.613  24.961  1.00  0.00    -0.275 N 
ATOM     23  C   UNL A   1      33.157  18.799  25.402  1.00  0.00     0.119 A 
ATOM     24  C   UNL A   1      32.503  16.399  25.723  1.00  0.00     0.173 C 
ENDBRANCH  13  18
BRANCH  16  25
ATOM     25  C   UNL A   1      36.261  23.346  25.190  1.00  0.00     0.433 C 
ATOM     26  F   UNL A   1      36.966  22.463  25.951  1.00  0.00    -0.165 F 
ATOM     27  F   UNL A   1      37.072  23.675  24.142  1.00  0.00    -0.165 F 
ATOM     28  F   UNL A   1      36.163  24.482  25.942  1.00  0.00    -0.165 F 
ENDBRANCH  16  25
ENDBRANCH   8  12
ENDBRANCH   4   7
ENDBRANCH   2   3
ENDBRANCH   1   2
BRANCH   1  29
ATOM     29  C   UNL A   1      33.849  28.589  27.012  1.00  0.00     0.118 C 
BRANCH  29  30
ATOM     30  N   UNL A   1      33.769  29.900  27.639  1.00  0.00    -0.352 N 
ATOM     31  C   UNL A   1      34.690  30.585  28.385  1.00  0.00     0.251 C 
ATOM     32  H   UNL A   1      32.915  30.372  27.506  1.00  0.00     0.163 HD
ATOM     33  O   UNL A   1      34.345  31.616  28.970  1.00  0.00    -0.269 OA
BRANCH  31  34
ATOM     34  C   UNL A   1      36.084  30.111  28.514  1.00  0.00     0.039 A 
ATOM     35  C   UNL A   1      36.488  29.546  29.728  1.00  0.00     0.014 A 
ATOM     36  C   UNL A   1      37.014  30.279  27.483  1.00  0.00     0.014 A 
ATOM     37  C   UNL A   1      37.809  29.126  29.898  1.00  0.00     0.010 A 
ATOM     38  C   UNL A   1      38.310  29.791  27.626  1.00  0.00     0.010 A 
ATOM     39  C   UNL A   1      38.727  29.232  28.843  1.00  0.00    -0.014 A 
BRANCH  39  40
ATOM     40  C   UNL A   1      40.141  28.817  29.014  1.00  0.00     0.031 A 
ATOM     41  C   UNL A   1      41.135  29.772  29.618  1.00  0.00     0.074 A 
ATOM     42  C   UNL A   1      40.541  27.603  28.590  1.00  0.00     0.049 A 
ATOM     43  N   UNL A   1      42.423  29.622  29.799  1.00  0.00    -0.248 NA
ATOM     44  C   UNL A   1      40.617  31.080  30.048  1.00  0.00     0.031 C 
ATOM     45  C   UNL A   1      39.683  26.604  27.950  1.00  0.00     0.029 A 
ATOM     46  N   UNL A   1      41.775  27.007  28.627  1.00  0.00    -0.354 N 
ATOM     47  C   UNL A   1      42.868  30.822  30.340  1.00  0.00     0.074 A 
ATOM     48  C   UNL A   1      41.726  31.704  30.415  1.00  0.00     0.031 C 
ATOM     49  C   UNL A   1      40.413  25.510  27.677  1.00  0.00     0.029 A 
ATOM     50  C   UNL A   1      41.792  25.742  28.095  1.00  0.00     0.049 A 
ATOM     51  H   UNL A   1      42.574  27.445  29.001  1.00  0.00     0.167 HD
ATOM     52  C   UNL A   1      44.114  31.150  30.760  1.00  0.00     0.037 A 
ATOM     53  C   UNL A   1      42.806  24.867  27.962  1.00  0.00     0.037 A 
ATOM     54  C   UNL A   1      45.241  30.257  30.724  1.00  0.00     0.049 A 
ATOM     55  C   UNL A   1      44.172  25.243  28.466  1.00  0.00     0.074 A 
ATOM     56  C   UNL A   1      46.532  30.476  31.173  1.00  0.00     0.029 A 
ATOM     57  N   UNL A   1      45.207  28.968  30.215  1.00  0.00    -0.354 N 
ATOM     58  N   UNL A   1      44.569  26.362  29.024  1.00  0.00    -0.248 NA
ATOM     59  C   UNL A   1      45.229  24.230  28.332  1.00  0.00     0.031 C 
ATOM     60  C   UNL A   1      47.286  29.327  30.911  1.00  0.00     0.029 A 
ATOM     61  C   UNL A   1      46.455  28.381  30.333  1.00  0.00     0.049 A 
ATOM     62  H   UNL A   1      44.413  28.534  29.826  1.00  0.00     0.167 HD
ATOM     63  C   UNL A   1      45.909  26.176  29.335  1.00  0.00     0.074 A 
ATOM     64  C   UNL A   1      46.255  24.835  28.913  1.00  0.00     0.031 C 
ATOM     65  C   UNL A   1      46.776  27.038  29.920  1.00  0.00     0.037 A 
BRANCH  52  66
ATOM     66  C   UNL A   1      44.315  32.535  31.303  1.00  0.00     0.057 A 
ATOM     67  C   UNL A   1      44.147  32.825  32.663  1.00  0.00     0.134 A 
ATOM     68  C   UNL A   1      44.699  33.585  30.460  1.00  0.00     0.134 A 
ATOM     69  F   UNL A   1      43.765  31.867  33.521  1.00  0.00    -0.206 F 
ATOM     70  C   UNL A   1      44.327  34.117  33.162  1.00  0.00     0.040 A 
ATOM     71  C   UNL A   1      44.908  34.874  30.951  1.00  0.00     0.040 A 
ATOM     72  F   UNL A   1      44.883  33.374  29.149  1.00  0.00    -0.206 F 
ATOM     73  C   UNL A   1      44.714  35.145  32.305  1.00  0.00     0.006 A 
ENDBRANCH  52  66
BRANCH  53  74
ATOM     74  C   UNL A   1      42.561  23.533  27.363  1.00  0.00     0.057 A 
ATOM     75  C   UNL A   1      42.204  22.441  28.162  1.00  0.00     0.134 A 
ATOM     76  C   UNL A   1      42.677  23.316  25.985  1.00  0.00     0.134 A 
ATOM     77  F   UNL A   1      42.094  22.585  29.491  1.00  0.00    -0.206 F 
ATOM     78  C   UNL A   1      41.990  21.175  27.615  1.00  0.00     0.040 A 
ATOM     79  C   UNL A   1      42.445  22.060  25.422  1.00  0.00     0.040 A 
ATOM     80  F   UNL A   1      43.008  24.325  25.167  1.00  0.00    -0.206 F 
ATOM     81  C   UNL A   1      42.107  20.983  26.240  1.00  0.00     0.006 A 
ENDBRANCH  53  74
BRANCH  65  82
ATOM     82  C   UNL A   1      48.166  26.541  30.178  1.00  0.00     0.057 A 
ATOM     83  C   UNL A   1      49.201  26.728  29.255  1.00  0.00     0.134 A 
ATOM     84  C   UNL A   1      48.477  25.896  31.382  1.00  0.00     0.134 A 
ATOM     85  F   UNL A   1      48.963  27.326  28.078  1.00  0.00    -0.206 F 
ATOM     86  C   UNL A   1      50.495  26.269  29.510  1.00  0.00     0.040 A 
ATOM     87  C   UNL A   1      49.771  25.453  31.658  1.00  0.00     0.040 A 
ATOM     88  F   UNL A   1      47.531  25.693  32.312  1.00  0.00    -0.206 F 
ATOM     89  C   UNL A   1      50.783  25.635  30.718  1.00  0.00     0.006 A 
ENDBRANCH  65  82
ENDBRANCH  39  40
ENDBRANCH  31  34
ENDBRANCH  29  30
ENDBRANCH   1  29
TORSDOF 13
ENDMDL
MODEL 3
REMARK VINA RESULT:     -12.2      1.552      2.100
REMARK SMILES Cc1nn(C)cc1-c1cc(C(F)(F)F)nc(N2CCC[C@@H]2C(=O)NCCCNC(=O)c2ccc(-c3c4nc(c(-c5c(F)cccc5F)c5ccc([nH]5)c(-c5c(F)cccc5F)c5nc(c(-c6c(F)cccc6F)c6ccc3[nH]6)C=C5)C=C4)cc2)n1
REMARK SMILES IDX 26 1 25 2 24 3 22 4 23 5 21 7 17 8 18 9 19 10 20 11 16 12
REMARK SMILES IDX 8 13 9 14 85 15 10 16 15 17 7 18 1 19 2 20 3 21 4 22 6 23
REMARK SMILES IDX 5 24 11 25 12 26 13 27 14 28 27 29 28 30 29 31 30 33 31 34
REMARK SMILES IDX 32 35 84 36 33 37 83 38 34 39 35 40 36 41 77 42 37 43 82 44
REMARK SMILES IDX 76 45 78 46 38 47 81 48 75 49 74 50 39 52 65 53 48 54 64 55
REMARK SMILES IDX 49 56 52 57 63 58 79 59 50 60 51 61 62 63 80 64 53 65 40 66
REMARK SMILES IDX 41 67 46 68 42 69 43 70 45 71 47 72 44 73 66 74 67 75 72 76
REMARK SMILES IDX 68 77 69 78 71 79 73 80 70 81 54 82 55 83 60 84 56 85 57 86
REMARK SMILES IDX 59 87 61 88 58 89
REMARK H PARENT 24 6 28 32 78 51 52 62
REMARK Flexibility Score: inf
ROOT
ATOM      1  C   UNL A   1      35.530  23.435  25.698  1.00  0.00     0.042 C 
ENDROOT
BRANCH   1   2
ATOM      2  C   UNL A   1      34.411  24.421  25.393  1.00  0.00     0.117 C 
BRANCH   2   3
ATOM      3  N   UNL A   1      34.512  24.974  24.056  1.00  0.00    -0.354 N 
ATOM      4  C   UNL A   1      33.593  25.093  23.056  1.00  0.00     0.242 C 
ATOM      5  O   UNL A   1      33.998  25.609  22.006  1.00  0.00    -0.273 OA
ATOM      6  H   UNL A   1      35.403  25.327  23.831  1.00  0.00     0.163 HD
BRANCH   4   7
ATOM      7  C   UNL A   1      32.149  24.549  23.145  1.00  0.00     0.174 C 
ATOM      8  N   UNL A   1      31.359  25.094  24.239  1.00  0.00    -0.329 N 
ATOM      9  C   UNL A   1      30.700  24.095  25.041  1.00  0.00     0.120 C 
ATOM     10  C   UNL A   1      31.498  22.825  24.758  1.00  0.00     0.024 C 
ATOM     11  C   UNL A   1      32.108  23.031  23.373  1.00  0.00     0.037 C 
BRANCH   8  12
ATOM     12  C   UNL A   1      31.238  26.428  24.442  1.00  0.00     0.227 A 
ATOM     13  C   UNL A   1      30.416  28.472  23.828  1.00  0.00     0.080 A 
ATOM     14  C   UNL A   1      31.273  29.134  24.676  1.00  0.00     0.062 A 
ATOM     15  N   UNL A   1      30.414  27.136  23.670  1.00  0.00    -0.213 NA
ATOM     16  C   UNL A   1      32.108  28.337  25.426  1.00  0.00     0.150 A 
ATOM     17  N   UNL A   1      32.057  26.984  25.347  1.00  0.00    -0.208 NA
BRANCH  13  18
ATOM     18  C   UNL A   1      29.410  29.211  23.095  1.00  0.00     0.041 A 
ATOM     19  C   UNL A   1      27.132  28.001  23.565  1.00  0.00     0.069 C 
ATOM     20  C   UNL A   1      28.015  29.008  22.928  1.00  0.00     0.069 A 
ATOM     21  N   UNL A   1      27.492  29.882  22.056  1.00  0.00    -0.178 NA
ATOM     22  N   UNL A   1      28.535  30.651  21.696  1.00  0.00    -0.275 N 
ATOM     23  C   UNL A   1      29.705  30.294  22.295  1.00  0.00     0.119 A 
ATOM     24  C   UNL A   1      28.344  31.696  20.721  1.00  0.00     0.173 C 
ENDBRANCH  13  18
BRANCH  16  25
ATOM     25  C   UNL A   1      33.165  28.967  26.312  1.00  0.00     0.433 C 
ATOM     26  F   UNL A   1      32.884  30.253  26.662  1.00  0.00    -0.165 F 
ATOM     27  F   UNL A   1      33.333  28.285  27.483  1.00  0.00    -0.165 F 
ATOM     28  F   UNL A   1      34.401  29.005  25.734  1.00  0.00    -0.165 F 
ENDBRANCH  16  25
ENDBRANCH   8  12
ENDBRANCH   4   7
ENDBRANCH   2   3
ENDBRANCH   1   2
BRANCH   1  29
ATOM     29  C   UNL A   1      36.848  23.776  25.017  1.00  0.00     0.118 C 
BRANCH  29  30
ATOM     30  N   UNL A   1      37.897  22.815  25.326  1.00  0.00    -0.352 N 
ATOM     31  C   UNL A   1      39.064  22.969  26.025  1.00  0.00     0.251 C 
ATOM     32  H   UNL A   1      37.743  21.908  24.976  1.00  0.00     0.163 HD
ATOM     33  O   UNL A   1      39.896  22.057  26.016  1.00  0.00    -0.269 OA
BRANCH  31  34
ATOM     34  C   UNL A   1      39.353  24.206  26.781  1.00  0.00     0.039 A 
ATOM     35  C   UNL A   1      40.105  25.208  26.159  1.00  0.00     0.014 A 
ATOM     36  C   UNL A   1      38.956  24.362  28.112  1.00  0.00     0.014 A 
ATOM     37  C   UNL A   1      40.432  26.372  26.857  1.00  0.00     0.010 A 
ATOM     38  C   UNL A   1      39.216  25.554  28.783  1.00  0.00     0.010 A 
ATOM     39  C   UNL A   1      39.977  26.561  28.171  1.00  0.00    -0.014 A 
BRANCH  39  40
ATOM     40  C   UNL A   1      40.338  27.777  28.939  1.00  0.00     0.031 A 
ATOM     41  C   UNL A   1      41.692  27.881  29.587  1.00  0.00     0.074 A 
ATOM     42  C   UNL A   1      39.438  28.768  29.090  1.00  0.00     0.049 A 
ATOM     43  N   UNL A   1      42.177  28.832  30.345  1.00  0.00    -0.248 NA
ATOM     44  C   UNL A   1      42.612  26.752  29.379  1.00  0.00     0.031 C 
ATOM     45  C   UNL A   1      38.079  28.767  28.546  1.00  0.00     0.029 A 
ATOM     46  N   UNL A   1      39.531  29.964  29.753  1.00  0.00    -0.354 N 
ATOM     47  C   UNL A   1      43.444  28.404  30.721  1.00  0.00     0.074 A 
ATOM     48  C   UNL A   1      43.636  27.091  30.148  1.00  0.00     0.031 C 
ATOM     49  C   UNL A   1      37.474  29.919  28.879  1.00  0.00     0.029 A 
ATOM     50  C   UNL A   1      38.390  30.724  29.680  1.00  0.00     0.049 A 
ATOM     51  H   UNL A   1      40.340  30.251  30.235  1.00  0.00     0.167 HD
ATOM     52  C   UNL A   1      44.375  29.058  31.458  1.00  0.00     0.037 A 
ATOM     53  C   UNL A   1      38.116  31.935  30.201  1.00  0.00     0.037 A 
ATOM     54  C   UNL A   1      44.198  30.381  31.993  1.00  0.00     0.049 A 
ATOM     55  C   UNL A   1      39.177  32.654  30.987  1.00  0.00     0.074 A 
ATOM     56  C   UNL A   1      45.099  31.152  32.707  1.00  0.00     0.029 A 
ATOM     57  N   UNL A   1      43.042  31.135  31.861  1.00  0.00    -0.354 N 
ATOM     58  N   UNL A   1      40.391  32.261  31.291  1.00  0.00    -0.248 NA
ATOM     59  C   UNL A   1      38.834  33.991  31.492  1.00  0.00     0.031 C 
ATOM     60  C   UNL A   1      44.477  32.363  33.032  1.00  0.00     0.029 A 
ATOM     61  C   UNL A   1      43.203  32.360  32.487  1.00  0.00     0.049 A 
ATOM     62  H   UNL A   1      42.226  30.843  31.393  1.00  0.00     0.167 HD
ATOM     63  C   UNL A   1      40.966  33.311  31.994  1.00  0.00     0.074 A 
ATOM     64  C   UNL A   1      39.971  34.362  32.063  1.00  0.00     0.031 C 
ATOM     65  C   UNL A   1      42.206  33.399  32.532  1.00  0.00     0.037 A 
BRANCH  52  66
ATOM     66  C   UNL A   1      45.670  28.347  31.718  1.00  0.00     0.057 A 
ATOM     67  C   UNL A   1      46.765  28.469  30.852  1.00  0.00     0.134 A 
ATOM     68  C   UNL A   1      45.832  27.549  32.856  1.00  0.00     0.134 A 
ATOM     69  F   UNL A   1      46.671  29.207  29.736  1.00  0.00    -0.206 F 
ATOM     70  C   UNL A   1      47.966  27.799  31.095  1.00  0.00     0.040 A 
ATOM     71  C   UNL A   1      47.036  26.895  33.123  1.00  0.00     0.040 A 
ATOM     72  F   UNL A   1      44.826  27.394  33.729  1.00  0.00    -0.206 F 
ATOM     73  C   UNL A   1      48.105  27.013  32.237  1.00  0.00     0.006 A 
ENDBRANCH  52  66
BRANCH  53  74
ATOM     74  C   UNL A   1      36.795  32.564  29.960  1.00  0.00     0.057 A 
ATOM     75  C   UNL A   1      36.600  33.435  28.882  1.00  0.00     0.134 A 
ATOM     76  C   UNL A   1      35.702  32.314  30.797  1.00  0.00     0.134 A 
ATOM     77  F   UNL A   1      37.616  33.725  28.056  1.00  0.00    -0.206 F 
ATOM     78  C   UNL A   1      35.368  34.050  28.654  1.00  0.00     0.040 A 
ATOM     79  C   UNL A   1      34.458  32.905  30.568  1.00  0.00     0.040 A 
ATOM     80  F   UNL A   1      35.825  31.482  31.841  1.00  0.00    -0.206 F 
ATOM     81  C   UNL A   1      34.291  33.783  29.498  1.00  0.00     0.006 A 
ENDBRANCH  53  74
BRANCH  65  82
ATOM     82  C   UNL A   1      42.571  34.689  33.202  1.00  0.00     0.057 A 
ATOM     83  C   UNL A   1      43.176  35.740  32.504  1.00  0.00     0.134 A 
ATOM     84  C   UNL A   1      42.282  34.891  34.558  1.00  0.00     0.134 A 
ATOM     85  F   UNL A   1      43.490  35.603  31.207  1.00  0.00    -0.206 F 
ATOM     86  C   UNL A   1      43.502  36.941  33.136  1.00  0.00     0.040 A 
ATOM     87  C   UNL A   1      42.582  36.095  35.195  1.00  0.00     0.040 A 
ATOM     88  F   UNL A   1      41.695  33.926  35.281  1.00  0.00    -0.206 F 
ATOM     89  C   UNL A   1      43.199  37.123  34.484  1.00  0.00     0.006 A 
ENDBRANCH  65  82
ENDBRANCH  39  40
ENDBRANCH  31  34
ENDBRANCH  29  30
ENDBRANCH   1  29
TORSDOF 13
ENDMDL
