MODEL 1
REMARK VINA RESULT:     -10.8      0.000      0.000
REMARK SMILES C[C@@H]1C[N@@H+](CC(C)(C)C(=O)NCCCNC(=O)c2ccc(-c3c4nc(c(-c5c(F)cccc5F)c5ccc([nH]5)c(-c5c(F)cccc5F)c5nc(c(-c6c(F)cccc6F)c6ccc3[nH]6)C=C5)C=C4)cc2)CC[C@@H]1[NH3+]
REMARK SMILES IDX 12 1 11 2 9 3 10 4 6 6 7 7 8 8 5 9 4 10 1 11 2 12 3 13 74 14
REMARK SMILES IDX 73 15 72 16 75 18 13 22 14 23 15 24 16 25 17 27 18 28 19 29
REMARK SMILES IDX 71 30 20 31 70 32 21 33 22 34 23 35 64 36 24 37 69 38 63 39
REMARK SMILES IDX 65 40 25 41 68 42 62 43 61 44 26 46 52 47 35 48 51 49 36 50
REMARK SMILES IDX 39 51 50 52 66 53 37 54 38 55 49 57 67 58 40 59 27 60 28 61
REMARK SMILES IDX 33 62 29 63 30 64 32 65 34 66 31 67 53 68 54 69 59 70 55 71
REMARK SMILES IDX 56 72 58 73 60 74 57 75 41 76 42 77 47 78 43 79 44 80 46 81
REMARK SMILES IDX 48 82 45 83
REMARK H PARENT 11 5 4 17 75 19 75 20 75 21 15 26 65 45 39 56
REMARK Flexibility Score: inf
ROOT
ATOM      1  C   UNL A   1      36.452  20.419  25.052  1.00  0.00     0.117 C 
ENDROOT
BRANCH   1   2
ATOM      2  N   UNL A   1      36.642  21.697  24.400  1.00  0.00    -0.355 N 
ATOM      3  C   UNL A   1      35.773  22.470  23.704  1.00  0.00     0.231 C 
ATOM      4  O   UNL A   1      36.277  23.108  22.772  1.00  0.00    -0.274 OA
ATOM      5  H   UNL A   1      37.552  22.067  24.475  1.00  0.00     0.163 HD
BRANCH   3   6
ATOM      6  C   UNL A   1      34.265  22.525  24.000  1.00  0.00     0.092 C 
ATOM      7  C   UNL A   1      33.542  21.172  24.074  1.00  0.00     0.027 C 
ATOM      8  C   UNL A   1      33.647  23.330  22.837  1.00  0.00     0.027 C 
BRANCH   6   9
ATOM      9  C   UNL A   1      34.043  23.328  25.343  1.00  0.00     0.278 C 
BRANCH   9  10
ATOM     10  N   UNL A   1      33.334  24.635  25.393  1.00  0.00    -0.333 N 
ATOM     11  C   UNL A   1      33.224  27.549  24.169  1.00  0.00     0.020 C 
ATOM     12  C   UNL A   1      33.545  27.140  25.613  1.00  0.00     0.099 C 
ATOM     13  C   UNL A   1      34.223  25.761  25.690  1.00  0.00     0.271 C 
ATOM     14  C   UNL A   1      32.327  27.122  26.553  1.00  0.00     0.194 C 
ATOM     15  C   UNL A   1      31.371  25.990  26.164  1.00  0.00     0.126 C 
ATOM     16  C   UNL A   1      32.105  24.647  26.185  1.00  0.00     0.268 C 
ATOM     17  H   UNL A   1      33.008  24.770  24.436  1.00  0.00     0.348 HD
BRANCH  14  18
ATOM     18  N   UNL A   1      31.638  28.411  26.598  1.00  0.00    -0.355 N 
ATOM     19  H   UNL A   1      31.489  28.751  25.647  1.00  0.00     0.344 HD
ATOM     20  H   UNL A   1      32.206  29.083  27.114  1.00  0.00     0.344 HD
ATOM     21  H   UNL A   1      30.737  28.299  27.063  1.00  0.00     0.344 HD
ENDBRANCH  14  18
ENDBRANCH   9  10
ENDBRANCH   6   9
ENDBRANCH   3   6
ENDBRANCH   1   2
BRANCH   1  22
ATOM     22  C   UNL A   1      37.711  19.573  24.941  1.00  0.00     0.042 C 
BRANCH  22  23
ATOM     23  C   UNL A   1      38.898  20.161  25.690  1.00  0.00     0.118 C 
BRANCH  23  24
ATOM     24  N   UNL A   1      39.990  19.207  25.833  1.00  0.00    -0.352 N 
ATOM     25  C   UNL A   1      41.312  19.427  26.126  1.00  0.00     0.251 C 
ATOM     26  H   UNL A   1      39.742  18.264  25.699  1.00  0.00     0.163 HD
ATOM     27  O   UNL A   1      42.135  18.535  25.967  1.00  0.00    -0.269 OA
BRANCH  25  28
ATOM     28  C   UNL A   1      41.740  20.753  26.620  1.00  0.00     0.039 A 
ATOM     29  C   UNL A   1      42.224  21.695  25.710  1.00  0.00     0.014 A 
ATOM     30  C   UNL A   1      41.661  21.064  27.980  1.00  0.00     0.014 A 
ATOM     31  C   UNL A   1      42.564  22.972  26.159  1.00  0.00     0.010 A 
ATOM     32  C   UNL A   1      41.898  22.364  28.406  1.00  0.00     0.010 A 
ATOM     33  C   UNL A   1      42.367  23.328  27.503  1.00  0.00    -0.014 A 
BRANCH  33  34
ATOM     34  C   UNL A   1      42.665  24.697  27.994  1.00  0.00     0.031 A 
ATOM     35  C   UNL A   1      44.083  25.079  28.330  1.00  0.00     0.074 A 
ATOM     36  C   UNL A   1      41.661  25.573  28.187  1.00  0.00     0.049 A 
ATOM     37  N   UNL A   1      44.539  26.194  28.841  1.00  0.00    -0.248 NA
ATOM     38  C   UNL A   1      45.121  24.064  28.084  1.00  0.00     0.031 C 
ATOM     39  C   UNL A   1      40.242  25.309  27.937  1.00  0.00     0.029 A 
ATOM     40  N   UNL A   1      41.679  26.868  28.643  1.00  0.00    -0.354 N 
ATOM     41  C   UNL A   1      45.910  26.011  28.978  1.00  0.00     0.074 A 
ATOM     42  C   UNL A   1      46.202  24.656  28.568  1.00  0.00     0.031 C 
ATOM     43  C   UNL A   1      39.532  26.416  28.211  1.00  0.00     0.029 A 
ATOM     44  C   UNL A   1      40.436  27.452  28.699  1.00  0.00     0.049 A 
ATOM     45  H   UNL A   1      42.505  27.334  28.905  1.00  0.00     0.167 HD
ATOM     46  C   UNL A   1      46.847  26.904  29.376  1.00  0.00     0.037 A 
ATOM     47  C   UNL A   1      40.070  28.681  29.108  1.00  0.00     0.037 A 
ATOM     48  C   UNL A   1      46.557  28.257  29.769  1.00  0.00     0.049 A 
ATOM     49  C   UNL A   1      41.129  29.636  29.586  1.00  0.00     0.074 A 
ATOM     50  C   UNL A   1      47.437  29.247  30.166  1.00  0.00     0.029 A 
ATOM     51  N   UNL A   1      45.286  28.810  29.807  1.00  0.00    -0.354 N 
ATOM     52  N   UNL A   1      42.428  29.468  29.659  1.00  0.00    -0.248 NA
ATOM     53  C   UNL A   1      40.672  30.959  30.034  1.00  0.00     0.031 C 
ATOM     54  C   UNL A   1      46.695  30.387  30.485  1.00  0.00     0.029 A 
ATOM     55  C   UNL A   1      45.358  30.124  30.234  1.00  0.00     0.049 A 
ATOM     56  H   UNL A   1      44.455  28.338  29.567  1.00  0.00     0.167 HD
ATOM     57  C   UNL A   1      42.943  30.672  30.119  1.00  0.00     0.074 A 
ATOM     58  C   UNL A   1      41.819  31.568  30.294  1.00  0.00     0.031 C 
ATOM     59  C   UNL A   1      44.231  31.009  30.376  1.00  0.00     0.037 A 
BRANCH  46  60
ATOM     60  C   UNL A   1      48.278  26.449  29.383  1.00  0.00     0.057 A 
ATOM     61  C   UNL A   1      49.111  26.630  28.270  1.00  0.00     0.134 A 
ATOM     62  C   UNL A   1      48.845  25.870  30.525  1.00  0.00     0.134 A 
ATOM     63  F   UNL A   1      48.627  27.166  27.140  1.00  0.00    -0.206 F 
ATOM     64  C   UNL A   1      50.448  26.233  28.285  1.00  0.00     0.040 A 
ATOM     65  C   UNL A   1      50.190  25.495  30.562  1.00  0.00     0.040 A 
ATOM     66  F   UNL A   1      48.107  25.671  31.627  1.00  0.00    -0.206 F 
ATOM     67  C   UNL A   1      50.994  25.672  29.439  1.00  0.00     0.006 A 
ENDBRANCH  46  60
BRANCH  47  68
ATOM     68  C   UNL A   1      38.643  29.097  29.074  1.00  0.00     0.057 A 
ATOM     69  C   UNL A   1      38.077  29.637  27.912  1.00  0.00     0.134 A 
ATOM     70  C   UNL A   1      37.827  29.018  30.209  1.00  0.00     0.134 A 
ATOM     71  F   UNL A   1      38.810  29.754  26.796  1.00  0.00    -0.206 F 
ATOM     72  C   UNL A   1      36.766  30.119  27.890  1.00  0.00     0.040 A 
ATOM     73  C   UNL A   1      36.505  29.468  30.193  1.00  0.00     0.040 A 
ATOM     74  F   UNL A   1      38.303  28.502  31.352  1.00  0.00    -0.206 F 
ATOM     75  C   UNL A   1      35.977  30.034  29.035  1.00  0.00     0.006 A 
ENDBRANCH  47  68
BRANCH  59  76
ATOM     76  C   UNL A   1      44.497  32.420  30.814  1.00  0.00     0.057 A 
ATOM     77  C   UNL A   1      44.724  33.453  29.895  1.00  0.00     0.134 A 
ATOM     78  C   UNL A   1      44.491  32.753  32.174  1.00  0.00     0.134 A 
ATOM     79  F   UNL A   1      44.755  33.199  28.580  1.00  0.00    -0.206 F 
ATOM     80  C   UNL A   1      44.966  34.761  30.317  1.00  0.00     0.040 A 
ATOM     81  C   UNL A   1      44.700  34.063  32.606  1.00  0.00     0.040 A 
ATOM     82  F   UNL A   1      44.269  31.813  33.106  1.00  0.00    -0.206 F 
ATOM     83  C   UNL A   1      44.947  35.070  31.677  1.00  0.00     0.006 A 
ENDBRANCH  59  76
ENDBRANCH  33  34
ENDBRANCH  25  28
ENDBRANCH  23  24
ENDBRANCH  22  23
ENDBRANCH   1  22
TORSDOF 13
ENDMDL
MODEL 2
REMARK VINA RESULT:     -10.7      4.434      9.588
REMARK SMILES C[C@@H]1C[N@@H+](CC(C)(C)C(=O)NCCCNC(=O)c2ccc(-c3c4nc(c(-c5c(F)cccc5F)c5ccc([nH]5)c(-c5c(F)cccc5F)c5nc(c(-c6c(F)cccc6F)c6ccc3[nH]6)C=C5)C=C4)cc2)CC[C@@H]1[NH3+]
REMARK SMILES IDX 12 1 11 2 9 3 10 4 6 6 7 7 8 8 5 9 4 10 1 11 2 12 3 13 74 14
REMARK SMILES IDX 73 15 72 16 75 18 13 22 14 23 15 24 16 25 17 27 18 28 19 29
REMARK SMILES IDX 71 30 20 31 70 32 21 33 22 34 23 35 64 36 24 37 69 38 63 39
REMARK SMILES IDX 65 40 25 41 68 42 62 43 61 44 26 46 52 47 35 48 51 49 36 50
REMARK SMILES IDX 39 51 50 52 66 53 37 54 38 55 49 57 67 58 40 59 27 60 28 61
REMARK SMILES IDX 33 62 29 63 30 64 32 65 34 66 31 67 53 68 54 69 59 70 55 71
REMARK SMILES IDX 56 72 58 73 60 74 57 75 41 76 42 77 47 78 43 79 44 80 46 81
REMARK SMILES IDX 48 82 45 83
REMARK H PARENT 11 5 4 17 75 19 75 20 75 21 15 26 65 45 39 56
REMARK Flexibility Score: inf
ROOT
ATOM      1  C   UNL A   1      31.296  30.774  26.498  1.00  0.00     0.117 C 
ENDROOT
BRANCH   1   2
ATOM      2  N   UNL A   1      31.716  30.187  25.243  1.00  0.00    -0.355 N 
ATOM      3  C   UNL A   1      32.611  29.203  24.985  1.00  0.00     0.231 C 
ATOM      4  O   UNL A   1      33.231  29.329  23.923  1.00  0.00    -0.274 OA
ATOM      5  H   UNL A   1      31.279  30.565  24.445  1.00  0.00     0.163 HD
BRANCH   3   6
ATOM      6  C   UNL A   1      32.886  28.036  25.949  1.00  0.00     0.092 C 
ATOM      7  C   UNL A   1      31.650  27.367  26.568  1.00  0.00     0.027 C 
ATOM      8  C   UNL A   1      33.725  28.639  27.095  1.00  0.00     0.027 C 
BRANCH   6   9
ATOM      9  C   UNL A   1      33.763  26.956  25.196  1.00  0.00     0.278 C 
BRANCH   9  10
ATOM     10  N   UNL A   1      33.177  25.932  24.291  1.00  0.00    -0.333 N 
ATOM     11  C   UNL A   1      31.025  23.625  24.070  1.00  0.00     0.020 C 
ATOM     12  C   UNL A   1      32.553  23.507  23.975  1.00  0.00     0.099 C 
ATOM     13  C   UNL A   1      33.271  24.571  24.824  1.00  0.00     0.271 C 
ATOM     14  C   UNL A   1      33.107  23.589  22.543  1.00  0.00     0.194 C 
ATOM     15  C   UNL A   1      32.915  25.000  21.977  1.00  0.00     0.126 C 
ATOM     16  C   UNL A   1      33.585  26.032  22.891  1.00  0.00     0.268 C 
ATOM     17  H   UNL A   1      32.184  26.166  24.271  1.00  0.00     0.348 HD
BRANCH  14  18
ATOM     18  N   UNL A   1      32.528  22.578  21.661  1.00  0.00    -0.355 N 
ATOM     19  H   UNL A   1      33.230  22.273  20.986  1.00  0.00     0.344 HD
ATOM     20  H   UNL A   1      31.730  22.975  21.166  1.00  0.00     0.344 HD
ATOM     21  H   UNL A   1      32.221  21.779  22.215  1.00  0.00     0.344 HD
ENDBRANCH  14  18
ENDBRANCH   9  10
ENDBRANCH   6   9
ENDBRANCH   3   6
ENDBRANCH   1   2
BRANCH   1  22
ATOM     22  C   UNL A   1      31.401  32.291  26.438  1.00  0.00     0.042 C 
BRANCH  22  23
ATOM     23  C   UNL A   1      32.626  32.836  27.159  1.00  0.00     0.118 C 
BRANCH  23  24
ATOM     24  N   UNL A   1      32.429  34.202  27.626  1.00  0.00    -0.352 N 
ATOM     25  C   UNL A   1      33.020  34.862  28.674  1.00  0.00     0.251 C 
ATOM     26  H   UNL A   1      31.775  34.730  27.113  1.00  0.00     0.163 HD
ATOM     27  O   UNL A   1      32.557  35.925  29.071  1.00  0.00    -0.269 OA
BRANCH  25  28
ATOM     28  C   UNL A   1      34.205  34.275  29.332  1.00  0.00     0.039 A 
ATOM     29  C   UNL A   1      34.031  33.475  30.463  1.00  0.00     0.014 A 
ATOM     30  C   UNL A   1      35.487  34.515  28.830  1.00  0.00     0.014 A 
ATOM     31  C   UNL A   1      35.140  32.862  31.048  1.00  0.00     0.010 A 
ATOM     32  C   UNL A   1      36.572  33.821  29.348  1.00  0.00     0.010 A 
ATOM     33  C   UNL A   1      36.414  32.998  30.471  1.00  0.00    -0.014 A 
BRANCH  33  34
ATOM     34  C   UNL A   1      37.599  32.309  31.039  1.00  0.00     0.031 A 
ATOM     35  C   UNL A   1      38.244  32.840  32.292  1.00  0.00     0.074 A 
ATOM     36  C   UNL A   1      38.124  31.244  30.403  1.00  0.00     0.049 A 
ATOM     37  N   UNL A   1      39.326  32.429  32.902  1.00  0.00    -0.248 NA
ATOM     38  C   UNL A   1      37.604  34.004  32.928  1.00  0.00     0.031 C 
ATOM     39  C   UNL A   1      37.614  30.660  29.160  1.00  0.00     0.029 A 
ATOM     40  N   UNL A   1      39.209  30.463  30.713  1.00  0.00    -0.354 N 
ATOM     41  C   UNL A   1      39.495  33.282  33.986  1.00  0.00     0.074 A 
ATOM     42  C   UNL A   1      38.449  34.278  33.909  1.00  0.00     0.031 C 
ATOM     43  C   UNL A   1      38.365  29.595  28.833  1.00  0.00     0.029 A 
ATOM     44  C   UNL A   1      39.434  29.448  29.813  1.00  0.00     0.049 A 
ATOM     45  H   UNL A   1      39.773  30.615  31.505  1.00  0.00     0.167 HD
ATOM     46  C   UNL A   1      40.415  33.221  34.977  1.00  0.00     0.037 A 
ATOM     47  C   UNL A   1      40.402  28.513  29.782  1.00  0.00     0.037 A 
ATOM     48  C   UNL A   1      41.445  32.220  35.060  1.00  0.00     0.049 A 
ATOM     49  C   UNL A   1      41.437  28.497  30.874  1.00  0.00     0.074 A 
ATOM     50  C   UNL A   1      42.412  32.057  36.035  1.00  0.00     0.029 A 
ATOM     51  N   UNL A   1      41.636  31.208  34.132  1.00  0.00    -0.354 N 
ATOM     52  N   UNL A   1      41.551  29.277  31.921  1.00  0.00    -0.248 NA
ATOM     53  C   UNL A   1      42.478  27.463  30.781  1.00  0.00     0.031 C 
ATOM     54  C   UNL A   1      43.215  30.971  35.677  1.00  0.00     0.029 A 
ATOM     55  C   UNL A   1      42.714  30.424  34.506  1.00  0.00     0.049 A 
ATOM     56  H   UNL A   1      41.087  31.067  33.327  1.00  0.00     0.167 HD
ATOM     57  C   UNL A   1      42.646  28.804  32.632  1.00  0.00     0.074 A 
ATOM     58  C   UNL A   1      43.153  27.659  31.904  1.00  0.00     0.031 C 
ATOM     59  C   UNL A   1      43.187  29.273  33.783  1.00  0.00     0.037 A 
BRANCH  46  60
ATOM     60  C   UNL A   1      40.334  34.254  36.064  1.00  0.00     0.057 A 
ATOM     61  C   UNL A   1      41.007  35.480  35.962  1.00  0.00     0.134 A 
ATOM     62  C   UNL A   1      39.541  34.045  37.199  1.00  0.00     0.134 A 
ATOM     63  F   UNL A   1      41.794  35.738  34.908  1.00  0.00    -0.206 F 
ATOM     64  C   UNL A   1      40.910  36.451  36.959  1.00  0.00     0.040 A 
ATOM     65  C   UNL A   1      39.413  35.022  38.189  1.00  0.00     0.040 A 
ATOM     66  F   UNL A   1      38.867  32.897  37.359  1.00  0.00    -0.206 F 
ATOM     67  C   UNL A   1      40.103  36.227  38.073  1.00  0.00     0.006 A 
ENDBRANCH  46  60
BRANCH  47  68
ATOM     68  C   UNL A   1      40.440  27.499  28.695  1.00  0.00     0.057 A 
ATOM     69  C   UNL A   1      41.216  27.701  27.547  1.00  0.00     0.134 A 
ATOM     70  C   UNL A   1      39.668  26.332  28.750  1.00  0.00     0.134 A 
ATOM     71  F   UNL A   1      41.966  28.806  27.425  1.00  0.00    -0.206 F 
ATOM     72  C   UNL A   1      41.191  26.804  26.477  1.00  0.00     0.040 A 
ATOM     73  C   UNL A   1      39.657  25.411  27.702  1.00  0.00     0.040 A 
ATOM     74  F   UNL A   1      38.910  26.071  29.826  1.00  0.00    -0.206 F 
ATOM     75  C   UNL A   1      40.409  25.654  26.554  1.00  0.00     0.006 A 
ENDBRANCH  47  68
BRANCH  59  76
ATOM     76  C   UNL A   1      44.347  28.513  34.356  1.00  0.00     0.057 A 
ATOM     77  C   UNL A   1      44.171  27.434  35.233  1.00  0.00     0.134 A 
ATOM     78  C   UNL A   1      45.659  28.846  33.996  1.00  0.00     0.134 A 
ATOM     79  F   UNL A   1      42.941  27.073  35.627  1.00  0.00    -0.206 F 
ATOM     80  C   UNL A   1      45.260  26.735  35.754  1.00  0.00     0.040 A 
ATOM     81  C   UNL A   1      46.754  28.133  34.485  1.00  0.00     0.040 A 
ATOM     82  F   UNL A   1      45.899  29.861  33.151  1.00  0.00    -0.206 F 
ATOM     83  C   UNL A   1      46.556  27.079  35.374  1.00  0.00     0.006 A 
ENDBRANCH  59  76
ENDBRANCH  33  34
ENDBRANCH  25  28
ENDBRANCH  23  24
ENDBRANCH  22  23
ENDBRANCH   1  22
TORSDOF 13
ENDMDL
MODEL 3
REMARK VINA RESULT:     -10.7      1.601      2.497
REMARK SMILES C[C@@H]1C[N@@H+](CC(C)(C)C(=O)NCCCNC(=O)c2ccc(-c3c4nc(c(-c5c(F)cccc5F)c5ccc([nH]5)c(-c5c(F)cccc5F)c5nc(c(-c6c(F)cccc6F)c6ccc3[nH]6)C=C5)C=C4)cc2)CC[C@@H]1[NH3+]
REMARK SMILES IDX 12 1 11 2 9 3 10 4 6 6 7 7 8 8 5 9 4 10 1 11 2 12 3 13 74 14
REMARK SMILES IDX 73 15 72 16 75 18 13 22 14 23 15 24 16 25 17 27 18 28 19 29
REMARK SMILES IDX 71 30 20 31 70 32 21 33 22 34 23 35 64 36 24 37 69 38 63 39
REMARK SMILES IDX 65 40 25 41 68 42 62 43 61 44 26 46 52 47 35 48 51 49 36 50
REMARK SMILES IDX 39 51 50 52 66 53 37 54 38 55 49 57 67 58 40 59 27 60 28 61
REMARK SMILES IDX 33 62 29 63 30 64 32 65 34 66 31 67 53 68 54 69 59 70 55 71
REMARK SMILES IDX 56 72 58 73 60 74 57 75 41 76 42 77 47 78 43 79 44 80 46 81
REMARK SMILES IDX 48 82 45 83
REMARK H PARENT 11 5 4 17 75 19 75 20 75 21 15 26 65 45 39 56
REMARK Flexibility Score: inf
ROOT
ATOM      1  C   UNL A   1      37.242  20.395  24.577  1.00  0.00     0.117 C 
ENDROOT
BRANCH   1   2
ATOM      2  N   UNL A   1      35.996  20.562  25.293  1.00  0.00    -0.355 N 
ATOM      3  C   UNL A   1      35.440  21.665  25.852  1.00  0.00     0.231 C 
ATOM      4  O   UNL A   1      34.783  21.453  26.877  1.00  0.00    -0.274 OA
ATOM      5  H   UNL A   1      35.463  19.739  25.391  1.00  0.00     0.163 HD
BRANCH   3   6
ATOM      6  C   UNL A   1      35.640  23.086  25.299  1.00  0.00     0.092 C 
ATOM      7  C   UNL A   1      35.470  23.248  23.780  1.00  0.00     0.027 C 
ATOM      8  C   UNL A   1      37.092  23.465  25.658  1.00  0.00     0.027 C 
BRANCH   6   9
ATOM      9  C   UNL A   1      34.659  24.066  26.058  1.00  0.00     0.278 C 
BRANCH   9  10
ATOM     10  N   UNL A   1      33.235  24.243  25.667  1.00  0.00    -0.333 N 
ATOM     11  C   UNL A   1      31.293  24.906  23.261  1.00  0.00     0.020 C 
ATOM     12  C   UNL A   1      31.527  25.720  24.540  1.00  0.00     0.099 C 
ATOM     13  C   UNL A   1      32.958  25.557  25.080  1.00  0.00     0.271 C 
ATOM     14  C   UNL A   1      30.550  25.398  25.684  1.00  0.00     0.194 C 
ATOM     15  C   UNL A   1      30.803  23.985  26.219  1.00  0.00     0.126 C 
ATOM     16  C   UNL A   1      32.257  23.847  26.679  1.00  0.00     0.268 C 
ATOM     17  H   UNL A   1      33.102  23.560  24.921  1.00  0.00     0.348 HD
BRANCH  14  18
ATOM     18  N   UNL A   1      29.153  25.578  25.292  1.00  0.00    -0.355 N 
ATOM     19  H   UNL A   1      28.755  26.368  25.800  1.00  0.00     0.344 HD
ATOM     20  H   UNL A   1      28.627  24.732  25.511  1.00  0.00     0.344 HD
ATOM     21  H   UNL A   1      29.102  25.759  24.289  1.00  0.00     0.344 HD
ENDBRANCH  14  18
ENDBRANCH   9  10
ENDBRANCH   6   9
ENDBRANCH   3   6
ENDBRANCH   1   2
BRANCH   1  22
ATOM     22  C   UNL A   1      38.088  19.309  25.225  1.00  0.00     0.042 C 
BRANCH  22  23
ATOM     23  C   UNL A   1      39.288  19.857  25.984  1.00  0.00     0.118 C 
BRANCH  23  24
ATOM     24  N   UNL A   1      40.396  18.913  26.022  1.00  0.00    -0.352 N 
ATOM     25  C   UNL A   1      41.746  19.149  26.088  1.00  0.00     0.251 C 
ATOM     26  H   UNL A   1      40.138  17.962  25.995  1.00  0.00     0.163 HD
ATOM     27  O   UNL A   1      42.542  18.245  25.865  1.00  0.00    -0.269 OA
BRANCH  25  28
ATOM     28  C   UNL A   1      42.235  20.505  26.414  1.00  0.00     0.039 A 
ATOM     29  C   UNL A   1      42.597  21.366  25.376  1.00  0.00     0.014 A 
ATOM     30  C   UNL A   1      42.333  20.925  27.743  1.00  0.00     0.014 A 
ATOM     31  C   UNL A   1      42.993  22.671  25.672  1.00  0.00     0.010 A 
ATOM     32  C   UNL A   1      42.623  22.252  28.028  1.00  0.00     0.010 A 
ATOM     33  C   UNL A   1      42.972  23.136  26.998  1.00  0.00    -0.014 A 
BRANCH  33  34
ATOM     34  C   UNL A   1      43.332  24.536  27.334  1.00  0.00     0.031 A 
ATOM     35  C   UNL A   1      44.773  24.971  27.285  1.00  0.00     0.074 A 
ATOM     36  C   UNL A   1      42.375  25.397  27.732  1.00  0.00     0.049 A 
ATOM     37  N   UNL A   1      45.300  26.122  27.613  1.00  0.00    -0.248 NA
ATOM     38  C   UNL A   1      45.754  23.970  26.834  1.00  0.00     0.031 C 
ATOM     39  C   UNL A   1      40.949  25.084  27.860  1.00  0.00     0.029 A 
ATOM     40  N   UNL A   1      42.459  26.714  28.109  1.00  0.00    -0.354 N 
ATOM     41  C   UNL A   1      46.668  25.982  27.410  1.00  0.00     0.074 A 
ATOM     42  C   UNL A   1      46.898  24.614  27.003  1.00  0.00     0.031 C 
ATOM     43  C   UNL A   1      40.290  26.187  28.252  1.00  0.00     0.029 A 
ATOM     44  C   UNL A   1      41.247  27.269  28.449  1.00  0.00     0.049 A 
ATOM     45  H   UNL A   1      43.305  27.214  28.133  1.00  0.00     0.167 HD
ATOM     46  C   UNL A   1      47.640  26.917  27.517  1.00  0.00     0.037 A 
ATOM     47  C   UNL A   1      40.949  28.509  28.879  1.00  0.00     0.037 A 
ATOM     48  C   UNL A   1      47.407  28.282  27.907  1.00  0.00     0.049 A 
ATOM     49  C   UNL A   1      42.058  29.515  29.030  1.00  0.00     0.074 A 
ATOM     50  C   UNL A   1      48.321  29.314  28.025  1.00  0.00     0.029 A 
ATOM     51  N   UNL A   1      46.166  28.804  28.238  1.00  0.00    -0.354 N 
ATOM     52  N   UNL A   1      43.339  29.383  28.782  1.00  0.00    -0.248 NA
ATOM     53  C   UNL A   1      41.678  30.848  29.518  1.00  0.00     0.031 C 
ATOM     54  C   UNL A   1      47.640  30.451  28.467  1.00  0.00     0.029 A 
ATOM     55  C   UNL A   1      46.293  30.142  28.572  1.00  0.00     0.049 A 
ATOM     56  H   UNL A   1      45.320  28.300  28.236  1.00  0.00     0.167 HD
ATOM     57  C   UNL A   1      43.907  30.622  29.042  1.00  0.00     0.074 A 
ATOM     58  C   UNL A   1      42.830  31.499  29.452  1.00  0.00     0.031 C 
ATOM     59  C   UNL A   1      45.205  31.004  28.952  1.00  0.00     0.037 A 
BRANCH  46  60
ATOM     60  C   UNL A   1      49.044  26.499  27.186  1.00  0.00     0.057 A 
ATOM     61  C   UNL A   1      49.909  25.991  28.165  1.00  0.00     0.134 A 
ATOM     62  C   UNL A   1      49.522  26.560  25.871  1.00  0.00     0.134 A 
ATOM     63  F   UNL A   1      49.518  25.921  29.446  1.00  0.00    -0.206 F 
ATOM     64  C   UNL A   1      51.204  25.578  27.852  1.00  0.00     0.040 A 
ATOM     65  C   UNL A   1      50.807  26.121  25.541  1.00  0.00     0.040 A 
ATOM     66  F   UNL A   1      48.747  27.031  24.883  1.00  0.00    -0.206 F 
ATOM     67  C   UNL A   1      51.653  25.633  26.534  1.00  0.00     0.006 A 
ENDBRANCH  46  60
BRANCH  47  68
ATOM     68  C   UNL A   1      39.545  28.888  29.185  1.00  0.00     0.057 A 
ATOM     69  C   UNL A   1      39.006  28.690  30.463  1.00  0.00     0.134 A 
ATOM     70  C   UNL A   1      38.691  29.405  28.202  1.00  0.00     0.134 A 
ATOM     71  F   UNL A   1      39.766  28.183  31.444  1.00  0.00    -0.206 F 
ATOM     72  C   UNL A   1      37.664  28.953  30.742  1.00  0.00     0.040 A 
ATOM     73  C   UNL A   1      37.355  29.702  28.475  1.00  0.00     0.040 A 
ATOM     74  F   UNL A   1      39.146  29.629  26.960  1.00  0.00    -0.206 F 
ATOM     75  C   UNL A   1      36.835  29.461  29.745  1.00  0.00     0.006 A 
ENDBRANCH  47  68
BRANCH  59  76
ATOM     76  C   UNL A   1      45.519  32.443  29.242  1.00  0.00     0.057 A 
ATOM     77  C   UNL A   1      45.894  32.881  30.519  1.00  0.00     0.134 A 
ATOM     78  C   UNL A   1      45.479  33.397  28.217  1.00  0.00     0.134 A 
ATOM     79  F   UNL A   1      45.940  32.020  31.546  1.00  0.00    -0.206 F 
ATOM     80  C   UNL A   1      46.188  34.221  30.772  1.00  0.00     0.040 A 
ATOM     81  C   UNL A   1      45.802  34.734  28.451  1.00  0.00     0.040 A 
ATOM     82  F   UNL A   1      45.139  33.044  26.968  1.00  0.00    -0.206 F 
ATOM     83  C   UNL A   1      46.149  35.151  29.734  1.00  0.00     0.006 A 
ENDBRANCH  59  76
ENDBRANCH  33  34
ENDBRANCH  25  28
ENDBRANCH  23  24
ENDBRANCH  22  23
ENDBRANCH   1  22
TORSDOF 13
ENDMDL
