MODEL 1
REMARK VINA RESULT:      -9.8      0.000      0.000
REMARK SMILES Cc1oc2c(C)c3oc(=O)c(CCC(=O)N[C@H](Cc4ccc(Cl)cc4)C(=O)NCCCNC(=O)c4ccc(-c5c6nc(c(-c7c(F)cccc7F)c7ccc([nH]7)c(-c7c(F)cccc7F)c7nc(c(-c8c(F)cccc8F)c8ccc5[nH]8)C=C7)C=C6)cc4)c(C)c3cc2c1C
REMARK SMILES IDX 29 1 28 2 26 3 27 4 17 6 16 7 14 8 15 9 13 11 12 12 11 13
REMARK SMILES IDX 1 14 2 15 3 16 94 17 4 18 93 19 95 20 5 21 92 22 6 23 7 24
REMARK SMILES IDX 91 25 8 26 89 27 9 28 90 29 10 30 18 31 19 32 20 33 25 34
REMARK SMILES IDX 21 35 24 36 22 37 23 38 30 39 31 40 32 41 33 42 34 44 35 45
REMARK SMILES IDX 36 46 88 47 37 48 87 49 38 50 39 51 40 52 81 53 41 54 86 55
REMARK SMILES IDX 80 56 82 57 42 58 85 59 79 60 78 61 43 63 69 64 52 65 68 66
REMARK SMILES IDX 53 67 56 68 67 69 83 70 54 71 55 72 66 74 84 75 57 76 44 77
REMARK SMILES IDX 45 78 50 79 46 80 47 81 49 82 51 83 48 84 70 85 71 86 76 87
REMARK SMILES IDX 72 88 73 89 75 90 77 91 74 92 58 93 59 94 64 95 60 96 61 97
REMARK SMILES IDX 63 98 65 99 62 100
REMARK H PARENT 28 5 16 10 32 43 82 62 56 73
REMARK Flexibility Score: inf
ROOT
ATOM      1  C   UNL A   1      42.216  27.015  36.472  1.00  0.00     0.117 C 
ENDROOT
BRANCH   1   2
ATOM      2  N   UNL A   1      41.472  27.272  35.258  1.00  0.00    -0.354 N 
ATOM      3  C   UNL A   1      40.991  28.466  34.780  1.00  0.00     0.242 C 
ATOM      4  O   UNL A   1      40.384  28.443  33.705  1.00  0.00    -0.273 OA
ATOM      5  H   UNL A   1      41.286  26.483  34.698  1.00  0.00     0.163 HD
BRANCH   3   6
ATOM      6  C   UNL A   1      40.923  29.718  35.707  1.00  0.00     0.175 C 
BRANCH   6   7
ATOM      7  N   UNL A   1      39.568  30.260  35.938  1.00  0.00    -0.344 N 
ATOM      8  C   UNL A   1      38.652  30.977  35.224  1.00  0.00     0.220 C 
ATOM      9  O   UNL A   1      37.682  31.374  35.883  1.00  0.00    -0.275 OA
ATOM     10  H   UNL A   1      39.241  30.048  36.842  1.00  0.00     0.164 HD
BRANCH   8  11
ATOM     11  C   UNL A   1      38.672  31.238  33.696  1.00  0.00     0.105 C 
BRANCH  11  12
ATOM     12  C   UNL A   1      38.662  32.648  33.023  1.00  0.00     0.053 C 
BRANCH  12  13
ATOM     13  C   UNL A   1      40.001  33.275  32.725  1.00  0.00     0.042 A 
ATOM     14  C   UNL A   1      45.661  36.969  26.851  1.00  0.00     0.088 C 
ATOM     15  C   UNL A   1      44.624  36.511  27.794  1.00  0.00     0.105 A 
ATOM     16  O   UNL A   1      44.836  36.790  29.109  1.00  0.00    -0.461 OA
ATOM     17  C   UNL A   1      43.461  35.794  27.628  1.00  0.00    -0.002 A 
ATOM     18  C   UNL A   1      43.882  36.130  29.840  1.00  0.00     0.141 A 
ATOM     19  C   UNL A   1      43.045  35.432  28.943  1.00  0.00     0.025 A 
ATOM     20  C   UNL A   1      42.778  35.382  26.376  1.00  0.00     0.049 C 
ATOM     21  C   UNL A   1      43.822  36.176  31.249  1.00  0.00     0.036 A 
ATOM     22  C   UNL A   1      41.998  34.565  29.344  1.00  0.00     0.024 A 
ATOM     23  C   UNL A   1      44.610  37.054  32.143  1.00  0.00     0.052 C 
ATOM     24  C   UNL A   1      42.837  35.292  31.627  1.00  0.00     0.145 A 
ATOM     25  C   UNL A   1      41.812  34.405  30.690  1.00  0.00     0.022 A 
ATOM     26  O   UNL A   1      42.480  35.187  33.395  1.00  0.00    -0.422 OA
ATOM     27  C   UNL A   1      40.446  33.370  31.275  1.00  0.00    -0.030 A 
ATOM     28  C   UNL A   1      40.974  34.183  34.206  1.00  0.00     0.339 A 
ATOM     29  C   UNL A   1      39.882  32.537  30.142  1.00  0.00     0.046 C 
ATOM     30  O   UNL A   1      40.617  34.150  35.382  1.00  0.00    -0.246 OA
ENDBRANCH  12  13
ENDBRANCH  11  12
ENDBRANCH   8  11
ENDBRANCH   6   7
BRANCH   6  31
ATOM     31  C   UNL A   1      41.886  30.685  35.068  1.00  0.00     0.070 C 
BRANCH  31  32
ATOM     32  C   UNL A   1      43.415  30.494  34.789  1.00  0.00    -0.045 A 
ATOM     33  C   UNL A   1      43.727  32.061  33.979  1.00  0.00     0.005 A 
ATOM     34  C   UNL A   1      45.046  29.595  35.585  1.00  0.00     0.005 A 
ATOM     35  C   UNL A   1      45.282  32.691  33.944  1.00  0.00     0.021 A 
ATOM     36  C   UNL A   1      46.585  30.438  35.470  1.00  0.00     0.021 A 
ATOM     37  C   UNL A   1      46.628  31.924  34.653  1.00  0.00     0.041 A 
ATOM     38  Cl  UNL A   1      48.177  32.604  34.293  1.00  0.00    -0.084 Cl
ENDBRANCH  31  32
ENDBRANCH   6  31
ENDBRANCH   3   6
ENDBRANCH   1   2
BRANCH   1  39
ATOM     39  C   UNL A   1      41.869  25.707  37.199  1.00  0.00     0.042 C 
BRANCH  39  40
ATOM     40  C   UNL A   1      42.028  24.437  36.353  1.00  0.00     0.118 C 
BRANCH  40  41
ATOM     41  N   UNL A   1      43.382  23.925  36.477  1.00  0.00    -0.352 N 
ATOM     42  C   UNL A   1      44.344  23.625  35.559  1.00  0.00     0.251 C 
ATOM     43  H   UNL A   1      43.659  23.763  37.407  1.00  0.00     0.163 HD
ATOM     44  O   UNL A   1      45.124  22.717  35.849  1.00  0.00    -0.269 OA
BRANCH  42  45
ATOM     45  C   UNL A   1      44.589  24.405  34.325  1.00  0.00     0.039 A 
ATOM     46  C   UNL A   1      44.953  25.753  34.486  1.00  0.00     0.014 A 
ATOM     47  C   UNL A   1      44.224  23.947  33.061  1.00  0.00     0.014 A 
ATOM     48  C   UNL A   1      44.906  26.649  33.414  1.00  0.00     0.010 A 
ATOM     49  C   UNL A   1      44.167  24.851  31.988  1.00  0.00     0.010 A 
ATOM     50  C   UNL A   1      44.497  26.213  32.150  1.00  0.00    -0.014 A 
BRANCH  50  51
ATOM     51  C   UNL A   1      44.709  27.134  30.996  1.00  0.00     0.031 A 
ATOM     52  C   UNL A   1      44.918  26.341  29.729  1.00  0.00     0.074 A 
ATOM     53  C   UNL A   1      44.297  28.431  30.927  1.00  0.00     0.049 A 
ATOM     54  N   UNL A   1      43.896  25.859  29.085  1.00  0.00    -0.248 NA
ATOM     55  C   UNL A   1      46.168  25.698  29.327  1.00  0.00     0.031 C 
ATOM     56  C   UNL A   1      43.121  28.990  31.609  1.00  0.00     0.029 A 
ATOM     57  N   UNL A   1      44.738  29.481  30.109  1.00  0.00    -0.354 N 
ATOM     58  C   UNL A   1      44.325  24.861  28.214  1.00  0.00     0.074 A 
ATOM     59  C   UNL A   1      45.757  24.818  28.391  1.00  0.00     0.031 C 
ATOM     60  C   UNL A   1      42.818  30.189  31.064  1.00  0.00     0.029 A 
ATOM     61  C   UNL A   1      43.855  30.586  30.105  1.00  0.00     0.049 A 
ATOM     62  H   UNL A   1      45.575  29.451  29.591  1.00  0.00     0.167 HD
ATOM     63  C   UNL A   1      43.423  24.207  27.412  1.00  0.00     0.037 A 
ATOM     64  C   UNL A   1      43.592  31.339  28.991  1.00  0.00     0.037 A 
ATOM     65  C   UNL A   1      42.039  24.614  27.587  1.00  0.00     0.049 A 
ATOM     66  C   UNL A   1      42.830  30.356  28.147  1.00  0.00     0.074 A 
ATOM     67  C   UNL A   1      40.761  24.117  27.722  1.00  0.00     0.029 A 
ATOM     68  N   UNL A   1      41.903  25.960  27.698  1.00  0.00    -0.354 N 
ATOM     69  N   UNL A   1      41.582  30.008  28.304  1.00  0.00    -0.248 NA
ATOM     70  C   UNL A   1      43.609  29.487  27.260  1.00  0.00     0.031 C 
ATOM     71  C   UNL A   1      39.890  25.252  27.945  1.00  0.00     0.029 A 
ATOM     72  C   UNL A   1      40.645  26.413  27.856  1.00  0.00     0.049 A 
ATOM     73  H   UNL A   1      42.677  26.568  27.664  1.00  0.00     0.167 HD
ATOM     74  C   UNL A   1      41.487  28.736  27.745  1.00  0.00     0.074 A 
ATOM     75  C   UNL A   1      42.725  28.534  27.004  1.00  0.00     0.031 C 
ATOM     76  C   UNL A   1      40.511  27.835  28.080  1.00  0.00     0.037 A 
BRANCH  63  77
ATOM     77  C   UNL A   1      43.761  23.452  26.175  1.00  0.00     0.057 A 
ATOM     78  C   UNL A   1      43.623  22.051  26.218  1.00  0.00     0.134 A 
ATOM     79  C   UNL A   1      44.422  23.985  25.068  1.00  0.00     0.134 A 
ATOM     80  F   UNL A   1      43.015  21.466  27.263  1.00  0.00    -0.206 F 
ATOM     81  C   UNL A   1      44.143  21.213  25.229  1.00  0.00     0.040 A 
ATOM     82  C   UNL A   1      44.937  23.155  24.057  1.00  0.00     0.040 A 
ATOM     83  F   UNL A   1      44.627  25.306  24.967  1.00  0.00    -0.206 F 
ATOM     84  C   UNL A   1      44.811  21.767  24.143  1.00  0.00     0.006 A 
ENDBRANCH  63  77
BRANCH  64  85
ATOM     85  C   UNL A   1      44.687  32.197  28.408  1.00  0.00     0.057 A 
ATOM     86  C   UNL A   1      45.591  32.834  29.275  1.00  0.00     0.134 A 
ATOM     87  C   UNL A   1      44.893  32.458  27.042  1.00  0.00     0.134 A 
ATOM     88  F   UNL A   1      45.393  32.801  30.601  1.00  0.00    -0.206 F 
ATOM     89  C   UNL A   1      46.720  33.525  28.814  1.00  0.00     0.040 A 
ATOM     90  C   UNL A   1      46.038  33.113  26.563  1.00  0.00     0.040 A 
ATOM     91  F   UNL A   1      43.999  32.086  26.115  1.00  0.00    -0.206 F 
ATOM     92  C   UNL A   1      46.974  33.622  27.452  1.00  0.00     0.006 A 
ENDBRANCH  64  85
BRANCH  76  93
ATOM     93  C   UNL A   1      39.327  28.363  28.797  1.00  0.00     0.057 A 
ATOM     94  C   UNL A   1      39.201  28.135  30.170  1.00  0.00     0.134 A 
ATOM     95  C   UNL A   1      38.372  29.178  28.179  1.00  0.00     0.134 A 
ATOM     96  F   UNL A   1      40.103  27.385  30.824  1.00  0.00    -0.206 F 
ATOM     97  C   UNL A   1      38.178  28.713  30.912  1.00  0.00     0.040 A 
ATOM     98  C   UNL A   1      37.355  29.786  28.918  1.00  0.00     0.040 A 
ATOM     99  F   UNL A   1      38.418  29.424  26.859  1.00  0.00    -0.206 F 
ATOM    100  C   UNL A   1      37.262  29.558  30.290  1.00  0.00     0.006 A 
ENDBRANCH  76  93
ENDBRANCH  50  51
ENDBRANCH  42  45
ENDBRANCH  40  41
ENDBRANCH  39  40
ENDBRANCH   1  39
TORSDOF 16
ENDMDL
MODEL 2
REMARK VINA RESULT:      -9.6      2.257      3.910
REMARK SMILES Cc1oc2c(C)c3oc(=O)c(CCC(=O)N[C@H](Cc4ccc(Cl)cc4)C(=O)NCCCNC(=O)c4ccc(-c5c6nc(c(-c7c(F)cccc7F)c7ccc([nH]7)c(-c7c(F)cccc7F)c7nc(c(-c8c(F)cccc8F)c8ccc5[nH]8)C=C7)C=C6)cc4)c(C)c3cc2c1C
REMARK SMILES IDX 29 1 28 2 26 3 27 4 17 6 16 7 14 8 15 9 13 11 12 12 11 13
REMARK SMILES IDX 1 14 2 15 3 16 94 17 4 18 93 19 95 20 5 21 92 22 6 23 7 24
REMARK SMILES IDX 91 25 8 26 89 27 9 28 90 29 10 30 18 31 19 32 20 33 25 34
REMARK SMILES IDX 21 35 24 36 22 37 23 38 30 39 31 40 32 41 33 42 34 44 35 45
REMARK SMILES IDX 36 46 88 47 37 48 87 49 38 50 39 51 40 52 81 53 41 54 86 55
REMARK SMILES IDX 80 56 82 57 42 58 85 59 79 60 78 61 43 63 69 64 52 65 68 66
REMARK SMILES IDX 53 67 56 68 67 69 83 70 54 71 55 72 66 74 84 75 57 76 44 77
REMARK SMILES IDX 45 78 50 79 46 80 47 81 49 82 51 83 48 84 70 85 71 86 76 87
REMARK SMILES IDX 72 88 73 89 75 90 77 91 74 92 58 93 59 94 64 95 60 96 61 97
REMARK SMILES IDX 63 98 65 99 62 100
REMARK H PARENT 28 5 16 10 32 43 82 62 56 73
REMARK Flexibility Score: inf
ROOT
ATOM      1  C   UNL A   1      43.401  27.242  36.226  1.00  0.00     0.117 C 
ENDROOT
BRANCH   1   2
ATOM      2  N   UNL A   1      42.396  27.149  35.188  1.00  0.00    -0.354 N 
ATOM      3  C   UNL A   1      41.609  28.143  34.661  1.00  0.00     0.242 C 
ATOM      4  O   UNL A   1      40.818  27.826  33.768  1.00  0.00    -0.273 OA
ATOM      5  H   UNL A   1      42.259  26.250  34.809  1.00  0.00     0.163 HD
BRANCH   3   6
ATOM      6  C   UNL A   1      41.486  29.519  35.384  1.00  0.00     0.175 C 
BRANCH   6   7
ATOM      7  N   UNL A   1      40.112  29.913  35.761  1.00  0.00    -0.344 N 
ATOM      8  C   UNL A   1      39.532  30.905  36.497  1.00  0.00     0.220 C 
ATOM      9  O   UNL A   1      38.320  30.756  36.699  1.00  0.00    -0.275 OA
ATOM     10  H   UNL A   1      39.441  29.301  35.382  1.00  0.00     0.164 HD
BRANCH   8  11
ATOM     11  C   UNL A   1      40.215  32.204  36.996  1.00  0.00     0.105 C 
BRANCH  11  12
ATOM     12  C   UNL A   1      40.002  33.626  36.383  1.00  0.00     0.053 C 
BRANCH  12  13
ATOM     13  C   UNL A   1      38.706  33.870  35.650  1.00  0.00     0.042 A 
ATOM     14  C   UNL A   1      34.099  34.115  27.976  1.00  0.00     0.088 C 
ATOM     15  C   UNL A   1      34.867  33.892  29.215  1.00  0.00     0.105 A 
ATOM     16  O   UNL A   1      34.145  33.762  30.361  1.00  0.00    -0.461 OA
ATOM     17  C   UNL A   1      36.217  33.828  29.479  1.00  0.00    -0.002 A 
ATOM     18  C   UNL A   1      35.021  33.756  31.414  1.00  0.00     0.141 A 
ATOM     19  C   UNL A   1      36.331  33.871  30.899  1.00  0.00     0.025 A 
ATOM     20  C   UNL A   1      37.361  33.800  28.534  1.00  0.00     0.049 C 
ATOM     21  C   UNL A   1      34.608  33.663  32.760  1.00  0.00     0.036 A 
ATOM     22  C   UNL A   1      37.493  33.988  31.702  1.00  0.00     0.024 A 
ATOM     23  C   UNL A   1      33.242  33.371  33.252  1.00  0.00     0.052 C 
ATOM     24  C   UNL A   1      35.737  33.828  33.529  1.00  0.00     0.145 A 
ATOM     25  C   UNL A   1      37.308  33.994  33.057  1.00  0.00     0.022 A 
ATOM     26  O   UNL A   1      35.527  33.687  35.317  1.00  0.00    -0.422 OA
ATOM     27  C   UNL A   1      38.755  34.066  34.144  1.00  0.00    -0.030 A 
ATOM     28  C   UNL A   1      36.997  33.650  36.648  1.00  0.00     0.339 A 
ATOM     29  C   UNL A   1      39.993  34.450  33.363  1.00  0.00     0.046 C 
ATOM     30  O   UNL A   1      36.932  33.458  37.861  1.00  0.00    -0.246 OA
ENDBRANCH  12  13
ENDBRANCH  11  12
ENDBRANCH   8  11
ENDBRANCH   6   7
BRANCH   6  31
ATOM     31  C   UNL A   1      42.180  30.474  34.448  1.00  0.00     0.070 C 
BRANCH  31  32
ATOM     32  C   UNL A   1      41.545  31.402  33.358  1.00  0.00    -0.045 A 
ATOM     33  C   UNL A   1      42.921  32.529  33.145  1.00  0.00     0.005 A 
ATOM     34  C   UNL A   1      40.247  31.322  31.806  1.00  0.00     0.005 A 
ATOM     35  C   UNL A   1      43.073  33.404  31.721  1.00  0.00     0.021 A 
ATOM     36  C   UNL A   1      40.604  32.297  30.387  1.00  0.00     0.021 A 
ATOM     37  C   UNL A   1      41.980  33.288  30.419  1.00  0.00     0.041 A 
ATOM     38  Cl  UNL A   1      42.170  34.451  29.153  1.00  0.00    -0.084 Cl
ENDBRANCH  31  32
ENDBRANCH   6  31
ENDBRANCH   3   6
ENDBRANCH   1   2
BRANCH   1  39
ATOM     39  C   UNL A   1      43.498  26.031  37.166  1.00  0.00     0.042 C 
BRANCH  39  40
ATOM     40  C   UNL A   1      42.886  24.736  36.615  1.00  0.00     0.118 C 
BRANCH  40  41
ATOM     41  N   UNL A   1      43.928  23.743  36.414  1.00  0.00    -0.352 N 
ATOM     42  C   UNL A   1      44.486  23.204  35.294  1.00  0.00     0.251 C 
ATOM     43  H   UNL A   1      44.304  23.390  37.252  1.00  0.00     0.163 HD
ATOM     44  O   UNL A   1      44.891  22.043  35.379  1.00  0.00    -0.269 OA
BRANCH  42  45
ATOM     45  C   UNL A   1      44.757  23.962  34.051  1.00  0.00     0.039 A 
ATOM     46  C   UNL A   1      45.480  25.159  34.182  1.00  0.00     0.014 A 
ATOM     47  C   UNL A   1      44.117  23.684  32.846  1.00  0.00     0.014 A 
ATOM     48  C   UNL A   1      45.525  26.096  33.145  1.00  0.00     0.010 A 
ATOM     49  C   UNL A   1      44.154  24.630  31.809  1.00  0.00     0.010 A 
ATOM     50  C   UNL A   1      44.849  25.850  31.947  1.00  0.00    -0.014 A 
BRANCH  50  51
ATOM     51  C   UNL A   1      45.136  26.748  30.790  1.00  0.00     0.031 A 
ATOM     52  C   UNL A   1      45.295  25.936  29.528  1.00  0.00     0.074 A 
ATOM     53  C   UNL A   1      44.821  28.072  30.714  1.00  0.00     0.049 A 
ATOM     54  N   UNL A   1      44.245  25.528  28.878  1.00  0.00    -0.248 NA
ATOM     55  C   UNL A   1      46.497  25.202  29.137  1.00  0.00     0.031 C 
ATOM     56  C   UNL A   1      43.684  28.719  31.385  1.00  0.00     0.029 A 
ATOM     57  N   UNL A   1      45.343  29.083  29.895  1.00  0.00    -0.354 N 
ATOM     58  C   UNL A   1      44.605  24.498  28.014  1.00  0.00     0.074 A 
ATOM     59  C   UNL A   1      46.029  24.350  28.201  1.00  0.00     0.031 C 
ATOM     60  C   UNL A   1      43.474  29.934  30.833  1.00  0.00     0.029 A 
ATOM     61  C   UNL A   1      44.544  30.250  29.880  1.00  0.00     0.049 A 
ATOM     62  H   UNL A   1      46.179  28.990  29.384  1.00  0.00     0.167 HD
ATOM     63  C   UNL A   1      43.664  23.909  27.207  1.00  0.00     0.037 A 
ATOM     64  C   UNL A   1      44.345  31.016  28.762  1.00  0.00     0.037 A 
ATOM     65  C   UNL A   1      42.312  24.417  27.371  1.00  0.00     0.049 A 
ATOM     66  C   UNL A   1      43.519  30.088  27.916  1.00  0.00     0.074 A 
ATOM     67  C   UNL A   1      41.000  24.016  27.498  1.00  0.00     0.029 A 
ATOM     68  N   UNL A   1      42.274  25.770  27.476  1.00  0.00    -0.354 N 
ATOM     69  N   UNL A   1      42.248  29.833  28.065  1.00  0.00    -0.248 NA
ATOM     70  C   UNL A   1      44.238  29.161  27.038  1.00  0.00     0.031 C 
ATOM     71  C   UNL A   1      40.213  25.213  27.711  1.00  0.00     0.029 A 
ATOM     72  C   UNL A   1      41.053  26.315  27.623  1.00  0.00     0.049 A 
ATOM     73  H   UNL A   1      43.091  26.320  27.446  1.00  0.00     0.167 HD
ATOM     74  C   UNL A   1      42.064  28.569  27.510  1.00  0.00     0.074 A 
ATOM     75  C   UNL A   1      43.288  28.274  26.778  1.00  0.00     0.031 C 
ATOM     76  C   UNL A   1      41.021  27.743  27.840  1.00  0.00     0.037 A 
BRANCH  63  77
ATOM     77  C   UNL A   1      43.954  23.126  25.975  1.00  0.00     0.057 A 
ATOM     78  C   UNL A   1      43.697  21.742  26.017  1.00  0.00     0.134 A 
ATOM     79  C   UNL A   1      44.674  23.600  24.878  1.00  0.00     0.134 A 
ATOM     80  F   UNL A   1      43.026  21.212  27.054  1.00  0.00    -0.206 F 
ATOM     81  C   UNL A   1      44.158  20.861  25.036  1.00  0.00     0.040 A 
ATOM     82  C   UNL A   1      45.131  22.726  23.875  1.00  0.00     0.040 A 
ATOM     83  F   UNL A   1      44.992  24.898  24.780  1.00  0.00    -0.206 F 
ATOM     84  C   UNL A   1      44.886  21.354  23.959  1.00  0.00     0.006 A 
ENDBRANCH  63  77
BRANCH  64  85
ATOM     85  C   UNL A   1      45.504  31.788  28.184  1.00  0.00     0.057 A 
ATOM     86  C   UNL A   1      46.606  32.083  29.004  1.00  0.00     0.134 A 
ATOM     87  C   UNL A   1      45.593  32.286  26.872  1.00  0.00     0.134 A 
ATOM     88  F   UNL A   1      46.563  31.813  30.318  1.00  0.00    -0.206 F 
ATOM     89  C   UNL A   1      47.782  32.664  28.511  1.00  0.00     0.040 A 
ATOM     90  C   UNL A   1      46.776  32.834  26.352  1.00  0.00     0.040 A 
ATOM     91  F   UNL A   1      44.543  32.258  26.039  1.00  0.00    -0.206 F 
ATOM     92  C   UNL A   1      47.888  32.995  27.165  1.00  0.00     0.006 A 
ENDBRANCH  64  85
BRANCH  76  93
ATOM     93  C   UNL A   1      39.874  28.361  28.547  1.00  0.00     0.057 A 
ATOM     94  C   UNL A   1      38.945  29.108  27.817  1.00  0.00     0.134 A 
ATOM     95  C   UNL A   1      39.617  28.141  29.904  1.00  0.00     0.134 A 
ATOM     96  F   UNL A   1      39.122  29.328  26.505  1.00  0.00    -0.206 F 
ATOM     97  C   UNL A   1      37.787  29.603  28.408  1.00  0.00     0.040 A 
ATOM     98  C   UNL A   1      38.445  28.610  30.502  1.00  0.00     0.040 A 
ATOM     99  F   UNL A   1      40.477  27.450  30.671  1.00  0.00    -0.206 F 
ATOM    100  C   UNL A   1      37.524  29.337  29.750  1.00  0.00     0.006 A 
ENDBRANCH  76  93
ENDBRANCH  50  51
ENDBRANCH  42  45
ENDBRANCH  40  41
ENDBRANCH  39  40
ENDBRANCH   1  39
TORSDOF 16
ENDMDL
MODEL 3
REMARK VINA RESULT:      -9.2      2.823      7.675
REMARK SMILES Cc1oc2c(C)c3oc(=O)c(CCC(=O)N[C@H](Cc4ccc(Cl)cc4)C(=O)NCCCNC(=O)c4ccc(-c5c6nc(c(-c7c(F)cccc7F)c7ccc([nH]7)c(-c7c(F)cccc7F)c7nc(c(-c8c(F)cccc8F)c8ccc5[nH]8)C=C7)C=C6)cc4)c(C)c3cc2c1C
REMARK SMILES IDX 29 1 28 2 26 3 27 4 17 6 16 7 14 8 15 9 13 11 12 12 11 13
REMARK SMILES IDX 1 14 2 15 3 16 94 17 4 18 93 19 95 20 5 21 92 22 6 23 7 24
REMARK SMILES IDX 91 25 8 26 89 27 9 28 90 29 10 30 18 31 19 32 20 33 25 34
REMARK SMILES IDX 21 35 24 36 22 37 23 38 30 39 31 40 32 41 33 42 34 44 35 45
REMARK SMILES IDX 36 46 88 47 37 48 87 49 38 50 39 51 40 52 81 53 41 54 86 55
REMARK SMILES IDX 80 56 82 57 42 58 85 59 79 60 78 61 43 63 69 64 52 65 68 66
REMARK SMILES IDX 53 67 56 68 67 69 83 70 54 71 55 72 66 74 84 75 57 76 44 77
REMARK SMILES IDX 45 78 50 79 46 80 47 81 49 82 51 83 48 84 70 85 71 86 76 87
REMARK SMILES IDX 72 88 73 89 75 90 77 91 74 92 58 93 59 94 64 95 60 96 61 97
REMARK SMILES IDX 63 98 65 99 62 100
REMARK H PARENT 28 5 16 10 32 43 82 62 56 73
REMARK Flexibility Score: inf
ROOT
ATOM      1  C   UNL A   1      38.294  31.439  34.432  1.00  0.00     0.117 C 
ENDROOT
BRANCH   1   2
ATOM      2  N   UNL A   1      37.934  30.053  34.227  1.00  0.00    -0.354 N 
ATOM      3  C   UNL A   1      37.547  29.427  33.068  1.00  0.00     0.242 C 
ATOM      4  O   UNL A   1      37.292  28.221  33.132  1.00  0.00    -0.273 OA
ATOM      5  H   UNL A   1      37.972  29.480  35.028  1.00  0.00     0.163 HD
BRANCH   3   6
ATOM      6  C   UNL A   1      37.130  30.264  31.820  1.00  0.00     0.175 C 
BRANCH   6   7
ATOM      7  N   UNL A   1      35.827  30.954  31.930  1.00  0.00    -0.344 N 
ATOM      8  C   UNL A   1      35.230  32.043  31.364  1.00  0.00     0.220 C 
ATOM      9  O   UNL A   1      34.158  32.374  31.886  1.00  0.00    -0.275 OA
ATOM     10  H   UNL A   1      35.235  30.512  32.581  1.00  0.00     0.164 HD
BRANCH   8  11
ATOM     11  C   UNL A   1      35.712  32.808  30.104  1.00  0.00     0.105 C 
BRANCH  11  12
ATOM     12  C   UNL A   1      36.931  33.784  30.056  1.00  0.00     0.053 C 
BRANCH  12  13
ATOM     13  C   UNL A   1      37.744  33.931  31.317  1.00  0.00     0.042 A 
ATOM     14  C   UNL A   1      45.721  34.194  35.377  1.00  0.00     0.088 C 
ATOM     15  C   UNL A   1      44.457  34.309  34.628  1.00  0.00     0.105 A 
ATOM     16  O   UNL A   1      43.414  34.888  35.285  1.00  0.00    -0.461 OA
ATOM     17  C   UNL A   1      44.075  33.902  33.370  1.00  0.00    -0.002 A 
ATOM     18  C   UNL A   1      42.291  34.734  34.513  1.00  0.00     0.141 A 
ATOM     19  C   UNL A   1      42.657  34.051  33.333  1.00  0.00     0.025 A 
ATOM     20  C   UNL A   1      44.900  33.341  32.271  1.00  0.00     0.049 C 
ATOM     21  C   UNL A   1      41.017  35.195  34.906  1.00  0.00     0.036 A 
ATOM     22  C   UNL A   1      41.738  33.637  32.337  1.00  0.00     0.024 A 
ATOM     23  C   UNL A   1      40.704  36.057  36.069  1.00  0.00     0.052 C 
ATOM     24  C   UNL A   1      40.128  34.743  33.958  1.00  0.00     0.145 A 
ATOM     25  C   UNL A   1      40.420  33.922  32.559  1.00  0.00     0.022 A 
ATOM     26  O   UNL A   1      38.404  35.244  34.161  1.00  0.00    -0.422 OA
ATOM     27  C   UNL A   1      39.198  33.488  31.294  1.00  0.00    -0.030 A 
ATOM     28  C   UNL A   1      36.955  34.940  32.842  1.00  0.00     0.339 A 
ATOM     29  C   UNL A   1      39.797  32.543  30.274  1.00  0.00     0.046 C 
ATOM     30  O   UNL A   1      35.793  35.338  32.871  1.00  0.00    -0.246 OA
ENDBRANCH  12  13
ENDBRANCH  11  12
ENDBRANCH   8  11
ENDBRANCH   6   7
BRANCH   6  31
ATOM     31  C   UNL A   1      37.226  29.280  30.684  1.00  0.00     0.070 C 
BRANCH  31  32
ATOM     32  C   UNL A   1      38.392  29.092  29.655  1.00  0.00    -0.045 A 
ATOM     33  C   UNL A   1      38.942  27.471  30.183  1.00  0.00     0.005 A 
ATOM     34  C   UNL A   1      38.899  29.601  27.762  1.00  0.00     0.005 A 
ATOM     35  C   UNL A   1      39.791  26.488  29.120  1.00  0.00     0.021 A 
ATOM     36  C   UNL A   1      39.764  28.413  26.797  1.00  0.00     0.021 A 
ATOM     37  C   UNL A   1      40.173  26.934  27.521  1.00  0.00     0.041 A 
ATOM     38  Cl  UNL A   1      41.264  25.894  26.673  1.00  0.00    -0.084 Cl
ENDBRANCH  31  32
ENDBRANCH   6  31
ENDBRANCH   3   6
ENDBRANCH   1   2
BRANCH   1  39
ATOM     39  C   UNL A   1      39.647  31.678  35.120  1.00  0.00     0.042 C 
BRANCH  39  40
ATOM     40  C   UNL A   1      39.961  30.720  36.277  1.00  0.00     0.118 C 
BRANCH  40  41
ATOM     41  N   UNL A   1      41.366  30.819  36.635  1.00  0.00    -0.352 N 
ATOM     42  C   UNL A   1      42.441  30.020  36.385  1.00  0.00     0.251 C 
ATOM     43  H   UNL A   1      41.583  31.621  37.163  1.00  0.00     0.163 HD
ATOM     44  O   UNL A   1      43.334  30.010  37.234  1.00  0.00    -0.269 OA
BRANCH  42  45
ATOM     45  C   UNL A   1      42.660  29.291  35.115  1.00  0.00     0.039 A 
ATOM     46  C   UNL A   1      43.457  29.926  34.148  1.00  0.00     0.014 A 
ATOM     47  C   UNL A   1      41.916  28.171  34.753  1.00  0.00     0.014 A 
ATOM     48  C   UNL A   1      43.475  29.483  32.821  1.00  0.00     0.010 A 
ATOM     49  C   UNL A   1      41.928  27.735  33.419  1.00  0.00     0.010 A 
ATOM     50  C   UNL A   1      42.698  28.388  32.434  1.00  0.00    -0.014 A 
BRANCH  50  51
ATOM     51  C   UNL A   1      42.947  27.801  31.086  1.00  0.00     0.031 A 
ATOM     52  C   UNL A   1      43.016  28.893  30.047  1.00  0.00     0.074 A 
ATOM     53  C   UNL A   1      43.521  26.590  30.840  1.00  0.00     0.049 A 
ATOM     54  N   UNL A   1      44.111  29.576  29.890  1.00  0.00    -0.248 NA
ATOM     55  C   UNL A   1      41.866  29.561  29.441  1.00  0.00     0.031 C 
ATOM     56  C   UNL A   1      44.510  25.924  31.701  1.00  0.00     0.029 A 
ATOM     57  N   UNL A   1      43.472  25.777  29.699  1.00  0.00    -0.354 N 
ATOM     58  C   UNL A   1      43.832  30.749  29.195  1.00  0.00     0.074 A 
ATOM     59  C   UNL A   1      42.416  30.678  28.920  1.00  0.00     0.031 C 
ATOM     60  C   UNL A   1      45.106  24.930  31.006  1.00  0.00     0.029 A 
ATOM     61  C   UNL A   1      44.450  24.756  29.705  1.00  0.00     0.049 A 
ATOM     62  H   UNL A   1      42.825  25.906  28.968  1.00  0.00     0.167 HD
ATOM     63  C   UNL A   1      44.837  31.635  28.896  1.00  0.00     0.037 A 
ATOM     64  C   UNL A   1      45.118  24.340  28.583  1.00  0.00     0.037 A 
ATOM     65  C   UNL A   1      46.151  31.260  29.392  1.00  0.00     0.049 A 
ATOM     66  C   UNL A   1      45.961  25.547  28.282  1.00  0.00     0.074 A 
ATOM     67  C   UNL A   1      47.262  31.761  30.035  1.00  0.00     0.029 A 
ATOM     68  N   UNL A   1      46.418  29.941  29.214  1.00  0.00    -0.354 N 
ATOM     69  N   UNL A   1      47.056  25.898  28.899  1.00  0.00    -0.248 NA
ATOM     70  C   UNL A   1      45.370  26.584  27.432  1.00  0.00     0.031 C 
ATOM     71  C   UNL A   1      48.167  30.649  30.240  1.00  0.00     0.029 A 
ATOM     72  C   UNL A   1      47.622  29.521  29.643  1.00  0.00     0.049 A 
ATOM     73  H   UNL A   1      45.770  29.329  28.795  1.00  0.00     0.167 HD
ATOM     74  C   UNL A   1      47.148  27.276  28.721  1.00  0.00     0.074 A 
ATOM     75  C   UNL A   1      46.163  27.611  27.701  1.00  0.00     0.031 C 
ATOM     76  C   UNL A   1      47.864  28.099  29.550  1.00  0.00     0.037 A 
BRANCH  63  77
ATOM     77  C   UNL A   1      44.780  32.676  27.834  1.00  0.00     0.057 A 
ATOM     78  C   UNL A   1      44.057  33.850  28.123  1.00  0.00     0.134 A 
ATOM     79  C   UNL A   1      45.175  32.490  26.510  1.00  0.00     0.134 A 
ATOM     80  F   UNL A   1      43.627  34.086  29.374  1.00  0.00    -0.206 F 
ATOM     81  C   UNL A   1      43.711  34.781  27.141  1.00  0.00     0.040 A 
ATOM     82  C   UNL A   1      44.847  33.427  25.513  1.00  0.00     0.040 A 
ATOM     83  F   UNL A   1      45.836  31.382  26.144  1.00  0.00    -0.206 F 
ATOM     84  C   UNL A   1      44.103  34.566  25.824  1.00  0.00     0.006 A 
ENDBRANCH  63  77
BRANCH  64  85
ATOM     85  C   UNL A   1      44.356  23.620  27.499  1.00  0.00     0.057 A 
ATOM     86  C   UNL A   1      43.190  22.913  27.838  1.00  0.00     0.134 A 
ATOM     87  C   UNL A   1      44.713  23.555  26.141  1.00  0.00     0.134 A 
ATOM     88  F   UNL A   1      42.843  22.756  29.124  1.00  0.00    -0.206 F 
ATOM     89  C   UNL A   1      42.346  22.342  26.875  1.00  0.00     0.040 A 
ATOM     90  C   UNL A   1      43.862  23.024  25.161  1.00  0.00     0.040 A 
ATOM     91  F   UNL A   1      45.897  24.009  25.706  1.00  0.00    -0.206 F 
ATOM     92  C   UNL A   1      42.656  22.442  25.525  1.00  0.00     0.006 A 
ENDBRANCH  64  85
BRANCH  76  93
ATOM     93  C   UNL A   1      48.846  27.453  30.452  1.00  0.00     0.057 A 
ATOM     94  C   UNL A   1      48.481  27.177  31.773  1.00  0.00     0.134 A 
ATOM     95  C   UNL A   1      50.096  27.008  30.011  1.00  0.00     0.134 A 
ATOM     96  F   UNL A   1      47.282  27.554  32.245  1.00  0.00    -0.206 F 
ATOM     97  C   UNL A   1      49.318  26.461  32.623  1.00  0.00     0.040 A 
ATOM     98  C   UNL A   1      50.934  26.266  30.847  1.00  0.00     0.040 A 
ATOM     99  F   UNL A   1      50.521  27.256  28.761  1.00  0.00    -0.206 F 
ATOM    100  C   UNL A   1      50.540  25.986  32.155  1.00  0.00     0.006 A 
ENDBRANCH  76  93
ENDBRANCH  50  51
ENDBRANCH  42  45
ENDBRANCH  40  41
ENDBRANCH  39  40
ENDBRANCH   1  39
TORSDOF 16
ENDMDL
