MODEL 1
REMARK VINA RESULT:     -12.3      0.000      0.000
REMARK SMILES O=C(NCCCNC(=O)[C@@H]1CN(c2nc(-c3ccccc3)no2)CC[NH2+]1)c1ccc(-c2c3nc(c(-c4c(F)cccc4F)c4ccc([nH]4)c(-c4c(F)cccc4F)c4nc(c(-c5c(F)cccc5F)c5ccc2[nH]5)C=C4)C=C3)cc1
REMARK SMILES IDX 5 1 4 2 3 3 1 4 2 5 27 7 28 8 80 9 29 10 79 11 30 12 31 13
REMARK SMILES IDX 32 14 73 15 33 16 78 17 72 18 74 19 34 20 77 21 71 22 70 23
REMARK SMILES IDX 35 25 61 26 44 27 60 28 45 29 48 30 59 31 75 32 46 33 47 34
REMARK SMILES IDX 58 36 76 37 49 38 36 39 37 40 42 41 38 42 39 43 41 44 43 45
REMARK SMILES IDX 40 46 62 47 63 48 68 49 64 50 65 51 67 52 69 53 66 54 50 55
REMARK SMILES IDX 51 56 56 57 52 58 53 59 55 60 57 61 54 62 6 63 7 64 8 65
REMARK SMILES IDX 9 67 10 68 11 69 26 70 12 71 25 72 24 75 13 76 14 77 23 78
REMARK SMILES IDX 15 79 22 80 16 81 17 82 21 83 18 84 20 85 19 86
REMARK H PARENT 3 6 74 24 48 35 7 66 26 73 26 74
REMARK Flexibility Score: inf
ROOT
ATOM      1  C   UNL A   1      37.455  19.565  25.026  1.00  0.00     0.042 C 
ENDROOT
BRANCH   1   2
ATOM      2  C   UNL A   1      38.767  20.236  25.395  1.00  0.00     0.118 C 
BRANCH   2   3
ATOM      3  N   UNL A   1      39.814  19.263  25.700  1.00  0.00    -0.352 N 
ATOM      4  O   UNL A   1      41.913  18.513  26.028  1.00  0.00    -0.269 OA
ATOM      5  C   UNL A   1      41.118  19.452  26.080  1.00  0.00     0.251 C 
ATOM      6  H   UNL A   1      39.538  18.321  25.619  1.00  0.00     0.163 HD
BRANCH   5   7
ATOM      7  C   UNL A   1      41.570  20.776  26.545  1.00  0.00     0.039 A 
ATOM      8  C   UNL A   1      41.771  21.806  25.626  1.00  0.00     0.014 A 
ATOM      9  C   UNL A   1      41.762  21.010  27.910  1.00  0.00     0.014 A 
ATOM     10  C   UNL A   1      42.338  23.000  26.040  1.00  0.00     0.010 A 
ATOM     11  C   UNL A   1      42.207  22.262  28.341  1.00  0.00     0.010 A 
ATOM     12  C   UNL A   1      42.527  23.258  27.405  1.00  0.00    -0.014 A 
BRANCH  12  13
ATOM     13  C   UNL A   1      42.964  24.614  27.814  1.00  0.00     0.031 A 
ATOM     14  C   UNL A   1      44.410  25.016  27.766  1.00  0.00     0.074 A 
ATOM     15  C   UNL A   1      42.021  25.498  28.195  1.00  0.00     0.049 A 
ATOM     16  N   UNL A   1      44.951  26.166  28.077  1.00  0.00    -0.248 NA
ATOM     17  C   UNL A   1      45.374  23.999  27.322  1.00  0.00     0.031 C 
ATOM     18  C   UNL A   1      40.584  25.210  28.284  1.00  0.00     0.029 A 
ATOM     19  N   UNL A   1      42.114  26.817  28.553  1.00  0.00    -0.354 N 
ATOM     20  C   UNL A   1      46.317  26.008  27.887  1.00  0.00     0.074 A 
ATOM     21  C   UNL A   1      46.527  24.642  27.457  1.00  0.00     0.031 C 
ATOM     22  C   UNL A   1      39.929  26.330  28.613  1.00  0.00     0.029 A 
ATOM     23  C   UNL A   1      40.900  27.392  28.842  1.00  0.00     0.049 A 
ATOM     24  H   UNL A   1      42.967  27.305  28.599  1.00  0.00     0.167 HD
ATOM     25  C   UNL A   1      47.301  26.926  28.051  1.00  0.00     0.037 A 
ATOM     26  C   UNL A   1      40.599  28.630  29.271  1.00  0.00     0.037 A 
ATOM     27  C   UNL A   1      47.075  28.286  28.469  1.00  0.00     0.049 A 
ATOM     28  C   UNL A   1      41.715  29.610  29.479  1.00  0.00     0.074 A 
ATOM     29  C   UNL A   1      48.002  29.300  28.639  1.00  0.00     0.029 A 
ATOM     30  N   UNL A   1      45.836  28.822  28.789  1.00  0.00    -0.354 N 
ATOM     31  N   UNL A   1      43.000  29.454  29.269  1.00  0.00    -0.248 NA
ATOM     32  C   UNL A   1      41.341  30.935  29.988  1.00  0.00     0.031 C 
ATOM     33  C   UNL A   1      47.330  30.433  29.111  1.00  0.00     0.029 A 
ATOM     34  C   UNL A   1      45.977  30.144  29.180  1.00  0.00     0.049 A 
ATOM     35  H   UNL A   1      44.981  28.334  28.746  1.00  0.00     0.167 HD
ATOM     36  C   UNL A   1      43.587  30.665  29.601  1.00  0.00     0.074 A 
ATOM     37  C   UNL A   1      42.514  31.551  30.005  1.00  0.00     0.031 C 
ATOM     38  C   UNL A   1      44.896  31.012  29.577  1.00  0.00     0.037 A 
BRANCH  25  39
ATOM     39  C   UNL A   1      48.716  26.484  27.803  1.00  0.00     0.057 A 
ATOM     40  C   UNL A   1      49.501  25.903  28.806  1.00  0.00     0.134 A 
ATOM     41  C   UNL A   1      49.282  26.596  26.527  1.00  0.00     0.134 A 
ATOM     42  F   UNL A   1      49.025  25.776  30.054  1.00  0.00    -0.206 F 
ATOM     43  C   UNL A   1      50.805  25.468  28.554  1.00  0.00     0.040 A 
ATOM     44  C   UNL A   1      50.574  26.142  26.255  1.00  0.00     0.040 A 
ATOM     45  F   UNL A   1      48.584  27.137  25.516  1.00  0.00    -0.206 F 
ATOM     46  C   UNL A   1      51.341  25.580  27.273  1.00  0.00     0.006 A 
ENDBRANCH  25  39
BRANCH  26  47
ATOM     47  C   UNL A   1      39.188  28.995  29.549  1.00  0.00     0.057 A 
ATOM     48  C   UNL A   1      38.629  28.820  30.819  1.00  0.00     0.134 A 
ATOM     49  C   UNL A   1      38.367  29.537  28.551  1.00  0.00     0.134 A 
ATOM     50  F   UNL A   1      39.360  28.293  31.812  1.00  0.00    -0.206 F 
ATOM     51  C   UNL A   1      37.300  29.153  31.084  1.00  0.00     0.040 A 
ATOM     52  C   UNL A   1      37.047  29.905  28.810  1.00  0.00     0.040 A 
ATOM     53  F   UNL A   1      38.847  29.742  27.316  1.00  0.00    -0.206 F 
ATOM     54  C   UNL A   1      36.508  29.704  30.079  1.00  0.00     0.006 A 
ENDBRANCH  26  47
BRANCH  38  55
ATOM     55  C   UNL A   1      45.232  32.422  29.962  1.00  0.00     0.057 A 
ATOM     56  C   UNL A   1      45.558  32.772  31.279  1.00  0.00     0.134 A 
ATOM     57  C   UNL A   1      45.252  33.437  28.998  1.00  0.00     0.134 A 
ATOM     58  F   UNL A   1      45.541  31.849  32.252  1.00  0.00    -0.206 F 
ATOM     59  C   UNL A   1      45.866  34.088  31.627  1.00  0.00     0.040 A 
ATOM     60  C   UNL A   1      45.587  34.750  29.327  1.00  0.00     0.040 A 
ATOM     61  F   UNL A   1      44.956  33.166  27.717  1.00  0.00    -0.206 F 
ATOM     62  C   UNL A   1      45.888  35.080  30.646  1.00  0.00     0.006 A 
ENDBRANCH  38  55
ENDBRANCH  12  13
ENDBRANCH   5   7
ENDBRANCH   2   3
ENDBRANCH   1   2
BRANCH   1  63
ATOM     63  C   UNL A   1      36.295  20.544  25.010  1.00  0.00     0.118 C 
BRANCH  63  64
ATOM     64  N   UNL A   1      35.017  19.864  25.171  1.00  0.00    -0.351 N 
ATOM     65  C   UNL A   1      33.720  20.243  25.019  1.00  0.00     0.280 C 
ATOM     66  H   UNL A   1      35.113  18.925  25.450  1.00  0.00     0.163 HD
ATOM     67  O   UNL A   1      32.882  19.391  25.346  1.00  0.00    -0.268 OA
BRANCH  65  68
ATOM     68  C   UNL A   1      33.258  21.616  24.482  1.00  0.00     0.292 C 
ATOM     69  C   UNL A   1      32.274  22.196  25.540  1.00  0.00     0.197 C 
ATOM     70  N   UNL A   1      32.656  21.531  23.124  1.00  0.00    -0.333 N 
ATOM     71  N   UNL A   1      31.485  23.321  25.030  1.00  0.00    -0.312 N 
ATOM     72  C   UNL A   1      32.105  22.832  22.729  1.00  0.00     0.283 C 
ATOM     73  H   UNL A   1      31.909  20.837  23.132  1.00  0.00     0.347 HD
ATOM     74  H   UNL A   1      33.379  21.260  22.458  1.00  0.00     0.347 HD
ATOM     75  C   UNL A   1      30.963  23.239  23.673  1.00  0.00     0.183 C 
BRANCH  71  76
ATOM     76  C   UNL A   1      31.495  24.511  25.655  1.00  0.00     0.324 A 
ATOM     77  N   UNL A   1      32.471  25.370  25.808  1.00  0.00    -0.171 NA
ATOM     78  O   UNL A   1      30.313  24.942  26.196  1.00  0.00    -0.315 OA
ATOM     79  C   UNL A   1      31.844  26.411  26.446  1.00  0.00     0.204 A 
ATOM     80  N   UNL A   1      30.554  26.197  26.740  1.00  0.00    -0.055 NA
BRANCH  79  81
ATOM     81  C   UNL A   1      32.486  27.683  26.687  1.00  0.00     0.023 A 
ATOM     82  C   UNL A   1      31.730  28.796  27.065  1.00  0.00     0.012 A 
ATOM     83  C   UNL A   1      33.863  27.815  26.468  1.00  0.00     0.012 A 
ATOM     84  C   UNL A   1      32.347  30.039  27.213  1.00  0.00     0.001 A 
ATOM     85  C   UNL A   1      34.474  29.062  26.604  1.00  0.00     0.001 A 
ATOM     86  C   UNL A   1      33.715  30.172  26.975  1.00  0.00     0.000 A 
ENDBRANCH  79  81
ENDBRANCH  71  76
ENDBRANCH  65  68
ENDBRANCH  63  64
ENDBRANCH   1  63
TORSDOF 12
ENDMDL
MODEL 2
REMARK VINA RESULT:     -12.3      4.521      8.325
REMARK SMILES O=C(NCCCNC(=O)[C@@H]1CN(c2nc(-c3ccccc3)no2)CC[NH2+]1)c1ccc(-c2c3nc(c(-c4c(F)cccc4F)c4ccc([nH]4)c(-c4c(F)cccc4F)c4nc(c(-c5c(F)cccc5F)c5ccc2[nH]5)C=C4)C=C3)cc1
REMARK SMILES IDX 5 1 4 2 3 3 1 4 2 5 27 7 28 8 80 9 29 10 79 11 30 12 31 13
REMARK SMILES IDX 32 14 73 15 33 16 78 17 72 18 74 19 34 20 77 21 71 22 70 23
REMARK SMILES IDX 35 25 61 26 44 27 60 28 45 29 48 30 59 31 75 32 46 33 47 34
REMARK SMILES IDX 58 36 76 37 49 38 36 39 37 40 42 41 38 42 39 43 41 44 43 45
REMARK SMILES IDX 40 46 62 47 63 48 68 49 64 50 65 51 67 52 69 53 66 54 50 55
REMARK SMILES IDX 51 56 56 57 52 58 53 59 55 60 57 61 54 62 6 63 7 64 8 65
REMARK SMILES IDX 9 67 10 68 11 69 26 70 12 71 25 72 24 75 13 76 14 77 23 78
REMARK SMILES IDX 15 79 22 80 16 81 17 82 21 83 18 84 20 85 19 86
REMARK H PARENT 3 6 74 24 48 35 7 66 26 73 26 74
REMARK Flexibility Score: inf
ROOT
ATOM      1  C   UNL A   1      36.849  23.133  26.141  1.00  0.00     0.042 C 
ENDROOT
BRANCH   1   2
ATOM      2  C   UNL A   1      37.869  24.259  26.123  1.00  0.00     0.118 C 
BRANCH   2   3
ATOM      3  N   UNL A   1      39.240  23.757  26.060  1.00  0.00    -0.352 N 
ATOM      4  O   UNL A   1      41.488  23.856  26.162  1.00  0.00    -0.269 OA
ATOM      5  C   UNL A   1      40.404  24.292  26.549  1.00  0.00     0.251 C 
ATOM      6  H   UNL A   1      39.343  22.896  25.594  1.00  0.00     0.163 HD
BRANCH   5   7
ATOM      7  C   UNL A   1      40.360  25.393  27.529  1.00  0.00     0.039 A 
ATOM      8  C   UNL A   1      39.505  25.314  28.628  1.00  0.00     0.014 A 
ATOM      9  C   UNL A   1      41.201  26.499  27.377  1.00  0.00     0.014 A 
ATOM     10  C   UNL A   1      39.351  26.407  29.464  1.00  0.00     0.010 A 
ATOM     11  C   UNL A   1      41.141  27.546  28.300  1.00  0.00     0.010 A 
ATOM     12  C   UNL A   1      40.194  27.520  29.335  1.00  0.00    -0.014 A 
BRANCH  12  13
ATOM     13  C   UNL A   1      40.118  28.587  30.362  1.00  0.00     0.031 A 
ATOM     14  C   UNL A   1      39.097  29.683  30.275  1.00  0.00     0.074 A 
ATOM     15  C   UNL A   1      40.969  28.526  31.405  1.00  0.00     0.049 A 
ATOM     16  N   UNL A   1      38.892  30.680  31.098  1.00  0.00    -0.248 NA
ATOM     17  C   UNL A   1      38.193  29.669  29.115  1.00  0.00     0.031 C 
ATOM     18  C   UNL A   1      42.007  27.505  31.586  1.00  0.00     0.029 A 
ATOM     19  N   UNL A   1      41.086  29.314  32.519  1.00  0.00    -0.354 N 
ATOM     20  C   UNL A   1      37.855  31.421  30.549  1.00  0.00     0.074 A 
ATOM     21  C   UNL A   1      37.486  30.774  29.308  1.00  0.00     0.031 C 
ATOM     22  C   UNL A   1      42.613  27.695  32.765  1.00  0.00     0.029 A 
ATOM     23  C   UNL A   1      42.068  28.896  33.384  1.00  0.00     0.049 A 
ATOM     24  H   UNL A   1      40.521  30.103  32.685  1.00  0.00     0.167 HD
ATOM     25  C   UNL A   1      37.263  32.536  31.044  1.00  0.00     0.037 A 
ATOM     26  C   UNL A   1      42.505  29.433  34.537  1.00  0.00     0.037 A 
ATOM     27  C   UNL A   1      37.633  33.162  32.287  1.00  0.00     0.049 A 
ATOM     28  C   UNL A   1      41.854  30.687  35.038  1.00  0.00     0.074 A 
ATOM     29  C   UNL A   1      37.077  34.278  32.889  1.00  0.00     0.029 A 
ATOM     30  N   UNL A   1      38.659  32.732  33.117  1.00  0.00    -0.354 N 
ATOM     31  N   UNL A   1      40.856  31.361  34.521  1.00  0.00    -0.248 NA
ATOM     32  C   UNL A   1      42.393  31.258  36.277  1.00  0.00     0.031 C 
ATOM     33  C   UNL A   1      37.799  34.553  34.056  1.00  0.00     0.029 A 
ATOM     34  C   UNL A   1      38.768  33.574  34.212  1.00  0.00     0.049 A 
ATOM     35  H   UNL A   1      39.226  31.944  32.953  1.00  0.00     0.167 HD
ATOM     36  C   UNL A   1      40.633  32.426  35.381  1.00  0.00     0.074 A 
ATOM     37  C   UNL A   1      41.587  32.293  36.464  1.00  0.00     0.031 C 
ATOM     38  C   UNL A   1      39.723  33.424  35.282  1.00  0.00     0.037 A 
BRANCH  25  39
ATOM     39  C   UNL A   1      36.169  33.166  30.229  1.00  0.00     0.057 A 
ATOM     40  C   UNL A   1      36.438  33.946  29.098  1.00  0.00     0.134 A 
ATOM     41  C   UNL A   1      34.824  32.945  30.553  1.00  0.00     0.134 A 
ATOM     42  F   UNL A   1      37.703  34.207  28.737  1.00  0.00    -0.206 F 
ATOM     43  C   UNL A   1      35.410  34.501  28.330  1.00  0.00     0.040 A 
ATOM     44  C   UNL A   1      33.787  33.472  29.779  1.00  0.00     0.040 A 
ATOM     45  F   UNL A   1      34.493  32.201  31.620  1.00  0.00    -0.206 F 
ATOM     46  C   UNL A   1      34.080  34.256  28.667  1.00  0.00     0.006 A 
ENDBRANCH  25  39
BRANCH  26  47
ATOM     47  C   UNL A   1      43.624  28.795  35.273  1.00  0.00     0.057 A 
ATOM     48  C   UNL A   1      44.956  29.120  34.995  1.00  0.00     0.134 A 
ATOM     49  C   UNL A   1      43.387  27.851  36.281  1.00  0.00     0.134 A 
ATOM     50  F   UNL A   1      45.248  30.007  34.033  1.00  0.00    -0.206 F 
ATOM     51  C   UNL A   1      46.012  28.517  35.679  1.00  0.00     0.040 A 
ATOM     52  C   UNL A   1      44.431  27.264  36.994  1.00  0.00     0.040 A 
ATOM     53  F   UNL A   1      42.132  27.505  36.604  1.00  0.00    -0.206 F 
ATOM     54  C   UNL A   1      45.750  27.591  36.687  1.00  0.00     0.006 A 
ENDBRANCH  26  47
BRANCH  38  55
ATOM     55  C   UNL A   1      39.693  34.428  36.397  1.00  0.00     0.057 A 
ATOM     56  C   UNL A   1      38.968  34.205  37.575  1.00  0.00     0.134 A 
ATOM     57  C   UNL A   1      40.417  35.622  36.297  1.00  0.00     0.134 A 
ATOM     58  F   UNL A   1      38.240  33.088  37.725  1.00  0.00    -0.206 F 
ATOM     59  C   UNL A   1      38.946  35.147  38.604  1.00  0.00     0.040 A 
ATOM     60  C   UNL A   1      40.426  36.559  37.332  1.00  0.00     0.040 A 
ATOM     61  F   UNL A   1      41.137  35.894  35.198  1.00  0.00    -0.206 F 
ATOM     62  C   UNL A   1      39.683  36.325  38.486  1.00  0.00     0.006 A 
ENDBRANCH  38  55
ENDBRANCH  12  13
ENDBRANCH   5   7
ENDBRANCH   2   3
ENDBRANCH   1   2
BRANCH   1  63
ATOM     63  C   UNL A   1      36.974  22.226  24.930  1.00  0.00     0.118 C 
BRANCH  63  64
ATOM     64  N   UNL A   1      35.997  21.147  24.964  1.00  0.00    -0.351 N 
ATOM     65  C   UNL A   1      34.648  21.088  24.804  1.00  0.00     0.280 C 
ATOM     66  H   UNL A   1      36.402  20.267  25.139  1.00  0.00     0.163 HD
ATOM     67  O   UNL A   1      34.144  19.974  25.001  1.00  0.00    -0.268 OA
BRANCH  65  68
ATOM     68  C   UNL A   1      33.753  22.284  24.408  1.00  0.00     0.292 C 
ATOM     69  C   UNL A   1      33.099  22.802  25.723  1.00  0.00     0.197 C 
ATOM     70  N   UNL A   1      32.749  21.931  23.368  1.00  0.00    -0.333 N 
ATOM     71  N   UNL A   1      31.966  23.700  25.481  1.00  0.00    -0.312 N 
ATOM     72  C   UNL A   1      31.837  23.057  23.138  1.00  0.00     0.283 C 
ATOM     73  H   UNL A   1      32.214  21.121  23.680  1.00  0.00     0.347 HD
ATOM     74  H   UNL A   1      33.235  21.716  22.498  1.00  0.00     0.347 HD
ATOM     75  C   UNL A   1      31.035  23.364  24.413  1.00  0.00     0.183 C 
BRANCH  71  76
ATOM     76  C   UNL A   1      31.944  24.939  26.002  1.00  0.00     0.324 A 
ATOM     77  N   UNL A   1      32.910  25.814  26.127  1.00  0.00    -0.171 NA
ATOM     78  O   UNL A   1      30.737  25.406  26.449  1.00  0.00    -0.315 OA
ATOM     79  C   UNL A   1      32.250  26.901  26.644  1.00  0.00     0.204 A 
ATOM     80  N   UNL A   1      30.949  26.705  26.895  1.00  0.00    -0.055 NA
BRANCH  79  81
ATOM     81  C   UNL A   1      32.878  28.193  26.805  1.00  0.00     0.023 A 
ATOM     82  C   UNL A   1      34.270  28.300  26.863  1.00  0.00     0.012 A 
ATOM     83  C   UNL A   1      32.082  29.332  26.980  1.00  0.00     0.012 A 
ATOM     84  C   UNL A   1      34.864  29.540  27.103  1.00  0.00     0.001 A 
ATOM     85  C   UNL A   1      32.678  30.567  27.233  1.00  0.00     0.001 A 
ATOM     86  C   UNL A   1      34.068  30.669  27.297  1.00  0.00     0.000 A 
ENDBRANCH  79  81
ENDBRANCH  71  76
ENDBRANCH  65  68
ENDBRANCH  63  64
ENDBRANCH   1  63
TORSDOF 12
ENDMDL
MODEL 3
REMARK VINA RESULT:     -12.2      4.561      9.724
REMARK SMILES O=C(NCCCNC(=O)[C@@H]1CN(c2nc(-c3ccccc3)no2)CC[NH2+]1)c1ccc(-c2c3nc(c(-c4c(F)cccc4F)c4ccc([nH]4)c(-c4c(F)cccc4F)c4nc(c(-c5c(F)cccc5F)c5ccc2[nH]5)C=C4)C=C3)cc1
REMARK SMILES IDX 5 1 4 2 3 3 1 4 2 5 27 7 28 8 80 9 29 10 79 11 30 12 31 13
REMARK SMILES IDX 32 14 73 15 33 16 78 17 72 18 74 19 34 20 77 21 71 22 70 23
REMARK SMILES IDX 35 25 61 26 44 27 60 28 45 29 48 30 59 31 75 32 46 33 47 34
REMARK SMILES IDX 58 36 76 37 49 38 36 39 37 40 42 41 38 42 39 43 41 44 43 45
REMARK SMILES IDX 40 46 62 47 63 48 68 49 64 50 65 51 67 52 69 53 66 54 50 55
REMARK SMILES IDX 51 56 56 57 52 58 53 59 55 60 57 61 54 62 6 63 7 64 8 65
REMARK SMILES IDX 9 67 10 68 11 69 26 70 12 71 25 72 24 75 13 76 14 77 23 78
REMARK SMILES IDX 15 79 22 80 16 81 17 82 21 83 18 84 20 85 19 86
REMARK H PARENT 3 6 74 24 48 35 7 66 26 73 26 74
REMARK Flexibility Score: inf
ROOT
ATOM      1  C   UNL A   1      31.353  31.851  26.510  1.00  0.00     0.042 C 
ENDROOT
BRANCH   1   2
ATOM      2  C   UNL A   1      32.693  32.457  26.893  1.00  0.00     0.118 C 
BRANCH   2   3
ATOM      3  N   UNL A   1      32.547  33.787  27.480  1.00  0.00    -0.352 N 
ATOM      4  O   UNL A   1      32.724  35.385  29.057  1.00  0.00    -0.269 OA
ATOM      5  C   UNL A   1      33.177  34.356  28.556  1.00  0.00     0.251 C 
ATOM      6  H   UNL A   1      31.891  34.367  27.029  1.00  0.00     0.163 HD
BRANCH   5   7
ATOM      7  C   UNL A   1      34.390  33.735  29.118  1.00  0.00     0.039 A 
ATOM      8  C   UNL A   1      34.281  32.632  29.965  1.00  0.00     0.014 A 
ATOM      9  C   UNL A   1      35.652  34.228  28.774  1.00  0.00     0.014 A 
ATOM     10  C   UNL A   1      35.403  32.143  30.612  1.00  0.00     0.010 A 
ATOM     11  C   UNL A   1      36.797  33.645  29.324  1.00  0.00     0.010 A 
ATOM     12  C   UNL A   1      36.679  32.616  30.270  1.00  0.00    -0.014 A 
BRANCH  12  13
ATOM     13  C   UNL A   1      37.862  31.940  30.852  1.00  0.00     0.031 A 
ATOM     14  C   UNL A   1      38.347  32.266  32.235  1.00  0.00     0.074 A 
ATOM     15  C   UNL A   1      38.474  30.988  30.120  1.00  0.00     0.049 A 
ATOM     16  N   UNL A   1      39.357  31.754  32.891  1.00  0.00    -0.248 NA
ATOM     17  C   UNL A   1      37.614  33.303  32.976  1.00  0.00     0.031 C 
ATOM     18  C   UNL A   1      38.088  30.595  28.759  1.00  0.00     0.029 A 
ATOM     19  N   UNL A   1      39.526  30.161  30.414  1.00  0.00    -0.354 N 
ATOM     20  C   UNL A   1      39.395  32.417  34.110  1.00  0.00     0.074 A 
ATOM     21  C   UNL A   1      38.322  33.387  34.095  1.00  0.00     0.031 C 
ATOM     22  C   UNL A   1      38.852  29.569  28.363  1.00  0.00     0.029 A 
ATOM     23  C   UNL A   1      39.834  29.286  29.401  1.00  0.00     0.049 A 
ATOM     24  H   UNL A   1      40.013  30.191  31.269  1.00  0.00     0.167 HD
ATOM     25  C   UNL A   1      40.247  32.224  35.147  1.00  0.00     0.037 A 
ATOM     26  C   UNL A   1      40.816  28.374  29.302  1.00  0.00     0.037 A 
ATOM     27  C   UNL A   1      41.305  31.246  35.151  1.00  0.00     0.049 A 
ATOM     28  C   UNL A   1      41.764  28.211  30.452  1.00  0.00     0.074 A 
ATOM     29  C   UNL A   1      42.204  30.954  36.163  1.00  0.00     0.029 A 
ATOM     30  N   UNL A   1      41.611  30.403  34.092  1.00  0.00    -0.354 N 
ATOM     31  N   UNL A   1      41.771  28.827  31.609  1.00  0.00    -0.248 NA
ATOM     32  C   UNL A   1      42.845  27.232  30.281  1.00  0.00     0.031 C 
ATOM     33  C   UNL A   1      43.086  29.973  35.696  1.00  0.00     0.029 A 
ATOM     34  C   UNL A   1      42.700  29.610  34.415  1.00  0.00     0.049 A 
ATOM     35  H   UNL A   1      41.125  30.374  33.236  1.00  0.00     0.167 HD
ATOM     36  C   UNL A   1      42.843  28.298  32.313  1.00  0.00     0.074 A 
ATOM     37  C   UNL A   1      43.448  27.296  31.459  1.00  0.00     0.031 C 
ATOM     38  C   UNL A   1      43.287  28.615  33.553  1.00  0.00     0.037 A 
BRANCH  25  39
ATOM     39  C   UNL A   1      40.088  33.104  36.354  1.00  0.00     0.057 A 
ATOM     40  C   UNL A   1      39.180  32.807  37.377  1.00  0.00     0.134 A 
ATOM     41  C   UNL A   1      40.894  34.239  36.518  1.00  0.00     0.134 A 
ATOM     42  F   UNL A   1      38.370  31.742  37.280  1.00  0.00    -0.206 F 
ATOM     43  C   UNL A   1      39.064  33.617  38.510  1.00  0.00     0.040 A 
ATOM     44  C   UNL A   1      40.806  35.042  37.657  1.00  0.00     0.040 A 
ATOM     45  F   UNL A   1      41.791  34.580  35.580  1.00  0.00    -0.206 F 
ATOM     46  C   UNL A   1      39.885  34.733  38.655  1.00  0.00     0.006 A 
ENDBRANCH  25  39
BRANCH  26  47
ATOM     47  C   UNL A   1      40.956  27.567  28.065  1.00  0.00     0.057 A 
ATOM     48  C   UNL A   1      40.326  26.325  27.932  1.00  0.00     0.134 A 
ATOM     49  C   UNL A   1      41.715  28.025  26.980  1.00  0.00     0.134 A 
ATOM     50  F   UNL A   1      39.595  25.826  28.940  1.00  0.00    -0.206 F 
ATOM     51  C   UNL A   1      40.461  25.558  26.773  1.00  0.00     0.040 A 
ATOM     52  C   UNL A   1      41.833  27.284  25.805  1.00  0.00     0.040 A 
ATOM     53  F   UNL A   1      42.333  29.213  27.039  1.00  0.00    -0.206 F 
ATOM     54  C   UNL A   1      41.211  26.042  25.703  1.00  0.00     0.006 A 
ENDBRANCH  26  47
BRANCH  38  55
ATOM     55  C   UNL A   1      44.462  27.840  34.071  1.00  0.00     0.057 A 
ATOM     56  C   UNL A   1      44.306  26.619  34.741  1.00  0.00     0.134 A 
ATOM     57  C   UNL A   1      45.766  28.311  33.877  1.00  0.00     0.134 A 
ATOM     58  F   UNL A   1      43.082  26.122  34.974  1.00  0.00    -0.206 F 
ATOM     59  C   UNL A   1      45.406  25.908  35.222  1.00  0.00     0.040 A 
ATOM     60  C   UNL A   1      46.875  27.595  34.327  1.00  0.00     0.040 A 
ATOM     61  F   UNL A   1      45.984  29.470  33.237  1.00  0.00    -0.206 F 
ATOM     62  C   UNL A   1      46.696  26.393  35.008  1.00  0.00     0.006 A 
ENDBRANCH  38  55
ENDBRANCH  12  13
ENDBRANCH   5   7
ENDBRANCH   2   3
ENDBRANCH   1   2
BRANCH   1  63
ATOM     63  C   UNL A   1      31.489  30.427  26.005  1.00  0.00     0.118 C 
BRANCH  63  64
ATOM     64  N   UNL A   1      31.025  30.297  24.631  1.00  0.00    -0.351 N 
ATOM     65  C   UNL A   1      30.861  29.246  23.785  1.00  0.00     0.280 C 
ATOM     66  H   UNL A   1      30.773  31.159  24.226  1.00  0.00     0.163 HD
ATOM     67  O   UNL A   1      30.523  29.547  22.632  1.00  0.00    -0.268 OA
BRANCH  65  68
ATOM     68  C   UNL A   1      31.063  27.762  24.168  1.00  0.00     0.292 C 
ATOM     69  C   UNL A   1      31.909  27.122  23.029  1.00  0.00     0.197 C 
ATOM     70  N   UNL A   1      29.780  27.048  24.402  1.00  0.00    -0.333 N 
ATOM     71  N   UNL A   1      31.897  25.657  23.063  1.00  0.00    -0.312 N 
ATOM     72  C   UNL A   1      30.025  25.617  24.617  1.00  0.00     0.283 C 
ATOM     73  H   UNL A   1      29.177  27.168  23.588  1.00  0.00     0.347 HD
ATOM     74  H   UNL A   1      29.331  27.436  25.230  1.00  0.00     0.347 HD
ATOM     75  C   UNL A   1      30.639  24.984  23.358  1.00  0.00     0.183 C 
BRANCH  71  76
ATOM     76  C   UNL A   1      33.043  24.958  23.129  1.00  0.00     0.324 A 
ATOM     77  N   UNL A   1      33.927  24.886  24.092  1.00  0.00    -0.171 NA
ATOM     78  O   UNL A   1      33.350  24.160  22.060  1.00  0.00    -0.315 OA
ATOM     79  C   UNL A   1      34.811  23.956  23.605  1.00  0.00     0.204 A 
ATOM     80  N   UNL A   1      34.538  23.510  22.371  1.00  0.00    -0.055 NA
BRANCH  79  81
ATOM     81  C   UNL A   1      35.891  23.413  24.396  1.00  0.00     0.023 A 
ATOM     82  C   UNL A   1      36.395  24.126  25.488  1.00  0.00     0.012 A 
ATOM     83  C   UNL A   1      36.485  22.201  24.019  1.00  0.00     0.012 A 
ATOM     84  C   UNL A   1      37.494  23.633  26.193  1.00  0.00     0.001 A 
ATOM     85  C   UNL A   1      37.591  21.719  24.719  1.00  0.00     0.001 A 
ATOM     86  C   UNL A   1      38.095  22.437  25.803  1.00  0.00     0.000 A 
ENDBRANCH  79  81
ENDBRANCH  71  76
ENDBRANCH  65  68
ENDBRANCH  63  64
ENDBRANCH   1  63
TORSDOF 12
ENDMDL
