MODEL 1
REMARK VINA RESULT:     -12.8      0.000      0.000
REMARK SMILES O=C(COc1ccccc1/C=C1\C(=O)Nc2ccccc21)NCCCNC(=O)c1ccc(-c2c3nc(c(-c4c(F)cccc4F)c4ccc([nH]4)c(-c4c(F)cccc4F)c4nc(c(-c5c(F)cccc5F)c5ccc2[nH]5)C=C4)C=C3)cc1
REMARK SMILES IDX 23 1 22 2 1 3 2 4 3 6 4 7 5 8 6 9 10 10 7 11 9 12 8 13 11 14
REMARK SMILES IDX 12 15 13 16 21 17 14 18 15 19 16 20 20 21 17 23 19 24 18 25
REMARK SMILES IDX 24 26 25 27 26 28 27 29 28 31 29 32 30 33 82 34 31 35 81 36
REMARK SMILES IDX 32 37 33 38 34 39 75 40 35 41 80 42 74 43 76 44 36 45 79 46
REMARK SMILES IDX 73 47 72 48 37 50 63 51 46 52 62 53 47 54 50 55 61 56 77 57
REMARK SMILES IDX 48 58 49 59 60 61 78 62 51 63 38 64 39 65 44 66 40 67 41 68
REMARK SMILES IDX 43 69 45 70 42 71 64 72 65 73 70 74 66 75 67 76 69 77 71 78
REMARK SMILES IDX 68 79 52 80 53 81 58 82 54 83 55 84 57 85 59 86 56 87
REMARK H PARENT 22 5 15 22 26 30 76 49 50 60
REMARK Flexibility Score: inf
ROOT
ATOM      1  C   UNL A   1      31.542  30.639  26.552  1.00  0.00     0.117 C 
ENDROOT
BRANCH   1   2
ATOM      2  N   UNL A   1      32.636  30.064  25.820  1.00  0.00    -0.353 N 
ATOM      3  O   UNL A   1      34.000  29.597  27.622  1.00  0.00    -0.271 OA
ATOM      4  C   UNL A   1      33.624  29.350  26.482  1.00  0.00     0.257 C 
ATOM      5  H   UNL A   1      32.684  30.177  24.842  1.00  0.00     0.163 HD
BRANCH   4   6
ATOM      6  C   UNL A   1      34.156  28.187  25.655  1.00  0.00     0.329 C 
BRANCH   6   7
ATOM      7  O   UNL A   1      33.294  27.090  25.990  1.00  0.00    -0.483 OA
BRANCH   7   8
ATOM      8  C   UNL A   1      33.437  25.990  25.185  1.00  0.00     0.127 A 
ATOM      9  C   UNL A   1      34.572  25.200  25.415  1.00  0.00     0.047 A 
ATOM     10  C   UNL A   1      32.627  25.812  24.040  1.00  0.00     0.017 A 
ATOM     11  C   UNL A   1      34.956  24.248  24.477  1.00  0.00     0.004 A 
ATOM     12  C   UNL A   1      33.111  24.928  23.067  1.00  0.00     0.012 A 
ATOM     13  C   UNL A   1      34.244  24.138  23.288  1.00  0.00     0.001 A 
BRANCH  10  14
ATOM     14  C   UNL A   1      31.364  26.569  23.808  1.00  0.00     0.026 C 
ATOM     15  C   UNL A   1      31.158  27.733  23.152  1.00  0.00     0.050 C 
ATOM     16  C   UNL A   1      32.191  28.601  22.457  1.00  0.00     0.256 C 
ATOM     17  C   UNL A   1      29.859  28.426  22.941  1.00  0.00     0.011 A 
ATOM     18  O   UNL A   1      33.386  28.419  22.305  1.00  0.00    -0.269 OA
ATOM     19  N   UNL A   1      31.501  29.699  21.984  1.00  0.00    -0.321 N 
ATOM     20  C   UNL A   1      30.142  29.596  22.231  1.00  0.00     0.049 A 
ATOM     21  C   UNL A   1      28.539  28.161  23.262  1.00  0.00     0.011 A 
ATOM     22  H   UNL A   1      31.922  30.462  21.526  1.00  0.00     0.170 HD
ATOM     23  C   UNL A   1      29.175  30.498  21.819  1.00  0.00     0.027 A 
ATOM     24  C   UNL A   1      27.530  29.036  22.827  1.00  0.00     0.001 A 
ATOM     25  C   UNL A   1      27.847  30.197  22.111  1.00  0.00     0.002 A 
ENDBRANCH  10  14
ENDBRANCH   7   8
ENDBRANCH   6   7
ENDBRANCH   4   6
ENDBRANCH   1   2
BRANCH   1  26
ATOM     26  C   UNL A   1      31.445  32.142  26.521  1.00  0.00     0.042 C 
BRANCH  26  27
ATOM     27  C   UNL A   1      32.584  32.843  27.241  1.00  0.00     0.118 C 
BRANCH  27  28
ATOM     28  N   UNL A   1      32.291  34.210  27.667  1.00  0.00    -0.352 N 
ATOM     29  C   UNL A   1      32.950  35.011  28.574  1.00  0.00     0.251 C 
ATOM     30  H   UNL A   1      31.505  34.621  27.241  1.00  0.00     0.163 HD
ATOM     31  O   UNL A   1      32.505  36.121  28.851  1.00  0.00    -0.269 OA
BRANCH  29  32
ATOM     32  C   UNL A   1      34.169  34.515  29.249  1.00  0.00     0.039 A 
ATOM     33  C   UNL A   1      34.048  33.847  30.471  1.00  0.00     0.014 A 
ATOM     34  C   UNL A   1      35.425  34.664  28.659  1.00  0.00     0.014 A 
ATOM     35  C   UNL A   1      35.173  33.252  31.046  1.00  0.00     0.010 A 
ATOM     36  C   UNL A   1      36.510  33.958  29.159  1.00  0.00     0.010 A 
ATOM     37  C   UNL A   1      36.404  33.259  30.369  1.00  0.00    -0.014 A 
BRANCH  37  38
ATOM     38  C   UNL A   1      37.601  32.578  30.926  1.00  0.00     0.031 A 
ATOM     39  C   UNL A   1      38.208  33.060  32.217  1.00  0.00     0.074 A 
ATOM     40  C   UNL A   1      38.174  31.565  30.245  1.00  0.00     0.049 A 
ATOM     41  N   UNL A   1      39.268  32.620  32.848  1.00  0.00    -0.248 NA
ATOM     42  C   UNL A   1      37.563  34.212  32.867  1.00  0.00     0.031 C 
ATOM     43  C   UNL A   1      37.728  31.052  28.948  1.00  0.00     0.029 A 
ATOM     44  N   UNL A   1      39.260  30.785  30.554  1.00  0.00    -0.354 N 
ATOM     45  C   UNL A   1      39.420  33.450  33.952  1.00  0.00     0.074 A 
ATOM     46  C   UNL A   1      38.396  34.466  33.864  1.00  0.00     0.031 C 
ATOM     47  C   UNL A   1      38.506  30.015  28.594  1.00  0.00     0.029 A 
ATOM     48  C   UNL A   1      39.524  29.813  29.620  1.00  0.00     0.049 A 
ATOM     49  H   UNL A   1      39.799  30.909  31.368  1.00  0.00     0.167 HD
ATOM     50  C   UNL A   1      40.307  33.356  34.970  1.00  0.00     0.037 A 
ATOM     51  C   UNL A   1      40.476  28.861  29.597  1.00  0.00     0.037 A 
ATOM     52  C   UNL A   1      41.304  32.326  35.073  1.00  0.00     0.049 A 
ATOM     53  C   UNL A   1      41.436  28.762  30.751  1.00  0.00     0.074 A 
ATOM     54  C   UNL A   1      42.215  32.105  36.090  1.00  0.00     0.029 A 
ATOM     55  N   UNL A   1      41.519  31.339  34.122  1.00  0.00    -0.354 N 
ATOM     56  N   UNL A   1      41.519  29.507  31.827  1.00  0.00    -0.248 NA
ATOM     57  C   UNL A   1      42.425  27.676  30.694  1.00  0.00     0.031 C 
ATOM     58  C   UNL A   1      43.010  31.010  35.735  1.00  0.00     0.029 A 
ATOM     59  C   UNL A   1      42.557  30.514  34.523  1.00  0.00     0.049 A 
ATOM     60  H   UNL A   1      41.008  31.239  33.286  1.00  0.00     0.167 HD
ATOM     61  C   UNL A   1      42.543  28.960  32.590  1.00  0.00     0.074 A 
ATOM     62  C   UNL A   1      43.038  27.811  31.861  1.00  0.00     0.031 C 
ATOM     63  C   UNL A   1      43.030  29.369  33.788  1.00  0.00     0.037 A 
BRANCH  50  64
ATOM     64  C   UNL A   1      40.222  34.391  36.056  1.00  0.00     0.057 A 
ATOM     65  C   UNL A   1      39.398  34.222  37.177  1.00  0.00     0.134 A 
ATOM     66  C   UNL A   1      40.985  35.564  35.989  1.00  0.00     0.134 A 
ATOM     67  F   UNL A   1      38.627  33.130  37.297  1.00  0.00    -0.206 F 
ATOM     68  C   UNL A   1      39.310  35.194  38.175  1.00  0.00     0.040 A 
ATOM     69  C   UNL A   1      40.930  36.529  36.996  1.00  0.00     0.040 A 
ATOM     70  F   UNL A   1      41.798  35.790  34.946  1.00  0.00    -0.206 F 
ATOM     71  C   UNL A   1      40.084  36.349  38.089  1.00  0.00     0.006 A 
ENDBRANCH  50  64
BRANCH  51  72
ATOM     72  C   UNL A   1      40.543  27.895  28.471  1.00  0.00     0.057 A 
ATOM     73  C   UNL A   1      41.284  28.181  27.316  1.00  0.00     0.134 A 
ATOM     74  C   UNL A   1      39.860  26.674  28.510  1.00  0.00     0.134 A 
ATOM     75  F   UNL A   1      41.946  29.343  27.211  1.00  0.00    -0.206 F 
ATOM     76  C   UNL A   1      41.319  27.304  26.233  1.00  0.00     0.040 A 
ATOM     77  C   UNL A   1      39.910  25.773  27.445  1.00  0.00     0.040 A 
ATOM     78  F   UNL A   1      39.142  26.334  29.590  1.00  0.00    -0.206 F 
ATOM     79  C   UNL A   1      40.634  26.092  26.297  1.00  0.00     0.006 A 
ENDBRANCH  51  72
BRANCH  63  80
ATOM     80  C   UNL A   1      44.118  28.538  34.404  1.00  0.00     0.057 A 
ATOM     81  C   UNL A   1      45.475  28.808  34.189  1.00  0.00     0.134 A 
ATOM     82  C   UNL A   1      43.797  27.457  35.236  1.00  0.00     0.134 A 
ATOM     83  F   UNL A   1      45.850  29.823  33.394  1.00  0.00    -0.206 F 
ATOM     84  C   UNL A   1      46.475  28.009  34.747  1.00  0.00     0.040 A 
ATOM     85  C   UNL A   1      44.788  26.671  35.826  1.00  0.00     0.040 A 
ATOM     86  F   UNL A   1      42.518  27.151  35.494  1.00  0.00    -0.206 F 
ATOM     87  C   UNL A   1      46.132  26.941  35.572  1.00  0.00     0.006 A 
ENDBRANCH  63  80
ENDBRANCH  37  38
ENDBRANCH  29  32
ENDBRANCH  27  28
ENDBRANCH  26  27
ENDBRANCH   1  26
TORSDOF 13
ENDMDL
MODEL 2
REMARK VINA RESULT:     -12.8      5.302     10.205
REMARK SMILES O=C(COc1ccccc1/C=C1\C(=O)Nc2ccccc21)NCCCNC(=O)c1ccc(-c2c3nc(c(-c4c(F)cccc4F)c4ccc([nH]4)c(-c4c(F)cccc4F)c4nc(c(-c5c(F)cccc5F)c5ccc2[nH]5)C=C4)C=C3)cc1
REMARK SMILES IDX 23 1 22 2 1 3 2 4 3 6 4 7 5 8 6 9 10 10 7 11 9 12 8 13 11 14
REMARK SMILES IDX 12 15 13 16 21 17 14 18 15 19 16 20 20 21 17 23 19 24 18 25
REMARK SMILES IDX 24 26 25 27 26 28 27 29 28 31 29 32 30 33 82 34 31 35 81 36
REMARK SMILES IDX 32 37 33 38 34 39 75 40 35 41 80 42 74 43 76 44 36 45 79 46
REMARK SMILES IDX 73 47 72 48 37 50 63 51 46 52 62 53 47 54 50 55 61 56 77 57
REMARK SMILES IDX 48 58 49 59 60 61 78 62 51 63 38 64 39 65 44 66 40 67 41 68
REMARK SMILES IDX 43 69 45 70 42 71 64 72 65 73 70 74 66 75 67 76 69 77 71 78
REMARK SMILES IDX 68 79 52 80 53 81 58 82 54 83 55 84 57 85 59 86 56 87
REMARK H PARENT 22 5 15 22 26 30 76 49 50 60
REMARK Flexibility Score: inf
ROOT
ATOM      1  C   UNL A   1      36.610  20.558  25.192  1.00  0.00     0.117 C 
ENDROOT
BRANCH   1   2
ATOM      2  N   UNL A   1      36.689  21.868  25.776  1.00  0.00    -0.353 N 
ATOM      3  O   UNL A   1      36.971  23.059  23.819  1.00  0.00    -0.271 OA
ATOM      4  C   UNL A   1      36.579  22.998  24.978  1.00  0.00     0.257 C 
ATOM      5  H   UNL A   1      36.822  21.965  26.747  1.00  0.00     0.163 HD
BRANCH   4   6
ATOM      6  C   UNL A   1      35.866  24.144  25.686  1.00  0.00     0.329 C 
BRANCH   6   7
ATOM      7  O   UNL A   1      35.101  24.778  24.650  1.00  0.00    -0.483 OA
BRANCH   7   8
ATOM      8  C   UNL A   1      33.902  25.293  25.067  1.00  0.00     0.127 A 
ATOM      9  C   UNL A   1      33.930  26.609  25.551  1.00  0.00     0.047 A 
ATOM     10  C   UNL A   1      32.767  24.465  25.231  1.00  0.00     0.017 A 
ATOM     11  C   UNL A   1      32.843  27.111  26.259  1.00  0.00     0.004 A 
ATOM     12  C   UNL A   1      31.745  24.965  26.048  1.00  0.00     0.012 A 
ATOM     13  C   UNL A   1      31.766  26.277  26.536  1.00  0.00     0.001 A 
BRANCH  10  14
ATOM     14  C   UNL A   1      32.667  23.096  24.652  1.00  0.00     0.026 C 
ATOM     15  C   UNL A   1      32.843  21.890  25.238  1.00  0.00     0.050 C 
ATOM     16  C   UNL A   1      33.201  21.606  26.686  1.00  0.00     0.256 C 
ATOM     17  C   UNL A   1      32.707  20.554  24.600  1.00  0.00     0.011 A 
ATOM     18  O   UNL A   1      33.356  22.379  27.616  1.00  0.00    -0.269 OA
ATOM     19  N   UNL A   1      33.316  20.234  26.782  1.00  0.00    -0.321 N 
ATOM     20  C   UNL A   1      33.003  19.609  25.587  1.00  0.00     0.049 A 
ATOM     21  C   UNL A   1      32.359  20.095  23.341  1.00  0.00     0.011 A 
ATOM     22  H   UNL A   1      33.588  19.758  27.600  1.00  0.00     0.170 HD
ATOM     23  C   UNL A   1      32.954  18.240  25.379  1.00  0.00     0.027 A 
ATOM     24  C   UNL A   1      32.265  18.714  23.108  1.00  0.00     0.001 A 
ATOM     25  C   UNL A   1      32.562  17.792  24.120  1.00  0.00     0.002 A 
ENDBRANCH  10  14
ENDBRANCH   7   8
ENDBRANCH   6   7
ENDBRANCH   4   6
ENDBRANCH   1   2
BRANCH   1  26
ATOM     26  C   UNL A   1      37.921  19.933  24.792  1.00  0.00     0.042 C 
BRANCH  26  27
ATOM     27  C   UNL A   1      39.050  20.206  25.771  1.00  0.00     0.118 C 
BRANCH  27  28
ATOM     28  N   UNL A   1      40.100  19.189  25.794  1.00  0.00    -0.352 N 
ATOM     29  C   UNL A   1      41.438  19.310  26.101  1.00  0.00     0.251 C 
ATOM     30  H   UNL A   1      39.807  18.281  25.556  1.00  0.00     0.163 HD
ATOM     31  O   UNL A   1      42.182  18.340  25.997  1.00  0.00    -0.269 OA
BRANCH  29  32
ATOM     32  C   UNL A   1      41.986  20.621  26.511  1.00  0.00     0.039 A 
ATOM     33  C   UNL A   1      42.317  21.559  25.530  1.00  0.00     0.014 A 
ATOM     34  C   UNL A   1      42.131  20.945  27.861  1.00  0.00     0.014 A 
ATOM     35  C   UNL A   1      42.701  22.847  25.909  1.00  0.00     0.010 A 
ATOM     36  C   UNL A   1      42.378  22.260  28.232  1.00  0.00     0.010 A 
ATOM     37  C   UNL A   1      42.686  23.223  27.262  1.00  0.00    -0.014 A 
BRANCH  37  38
ATOM     38  C   UNL A   1      43.025  24.605  27.689  1.00  0.00     0.031 A 
ATOM     39  C   UNL A   1      44.466  25.041  27.746  1.00  0.00     0.074 A 
ATOM     40  C   UNL A   1      42.048  25.447  28.077  1.00  0.00     0.049 A 
ATOM     41  N   UNL A   1      44.968  26.191  28.121  1.00  0.00    -0.248 NA
ATOM     42  C   UNL A   1      45.480  24.043  27.368  1.00  0.00     0.031 C 
ATOM     43  C   UNL A   1      40.621  25.123  28.139  1.00  0.00     0.029 A 
ATOM     44  N   UNL A   1      42.109  26.753  28.495  1.00  0.00    -0.354 N 
ATOM     45  C   UNL A   1      46.347  26.044  28.039  1.00  0.00     0.074 A 
ATOM     46  C   UNL A   1      46.607  24.675  27.656  1.00  0.00     0.031 C 
ATOM     47  C   UNL A   1      39.938  26.214  28.527  1.00  0.00     0.029 A 
ATOM     48  C   UNL A   1      40.880  27.301  28.774  1.00  0.00     0.049 A 
ATOM     49  H   UNL A   1      42.953  27.251  28.586  1.00  0.00     0.167 HD
ATOM     50  C   UNL A   1      47.313  26.973  28.226  1.00  0.00     0.037 A 
ATOM     51  C   UNL A   1      40.550  28.543  29.175  1.00  0.00     0.037 A 
ATOM     52  C   UNL A   1      47.053  28.344  28.574  1.00  0.00     0.049 A 
ATOM     53  C   UNL A   1      41.639  29.565  29.355  1.00  0.00     0.074 A 
ATOM     54  C   UNL A   1      47.954  29.381  28.733  1.00  0.00     0.029 A 
ATOM     55  N   UNL A   1      45.792  28.869  28.816  1.00  0.00    -0.354 N 
ATOM     56  N   UNL A   1      42.935  29.433  29.199  1.00  0.00    -0.248 NA
ATOM     57  C   UNL A   1      41.217  30.915  29.752  1.00  0.00     0.031 C 
ATOM     58  C   UNL A   1      47.243  30.524  29.113  1.00  0.00     0.029 A 
ATOM     59  C   UNL A   1      45.892  30.213  29.135  1.00  0.00     0.049 A 
ATOM     60  H   UNL A   1      44.949  28.361  28.767  1.00  0.00     0.167 HD
ATOM     61  C   UNL A   1      43.478  30.688  29.442  1.00  0.00     0.074 A 
ATOM     62  C   UNL A   1      42.369  31.570  29.739  1.00  0.00     0.031 C 
ATOM     63  C   UNL A   1      44.776  31.078  29.419  1.00  0.00     0.037 A 
BRANCH  50  64
ATOM     64  C   UNL A   1      48.738  26.534  28.043  1.00  0.00     0.057 A 
ATOM     65  C   UNL A   1      49.372  26.579  26.793  1.00  0.00     0.134 A 
ATOM     66  C   UNL A   1      49.492  26.075  29.130  1.00  0.00     0.134 A 
ATOM     67  F   UNL A   1      48.703  26.991  25.705  1.00  0.00    -0.206 F 
ATOM     68  C   UNL A   1      50.690  26.152  26.625  1.00  0.00     0.040 A 
ATOM     69  C   UNL A   1      50.821  25.676  28.981  1.00  0.00     0.040 A 
ATOM     70  F   UNL A   1      48.951  26.008  30.356  1.00  0.00    -0.206 F 
ATOM     71  C   UNL A   1      51.421  25.706  27.723  1.00  0.00     0.006 A 
ENDBRANCH  50  64
BRANCH  51  72
ATOM     72  C   UNL A   1      39.127  28.907  29.390  1.00  0.00     0.057 A 
ATOM     73  C   UNL A   1      38.513  28.720  30.636  1.00  0.00     0.134 A 
ATOM     74  C   UNL A   1      38.341  29.435  28.360  1.00  0.00     0.134 A 
ATOM     75  F   UNL A   1      39.209  28.202  31.659  1.00  0.00    -0.206 F 
ATOM     76  C   UNL A   1      37.165  29.015  30.840  1.00  0.00     0.040 A 
ATOM     77  C   UNL A   1      36.998  29.763  28.557  1.00  0.00     0.040 A 
ATOM     78  F   UNL A   1      38.870  29.650  27.146  1.00  0.00    -0.206 F 
ATOM     79  C   UNL A   1      36.404  29.544  29.799  1.00  0.00     0.006 A 
ENDBRANCH  51  72
BRANCH  63  80
ATOM     80  C   UNL A   1      45.059  32.530  29.674  1.00  0.00     0.057 A 
ATOM     81  C   UNL A   1      45.332  33.023  30.956  1.00  0.00     0.134 A 
ATOM     82  C   UNL A   1      45.068  33.446  28.613  1.00  0.00     0.134 A 
ATOM     83  F   UNL A   1      45.329  32.201  32.017  1.00  0.00    -0.206 F 
ATOM     84  C   UNL A   1      45.566  34.381  31.181  1.00  0.00     0.040 A 
ATOM     85  C   UNL A   1      45.333  34.800  28.821  1.00  0.00     0.040 A 
ATOM     86  F   UNL A   1      44.826  33.039  27.359  1.00  0.00    -0.206 F 
ATOM     87  C   UNL A   1      45.572  35.272  30.110  1.00  0.00     0.006 A 
ENDBRANCH  63  80
ENDBRANCH  37  38
ENDBRANCH  29  32
ENDBRANCH  27  28
ENDBRANCH  26  27
ENDBRANCH   1  26
TORSDOF 13
ENDMDL
MODEL 3
REMARK VINA RESULT:     -12.8      0.049      1.292
REMARK SMILES O=C(COc1ccccc1/C=C1\C(=O)Nc2ccccc21)NCCCNC(=O)c1ccc(-c2c3nc(c(-c4c(F)cccc4F)c4ccc([nH]4)c(-c4c(F)cccc4F)c4nc(c(-c5c(F)cccc5F)c5ccc2[nH]5)C=C4)C=C3)cc1
REMARK SMILES IDX 23 1 22 2 1 3 2 4 3 6 4 7 5 8 6 9 10 10 7 11 9 12 8 13 11 14
REMARK SMILES IDX 12 15 13 16 21 17 14 18 15 19 16 20 20 21 17 23 19 24 18 25
REMARK SMILES IDX 24 26 25 27 26 28 27 29 28 31 29 32 30 33 82 34 31 35 81 36
REMARK SMILES IDX 32 37 33 38 34 39 75 40 35 41 80 42 74 43 76 44 36 45 79 46
REMARK SMILES IDX 73 47 72 48 37 50 63 51 46 52 62 53 47 54 50 55 61 56 77 57
REMARK SMILES IDX 48 58 49 59 60 61 78 62 51 63 38 64 39 65 44 66 40 67 41 68
REMARK SMILES IDX 43 69 45 70 42 71 64 72 65 73 70 74 66 75 67 76 69 77 71 78
REMARK SMILES IDX 68 79 52 80 53 81 58 82 54 83 55 84 57 85 59 86 56 87
REMARK H PARENT 22 5 15 22 26 30 76 49 50 60
REMARK Flexibility Score: inf
ROOT
ATOM      1  C   UNL A   1      31.535  30.625  26.571  1.00  0.00     0.117 C 
ENDROOT
BRANCH   1   2
ATOM      2  N   UNL A   1      32.622  30.046  25.831  1.00  0.00    -0.353 N 
ATOM      3  O   UNL A   1      33.997  29.577  27.625  1.00  0.00    -0.271 OA
ATOM      4  C   UNL A   1      33.613  29.330  26.488  1.00  0.00     0.257 C 
ATOM      5  H   UNL A   1      32.664  30.159  24.854  1.00  0.00     0.163 HD
BRANCH   4   6
ATOM      6  C   UNL A   1      34.137  28.165  25.657  1.00  0.00     0.329 C 
BRANCH   6   7
ATOM      7  O   UNL A   1      33.257  27.078  25.979  1.00  0.00    -0.483 OA
BRANCH   7   8
ATOM      8  C   UNL A   1      33.394  25.980  25.170  1.00  0.00     0.127 A 
ATOM      9  C   UNL A   1      34.528  25.186  25.394  1.00  0.00     0.047 A 
ATOM     10  C   UNL A   1      32.580  25.808  24.027  1.00  0.00     0.017 A 
ATOM     11  C   UNL A   1      34.906  24.236  24.452  1.00  0.00     0.004 A 
ATOM     12  C   UNL A   1      33.059  24.925  23.050  1.00  0.00     0.012 A 
ATOM     13  C   UNL A   1      34.190  24.131  23.265  1.00  0.00     0.001 A 
BRANCH  10  14
ATOM     14  C   UNL A   1      31.319  26.569  23.801  1.00  0.00     0.026 C 
ATOM     15  C   UNL A   1      31.117  27.746  23.166  1.00  0.00     0.050 C 
ATOM     16  C   UNL A   1      32.156  28.628  22.497  1.00  0.00     0.256 C 
ATOM     17  C   UNL A   1      29.820  28.443  22.960  1.00  0.00     0.011 A 
ATOM     18  O   UNL A   1      33.352  28.449  22.350  1.00  0.00    -0.269 OA
ATOM     19  N   UNL A   1      31.469  29.736  22.041  1.00  0.00    -0.321 N 
ATOM     20  C   UNL A   1      30.108  29.628  22.276  1.00  0.00     0.049 A 
ATOM     21  C   UNL A   1      28.498  28.172  23.266  1.00  0.00     0.011 A 
ATOM     22  H   UNL A   1      31.894  30.508  21.602  1.00  0.00     0.170 HD
ATOM     23  C   UNL A   1      29.144  30.538  21.875  1.00  0.00     0.027 A 
ATOM     24  C   UNL A   1      27.492  29.056  22.841  1.00  0.00     0.001 A 
ATOM     25  C   UNL A   1      27.814  30.232  22.151  1.00  0.00     0.002 A 
ENDBRANCH  10  14
ENDBRANCH   7   8
ENDBRANCH   6   7
ENDBRANCH   4   6
ENDBRANCH   1   2
BRANCH   1  26
ATOM     26  C   UNL A   1      31.433  32.128  26.528  1.00  0.00     0.042 C 
BRANCH  26  27
ATOM     27  C   UNL A   1      32.579  32.837  27.229  1.00  0.00     0.118 C 
BRANCH  27  28
ATOM     28  N   UNL A   1      32.283  34.201  27.662  1.00  0.00    -0.352 N 
ATOM     29  C   UNL A   1      32.941  35.000  28.571  1.00  0.00     0.251 C 
ATOM     30  H   UNL A   1      31.494  34.611  27.240  1.00  0.00     0.163 HD
ATOM     31  O   UNL A   1      32.493  36.107  28.853  1.00  0.00    -0.269 OA
BRANCH  29  32
ATOM     32  C   UNL A   1      34.163  34.505  29.241  1.00  0.00     0.039 A 
ATOM     33  C   UNL A   1      34.048  33.842  30.465  1.00  0.00     0.014 A 
ATOM     34  C   UNL A   1      35.416  34.651  28.644  1.00  0.00     0.014 A 
ATOM     35  C   UNL A   1      35.176  33.247  31.036  1.00  0.00     0.010 A 
ATOM     36  C   UNL A   1      36.504  33.945  29.139  1.00  0.00     0.010 A 
ATOM     37  C   UNL A   1      36.403  33.251  30.353  1.00  0.00    -0.014 A 
BRANCH  37  38
ATOM     38  C   UNL A   1      37.602  32.571  30.905  1.00  0.00     0.031 A 
ATOM     39  C   UNL A   1      38.216  33.055  32.192  1.00  0.00     0.074 A 
ATOM     40  C   UNL A   1      38.172  31.557  30.224  1.00  0.00     0.049 A 
ATOM     41  N   UNL A   1      39.278  32.617  32.819  1.00  0.00    -0.248 NA
ATOM     42  C   UNL A   1      37.574  34.209  32.843  1.00  0.00     0.031 C 
ATOM     43  C   UNL A   1      37.720  31.041  28.930  1.00  0.00     0.029 A 
ATOM     44  N   UNL A   1      39.259  30.777  30.529  1.00  0.00    -0.354 N 
ATOM     45  C   UNL A   1      39.436  33.449  33.921  1.00  0.00     0.074 A 
ATOM     46  C   UNL A   1      38.412  34.464  33.836  1.00  0.00     0.031 C 
ATOM     47  C   UNL A   1      38.496  30.003  28.574  1.00  0.00     0.029 A 
ATOM     48  C   UNL A   1      39.519  29.802  29.596  1.00  0.00     0.049 A 
ATOM     49  H   UNL A   1      39.802  30.903  31.341  1.00  0.00     0.167 HD
ATOM     50  C   UNL A   1      40.327  33.356  34.935  1.00  0.00     0.037 A 
ATOM     51  C   UNL A   1      40.470  28.850  29.571  1.00  0.00     0.037 A 
ATOM     52  C   UNL A   1      41.325  32.326  35.036  1.00  0.00     0.049 A 
ATOM     53  C   UNL A   1      41.436  28.754  30.720  1.00  0.00     0.074 A 
ATOM     54  C   UNL A   1      42.241  32.107  36.049  1.00  0.00     0.029 A 
ATOM     55  N   UNL A   1      41.535  31.338  34.086  1.00  0.00    -0.354 N 
ATOM     56  N   UNL A   1      41.525  29.501  31.794  1.00  0.00    -0.248 NA
ATOM     57  C   UNL A   1      42.424  27.667  30.661  1.00  0.00     0.031 C 
ATOM     58  C   UNL A   1      43.034  31.011  35.692  1.00  0.00     0.029 A 
ATOM     59  C   UNL A   1      42.575  30.513  34.483  1.00  0.00     0.049 A 
ATOM     60  H   UNL A   1      41.020  31.236  33.252  1.00  0.00     0.167 HD
ATOM     61  C   UNL A   1      42.551  28.955  32.554  1.00  0.00     0.074 A 
ATOM     62  C   UNL A   1      43.043  27.805  31.824  1.00  0.00     0.031 C 
ATOM     63  C   UNL A   1      43.044  29.366  33.749  1.00  0.00     0.037 A 
BRANCH  50  64
ATOM     64  C   UNL A   1      40.249  34.394  36.019  1.00  0.00     0.057 A 
ATOM     65  C   UNL A   1      40.989  35.582  35.962  1.00  0.00     0.134 A 
ATOM     66  C   UNL A   1      39.411  34.210  37.127  1.00  0.00     0.134 A 
ATOM     67  F   UNL A   1      41.825  35.815  34.939  1.00  0.00    -0.206 F 
ATOM     68  C   UNL A   1      40.926  36.534  36.981  1.00  0.00     0.040 A 
ATOM     69  C   UNL A   1      39.314  35.169  38.136  1.00  0.00     0.040 A 
ATOM     70  F   UNL A   1      38.671  33.097  37.245  1.00  0.00    -0.206 F 
ATOM     71  C   UNL A   1      40.080  36.332  38.069  1.00  0.00     0.006 A 
ENDBRANCH  50  64
BRANCH  51  72
ATOM     72  C   UNL A   1      40.531  27.882  28.446  1.00  0.00     0.057 A 
ATOM     73  C   UNL A   1      41.270  28.164  27.289  1.00  0.00     0.134 A 
ATOM     74  C   UNL A   1      39.846  26.663  28.490  1.00  0.00     0.134 A 
ATOM     75  F   UNL A   1      41.935  29.324  27.180  1.00  0.00    -0.206 F 
ATOM     76  C   UNL A   1      41.300  27.285  26.207  1.00  0.00     0.040 A 
ATOM     77  C   UNL A   1      39.891  25.760  27.426  1.00  0.00     0.040 A 
ATOM     78  F   UNL A   1      39.131  26.326  29.573  1.00  0.00    -0.206 F 
ATOM     79  C   UNL A   1      40.612  26.075  26.275  1.00  0.00     0.006 A 
ENDBRANCH  51  72
BRANCH  63  80
ATOM     80  C   UNL A   1      44.135  28.536  34.361  1.00  0.00     0.057 A 
ATOM     81  C   UNL A   1      43.862  27.447  35.199  1.00  0.00     0.134 A 
ATOM     82  C   UNL A   1      45.480  28.828  34.096  1.00  0.00     0.134 A 
ATOM     83  F   UNL A   1      42.595  27.121  35.500  1.00  0.00    -0.206 F 
ATOM     84  C   UNL A   1      44.888  26.702  35.783  1.00  0.00     0.040 A 
ATOM     85  C   UNL A   1      46.513  28.069  34.648  1.00  0.00     0.040 A 
ATOM     86  F   UNL A   1      45.811  29.849  33.293  1.00  0.00    -0.206 F 
ATOM     87  C   UNL A   1      46.217  27.010  35.503  1.00  0.00     0.006 A 
ENDBRANCH  63  80
ENDBRANCH  37  38
ENDBRANCH  29  32
ENDBRANCH  27  28
ENDBRANCH  26  27
ENDBRANCH   1  26
TORSDOF 13
ENDMDL
