MODEL 1
REMARK VINA RESULT:     -11.8      0.000      0.000
REMARK SMILES C[C@@H]1CCCC[C@H]1NC(=O)C[N@@H+]1CCO[C@H](CC(=O)NCCCNC(=O)c2ccc(-c3c4nc(c(-c5c(F)cccc5F)c5ccc([nH]5)c(-c5c(F)cccc5F)c5nc(c(-c6c(F)cccc6F)c6ccc3[nH]6)C=C5)C=C4)cc2)C1
REMARK SMILES IDX 21 1 20 2 18 3 19 4 17 6 16 7 12 8 13 9 81 10 14 12 15 13
REMARK SMILES IDX 11 14 9 15 8 16 10 18 7 19 1 20 2 21 3 22 4 23 6 24 5 25
REMARK SMILES IDX 22 26 23 27 24 28 25 29 26 31 27 32 28 33 80 34 29 35 79 36
REMARK SMILES IDX 30 37 31 38 32 39 73 40 33 41 78 42 72 43 74 44 34 45 77 46
REMARK SMILES IDX 71 47 70 48 35 50 61 51 44 52 60 53 45 54 48 55 59 56 75 57
REMARK SMILES IDX 46 58 47 59 58 61 76 62 49 63 36 64 37 65 42 66 38 67 39 68
REMARK SMILES IDX 41 69 43 70 40 71 62 72 63 73 68 74 64 75 65 76 67 77 69 78
REMARK SMILES IDX 66 79 50 80 51 81 56 82 52 83 53 84 55 85 57 86 54 87
REMARK H PARENT 20 5 12 11 8 17 24 30 74 49 48 60
REMARK Flexibility Score: inf
ROOT
ATOM      1  C   UNL A   1      37.128  20.639  24.946  1.00  0.00     0.117 C 
ENDROOT
BRANCH   1   2
ATOM      2  N   UNL A   1      35.867  19.997  25.285  1.00  0.00    -0.356 N 
ATOM      3  C   UNL A   1      34.598  20.229  24.827  1.00  0.00     0.222 C 
ATOM      4  O   UNL A   1      33.822  19.272  24.826  1.00  0.00    -0.275 OA
ATOM      5  H   UNL A   1      35.938  19.277  25.954  1.00  0.00     0.163 HD
BRANCH   3   6
ATOM      6  C   UNL A   1      34.136  21.609  24.402  1.00  0.00     0.138 C 
BRANCH   6   7
ATOM      7  C   UNL A   1      32.654  21.765  23.976  1.00  0.00     0.182 C 
ATOM      8  N   UNL A   1      31.955  23.749  22.488  1.00  0.00    -0.323 N 
ATOM      9  C   UNL A   1      30.757  23.830  23.343  1.00  0.00     0.291 C 
ATOM     10  C   UNL A   1      32.386  22.341  22.568  1.00  0.00     0.295 C 
ATOM     11  H   UNL A   1      31.757  24.037  21.530  1.00  0.00     0.348 HD
ATOM     12  C   UNL A   1      31.046  23.465  24.807  1.00  0.00     0.222 C 
ATOM     13  O   UNL A   1      31.823  22.280  25.034  1.00  0.00    -0.366 OA
BRANCH   8  14
ATOM     14  C   UNL A   1      33.021  24.653  22.980  1.00  0.00     0.363 C 
BRANCH  14  15
ATOM     15  C   UNL A   1      33.062  26.017  22.302  1.00  0.00     0.275 C 
ATOM     16  N   UNL A   1      32.311  27.026  22.851  1.00  0.00    -0.348 N 
ATOM     17  H   UNL A   1      31.921  27.694  22.242  1.00  0.00     0.163 HD
ATOM     18  O   UNL A   1      33.684  26.221  21.260  1.00  0.00    -0.268 OA
BRANCH  16  19
ATOM     19  C   UNL A   1      32.052  27.171  24.277  1.00  0.00     0.085 C 
ATOM     20  C   UNL A   1      33.664  27.192  26.243  1.00  0.00     0.010 C 
ATOM     21  C   UNL A   1      33.303  27.827  24.901  1.00  0.00     0.008 C 
ATOM     22  C   UNL A   1      33.242  29.361  24.915  1.00  0.00     0.005 C 
ATOM     23  C   UNL A   1      31.889  29.952  25.283  1.00  0.00     0.000 C 
ATOM     24  C   UNL A   1      30.711  27.873  24.521  1.00  0.00     0.025 C 
ATOM     25  C   UNL A   1      30.779  29.387  24.409  1.00  0.00     0.002 C 
ENDBRANCH  16  19
ENDBRANCH  14  15
ENDBRANCH   8  14
ENDBRANCH   6   7
ENDBRANCH   3   6
ENDBRANCH   1   2
BRANCH   1  26
ATOM     26  C   UNL A   1      38.369  19.743  24.800  1.00  0.00     0.042 C 
BRANCH  26  27
ATOM     27  C   UNL A   1      39.246  19.475  26.040  1.00  0.00     0.118 C 
BRANCH  27  28
ATOM     28  N   UNL A   1      40.557  18.923  25.734  1.00  0.00    -0.352 N 
ATOM     29  C   UNL A   1      41.820  19.458  25.888  1.00  0.00     0.251 C 
ATOM     30  H   UNL A   1      40.540  18.015  25.351  1.00  0.00     0.163 HD
ATOM     31  O   UNL A   1      42.798  18.797  25.553  1.00  0.00    -0.269 OA
BRANCH  29  32
ATOM     32  C   UNL A   1      42.048  20.804  26.466  1.00  0.00     0.039 A 
ATOM     33  C   UNL A   1      41.875  21.033  27.829  1.00  0.00     0.014 A 
ATOM     34  C   UNL A   1      42.253  21.900  25.634  1.00  0.00     0.014 A 
ATOM     35  C   UNL A   1      41.999  22.338  28.350  1.00  0.00     0.010 A 
ATOM     36  C   UNL A   1      42.450  23.190  26.161  1.00  0.00     0.010 A 
ATOM     37  C   UNL A   1      42.349  23.436  27.533  1.00  0.00    -0.014 A 
BRANCH  37  38
ATOM     38  C   UNL A   1      42.689  24.780  28.123  1.00  0.00     0.031 A 
ATOM     39  C   UNL A   1      44.090  25.181  28.549  1.00  0.00     0.074 A 
ATOM     40  C   UNL A   1      41.691  25.655  28.378  1.00  0.00     0.049 A 
ATOM     41  N   UNL A   1      44.502  26.317  29.070  1.00  0.00    -0.248 NA
ATOM     42  C   UNL A   1      45.155  24.176  28.422  1.00  0.00     0.031 C 
ATOM     43  C   UNL A   1      40.264  25.393  28.178  1.00  0.00     0.029 A 
ATOM     44  N   UNL A   1      41.719  26.945  28.861  1.00  0.00    -0.354 N 
ATOM     45  C   UNL A   1      45.850  26.147  29.371  1.00  0.00     0.074 A 
ATOM     46  C   UNL A   1      46.180  24.784  29.006  1.00  0.00     0.031 C 
ATOM     47  C   UNL A   1      39.565  26.500  28.464  1.00  0.00     0.029 A 
ATOM     48  C   UNL A   1      40.483  27.545  28.904  1.00  0.00     0.049 A 
ATOM     49  H   UNL A   1      42.547  27.394  29.148  1.00  0.00     0.167 HD
ATOM     50  C   UNL A   1      46.741  27.037  29.884  1.00  0.00     0.037 A 
ATOM     51  C   UNL A   1      40.112  28.797  29.239  1.00  0.00     0.037 A 
ATOM     52  C   UNL A   1      46.458  28.421  30.180  1.00  0.00     0.049 A 
ATOM     53  C   UNL A   1      41.135  29.808  29.666  1.00  0.00     0.074 A 
ATOM     54  C   UNL A   1      47.344  29.417  30.565  1.00  0.00     0.029 A 
ATOM     55  N   UNL A   1      45.207  29.008  30.123  1.00  0.00    -0.354 N 
ATOM     56  N   UNL A   1      42.424  29.657  29.823  1.00  0.00    -0.248 NA
ATOM     57  C   UNL A   1      40.649  31.167  29.952  1.00  0.00     0.031 C 
ATOM     58  C   UNL A   1      46.623  30.600  30.765  1.00  0.00     0.029 A 
ATOM     59  C   UNL A   1      45.295  30.348  30.474  1.00  0.00     0.049 A 
ATOM     60  H   UNL A   1      44.376  28.543  29.871  1.00  0.00     0.167 HD
ATOM     61  C   UNL A   1      42.906  30.901  30.208  1.00  0.00     0.074 A 
ATOM     62  C   UNL A   1      41.775  31.802  30.244  1.00  0.00     0.031 C 
ATOM     63  C   UNL A   1      44.179  31.256  30.507  1.00  0.00     0.037 A 
BRANCH  50  64
ATOM     64  C   UNL A   1      48.146  26.561  30.139  1.00  0.00     0.057 A 
ATOM     65  C   UNL A   1      48.505  25.931  31.337  1.00  0.00     0.134 A 
ATOM     66  C   UNL A   1      49.126  26.649  29.140  1.00  0.00     0.134 A 
ATOM     67  F   UNL A   1      47.614  25.807  32.332  1.00  0.00    -0.206 F 
ATOM     68  C   UNL A   1      49.794  25.434  31.545  1.00  0.00     0.040 A 
ATOM     69  C   UNL A   1      50.410  26.133  29.326  1.00  0.00     0.040 A 
ATOM     70  F   UNL A   1      48.844  27.217  27.957  1.00  0.00    -0.206 F 
ATOM     71  C   UNL A   1      50.748  25.528  30.535  1.00  0.00     0.006 A 
ENDBRANCH  50  64
BRANCH  51  72
ATOM     72  C   UNL A   1      38.687  29.190  29.114  1.00  0.00     0.057 A 
ATOM     73  C   UNL A   1      37.841  29.159  30.230  1.00  0.00     0.134 A 
ATOM     74  C   UNL A   1      38.143  29.611  27.897  1.00  0.00     0.134 A 
ATOM     75  F   UNL A   1      38.306  28.746  31.418  1.00  0.00    -0.206 F 
ATOM     76  C   UNL A   1      36.498  29.524  30.136  1.00  0.00     0.040 A 
ATOM     77  C   UNL A   1      36.807  29.999  27.793  1.00  0.00     0.040 A 
ATOM     78  F   UNL A   1      38.910  29.671  26.798  1.00  0.00    -0.206 F 
ATOM     79  C   UNL A   1      35.980  29.950  28.915  1.00  0.00     0.006 A 
ENDBRANCH  51  72
BRANCH  63  80
ATOM     80  C   UNL A   1      44.428  32.688  30.874  1.00  0.00     0.057 A 
ATOM     81  C   UNL A   1      44.713  33.659  29.905  1.00  0.00     0.134 A 
ATOM     82  C   UNL A   1      44.363  33.107  32.209  1.00  0.00     0.134 A 
ATOM     83  F   UNL A   1      44.806  33.321  28.610  1.00  0.00    -0.206 F 
ATOM     84  C   UNL A   1      44.944  34.993  30.253  1.00  0.00     0.040 A 
ATOM     85  C   UNL A   1      44.572  34.440  32.568  1.00  0.00     0.040 A 
ATOM     86  F   UNL A   1      44.091  32.228  33.186  1.00  0.00    -0.206 F 
ATOM     87  C   UNL A   1      44.869  35.386  31.589  1.00  0.00     0.006 A 
ENDBRANCH  63  80
ENDBRANCH  37  38
ENDBRANCH  29  32
ENDBRANCH  27  28
ENDBRANCH  26  27
ENDBRANCH   1  26
TORSDOF 14
ENDMDL
MODEL 2
REMARK VINA RESULT:     -11.8      3.683      8.906
REMARK SMILES C[C@@H]1CCCC[C@H]1NC(=O)C[N@@H+]1CCO[C@H](CC(=O)NCCCNC(=O)c2ccc(-c3c4nc(c(-c5c(F)cccc5F)c5ccc([nH]5)c(-c5c(F)cccc5F)c5nc(c(-c6c(F)cccc6F)c6ccc3[nH]6)C=C5)C=C4)cc2)C1
REMARK SMILES IDX 21 1 20 2 18 3 19 4 17 6 16 7 12 8 13 9 81 10 14 12 15 13
REMARK SMILES IDX 11 14 9 15 8 16 10 18 7 19 1 20 2 21 3 22 4 23 6 24 5 25
REMARK SMILES IDX 22 26 23 27 24 28 25 29 26 31 27 32 28 33 80 34 29 35 79 36
REMARK SMILES IDX 30 37 31 38 32 39 73 40 33 41 78 42 72 43 74 44 34 45 77 46
REMARK SMILES IDX 71 47 70 48 35 50 61 51 44 52 60 53 45 54 48 55 59 56 75 57
REMARK SMILES IDX 46 58 47 59 58 61 76 62 49 63 36 64 37 65 42 66 38 67 39 68
REMARK SMILES IDX 41 69 43 70 40 71 62 72 63 73 68 74 64 75 65 76 67 77 69 78
REMARK SMILES IDX 66 79 50 80 51 81 56 82 52 83 53 84 55 85 57 86 54 87
REMARK H PARENT 20 5 12 11 8 17 24 30 74 49 48 60
REMARK Flexibility Score: inf
ROOT
ATOM      1  C   UNL A   1      32.314  27.562  22.803  1.00  0.00     0.117 C 
ENDROOT
BRANCH   1   2
ATOM      2  N   UNL A   1      33.142  26.517  22.219  1.00  0.00    -0.356 N 
ATOM      3  C   UNL A   1      33.648  25.371  22.770  1.00  0.00     0.222 C 
ATOM      4  O   UNL A   1      33.838  24.423  22.006  1.00  0.00    -0.275 OA
ATOM      5  H   UNL A   1      33.376  26.659  21.273  1.00  0.00     0.163 HD
BRANCH   3   6
ATOM      6  C   UNL A   1      34.029  25.281  24.234  1.00  0.00     0.138 C 
BRANCH   6   7
ATOM      7  C   UNL A   1      32.940  24.796  25.226  1.00  0.00     0.182 C 
ATOM      8  N   UNL A   1      32.841  22.311  25.899  1.00  0.00    -0.323 N 
ATOM      9  C   UNL A   1      31.378  22.452  25.797  1.00  0.00     0.291 C 
ATOM     10  C   UNL A   1      33.335  23.667  26.203  1.00  0.00     0.295 C 
ATOM     11  H   UNL A   1      33.108  21.634  26.614  1.00  0.00     0.348 HD
ATOM     12  C   UNL A   1      30.950  23.415  24.679  1.00  0.00     0.222 C 
ATOM     13  O   UNL A   1      31.644  24.669  24.610  1.00  0.00    -0.366 OA
BRANCH   8  14
ATOM     14  C   UNL A   1      33.417  21.816  24.626  1.00  0.00     0.363 C 
BRANCH  14  15
ATOM     15  C   UNL A   1      34.567  20.830  24.789  1.00  0.00     0.275 C 
ATOM     16  N   UNL A   1      34.255  19.534  25.117  1.00  0.00    -0.348 N 
ATOM     17  H   UNL A   1      34.886  19.038  25.686  1.00  0.00     0.163 HD
ATOM     18  O   UNL A   1      35.747  21.167  24.703  1.00  0.00    -0.268 OA
BRANCH  16  19
ATOM     19  C   UNL A   1      33.049  18.846  24.677  1.00  0.00     0.085 C 
ATOM     20  C   UNL A   1      32.167  18.422  22.330  1.00  0.00     0.010 C 
ATOM     21  C   UNL A   1      33.349  18.251  23.283  1.00  0.00     0.008 C 
ATOM     22  C   UNL A   1      33.925  16.829  23.339  1.00  0.00     0.005 C 
ATOM     23  C   UNL A   1      33.279  15.910  24.365  1.00  0.00     0.000 C 
ATOM     24  C   UNL A   1      32.553  17.870  25.750  1.00  0.00     0.025 C 
ATOM     25  C   UNL A   1      33.279  16.536  25.752  1.00  0.00     0.002 C 
ENDBRANCH  16  19
ENDBRANCH  14  15
ENDBRANCH   8  14
ENDBRANCH   6   7
ENDBRANCH   3   6
ENDBRANCH   1   2
BRANCH   1  26
ATOM     26  C   UNL A   1      33.022  28.817  23.340  1.00  0.00     0.042 C 
BRANCH  26  27
ATOM     27  C   UNL A   1      33.282  28.935  24.856  1.00  0.00     0.118 C 
BRANCH  27  28
ATOM     28  N   UNL A   1      32.640  30.081  25.483  1.00  0.00    -0.352 N 
ATOM     29  C   UNL A   1      33.008  30.835  26.578  1.00  0.00     0.251 C 
ATOM     30  H   UNL A   1      31.801  30.366  25.053  1.00  0.00     0.163 HD
ATOM     31  O   UNL A   1      32.297  31.770  26.931  1.00  0.00    -0.269 OA
BRANCH  29  32
ATOM     32  C   UNL A   1      34.250  30.570  27.344  1.00  0.00     0.039 A 
ATOM     33  C   UNL A   1      35.146  31.599  27.626  1.00  0.00     0.014 A 
ATOM     34  C   UNL A   1      34.635  29.264  27.628  1.00  0.00     0.014 A 
ATOM     35  C   UNL A   1      36.369  31.316  28.268  1.00  0.00     0.010 A 
ATOM     36  C   UNL A   1      35.821  28.989  28.335  1.00  0.00     0.010 A 
ATOM     37  C   UNL A   1      36.706  30.012  28.691  1.00  0.00    -0.014 A 
BRANCH  37  38
ATOM     38  C   UNL A   1      37.908  29.750  29.561  1.00  0.00     0.031 A 
ATOM     39  C   UNL A   1      38.065  30.303  30.966  1.00  0.00     0.074 A 
ATOM     40  C   UNL A   1      38.952  29.063  29.047  1.00  0.00     0.049 A 
ATOM     41  N   UNL A   1      39.060  30.142  31.812  1.00  0.00    -0.248 NA
ATOM     42  C   UNL A   1      37.003  31.183  31.474  1.00  0.00     0.031 C 
ATOM     43  C   UNL A   1      39.051  28.581  27.668  1.00  0.00     0.029 A 
ATOM     44  N   UNL A   1      40.134  28.649  29.620  1.00  0.00    -0.354 N 
ATOM     45  C   UNL A   1      38.767  30.930  32.921  1.00  0.00     0.074 A 
ATOM     46  C   UNL A   1      37.514  31.597  32.627  1.00  0.00     0.031 C 
ATOM     47  C   UNL A   1      40.185  27.881  27.522  1.00  0.00     0.029 A 
ATOM     48  C   UNL A   1      40.918  27.891  28.783  1.00  0.00     0.049 A 
ATOM     49  H   UNL A   1      40.392  28.874  30.544  1.00  0.00     0.167 HD
ATOM     50  C   UNL A   1      39.455  31.075  34.084  1.00  0.00     0.037 A 
ATOM     51  C   UNL A   1      42.087  27.255  28.993  1.00  0.00     0.037 A 
ATOM     52  C   UNL A   1      40.660  30.362  34.434  1.00  0.00     0.049 A 
ATOM     53  C   UNL A   1      42.758  27.312  30.333  1.00  0.00     0.074 A 
ATOM     54  C   UNL A   1      41.333  30.350  35.647  1.00  0.00     0.029 A 
ATOM     55  N   UNL A   1      41.371  29.534  33.583  1.00  0.00    -0.354 N 
ATOM     56  N   UNL A   1      42.395  27.963  31.407  1.00  0.00    -0.248 NA
ATOM     57  C   UNL A   1      43.999  26.535  30.490  1.00  0.00     0.031 C 
ATOM     58  C   UNL A   1      42.464  29.536  35.522  1.00  0.00     0.029 A 
ATOM     59  C   UNL A   1      42.478  29.015  34.240  1.00  0.00     0.049 A 
ATOM     60  H   UNL A   1      41.128  29.342  32.648  1.00  0.00     0.167 HD
ATOM     61  C   UNL A   1      43.349  27.663  32.371  1.00  0.00     0.074 A 
ATOM     62  C   UNL A   1      44.298  26.757  31.762  1.00  0.00     0.031 C 
ATOM     63  C   UNL A   1      43.424  28.108  33.648  1.00  0.00     0.037 A 
BRANCH  50  64
ATOM     64  C   UNL A   1      38.910  32.032  35.110  1.00  0.00     0.057 A 
ATOM     65  C   UNL A   1      38.155  31.589  36.204  1.00  0.00     0.134 A 
ATOM     66  C   UNL A   1      39.221  33.398  35.055  1.00  0.00     0.134 A 
ATOM     67  F   UNL A   1      37.828  30.293  36.322  1.00  0.00    -0.206 F 
ATOM     68  C   UNL A   1      37.705  32.471  37.188  1.00  0.00     0.040 A 
ATOM     69  C   UNL A   1      38.799  34.286  36.046  1.00  0.00     0.040 A 
ATOM     70  F   UNL A   1      39.961  33.889  34.049  1.00  0.00    -0.206 F 
ATOM     71  C   UNL A   1      38.033  33.823  37.115  1.00  0.00     0.006 A 
ENDBRANCH  50  64
BRANCH  51  72
ATOM     72  C   UNL A   1      42.672  26.434  27.904  1.00  0.00     0.057 A 
ATOM     73  C   UNL A   1      43.548  27.008  26.973  1.00  0.00     0.134 A 
ATOM     74  C   UNL A   1      42.386  25.072  27.773  1.00  0.00     0.134 A 
ATOM     75  F   UNL A   1      43.843  28.314  27.042  1.00  0.00    -0.206 F 
ATOM     76  C   UNL A   1      44.110  26.256  25.942  1.00  0.00     0.040 A 
ATOM     77  C   UNL A   1      42.956  24.304  26.758  1.00  0.00     0.040 A 
ATOM     78  F   UNL A   1      41.562  24.467  28.642  1.00  0.00    -0.206 F 
ATOM     79  C   UNL A   1      43.817  24.898  25.836  1.00  0.00     0.006 A 
ENDBRANCH  51  72
BRANCH  63  80
ATOM     80  C   UNL A   1      44.557  27.602  34.490  1.00  0.00     0.057 A 
ATOM     81  C   UNL A   1      44.450  26.423  35.240  1.00  0.00     0.134 A 
ATOM     82  C   UNL A   1      45.777  28.287  34.536  1.00  0.00     0.134 A 
ATOM     83  F   UNL A   1      43.302  25.727  35.253  1.00  0.00    -0.206 F 
ATOM     84  C   UNL A   1      45.509  25.955  36.022  1.00  0.00     0.040 A 
ATOM     85  C   UNL A   1      46.850  27.820  35.298  1.00  0.00     0.040 A 
ATOM     86  F   UNL A   1      45.948  29.420  33.839  1.00  0.00    -0.206 F 
ATOM     87  C   UNL A   1      46.715  26.653  36.048  1.00  0.00     0.006 A 
ENDBRANCH  63  80
ENDBRANCH  37  38
ENDBRANCH  29  32
ENDBRANCH  27  28
ENDBRANCH  26  27
ENDBRANCH   1  26
TORSDOF 14
ENDMDL
MODEL 3
REMARK VINA RESULT:     -11.7      2.735      8.072
REMARK SMILES C[C@@H]1CCCC[C@H]1NC(=O)C[N@@H+]1CCO[C@H](CC(=O)NCCCNC(=O)c2ccc(-c3c4nc(c(-c5c(F)cccc5F)c5ccc([nH]5)c(-c5c(F)cccc5F)c5nc(c(-c6c(F)cccc6F)c6ccc3[nH]6)C=C5)C=C4)cc2)C1
REMARK SMILES IDX 21 1 20 2 18 3 19 4 17 6 16 7 12 8 13 9 81 10 14 12 15 13
REMARK SMILES IDX 11 14 9 15 8 16 10 18 7 19 1 20 2 21 3 22 4 23 6 24 5 25
REMARK SMILES IDX 22 26 23 27 24 28 25 29 26 31 27 32 28 33 80 34 29 35 79 36
REMARK SMILES IDX 30 37 31 38 32 39 73 40 33 41 78 42 72 43 74 44 34 45 77 46
REMARK SMILES IDX 71 47 70 48 35 50 61 51 44 52 60 53 45 54 48 55 59 56 75 57
REMARK SMILES IDX 46 58 47 59 58 61 76 62 49 63 36 64 37 65 42 66 38 67 39 68
REMARK SMILES IDX 41 69 43 70 40 71 62 72 63 73 68 74 64 75 65 76 67 77 69 78
REMARK SMILES IDX 66 79 50 80 51 81 56 82 52 83 53 84 55 85 57 86 54 87
REMARK H PARENT 20 5 12 11 8 17 24 30 74 49 48 60
REMARK Flexibility Score: inf
ROOT
ATOM      1  C   UNL A   1      31.760  28.836  26.946  1.00  0.00     0.117 C 
ENDROOT
BRANCH   1   2
ATOM      2  N   UNL A   1      31.629  27.426  27.280  1.00  0.00    -0.356 N 
ATOM      3  C   UNL A   1      31.347  26.346  26.487  1.00  0.00     0.222 C 
ATOM      4  O   UNL A   1      31.803  25.258  26.846  1.00  0.00    -0.275 OA
ATOM      5  H   UNL A   1      31.765  27.214  28.232  1.00  0.00     0.163 HD
BRANCH   3   6
ATOM      6  C   UNL A   1      30.460  26.455  25.263  1.00  0.00     0.138 C 
BRANCH   6   7
ATOM      7  C   UNL A   1      31.153  26.714  23.901  1.00  0.00     0.182 C 
ATOM      8  N   UNL A   1      31.733  24.728  22.365  1.00  0.00    -0.323 N 
ATOM      9  C   UNL A   1      32.994  25.442  22.097  1.00  0.00     0.291 C 
ATOM     10  C   UNL A   1      30.768  25.782  22.731  1.00  0.00     0.295 C 
ATOM     11  H   UNL A   1      31.424  24.187  21.557  1.00  0.00     0.348 HD
ATOM     12  C   UNL A   1      33.514  26.209  23.322  1.00  0.00     0.222 C 
ATOM     13  O   UNL A   1      32.557  27.004  24.038  1.00  0.00    -0.366 OA
BRANCH   8  14
ATOM     14  C   UNL A   1      31.896  23.759  23.474  1.00  0.00     0.363 C 
BRANCH  14  15
ATOM     15  C   UNL A   1      32.403  22.386  23.049  1.00  0.00     0.275 C 
ATOM     16  N   UNL A   1      33.721  22.089  23.290  1.00  0.00    -0.348 N 
ATOM     17  H   UNL A   1      34.187  21.507  22.648  1.00  0.00     0.163 HD
ATOM     18  O   UNL A   1      31.698  21.575  22.449  1.00  0.00    -0.268 OA
BRANCH  16  19
ATOM     19  C   UNL A   1      34.475  22.581  24.435  1.00  0.00     0.085 C 
ATOM     20  C   UNL A   1      34.541  21.748  26.836  1.00  0.00     0.010 C 
ATOM     21  C   UNL A   1      34.725  21.375  25.367  1.00  0.00     0.008 C 
ATOM     22  C   UNL A   1      36.029  20.627  25.056  1.00  0.00     0.005 C 
ATOM     23  C   UNL A   1      37.222  21.514  24.728  1.00  0.00     0.000 C 
ATOM     24  C   UNL A   1      35.710  23.369  23.980  1.00  0.00     0.025 C 
ATOM     25  C   UNL A   1      36.896  22.495  23.612  1.00  0.00     0.002 C 
ENDBRANCH  16  19
ENDBRANCH  14  15
ENDBRANCH   8  14
ENDBRANCH   6   7
ENDBRANCH   3   6
ENDBRANCH   1   2
BRANCH   1  26
ATOM     26  C   UNL A   1      33.132  29.329  26.455  1.00  0.00     0.042 C 
BRANCH  26  27
ATOM     27  C   UNL A   1      34.354  29.180  27.385  1.00  0.00     0.118 C 
BRANCH  27  28
ATOM     28  N   UNL A   1      34.483  30.241  28.372  1.00  0.00    -0.352 N 
ATOM     29  C   UNL A   1      35.583  30.698  29.068  1.00  0.00     0.251 C 
ATOM     30  H   UNL A   1      33.643  30.713  28.578  1.00  0.00     0.163 HD
ATOM     31  O   UNL A   1      35.450  31.621  29.865  1.00  0.00    -0.269 OA
BRANCH  29  32
ATOM     32  C   UNL A   1      36.938  30.126  28.877  1.00  0.00     0.039 A 
ATOM     33  C   UNL A   1      37.540  30.123  27.621  1.00  0.00     0.014 A 
ATOM     34  C   UNL A   1      37.551  29.415  29.904  1.00  0.00     0.014 A 
ATOM     35  C   UNL A   1      38.785  29.489  27.434  1.00  0.00     0.010 A 
ATOM     36  C   UNL A   1      38.827  28.845  29.737  1.00  0.00     0.010 A 
ATOM     37  C   UNL A   1      39.484  28.888  28.504  1.00  0.00    -0.014 A 
BRANCH  37  38
ATOM     38  C   UNL A   1      40.902  28.403  28.346  1.00  0.00     0.031 A 
ATOM     39  C   UNL A   1      41.265  26.983  27.952  1.00  0.00     0.074 A 
ATOM     40  C   UNL A   1      41.918  29.237  28.659  1.00  0.00     0.049 A 
ATOM     41  N   UNL A   1      42.457  26.450  27.784  1.00  0.00    -0.248 NA
ATOM     42  C   UNL A   1      40.167  26.025  27.765  1.00  0.00     0.031 C 
ATOM     43  C   UNL A   1      41.767  30.589  29.199  1.00  0.00     0.029 A 
ATOM     44  N   UNL A   1      43.283  29.075  28.567  1.00  0.00    -0.354 N 
ATOM     45  C   UNL A   1      42.253  25.099  27.521  1.00  0.00     0.074 A 
ATOM     46  C   UNL A   1      40.821  24.884  27.584  1.00  0.00     0.031 C 
ATOM     47  C   UNL A   1      42.976  31.156  29.323  1.00  0.00     0.029 A 
ATOM     48  C   UNL A   1      43.997  30.200  28.907  1.00  0.00     0.049 A 
ATOM     49  H   UNL A   1      43.708  28.233  28.283  1.00  0.00     0.167 HD
ATOM     50  C   UNL A   1      43.159  24.127  27.234  1.00  0.00     0.037 A 
ATOM     51  C   UNL A   1      45.319  30.458  28.877  1.00  0.00     0.037 A 
ATOM     52  C   UNL A   1      44.580  24.331  27.085  1.00  0.00     0.049 A 
ATOM     53  C   UNL A   1      46.291  29.413  28.418  1.00  0.00     0.074 A 
ATOM     54  C   UNL A   1      45.540  23.426  26.656  1.00  0.00     0.029 A 
ATOM     55  N   UNL A   1      45.247  25.513  27.354  1.00  0.00    -0.354 N 
ATOM     56  N   UNL A   1      46.060  28.178  28.054  1.00  0.00    -0.248 NA
ATOM     57  C   UNL A   1      47.709  29.802  28.358  1.00  0.00     0.031 C 
ATOM     58  C   UNL A   1      46.790  24.053  26.690  1.00  0.00     0.029 A 
ATOM     59  C   UNL A   1      46.605  25.358  27.110  1.00  0.00     0.049 A 
ATOM     60  H   UNL A   1      44.822  26.342  27.673  1.00  0.00     0.167 HD
ATOM     61  C   UNL A   1      47.296  27.650  27.704  1.00  0.00     0.074 A 
ATOM     62  C   UNL A   1      48.273  28.701  27.883  1.00  0.00     0.031 C 
ATOM     63  C   UNL A   1      47.585  26.398  27.276  1.00  0.00     0.037 A 
BRANCH  50  64
ATOM     64  C   UNL A   1      42.648  22.728  27.021  1.00  0.00     0.057 A 
ATOM     65  C   UNL A   1      42.558  22.162  25.742  1.00  0.00     0.134 A 
ATOM     66  C   UNL A   1      42.331  21.905  28.112  1.00  0.00     0.134 A 
ATOM     67  F   UNL A   1      42.853  22.891  24.656  1.00  0.00    -0.206 F 
ATOM     68  C   UNL A   1      42.143  20.842  25.554  1.00  0.00     0.040 A 
ATOM     69  C   UNL A   1      41.940  20.576  27.937  1.00  0.00     0.040 A 
ATOM     70  F   UNL A   1      42.418  22.373  29.366  1.00  0.00    -0.206 F 
ATOM     71  C   UNL A   1      41.840  20.043  26.654  1.00  0.00     0.006 A 
ENDBRANCH  50  64
BRANCH  51  72
ATOM     72  C   UNL A   1      45.802  31.814  29.237  1.00  0.00     0.057 A 
ATOM     73  C   UNL A   1      46.199  32.103  30.548  1.00  0.00     0.134 A 
ATOM     74  C   UNL A   1      45.889  32.840  28.290  1.00  0.00     0.134 A 
ATOM     75  F   UNL A   1      46.119  31.162  31.499  1.00  0.00    -0.206 F 
ATOM     76  C   UNL A   1      46.656  33.370  30.909  1.00  0.00     0.040 A 
ATOM     77  C   UNL A   1      46.363  34.106  28.632  1.00  0.00     0.040 A 
ATOM     78  F   UNL A   1      45.532  32.617  27.016  1.00  0.00    -0.206 F 
ATOM     79  C   UNL A   1      46.744  34.375  29.947  1.00  0.00     0.006 A 
ENDBRANCH  51  72
BRANCH  63  80
ATOM     80  C   UNL A   1      49.016  26.096  26.942  1.00  0.00     0.057 A 
ATOM     81  C   UNL A   1      49.897  25.558  27.889  1.00  0.00     0.134 A 
ATOM     82  C   UNL A   1      49.514  26.327  25.654  1.00  0.00     0.134 A 
ATOM     83  F   UNL A   1      49.488  25.328  29.146  1.00  0.00    -0.206 F 
ATOM     84  C   UNL A   1      51.229  25.279  27.572  1.00  0.00     0.040 A 
ATOM     85  C   UNL A   1      50.837  26.034  25.318  1.00  0.00     0.040 A 
ATOM     86  F   UNL A   1      48.722  26.838  24.699  1.00  0.00    -0.206 F 
ATOM     87  C   UNL A   1      51.700  25.513  26.281  1.00  0.00     0.006 A 
ENDBRANCH  63  80
ENDBRANCH  37  38
ENDBRANCH  29  32
ENDBRANCH  27  28
ENDBRANCH  26  27
ENDBRANCH   1  26
TORSDOF 14
ENDMDL
