MODEL 1
REMARK VINA RESULT:     -11.1      0.000      0.000
REMARK SMILES Cc1cc(Br)cc(C(=O)NCCCNC(=O)c2ccc(-c3c4nc(c(-c5c(F)cccc5F)c5ccc([nH]5)c(-c5c(F)cccc5F)c5nc(c(-c6c(F)cccc6F)c6ccc3[nH]6)C=C5)C=C4)cc2)c1Br
REMARK SMILES IDX 13 1 12 2 11 3 10 4 8 5 9 6 7 8 1 9 2 10 3 11 71 12 4 13
REMARK SMILES IDX 72 14 5 15 6 16 14 17 15 18 16 20 17 21 18 22 70 23 19 24
REMARK SMILES IDX 69 25 20 26 21 27 22 28 63 29 23 30 68 31 62 32 64 33 24 34
REMARK SMILES IDX 67 35 61 36 60 37 25 39 51 40 34 41 50 42 35 43 38 44 49 45
REMARK SMILES IDX 65 46 36 47 37 48 48 50 66 51 39 52 26 53 27 54 32 55 28 56
REMARK SMILES IDX 29 57 31 58 33 59 30 60 52 61 53 62 58 63 54 64 55 65 57 66
REMARK SMILES IDX 59 67 56 68 40 69 41 70 46 71 42 72 43 73 45 74 47 75 44 76
REMARK H PARENT 10 7 14 19 64 38 38 49
REMARK Flexibility Score: inf
ROOT
ATOM      1  C   UNL A   1      38.904  20.293  25.693  1.00  0.00     0.118 C 
ENDROOT
BRANCH   1   2
ATOM      2  C   UNL A   1      37.732  19.729  24.901  1.00  0.00     0.042 C 
BRANCH   2   3
ATOM      3  C   UNL A   1      36.429  20.524  25.043  1.00  0.00     0.118 C 
BRANCH   3   4
ATOM      4  N   UNL A   1      36.468  21.685  24.178  1.00  0.00    -0.352 N 
ATOM      5  C   UNL A   1      35.643  22.737  23.897  1.00  0.00     0.252 C 
ATOM      6  O   UNL A   1      36.035  23.432  22.949  1.00  0.00    -0.269 OA
ATOM      7  H   UNL A   1      37.302  21.726  23.658  1.00  0.00     0.163 HD
BRANCH   5   8
ATOM      8  C   UNL A   1      34.422  23.210  24.636  1.00  0.00     0.055 A 
ATOM      9  C   UNL A   1      30.840  22.642  25.984  1.00  0.00     0.045 C 
ATOM     10  C   UNL A   1      32.156  23.284  25.602  1.00  0.00    -0.035 A 
ATOM     11  C   UNL A   1      32.323  24.637  25.925  1.00  0.00     0.020 A 
ATOM     12  C   UNL A   1      33.184  22.587  24.898  1.00  0.00     0.033 A 
ATOM     13  C   UNL A   1      33.507  25.280  25.609  1.00  0.00     0.019 A 
ATOM     14  Br  UNL A   1      32.656  20.914  24.170  1.00  0.00    -0.050 Br
ATOM     15  Br  UNL A   1      33.691  27.128  25.954  1.00  0.00    -0.051 Br
ATOM     16  C   UNL A   1      34.546  24.573  25.012  1.00  0.00     0.030 A 
ENDBRANCH   5   8
ENDBRANCH   3   4
ENDBRANCH   2   3
ENDBRANCH   1   2
BRANCH   1  17
ATOM     17  N   UNL A   1      40.012  19.351  25.772  1.00  0.00    -0.352 N 
ATOM     18  C   UNL A   1      41.340  19.568  26.055  1.00  0.00     0.251 C 
ATOM     19  H   UNL A   1      39.771  18.412  25.597  1.00  0.00     0.163 HD
ATOM     20  O   UNL A   1      42.161  18.682  25.825  1.00  0.00    -0.269 OA
BRANCH  18  21
ATOM     21  C   UNL A   1      41.795  20.864  26.611  1.00  0.00     0.039 A 
ATOM     22  C   UNL A   1      41.786  21.097  27.986  1.00  0.00     0.014 A 
ATOM     23  C   UNL A   1      42.263  21.856  25.742  1.00  0.00     0.014 A 
ATOM     24  C   UNL A   1      42.063  22.369  28.475  1.00  0.00     0.010 A 
ATOM     25  C   UNL A   1      42.640  23.105  26.247  1.00  0.00     0.010 A 
ATOM     26  C   UNL A   1      42.496  23.390  27.614  1.00  0.00    -0.014 A 
BRANCH  26  27
ATOM     27  C   UNL A   1      42.782  24.741  28.163  1.00  0.00     0.031 A 
ATOM     28  C   UNL A   1      44.190  25.148  28.507  1.00  0.00     0.074 A 
ATOM     29  C   UNL A   1      41.773  25.624  28.305  1.00  0.00     0.049 A 
ATOM     30  N   UNL A   1      44.625  26.271  29.021  1.00  0.00    -0.248 NA
ATOM     31  C   UNL A   1      45.250  24.161  28.244  1.00  0.00     0.031 C 
ATOM     32  C   UNL A   1      40.368  25.359  27.991  1.00  0.00     0.029 A 
ATOM     33  N   UNL A   1      41.775  26.929  28.731  1.00  0.00    -0.354 N 
ATOM     34  C   UNL A   1      45.999  26.116  29.169  1.00  0.00     0.074 A 
ATOM     35  C   UNL A   1      46.323  24.782  28.714  1.00  0.00     0.031 C 
ATOM     36  C   UNL A   1      39.654  26.476  28.186  1.00  0.00     0.029 A 
ATOM     37  C   UNL A   1      40.533  27.514  28.710  1.00  0.00     0.049 A 
ATOM     38  H   UNL A   1      42.590  27.400  29.022  1.00  0.00     0.167 HD
ATOM     39  C   UNL A   1      46.907  27.008  29.634  1.00  0.00     0.037 A 
ATOM     40  C   UNL A   1      40.139  28.740  29.097  1.00  0.00     0.037 A 
ATOM     41  C   UNL A   1      46.583  28.345  30.063  1.00  0.00     0.049 A 
ATOM     42  C   UNL A   1      41.158  29.692  29.654  1.00  0.00     0.074 A 
ATOM     43  C   UNL A   1      47.434  29.332  30.530  1.00  0.00     0.029 A 
ATOM     44  N   UNL A   1      45.305  28.882  30.073  1.00  0.00    -0.354 N 
ATOM     45  N   UNL A   1      42.451  29.529  29.791  1.00  0.00    -0.248 NA
ATOM     46  C   UNL A   1      40.659  30.992  30.122  1.00  0.00     0.031 C 
ATOM     47  C   UNL A   1      46.663  30.453  30.863  1.00  0.00     0.029 A 
ATOM     48  C   UNL A   1      45.339  30.179  30.560  1.00  0.00     0.049 A 
ATOM     49  H   UNL A   1      44.491  28.411  29.779  1.00  0.00     0.167 HD
ATOM     50  C   UNL A   1      42.924  30.708  30.350  1.00  0.00     0.074 A 
ATOM     51  C   UNL A   1      41.780  31.585  30.505  1.00  0.00     0.031 C 
ATOM     52  C   UNL A   1      44.190  31.034  30.708  1.00  0.00     0.037 A 
BRANCH  39  53
ATOM     53  C   UNL A   1      48.336  26.555  29.727  1.00  0.00     0.057 A 
ATOM     54  C   UNL A   1      49.229  26.797  28.675  1.00  0.00     0.134 A 
ATOM     55  C   UNL A   1      48.826  25.865  30.843  1.00  0.00     0.134 A 
ATOM     56  F   UNL A   1      48.825  27.446  27.574  1.00  0.00    -0.206 F 
ATOM     57  C   UNL A   1      50.558  26.370  28.730  1.00  0.00     0.040 A 
ATOM     58  C   UNL A   1      50.160  25.455  30.921  1.00  0.00     0.040 A 
ATOM     59  F   UNL A   1      48.028  25.613  31.891  1.00  0.00    -0.206 F 
ATOM     60  C   UNL A   1      51.029  25.703  29.860  1.00  0.00     0.006 A 
ENDBRANCH  39  53
BRANCH  40  61
ATOM     61  C   UNL A   1      38.709  29.127  28.998  1.00  0.00     0.057 A 
ATOM     62  C   UNL A   1      38.161  29.584  27.794  1.00  0.00     0.134 A 
ATOM     63  C   UNL A   1      37.857  29.046  30.105  1.00  0.00     0.134 A 
ATOM     64  F   UNL A   1      38.927  29.689  26.697  1.00  0.00    -0.206 F 
ATOM     65  C   UNL A   1      36.821  29.961  27.695  1.00  0.00     0.040 A 
ATOM     66  C   UNL A   1      36.507  29.393  30.014  1.00  0.00     0.040 A 
ATOM     67  F   UNL A   1      38.317  28.596  31.281  1.00  0.00    -0.206 F 
ATOM     68  C   UNL A   1      35.989  29.859  28.807  1.00  0.00     0.006 A 
ENDBRANCH  40  61
BRANCH  52  69
ATOM     69  C   UNL A   1      44.398  32.405  31.276  1.00  0.00     0.057 A 
ATOM     70  C   UNL A   1      44.319  32.625  32.658  1.00  0.00     0.134 A 
ATOM     71  C   UNL A   1      44.665  33.510  30.458  1.00  0.00     0.134 A 
ATOM     72  F   UNL A   1      44.062  31.610  33.496  1.00  0.00    -0.206 F 
ATOM     73  C   UNL A   1      44.499  33.896  33.205  1.00  0.00     0.040 A 
ATOM     74  C   UNL A   1      44.872  34.782  30.995  1.00  0.00     0.040 A 
ATOM     75  F   UNL A   1      44.771  33.361  29.128  1.00  0.00    -0.206 F 
ATOM     76  C   UNL A   1      44.782  34.977  32.372  1.00  0.00     0.006 A 
ENDBRANCH  52  69
ENDBRANCH  26  27
ENDBRANCH  18  21
ENDBRANCH   1  17
TORSDOF 10
ENDMDL
MODEL 2
REMARK VINA RESULT:     -11.1      0.341      6.481
REMARK SMILES Cc1cc(Br)cc(C(=O)NCCCNC(=O)c2ccc(-c3c4nc(c(-c5c(F)cccc5F)c5ccc([nH]5)c(-c5c(F)cccc5F)c5nc(c(-c6c(F)cccc6F)c6ccc3[nH]6)C=C5)C=C4)cc2)c1Br
REMARK SMILES IDX 13 1 12 2 11 3 10 4 8 5 9 6 7 8 1 9 2 10 3 11 71 12 4 13
REMARK SMILES IDX 72 14 5 15 6 16 14 17 15 18 16 20 17 21 18 22 70 23 19 24
REMARK SMILES IDX 69 25 20 26 21 27 22 28 63 29 23 30 68 31 62 32 64 33 24 34
REMARK SMILES IDX 67 35 61 36 60 37 25 39 51 40 34 41 50 42 35 43 38 44 49 45
REMARK SMILES IDX 65 46 36 47 37 48 48 50 66 51 39 52 26 53 27 54 32 55 28 56
REMARK SMILES IDX 29 57 31 58 33 59 30 60 52 61 53 62 58 63 54 64 55 65 57 66
REMARK SMILES IDX 59 67 56 68 40 69 41 70 46 71 42 72 43 73 45 74 47 75 44 76
REMARK H PARENT 10 7 14 19 64 38 38 49
REMARK Flexibility Score: inf
ROOT
ATOM      1  C   UNL A   1      38.776  20.507  25.559  1.00  0.00     0.118 C 
ENDROOT
BRANCH   1   2
ATOM      2  C   UNL A   1      37.514  19.934  24.928  1.00  0.00     0.042 C 
BRANCH   2   3
ATOM      3  C   UNL A   1      36.247  20.759  25.180  1.00  0.00     0.118 C 
BRANCH   3   4
ATOM      4  N   UNL A   1      36.192  21.867  24.248  1.00  0.00    -0.352 N 
ATOM      5  C   UNL A   1      35.344  22.909  24.001  1.00  0.00     0.252 C 
ATOM      6  O   UNL A   1      35.628  23.543  22.975  1.00  0.00    -0.269 OA
ATOM      7  H   UNL A   1      36.961  21.868  23.636  1.00  0.00     0.163 HD
BRANCH   5   8
ATOM      8  C   UNL A   1      34.217  23.438  24.844  1.00  0.00     0.055 A 
ATOM      9  C   UNL A   1      30.797  22.998  26.598  1.00  0.00     0.045 C 
ATOM     10  C   UNL A   1      32.071  23.597  26.046  1.00  0.00    -0.035 A 
ATOM     11  C   UNL A   1      32.291  24.961  26.284  1.00  0.00     0.020 A 
ATOM     12  C   UNL A   1      33.007  22.851  25.269  1.00  0.00     0.033 A 
ATOM     13  C   UNL A   1      33.441  25.567  25.811  1.00  0.00     0.019 A 
ATOM     14  Br  UNL A   1      32.381  21.155  24.682  1.00  0.00    -0.050 Br
ATOM     15  Br  UNL A   1      33.686  27.425  26.046  1.00  0.00    -0.051 Br
ATOM     16  C   UNL A   1      34.400  24.814  25.139  1.00  0.00     0.030 A 
ENDBRANCH   5   8
ENDBRANCH   3   4
ENDBRANCH   2   3
ENDBRANCH   1   2
BRANCH   1  17
ATOM     17  N   UNL A   1      39.798  19.488  25.755  1.00  0.00    -0.352 N 
ATOM     18  C   UNL A   1      41.120  19.618  26.110  1.00  0.00     0.251 C 
ATOM     19  H   UNL A   1      39.494  18.563  25.611  1.00  0.00     0.163 HD
ATOM     20  O   UNL A   1      41.879  18.661  25.977  1.00  0.00    -0.269 OA
BRANCH  18  21
ATOM     21  C   UNL A   1      41.643  20.903  26.628  1.00  0.00     0.039 A 
ATOM     22  C   UNL A   1      41.688  21.159  27.999  1.00  0.00     0.014 A 
ATOM     23  C   UNL A   1      42.122  21.862  25.728  1.00  0.00     0.014 A 
ATOM     24  C   UNL A   1      42.031  22.427  28.457  1.00  0.00     0.010 A 
ATOM     25  C   UNL A   1      42.563  23.103  26.199  1.00  0.00     0.010 A 
ATOM     26  C   UNL A   1      42.475  23.415  27.565  1.00  0.00    -0.014 A 
BRANCH  26  27
ATOM     27  C   UNL A   1      42.832  24.763  28.081  1.00  0.00     0.031 A 
ATOM     28  C   UNL A   1      41.766  25.798  28.324  1.00  0.00     0.074 A 
ATOM     29  C   UNL A   1      44.117  25.039  28.379  1.00  0.00     0.049 A 
ATOM     30  N   UNL A   1      41.891  27.033  28.742  1.00  0.00    -0.248 NA
ATOM     31  C   UNL A   1      40.375  25.396  28.058  1.00  0.00     0.031 C 
ATOM     32  C   UNL A   1      45.241  24.116  28.205  1.00  0.00     0.029 A 
ATOM     33  N   UNL A   1      44.695  26.165  28.907  1.00  0.00    -0.354 N 
ATOM     34  C   UNL A   1      40.606  27.561  28.761  1.00  0.00     0.074 A 
ATOM     35  C   UNL A   1      39.716  26.522  28.290  1.00  0.00     0.031 C 
ATOM     36  C   UNL A   1      46.360  24.693  28.664  1.00  0.00     0.029 A 
ATOM     37  C   UNL A   1      46.050  26.051  29.094  1.00  0.00     0.049 A 
ATOM     38  H   UNL A   1      44.185  26.978  29.132  1.00  0.00     0.167 HD
ATOM     39  C   UNL A   1      40.203  28.797  29.146  1.00  0.00     0.037 A 
ATOM     40  C   UNL A   1      46.950  26.948  29.534  1.00  0.00     0.037 A 
ATOM     41  C   UNL A   1      41.089  29.821  29.639  1.00  0.00     0.049 A 
ATOM     42  C   UNL A   1      46.484  28.325  29.907  1.00  0.00     0.074 A 
ATOM     43  C   UNL A   1      40.777  31.098  30.073  1.00  0.00     0.029 A 
ATOM     44  N   UNL A   1      42.463  29.681  29.765  1.00  0.00    -0.354 N 
ATOM     45  N   UNL A   1      45.267  28.810  29.916  1.00  0.00    -0.248 NA
ATOM     46  C   UNL A   1      47.520  29.283  30.318  1.00  0.00     0.031 C 
ATOM     47  C   UNL A   1      41.969  31.744  30.423  1.00  0.00     0.029 A 
ATOM     48  C   UNL A   1      43.017  30.855  30.248  1.00  0.00     0.049 A 
ATOM     49  H   UNL A   1      42.971  28.867  29.542  1.00  0.00     0.167 HD
ATOM     50  C   UNL A   1      45.386  30.125  30.343  1.00  0.00     0.074 A 
ATOM     51  C   UNL A   1      46.794  30.353  30.605  1.00  0.00     0.031 C 
ATOM     52  C   UNL A   1      44.419  31.062  30.500  1.00  0.00     0.037 A 
BRANCH  39  53
ATOM     53  C   UNL A   1      38.741  29.118  29.022  1.00  0.00     0.057 A 
ATOM     54  C   UNL A   1      38.208  29.550  27.800  1.00  0.00     0.134 A 
ATOM     55  C   UNL A   1      37.863  29.021  30.110  1.00  0.00     0.134 A 
ATOM     56  F   UNL A   1      38.993  29.671  26.720  1.00  0.00    -0.206 F 
ATOM     57  C   UNL A   1      36.856  29.871  27.665  1.00  0.00     0.040 A 
ATOM     58  C   UNL A   1      36.503  29.316  29.980  1.00  0.00     0.040 A 
ATOM     59  F   UNL A   1      38.305  28.601  31.305  1.00  0.00    -0.206 F 
ATOM     60  C   UNL A   1      35.997  29.747  28.756  1.00  0.00     0.006 A 
ENDBRANCH  39  53
BRANCH  40  61
ATOM     61  C   UNL A   1      48.386  26.580  29.619  1.00  0.00     0.057 A 
ATOM     62  C   UNL A   1      49.271  26.858  28.570  1.00  0.00     0.134 A 
ATOM     63  C   UNL A   1      48.907  25.943  30.751  1.00  0.00     0.134 A 
ATOM     64  F   UNL A   1      48.833  27.462  27.456  1.00  0.00    -0.206 F 
ATOM     65  C   UNL A   1      50.619  26.504  28.637  1.00  0.00     0.040 A 
ATOM     66  C   UNL A   1      50.259  25.608  30.843  1.00  0.00     0.040 A 
ATOM     67  F   UNL A   1      48.114  25.668  31.796  1.00  0.00    -0.206 F 
ATOM     68  C   UNL A   1      51.117  25.883  29.780  1.00  0.00     0.006 A 
ENDBRANCH  40  61
BRANCH  52  69
ATOM     69  C   UNL A   1      44.856  32.406  31.001  1.00  0.00     0.057 A 
ATOM     70  C   UNL A   1      44.915  32.671  32.376  1.00  0.00     0.134 A 
ATOM     71  C   UNL A   1      45.207  33.441  30.125  1.00  0.00     0.134 A 
ATOM     72  F   UNL A   1      44.586  31.723  33.266  1.00  0.00    -0.206 F 
ATOM     73  C   UNL A   1      45.307  33.918  32.861  1.00  0.00     0.040 A 
ATOM     74  C   UNL A   1      45.626  34.686  30.600  1.00  0.00     0.040 A 
ATOM     75  F   UNL A   1      45.190  33.245  28.798  1.00  0.00    -0.206 F 
ATOM     76  C   UNL A   1      45.671  34.927  31.972  1.00  0.00     0.006 A 
ENDBRANCH  52  69
ENDBRANCH  26  27
ENDBRANCH  18  21
ENDBRANCH   1  17
TORSDOF 10
ENDMDL
MODEL 3
REMARK VINA RESULT:     -11.1      2.675      7.543
REMARK SMILES Cc1cc(Br)cc(C(=O)NCCCNC(=O)c2ccc(-c3c4nc(c(-c5c(F)cccc5F)c5ccc([nH]5)c(-c5c(F)cccc5F)c5nc(c(-c6c(F)cccc6F)c6ccc3[nH]6)C=C5)C=C4)cc2)c1Br
REMARK SMILES IDX 13 1 12 2 11 3 10 4 8 5 9 6 7 8 1 9 2 10 3 11 71 12 4 13
REMARK SMILES IDX 72 14 5 15 6 16 14 17 15 18 16 20 17 21 18 22 70 23 19 24
REMARK SMILES IDX 69 25 20 26 21 27 22 28 63 29 23 30 68 31 62 32 64 33 24 34
REMARK SMILES IDX 67 35 61 36 60 37 25 39 51 40 34 41 50 42 35 43 38 44 49 45
REMARK SMILES IDX 65 46 36 47 37 48 48 50 66 51 39 52 26 53 27 54 32 55 28 56
REMARK SMILES IDX 29 57 31 58 33 59 30 60 52 61 53 62 58 63 54 64 55 65 57 66
REMARK SMILES IDX 59 67 56 68 40 69 41 70 46 71 42 72 43 73 45 74 47 75 44 76
REMARK H PARENT 10 7 14 19 64 38 38 49
REMARK Flexibility Score: inf
ROOT
ATOM      1  C   UNL A   1      33.634  28.529  27.262  1.00  0.00     0.118 C 
ENDROOT
BRANCH   1   2
ATOM      2  C   UNL A   1      32.989  28.316  25.899  1.00  0.00     0.042 C 
BRANCH   2   3
ATOM      3  C   UNL A   1      31.532  27.844  25.954  1.00  0.00     0.118 C 
BRANCH   3   4
ATOM      4  N   UNL A   1      31.455  26.577  26.653  1.00  0.00    -0.352 N 
ATOM      5  C   UNL A   1      31.820  25.285  26.401  1.00  0.00     0.252 C 
ATOM      6  O   UNL A   1      31.410  24.482  27.251  1.00  0.00    -0.269 OA
ATOM      7  H   UNL A   1      31.031  26.671  27.535  1.00  0.00     0.163 HD
BRANCH   5   8
ATOM      8  C   UNL A   1      32.718  24.744  25.324  1.00  0.00     0.055 A 
ATOM      9  C   UNL A   1      33.276  23.322  21.769  1.00  0.00     0.045 C 
ATOM     10  C   UNL A   1      33.494  23.765  23.198  1.00  0.00    -0.035 A 
ATOM     11  C   UNL A   1      34.783  23.611  23.725  1.00  0.00     0.020 A 
ATOM     12  C   UNL A   1      32.445  24.273  24.023  1.00  0.00     0.033 A 
ATOM     13  C   UNL A   1      35.049  24.005  25.025  1.00  0.00     0.019 A 
ATOM     14  Br  UNL A   1      30.695  24.032  23.321  1.00  0.00    -0.050 Br
ATOM     15  Br  UNL A   1      36.762  23.704  25.764  1.00  0.00    -0.051 Br
ATOM     16  C   UNL A   1      34.048  24.591  25.794  1.00  0.00     0.030 A 
ENDBRANCH   5   8
ENDBRANCH   3   4
ENDBRANCH   2   3
ENDBRANCH   1   2
BRANCH   1  17
ATOM     17  N   UNL A   1      33.681  29.938  27.629  1.00  0.00    -0.352 N 
ATOM     18  C   UNL A   1      34.683  30.664  28.227  1.00  0.00     0.251 C 
ATOM     19  H   UNL A   1      32.867  30.449  27.414  1.00  0.00     0.163 HD
ATOM     20  O   UNL A   1      34.434  31.778  28.683  1.00  0.00    -0.269 OA
BRANCH  18  21
ATOM     21  C   UNL A   1      36.051  30.109  28.351  1.00  0.00     0.039 A 
ATOM     22  C   UNL A   1      36.478  29.508  29.535  1.00  0.00     0.014 A 
ATOM     23  C   UNL A   1      36.917  30.169  27.253  1.00  0.00     0.014 A 
ATOM     24  C   UNL A   1      37.810  29.139  29.685  1.00  0.00     0.010 A 
ATOM     25  C   UNL A   1      38.231  29.703  27.373  1.00  0.00     0.010 A 
ATOM     26  C   UNL A   1      38.704  29.229  28.607  1.00  0.00    -0.014 A 
BRANCH  26  27
ATOM     27  C   UNL A   1      40.124  28.832  28.795  1.00  0.00     0.031 A 
ATOM     28  C   UNL A   1      41.104  29.772  29.446  1.00  0.00     0.074 A 
ATOM     29  C   UNL A   1      40.521  27.598  28.424  1.00  0.00     0.049 A 
ATOM     30  N   UNL A   1      42.385  29.610  29.667  1.00  0.00    -0.248 NA
ATOM     31  C   UNL A   1      40.578  31.068  29.904  1.00  0.00     0.031 C 
ATOM     32  C   UNL A   1      39.664  26.588  27.799  1.00  0.00     0.029 A 
ATOM     33  N   UNL A   1      41.739  26.976  28.533  1.00  0.00    -0.354 N 
ATOM     34  C   UNL A   1      42.822  30.788  30.260  1.00  0.00     0.074 A 
ATOM     35  C   UNL A   1      41.676  31.667  30.344  1.00  0.00     0.031 C 
ATOM     36  C   UNL A   1      40.367  25.460  27.627  1.00  0.00     0.029 A 
ATOM     37  C   UNL A   1      41.741  25.688  28.058  1.00  0.00     0.049 A 
ATOM     38  H   UNL A   1      42.534  27.411  28.917  1.00  0.00     0.167 HD
ATOM     39  C   UNL A   1      44.063  31.104  30.704  1.00  0.00     0.037 A 
ATOM     40  C   UNL A   1      42.743  24.797  27.952  1.00  0.00     0.037 A 
ATOM     41  C   UNL A   1      45.196  30.216  30.642  1.00  0.00     0.049 A 
ATOM     42  C   UNL A   1      44.119  25.190  28.406  1.00  0.00     0.074 A 
ATOM     43  C   UNL A   1      46.490  30.434  31.083  1.00  0.00     0.029 A 
ATOM     44  N   UNL A   1      45.166  28.938  30.107  1.00  0.00    -0.354 N 
ATOM     45  N   UNL A   1      44.516  26.309  28.961  1.00  0.00    -0.248 NA
ATOM     46  C   UNL A   1      45.187  24.203  28.205  1.00  0.00     0.031 C 
ATOM     47  C   UNL A   1      47.253  29.302  30.776  1.00  0.00     0.029 A 
ATOM     48  C   UNL A   1      46.425  28.362  30.185  1.00  0.00     0.049 A 
ATOM     49  H   UNL A   1      44.370  28.502  29.725  1.00  0.00     0.167 HD
ATOM     50  C   UNL A   1      45.877  26.157  29.187  1.00  0.00     0.074 A 
ATOM     51  C   UNL A   1      46.231  24.828  28.730  1.00  0.00     0.031 C 
ATOM     52  C   UNL A   1      46.756  27.040  29.721  1.00  0.00     0.037 A 
BRANCH  39  53
ATOM     53  C   UNL A   1      44.265  32.480  31.271  1.00  0.00     0.057 A 
ATOM     54  C   UNL A   1      44.051  32.727  32.634  1.00  0.00     0.134 A 
ATOM     55  C   UNL A   1      44.650  33.565  30.473  1.00  0.00     0.134 A 
ATOM     56  F   UNL A   1      43.675  31.735  33.454  1.00  0.00    -0.206 F 
ATOM     57  C   UNL A   1      44.215  34.000  33.182  1.00  0.00     0.040 A 
ATOM     58  C   UNL A   1      44.842  34.839  31.014  1.00  0.00     0.040 A 
ATOM     59  F   UNL A   1      44.884  33.396  29.163  1.00  0.00    -0.206 F 
ATOM     60  C   UNL A   1      44.619  35.061  32.372  1.00  0.00     0.006 A 
ENDBRANCH  39  53
BRANCH  40  61
ATOM     61  C   UNL A   1      42.488  23.457  27.366  1.00  0.00     0.057 A 
ATOM     62  C   UNL A   1      42.614  23.229  25.991  1.00  0.00     0.134 A 
ATOM     63  C   UNL A   1      42.113  22.374  28.169  1.00  0.00     0.134 A 
ATOM     64  F   UNL A   1      42.965  24.228  25.167  1.00  0.00    -0.206 F 
ATOM     65  C   UNL A   1      42.363  21.975  25.431  1.00  0.00     0.040 A 
ATOM     66  C   UNL A   1      41.887  21.107  27.626  1.00  0.00     0.040 A 
ATOM     67  F   UNL A   1      41.996  22.524  29.495  1.00  0.00    -0.206 F 
ATOM     68  C   UNL A   1      42.005  20.908  26.251  1.00  0.00     0.006 A 
ENDBRANCH  40  61
BRANCH  52  69
ATOM     69  C   UNL A   1      48.176  26.578  29.859  1.00  0.00     0.057 A 
ATOM     70  C   UNL A   1      48.602  25.914  31.017  1.00  0.00     0.134 A 
ATOM     71  C   UNL A   1      49.125  26.801  28.853  1.00  0.00     0.134 A 
ATOM     72  F   UNL A   1      47.743  25.675  32.019  1.00  0.00    -0.206 F 
ATOM     73  C   UNL A   1      49.921  25.487  31.169  1.00  0.00     0.040 A 
ATOM     74  C   UNL A   1      50.442  26.356  28.983  1.00  0.00     0.040 A 
ATOM     75  F   UNL A   1      48.775  27.415  27.713  1.00  0.00    -0.206 F 
ATOM     76  C   UNL A   1      50.843  25.703  30.146  1.00  0.00     0.006 A 
ENDBRANCH  52  69
ENDBRANCH  26  27
ENDBRANCH  18  21
ENDBRANCH   1  17
TORSDOF 10
ENDMDL
