MODEL 1
REMARK VINA RESULT:     -11.6      0.000      0.000
REMARK SMILES CCc1ccsc1-c1nnnn1C[C@H](CC(C)C)C(=O)NCCCNC(=O)c1ccc(-c2c3nc(c(-c4c(F)cccc4F)c4ccc([nH]4)c(-c4c(F)cccc4F)c4nc(c(-c5c(F)cccc5F)c5ccc2[nH]5)C=C4)C=C3)cc1
REMARK SMILES IDX 22 1 21 2 19 3 20 4 14 6 13 7 12 8 8 9 9 10 10 11 11 12 7 13
REMARK SMILES IDX 3 14 4 15 5 16 6 17 2 18 1 19 15 20 16 21 17 22 18 23 23 24
REMARK SMILES IDX 24 25 25 26 26 27 27 29 28 30 29 31 81 32 30 33 80 34 31 35
REMARK SMILES IDX 32 36 33 37 74 38 34 39 79 40 73 41 75 42 35 43 78 44 72 45
REMARK SMILES IDX 71 46 36 48 62 49 45 50 61 51 46 52 49 53 60 54 76 55 47 56
REMARK SMILES IDX 48 57 59 59 77 60 50 61 37 62 38 63 43 64 39 65 40 66 42 67
REMARK SMILES IDX 44 68 41 69 63 70 64 71 69 72 65 73 66 74 68 75 70 76 67 77
REMARK SMILES IDX 51 78 52 79 57 80 53 81 54 82 56 83 58 84 55 85
REMARK H PARENT 21 5 25 28 75 47 49 58
REMARK Flexibility Score: inf
ROOT
ATOM      1  C   UNL A   1      34.555  29.197  27.410  1.00  0.00     0.117 C 
ENDROOT
BRANCH   1   2
ATOM      2  N   UNL A   1      33.299  28.497  27.613  1.00  0.00    -0.356 N 
ATOM      3  C   UNL A   1      32.328  28.077  26.768  1.00  0.00     0.224 C 
ATOM      4  O   UNL A   1      31.357  27.524  27.297  1.00  0.00    -0.275 OA
ATOM      5  H   UNL A   1      33.116  28.284  28.557  1.00  0.00     0.163 HD
BRANCH   3   6
ATOM      6  C   UNL A   1      32.359  28.221  25.245  1.00  0.00     0.100 C 
BRANCH   6   7
ATOM      7  C   UNL A   1      33.673  27.792  24.552  1.00  0.00     0.162 C 
BRANCH   7   8
ATOM      8  N   UNL A   1      33.645  26.834  23.482  1.00  0.00    -0.224 N 
ATOM      9  C   UNL A   1      33.760  25.467  23.513  1.00  0.00     0.192 A 
ATOM     10  N   UNL A   1      33.776  25.036  22.268  1.00  0.00    -0.108 NA
ATOM     11  N   UNL A   1      33.501  26.127  21.489  1.00  0.00    -0.023 NA
ATOM     12  N   UNL A   1      33.320  27.205  22.236  1.00  0.00    -0.045 NA
BRANCH   9  13
ATOM     13  C   UNL A   1      33.699  24.614  24.652  1.00  0.00     0.077 A 
ATOM     14  C   UNL A   1      34.750  23.975  25.300  1.00  0.00    -0.026 A 
ATOM     15  C   UNL A   1      34.265  23.317  26.490  1.00  0.00     0.016 A 
ATOM     16  C   UNL A   1      32.916  23.483  26.696  1.00  0.00     0.066 A 
ATOM     17  S   UNL A   1      32.196  24.388  25.444  1.00  0.00    -0.140 S 
BRANCH  14  18
ATOM     18  C   UNL A   1      36.231  23.958  24.979  1.00  0.00     0.034 C 
ATOM     19  C   UNL A   1      37.206  23.448  26.022  1.00  0.00     0.009 C 
ENDBRANCH  14  18
ENDBRANCH   9  13
ENDBRANCH   7   8
ENDBRANCH   6   7
BRANCH   6  20
ATOM     20  C   UNL A   1      31.460  29.310  24.597  1.00  0.00     0.018 C 
BRANCH  20  21
ATOM     21  C   UNL A   1      30.255  28.915  23.720  1.00  0.00    -0.017 C 
ATOM     22  C   UNL A   1      30.420  29.289  22.250  1.00  0.00     0.007 C 
ATOM     23  C   UNL A   1      30.009  27.402  23.761  1.00  0.00     0.007 C 
ENDBRANCH  20  21
ENDBRANCH   6  20
ENDBRANCH   3   6
ENDBRANCH   1   2
BRANCH   1  24
ATOM     24  C   UNL A   1      34.472  30.688  27.729  1.00  0.00     0.042 C 
BRANCH  24  25
ATOM     25  C   UNL A   1      35.720  31.231  28.371  1.00  0.00     0.118 C 
BRANCH  25  26
ATOM     26  N   UNL A   1      35.764  31.027  29.816  1.00  0.00    -0.352 N 
ATOM     27  C   UNL A   1      36.502  30.058  30.480  1.00  0.00     0.251 C 
ATOM     28  H   UNL A   1      35.220  31.633  30.370  1.00  0.00     0.163 HD
ATOM     29  O   UNL A   1      36.277  29.750  31.635  1.00  0.00    -0.269 OA
BRANCH  27  30
ATOM     30  C   UNL A   1      37.545  29.373  29.689  1.00  0.00     0.039 A 
ATOM     31  C   UNL A   1      38.185  30.036  28.646  1.00  0.00     0.014 A 
ATOM     32  C   UNL A   1      38.040  28.175  30.188  1.00  0.00     0.014 A 
ATOM     33  C   UNL A   1      39.413  29.545  28.206  1.00  0.00     0.010 A 
ATOM     34  C   UNL A   1      39.338  27.819  29.888  1.00  0.00     0.010 A 
ATOM     35  C   UNL A   1      40.037  28.470  28.876  1.00  0.00    -0.014 A 
BRANCH  35  36
ATOM     36  C   UNL A   1      41.431  28.117  28.556  1.00  0.00     0.031 A 
ATOM     37  C   UNL A   1      41.613  26.882  27.741  1.00  0.00     0.074 A 
ATOM     38  C   UNL A   1      42.541  28.842  28.830  1.00  0.00     0.049 A 
ATOM     39  N   UNL A   1      42.020  25.731  28.165  1.00  0.00    -0.248 NA
ATOM     40  C   UNL A   1      41.221  26.890  26.323  1.00  0.00     0.031 C 
ATOM     41  C   UNL A   1      42.644  30.218  29.328  1.00  0.00     0.029 A 
ATOM     42  N   UNL A   1      43.857  28.492  28.654  1.00  0.00    -0.354 N 
ATOM     43  C   UNL A   1      42.154  24.931  27.035  1.00  0.00     0.074 A 
ATOM     44  C   UNL A   1      41.502  25.633  25.960  1.00  0.00     0.031 C 
ATOM     45  C   UNL A   1      43.909  30.663  29.193  1.00  0.00     0.029 A 
ATOM     46  C   UNL A   1      44.747  29.542  28.823  1.00  0.00     0.049 A 
ATOM     47  H   UNL A   1      44.144  27.578  28.428  1.00  0.00     0.167 HD
ATOM     48  C   UNL A   1      43.033  23.892  27.024  1.00  0.00     0.037 A 
ATOM     49  C   UNL A   1      46.095  29.525  28.762  1.00  0.00     0.037 A 
ATOM     50  C   UNL A   1      43.515  23.592  28.348  1.00  0.00     0.049 A 
ATOM     51  C   UNL A   1      46.562  28.163  29.087  1.00  0.00     0.074 A 
ATOM     52  C   UNL A   1      43.079  22.919  29.466  1.00  0.00     0.029 A 
ATOM     53  N   UNL A   1      44.564  24.377  28.732  1.00  0.00    -0.354 N 
ATOM     54  N   UNL A   1      46.427  27.614  30.262  1.00  0.00    -0.248 NA
ATOM     55  C   UNL A   1      46.970  27.260  28.016  1.00  0.00     0.031 C 
ATOM     56  C   UNL A   1      43.824  23.440  30.570  1.00  0.00     0.029 A 
ATOM     57  C   UNL A   1      44.707  24.404  30.094  1.00  0.00     0.049 A 
ATOM     58  H   UNL A   1      45.147  24.864  28.107  1.00  0.00     0.167 HD
ATOM     59  C   UNL A   1      46.305  26.269  29.992  1.00  0.00     0.074 A 
ATOM     60  C   UNL A   1      46.844  26.092  28.651  1.00  0.00     0.031 C 
ATOM     61  C   UNL A   1      45.453  25.481  30.707  1.00  0.00     0.037 A 
BRANCH  48  62
ATOM     62  C   UNL A   1      43.837  23.465  25.816  1.00  0.00     0.057 A 
ATOM     63  C   UNL A   1      43.789  22.125  25.390  1.00  0.00     0.134 A 
ATOM     64  C   UNL A   1      44.885  24.231  25.267  1.00  0.00     0.134 A 
ATOM     65  F   UNL A   1      42.862  21.283  25.873  1.00  0.00    -0.206 F 
ATOM     66  C   UNL A   1      44.738  21.580  24.513  1.00  0.00     0.040 A 
ATOM     67  C   UNL A   1      45.806  23.711  24.352  1.00  0.00     0.040 A 
ATOM     68  F   UNL A   1      45.137  25.482  25.670  1.00  0.00    -0.206 F 
ATOM     69  C   UNL A   1      45.751  22.374  23.990  1.00  0.00     0.006 A 
ENDBRANCH  48  62
BRANCH  49  70
ATOM     70  C   UNL A   1      47.012  30.607  28.359  1.00  0.00     0.057 A 
ATOM     71  C   UNL A   1      47.007  31.125  27.059  1.00  0.00     0.134 A 
ATOM     72  C   UNL A   1      47.724  31.344  29.322  1.00  0.00     0.134 A 
ATOM     73  F   UNL A   1      46.337  30.500  26.079  1.00  0.00    -0.206 F 
ATOM     74  C   UNL A   1      47.635  32.333  26.740  1.00  0.00     0.040 A 
ATOM     75  C   UNL A   1      48.362  32.549  29.017  1.00  0.00     0.040 A 
ATOM     76  F   UNL A   1      47.748  30.959  30.607  1.00  0.00    -0.206 F 
ATOM     77  C   UNL A   1      48.301  33.058  27.725  1.00  0.00     0.006 A 
ENDBRANCH  49  70
BRANCH  61  78
ATOM     78  C   UNL A   1      45.151  25.883  32.116  1.00  0.00     0.057 A 
ATOM     79  C   UNL A   1      45.961  25.597  33.222  1.00  0.00     0.134 A 
ATOM     80  C   UNL A   1      43.984  26.618  32.360  1.00  0.00     0.134 A 
ATOM     81  F   UNL A   1      47.135  24.966  33.079  1.00  0.00    -0.206 F 
ATOM     82  C   UNL A   1      45.595  25.976  34.518  1.00  0.00     0.040 A 
ATOM     83  C   UNL A   1      43.623  27.030  33.643  1.00  0.00     0.040 A 
ATOM     84  F   UNL A   1      43.176  26.961  31.344  1.00  0.00    -0.206 F 
ATOM     85  C   UNL A   1      44.422  26.694  34.732  1.00  0.00     0.006 A 
ENDBRANCH  61  78
ENDBRANCH  35  36
ENDBRANCH  27  30
ENDBRANCH  25  26
ENDBRANCH  24  25
ENDBRANCH   1  24
TORSDOF 16
ENDMDL
MODEL 2
REMARK VINA RESULT:     -11.4      1.494      2.107
REMARK SMILES CCc1ccsc1-c1nnnn1C[C@H](CC(C)C)C(=O)NCCCNC(=O)c1ccc(-c2c3nc(c(-c4c(F)cccc4F)c4ccc([nH]4)c(-c4c(F)cccc4F)c4nc(c(-c5c(F)cccc5F)c5ccc2[nH]5)C=C4)C=C3)cc1
REMARK SMILES IDX 22 1 21 2 19 3 20 4 14 6 13 7 12 8 8 9 9 10 10 11 11 12 7 13
REMARK SMILES IDX 3 14 4 15 5 16 6 17 2 18 1 19 15 20 16 21 17 22 18 23 23 24
REMARK SMILES IDX 24 25 25 26 26 27 27 29 28 30 29 31 81 32 30 33 80 34 31 35
REMARK SMILES IDX 32 36 33 37 74 38 34 39 79 40 73 41 75 42 35 43 78 44 72 45
REMARK SMILES IDX 71 46 36 48 62 49 45 50 61 51 46 52 49 53 60 54 76 55 47 56
REMARK SMILES IDX 48 57 59 59 77 60 50 61 37 62 38 63 43 64 39 65 40 66 42 67
REMARK SMILES IDX 44 68 41 69 63 70 64 71 69 72 65 73 66 74 68 75 70 76 67 77
REMARK SMILES IDX 51 78 52 79 57 80 53 81 54 82 56 83 58 84 55 85
REMARK H PARENT 21 5 25 28 75 47 49 58
REMARK Flexibility Score: inf
ROOT
ATOM      1  C   UNL A   1      32.503  29.350  27.264  1.00  0.00     0.117 C 
ENDROOT
BRANCH   1   2
ATOM      2  N   UNL A   1      31.579  29.043  26.187  1.00  0.00    -0.356 N 
ATOM      3  C   UNL A   1      31.500  28.023  25.300  1.00  0.00     0.224 C 
ATOM      4  O   UNL A   1      30.577  28.093  24.480  1.00  0.00    -0.275 OA
ATOM      5  H   UNL A   1      30.866  29.713  26.078  1.00  0.00     0.163 HD
BRANCH   3   6
ATOM      6  C   UNL A   1      32.437  26.814  25.258  1.00  0.00     0.100 C 
BRANCH   6   7
ATOM      7  C   UNL A   1      32.318  25.825  26.439  1.00  0.00     0.162 C 
BRANCH   7   8
ATOM      8  N   UNL A   1      31.656  24.563  26.261  1.00  0.00    -0.224 N 
ATOM      9  C   UNL A   1      31.852  23.584  25.320  1.00  0.00     0.192 A 
ATOM     10  N   UNL A   1      30.933  22.658  25.505  1.00  0.00    -0.108 NA
ATOM     11  N   UNL A   1      30.287  22.995  26.663  1.00  0.00    -0.023 NA
ATOM     12  N   UNL A   1      30.795  24.103  27.180  1.00  0.00    -0.045 NA
BRANCH   9  13
ATOM     13  C   UNL A   1      32.938  23.460  24.407  1.00  0.00     0.077 A 
ATOM     14  C   UNL A   1      34.297  23.412  24.695  1.00  0.00    -0.026 A 
ATOM     15  C   UNL A   1      35.044  23.144  23.489  1.00  0.00     0.016 A 
ATOM     16  C   UNL A   1      34.252  22.996  22.375  1.00  0.00     0.066 A 
ATOM     17  S   UNL A   1      32.604  23.222  22.743  1.00  0.00    -0.140 S 
BRANCH  14  18
ATOM     18  C   UNL A   1      35.020  23.517  26.022  1.00  0.00     0.034 C 
ATOM     19  C   UNL A   1      36.515  23.769  26.031  1.00  0.00     0.009 C 
ENDBRANCH  14  18
ENDBRANCH   9  13
ENDBRANCH   7   8
ENDBRANCH   6   7
BRANCH   6  20
ATOM     20  C   UNL A   1      33.788  26.965  24.505  1.00  0.00     0.018 C 
BRANCH  20  21
ATOM     21  C   UNL A   1      33.819  27.178  22.979  1.00  0.00    -0.017 C 
ATOM     22  C   UNL A   1      32.590  26.630  22.260  1.00  0.00     0.007 C 
ATOM     23  C   UNL A   1      33.902  28.669  22.627  1.00  0.00     0.007 C 
ENDBRANCH  20  21
ENDBRANCH   6  20
ENDBRANCH   3   6
ENDBRANCH   1   2
BRANCH   1  24
ATOM     24  C   UNL A   1      33.767  30.064  26.788  1.00  0.00     0.042 C 
BRANCH  24  25
ATOM     25  C   UNL A   1      35.019  29.572  27.462  1.00  0.00     0.118 C 
BRANCH  25  26
ATOM     26  N   UNL A   1      35.320  30.274  28.707  1.00  0.00    -0.352 N 
ATOM     27  C   UNL A   1      36.427  30.060  29.515  1.00  0.00     0.251 C 
ATOM     28  H   UNL A   1      34.678  30.962  28.999  1.00  0.00     0.163 HD
ATOM     29  O   UNL A   1      36.476  30.453  30.665  1.00  0.00    -0.269 OA
BRANCH  27  30
ATOM     30  C   UNL A   1      37.529  29.275  28.923  1.00  0.00     0.039 A 
ATOM     31  C   UNL A   1      38.157  29.710  27.760  1.00  0.00     0.014 A 
ATOM     32  C   UNL A   1      38.078  28.261  29.698  1.00  0.00     0.014 A 
ATOM     33  C   UNL A   1      39.422  29.206  27.464  1.00  0.00     0.010 A 
ATOM     34  C   UNL A   1      39.402  27.926  29.506  1.00  0.00     0.010 A 
ATOM     35  C   UNL A   1      40.089  28.362  28.377  1.00  0.00    -0.014 A 
BRANCH  35  36
ATOM     36  C   UNL A   1      41.509  28.030  28.167  1.00  0.00     0.031 A 
ATOM     37  C   UNL A   1      41.774  26.759  27.434  1.00  0.00     0.074 A 
ATOM     38  C   UNL A   1      42.581  28.799  28.472  1.00  0.00     0.049 A 
ATOM     39  N   UNL A   1      42.180  25.644  27.945  1.00  0.00    -0.248 NA
ATOM     40  C   UNL A   1      41.475  26.682  25.995  1.00  0.00     0.031 C 
ATOM     41  C   UNL A   1      42.618  30.201  28.900  1.00  0.00     0.029 A 
ATOM     42  N   UNL A   1      43.914  28.477  28.400  1.00  0.00    -0.354 N 
ATOM     43  C   UNL A   1      42.406  24.789  26.872  1.00  0.00     0.074 A 
ATOM     44  C   UNL A   1      41.809  25.416  25.720  1.00  0.00     0.031 C 
ATOM     45  C   UNL A   1      43.878  30.674  28.822  1.00  0.00     0.029 A 
ATOM     46  C   UNL A   1      44.765  29.558  28.569  1.00  0.00     0.049 A 
ATOM     47  H   UNL A   1      44.237  27.560  28.243  1.00  0.00     0.167 HD
ATOM     48  C   UNL A   1      43.309  23.776  26.973  1.00  0.00     0.037 A 
ATOM     49  C   UNL A   1      46.115  29.575  28.595  1.00  0.00     0.037 A 
ATOM     50  C   UNL A   1      43.710  23.560  28.339  1.00  0.00     0.049 A 
ATOM     51  C   UNL A   1      46.592  28.245  29.023  1.00  0.00     0.074 A 
ATOM     52  C   UNL A   1      43.218  22.935  29.463  1.00  0.00     0.029 A 
ATOM     53  N   UNL A   1      44.712  24.392  28.748  1.00  0.00    -0.354 N 
ATOM     54  N   UNL A   1      46.393  27.756  30.215  1.00  0.00    -0.248 NA
ATOM     55  C   UNL A   1      47.091  27.298  28.032  1.00  0.00     0.031 C 
ATOM     56  C   UNL A   1      43.876  23.534  30.583  1.00  0.00     0.029 A 
ATOM     57  C   UNL A   1      44.765  24.495  30.112  1.00  0.00     0.049 A 
ATOM     58  H   UNL A   1      45.324  24.861  28.135  1.00  0.00     0.167 HD
ATOM     59  C   UNL A   1      46.321  26.395  30.011  1.00  0.00     0.074 A 
ATOM     60  C   UNL A   1      46.951  26.162  28.719  1.00  0.00     0.031 C 
ATOM     61  C   UNL A   1      45.443  25.623  30.712  1.00  0.00     0.037 A 
BRANCH  48  62
ATOM     62  C   UNL A   1      44.200  23.308  25.844  1.00  0.00     0.057 A 
ATOM     63  C   UNL A   1      44.257  21.938  25.529  1.00  0.00     0.134 A 
ATOM     64  C   UNL A   1      45.227  24.095  25.285  1.00  0.00     0.134 A 
ATOM     65  F   UNL A   1      43.358  21.079  26.034  1.00  0.00    -0.206 F 
ATOM     66  C   UNL A   1      45.282  21.389  24.746  1.00  0.00     0.040 A 
ATOM     67  C   UNL A   1      46.225  23.565  24.461  1.00  0.00     0.040 A 
ATOM     68  F   UNL A   1      45.380  25.388  25.595  1.00  0.00    -0.206 F 
ATOM     69  C   UNL A   1      46.271  22.203  24.209  1.00  0.00     0.006 A 
ENDBRANCH  48  62
BRANCH  49  70
ATOM     70  C   UNL A   1      47.030  30.659  28.194  1.00  0.00     0.057 A 
ATOM     71  C   UNL A   1      46.902  31.304  26.958  1.00  0.00     0.134 A 
ATOM     72  C   UNL A   1      47.880  31.269  29.133  1.00  0.00     0.134 A 
ATOM     73  F   UNL A   1      46.098  30.805  26.008  1.00  0.00    -0.206 F 
ATOM     74  C   UNL A   1      47.546  32.516  26.686  1.00  0.00     0.040 A 
ATOM     75  C   UNL A   1      48.535  32.475  28.872  1.00  0.00     0.040 A 
ATOM     76  F   UNL A   1      48.031  30.757  30.364  1.00  0.00    -0.206 F 
ATOM     77  C   UNL A   1      48.352  33.114  27.651  1.00  0.00     0.006 A 
ENDBRANCH  49  70
BRANCH  61  78
ATOM     78  C   UNL A   1      45.040  26.091  32.075  1.00  0.00     0.057 A 
ATOM     79  C   UNL A   1      43.909  26.869  32.352  1.00  0.00     0.134 A 
ATOM     80  C   UNL A   1      45.832  25.714  33.166  1.00  0.00     0.134 A 
ATOM     81  F   UNL A   1      43.049  27.215  31.384  1.00  0.00    -0.206 F 
ATOM     82  C   UNL A   1      43.614  27.299  33.650  1.00  0.00     0.040 A 
ATOM     83  C   UNL A   1      45.531  26.109  34.471  1.00  0.00     0.040 A 
ATOM     84  F   UNL A   1      46.911  24.937  32.982  1.00  0.00    -0.206 F 
ATOM     85  C   UNL A   1      44.427  26.919  34.715  1.00  0.00     0.006 A 
ENDBRANCH  61  78
ENDBRANCH  35  36
ENDBRANCH  27  30
ENDBRANCH  25  26
ENDBRANCH  24  25
ENDBRANCH   1  24
TORSDOF 16
ENDMDL
MODEL 3
REMARK VINA RESULT:     -11.3      3.523      7.822
REMARK SMILES CCc1ccsc1-c1nnnn1C[C@H](CC(C)C)C(=O)NCCCNC(=O)c1ccc(-c2c3nc(c(-c4c(F)cccc4F)c4ccc([nH]4)c(-c4c(F)cccc4F)c4nc(c(-c5c(F)cccc5F)c5ccc2[nH]5)C=C4)C=C3)cc1
REMARK SMILES IDX 22 1 21 2 19 3 20 4 14 6 13 7 12 8 8 9 9 10 10 11 11 12 7 13
REMARK SMILES IDX 3 14 4 15 5 16 6 17 2 18 1 19 15 20 16 21 17 22 18 23 23 24
REMARK SMILES IDX 24 25 25 26 26 27 27 29 28 30 29 31 81 32 30 33 80 34 31 35
REMARK SMILES IDX 32 36 33 37 74 38 34 39 79 40 73 41 75 42 35 43 78 44 72 45
REMARK SMILES IDX 71 46 36 48 62 49 45 50 61 51 46 52 49 53 60 54 76 55 47 56
REMARK SMILES IDX 48 57 59 59 77 60 50 61 37 62 38 63 43 64 39 65 40 66 42 67
REMARK SMILES IDX 44 68 41 69 63 70 64 71 69 72 65 73 66 74 68 75 70 76 67 77
REMARK SMILES IDX 51 78 52 79 57 80 53 81 54 82 56 83 58 84 55 85
REMARK H PARENT 21 5 25 28 75 47 49 58
REMARK Flexibility Score: inf
ROOT
ATOM      1  C   UNL A   1      38.146  21.499  25.123  1.00  0.00     0.117 C 
ENDROOT
BRANCH   1   2
ATOM      2  N   UNL A   1      37.409  22.237  24.113  1.00  0.00    -0.356 N 
ATOM      3  C   UNL A   1      36.097  22.537  23.960  1.00  0.00     0.224 C 
ATOM      4  O   UNL A   1      35.806  23.175  22.942  1.00  0.00    -0.275 OA
ATOM      5  H   UNL A   1      37.979  22.591  23.392  1.00  0.00     0.163 HD
BRANCH   3   6
ATOM      6  C   UNL A   1      34.986  22.166  24.944  1.00  0.00     0.100 C 
BRANCH   6   7
ATOM      7  C   UNL A   1      34.765  23.148  26.117  1.00  0.00     0.162 C 
BRANCH   7   8
ATOM      8  N   UNL A   1      33.434  23.497  26.525  1.00  0.00    -0.224 N 
ATOM      9  C   UNL A   1      32.643  24.557  26.159  1.00  0.00     0.192 A 
ATOM     10  N   UNL A   1      31.540  24.505  26.877  1.00  0.00    -0.108 NA
ATOM     11  N   UNL A   1      31.590  23.318  27.556  1.00  0.00    -0.023 NA
ATOM     12  N   UNL A   1      32.698  22.654  27.264  1.00  0.00    -0.045 NA
BRANCH   9  13
ATOM     13  C   UNL A   1      32.854  25.470  25.085  1.00  0.00     0.077 A 
ATOM     14  C   UNL A   1      33.282  26.790  25.155  1.00  0.00    -0.026 A 
ATOM     15  C   UNL A   1      33.492  27.309  23.825  1.00  0.00     0.016 A 
ATOM     16  C   UNL A   1      33.232  26.393  22.833  1.00  0.00     0.066 A 
ATOM     17  S   UNL A   1      32.686  24.912  23.473  1.00  0.00    -0.140 S 
BRANCH  14  18
ATOM     18  C   UNL A   1      33.607  27.650  26.360  1.00  0.00     0.034 C 
ATOM     19  C   UNL A   1      32.474  28.283  27.142  1.00  0.00     0.009 C 
ENDBRANCH  14  18
ENDBRANCH   9  13
ENDBRANCH   7   8
ENDBRANCH   6   7
BRANCH   6  20
ATOM     20  C   UNL A   1      34.637  20.661  25.116  1.00  0.00     0.018 C 
BRANCH  20  21
ATOM     21  C   UNL A   1      33.496  20.020  24.301  1.00  0.00    -0.017 C 
ATOM     22  C   UNL A   1      32.718  18.958  25.071  1.00  0.00     0.007 C 
ATOM     23  C   UNL A   1      32.474  21.072  23.853  1.00  0.00     0.007 C 
ENDBRANCH  20  21
ENDBRANCH   6  20
ENDBRANCH   3   6
ENDBRANCH   1   2
BRANCH   1  24
ATOM     24  C   UNL A   1      38.789  22.400  26.177  1.00  0.00     0.042 C 
BRANCH  24  25
ATOM     25  C   UNL A   1      39.977  21.771  26.853  1.00  0.00     0.118 C 
BRANCH  25  26
ATOM     26  N   UNL A   1      41.238  22.027  26.162  1.00  0.00    -0.352 N 
ATOM     27  C   UNL A   1      41.874  23.256  26.055  1.00  0.00     0.251 C 
ATOM     28  H   UNL A   1      41.677  21.257  25.733  1.00  0.00     0.163 HD
ATOM     29  O   UNL A   1      42.749  23.464  25.237  1.00  0.00    -0.269 OA
BRANCH  27  30
ATOM     30  C   UNL A   1      41.391  24.323  26.955  1.00  0.00     0.039 A 
ATOM     31  C   UNL A   1      42.055  24.591  28.148  1.00  0.00     0.014 A 
ATOM     32  C   UNL A   1      40.443  25.203  26.448  1.00  0.00     0.014 A 
ATOM     33  C   UNL A   1      41.851  25.830  28.753  1.00  0.00     0.010 A 
ATOM     34  C   UNL A   1      40.405  26.490  26.941  1.00  0.00     0.010 A 
ATOM     35  C   UNL A   1      41.078  26.823  28.113  1.00  0.00    -0.014 A 
BRANCH  35  36
ATOM     36  C   UNL A   1      41.066  28.198  28.642  1.00  0.00     0.031 A 
ATOM     37  C   UNL A   1      42.212  29.058  28.230  1.00  0.00     0.074 A 
ATOM     38  C   UNL A   1      40.086  28.785  29.367  1.00  0.00     0.049 A 
ATOM     39  N   UNL A   1      43.225  29.396  28.958  1.00  0.00    -0.248 NA
ATOM     40  C   UNL A   1      42.297  29.526  26.837  1.00  0.00     0.031 C 
ATOM     41  C   UNL A   1      38.731  28.299  29.650  1.00  0.00     0.029 A 
ATOM     42  N   UNL A   1      40.091  30.017  29.975  1.00  0.00    -0.354 N 
ATOM     43  C   UNL A   1      43.960  30.299  28.197  1.00  0.00     0.074 A 
ATOM     44  C   UNL A   1      43.440  30.220  26.856  1.00  0.00     0.031 C 
ATOM     45  C   UNL A   1      37.980  29.298  30.156  1.00  0.00     0.029 A 
ATOM     46  C   UNL A   1      38.852  30.416  30.450  1.00  0.00     0.049 A 
ATOM     47  H   UNL A   1      40.902  30.567  30.065  1.00  0.00     0.167 HD
ATOM     48  C   UNL A   1      44.743  31.234  28.801  1.00  0.00     0.037 A 
ATOM     49  C   UNL A   1      38.527  31.539  31.125  1.00  0.00     0.037 A 
ATOM     50  C   UNL A   1      44.917  30.953  30.203  1.00  0.00     0.049 A 
ATOM     51  C   UNL A   1      39.728  32.025  31.832  1.00  0.00     0.074 A 
ATOM     52  C   UNL A   1      45.684  30.126  30.993  1.00  0.00     0.029 A 
ATOM     53  N   UNL A   1      43.895  31.418  30.980  1.00  0.00    -0.354 N 
ATOM     54  N   UNL A   1      40.299  31.382  32.812  1.00  0.00    -0.248 NA
ATOM     55  C   UNL A   1      40.494  33.138  31.282  1.00  0.00     0.031 C 
ATOM     56  C   UNL A   1      44.996  30.003  32.241  1.00  0.00     0.029 A 
ATOM     57  C   UNL A   1      43.839  30.773  32.187  1.00  0.00     0.049 A 
ATOM     58  H   UNL A   1      43.274  32.130  30.706  1.00  0.00     0.167 HD
ATOM     59  C   UNL A   1      41.630  31.720  32.705  1.00  0.00     0.074 A 
ATOM     60  C   UNL A   1      41.660  32.934  31.902  1.00  0.00     0.031 C 
ATOM     61  C   UNL A   1      42.611  30.806  32.950  1.00  0.00     0.037 A 
BRANCH  48  62
ATOM     62  C   UNL A   1      44.947  32.641  28.285  1.00  0.00     0.057 A 
ATOM     63  C   UNL A   1      43.850  33.518  28.212  1.00  0.00     0.134 A 
ATOM     64  C   UNL A   1      46.089  33.050  27.567  1.00  0.00     0.134 A 
ATOM     65  F   UNL A   1      42.691  33.220  28.820  1.00  0.00    -0.206 F 
ATOM     66  C   UNL A   1      43.877  34.695  27.450  1.00  0.00     0.040 A 
ATOM     67  C   UNL A   1      46.144  34.247  26.846  1.00  0.00     0.040 A 
ATOM     68  F   UNL A   1      47.166  32.264  27.437  1.00  0.00    -0.206 F 
ATOM     69  C   UNL A   1      45.027  35.063  26.764  1.00  0.00     0.006 A 
ENDBRANCH  48  62
BRANCH  49  70
ATOM     70  C   UNL A   1      37.247  32.270  31.134  1.00  0.00     0.057 A 
ATOM     71  C   UNL A   1      36.767  32.920  29.991  1.00  0.00     0.134 A 
ATOM     72  C   UNL A   1      36.335  32.113  32.193  1.00  0.00     0.134 A 
ATOM     73  F   UNL A   1      37.559  33.098  28.924  1.00  0.00    -0.206 F 
ATOM     74  C   UNL A   1      35.440  33.349  29.886  1.00  0.00     0.040 A 
ATOM     75  C   UNL A   1      35.009  32.542  32.105  1.00  0.00     0.040 A 
ATOM     76  F   UNL A   1      36.682  31.459  33.312  1.00  0.00    -0.206 F 
ATOM     77  C   UNL A   1      34.551  33.145  30.939  1.00  0.00     0.006 A 
ENDBRANCH  49  70
BRANCH  61  78
ATOM     78  C   UNL A   1      42.304  29.696  33.907  1.00  0.00     0.057 A 
ATOM     79  C   UNL A   1      41.828  28.431  33.540  1.00  0.00     0.134 A 
ATOM     80  C   UNL A   1      42.523  29.919  35.272  1.00  0.00     0.134 A 
ATOM     81  F   UNL A   1      41.660  28.098  32.253  1.00  0.00    -0.206 F 
ATOM     82  C   UNL A   1      41.530  27.454  34.496  1.00  0.00     0.040 A 
ATOM     83  C   UNL A   1      42.260  28.942  36.233  1.00  0.00     0.040 A 
ATOM     84  F   UNL A   1      43.013  31.095  35.695  1.00  0.00    -0.206 F 
ATOM     85  C   UNL A   1      41.745  27.708  35.847  1.00  0.00     0.006 A 
ENDBRANCH  61  78
ENDBRANCH  35  36
ENDBRANCH  27  30
ENDBRANCH  25  26
ENDBRANCH  24  25
ENDBRANCH   1  24
TORSDOF 16
ENDMDL
