MODEL 1
REMARK VINA RESULT:     -10.2      0.000      0.000
REMARK SMILES C=CC[N@H+](CC(=O)NCCCNC(=O)c1ccc(-c2c3nc(c(-c4c(F)cccc4F)c4ccc([nH]4)c(-c4c(F)cccc4F)c4nc(c(-c5c(F)cccc5F)c5ccc2[nH]5)C=C4)C=C3)cc1)[C@H](C)c1ccsc1
REMARK SMILES IDX 9 1 8 2 6 3 7 4 5 6 4 7 3 9 2 10 1 11 69 12 70 13 71 14
REMARK SMILES IDX 72 15 75 16 73 17 74 18 10 19 11 20 12 21 13 22 14 24 15 25
REMARK SMILES IDX 16 26 68 27 17 28 67 29 18 30 19 31 20 32 61 33 21 34 66 35
REMARK SMILES IDX 60 36 62 37 22 38 65 39 59 40 58 41 23 43 49 44 32 45 48 46
REMARK SMILES IDX 33 47 36 48 47 49 63 50 34 51 35 52 46 54 64 55 37 56 24 57
REMARK SMILES IDX 25 58 30 59 26 60 27 61 29 62 31 63 28 64 50 65 51 66 56 67
REMARK SMILES IDX 52 68 53 69 55 70 57 71 54 72 38 73 39 74 44 75 40 76 41 77
REMARK SMILES IDX 43 78 45 79 42 80
REMARK H PARENT 8 5 4 8 12 23 62 42 36 53
REMARK Flexibility Score: inf
ROOT
ATOM      1  C   UNL A   1      36.492  19.785  25.008  1.00  0.00     0.118 C 
ENDROOT
BRANCH   1   2
ATOM      2  N   UNL A   1      36.034  21.152  24.782  1.00  0.00    -0.351 N 
ATOM      3  C   UNL A   1      34.936  21.834  25.241  1.00  0.00     0.275 C 
ATOM      4  O   UNL A   1      34.798  23.003  24.872  1.00  0.00    -0.269 OA
ATOM      5  H   UNL A   1      36.619  21.681  24.193  1.00  0.00     0.163 HD
BRANCH   3   6
ATOM      6  C   UNL A   1      33.936  21.168  26.201  1.00  0.00     0.364 C 
BRANCH   6   7
ATOM      7  N   UNL A   1      32.665  20.714  25.547  1.00  0.00    -0.318 N 
ATOM      8  H   UNL A   1      32.164  20.015  26.095  1.00  0.00     0.349 HD
BRANCH   7   9
ATOM      9  C   UNL A   1      31.737  21.844  25.467  1.00  0.00     0.291 C 
BRANCH   9  10
ATOM     10  C   UNL A   1      31.567  22.783  26.623  1.00  0.00     0.025 C 
ATOM     11  C   UNL A   1      31.365  24.104  26.507  1.00  0.00     0.010 C 
ENDBRANCH   9  10
ENDBRANCH   7   9
BRANCH   7  12
ATOM     12  C   UNL A   1      32.989  20.008  24.276  1.00  0.00     0.213 C 
ATOM     13  C   UNL A   1      32.129  20.411  23.062  1.00  0.00     0.081 C 
BRANCH  12  14
ATOM     14  C   UNL A   1      33.076  18.500  24.475  1.00  0.00     0.020 A 
ATOM     15  C   UNL A   1      33.714  17.600  23.548  1.00  0.00     0.021 A 
ATOM     16  C   UNL A   1      32.571  17.783  25.551  1.00  0.00     0.074 A 
ATOM     17  C   UNL A   1      33.723  16.294  23.983  1.00  0.00     0.065 A 
ATOM     18  S   UNL A   1      32.911  16.109  25.472  1.00  0.00    -0.152 S 
ENDBRANCH  12  14
ENDBRANCH   7  12
ENDBRANCH   6   7
ENDBRANCH   3   6
ENDBRANCH   1   2
BRANCH   1  19
ATOM     19  C   UNL A   1      37.976  19.576  24.684  1.00  0.00     0.042 C 
BRANCH  19  20
ATOM     20  C   UNL A   1      38.933  20.055  25.769  1.00  0.00     0.118 C 
BRANCH  20  21
ATOM     21  N   UNL A   1      40.118  19.216  25.832  1.00  0.00    -0.352 N 
ATOM     22  C   UNL A   1      41.435  19.549  26.028  1.00  0.00     0.251 C 
ATOM     23  H   UNL A   1      39.949  18.253  25.715  1.00  0.00     0.163 HD
ATOM     24  O   UNL A   1      42.298  18.715  25.764  1.00  0.00    -0.269 OA
BRANCH  22  25
ATOM     25  C   UNL A   1      41.847  20.879  26.550  1.00  0.00     0.039 A 
ATOM     26  C   UNL A   1      41.741  21.114  27.927  1.00  0.00     0.014 A 
ATOM     27  C   UNL A   1      42.227  21.928  25.708  1.00  0.00     0.014 A 
ATOM     28  C   UNL A   1      42.030  22.378  28.454  1.00  0.00     0.010 A 
ATOM     29  C   UNL A   1      42.590  23.167  26.242  1.00  0.00     0.010 A 
ATOM     30  C   UNL A   1      42.468  23.416  27.617  1.00  0.00    -0.014 A 
BRANCH  30  31
ATOM     31  C   UNL A   1      42.735  24.777  28.156  1.00  0.00     0.031 A 
ATOM     32  C   UNL A   1      44.134  25.178  28.543  1.00  0.00     0.074 A 
ATOM     33  C   UNL A   1      41.724  25.650  28.326  1.00  0.00     0.049 A 
ATOM     34  N   UNL A   1      44.561  26.300  29.069  1.00  0.00    -0.248 NA
ATOM     35  C   UNL A   1      45.191  24.177  28.330  1.00  0.00     0.031 C 
ATOM     36  C   UNL A   1      40.318  25.388  28.021  1.00  0.00     0.029 A 
ATOM     37  N   UNL A   1      41.727  26.938  28.802  1.00  0.00    -0.354 N 
ATOM     38  C   UNL A   1      45.925  26.128  29.273  1.00  0.00     0.074 A 
ATOM     39  C   UNL A   1      46.247  24.781  28.853  1.00  0.00     0.031 C 
ATOM     40  C   UNL A   1      39.598  26.491  28.288  1.00  0.00     0.029 A 
ATOM     41  C   UNL A   1      40.487  27.526  28.811  1.00  0.00     0.049 A 
ATOM     42  H   UNL A   1      42.543  27.398  29.107  1.00  0.00     0.167 HD
ATOM     43  C   UNL A   1      46.834  27.015  29.743  1.00  0.00     0.037 A 
ATOM     44  C   UNL A   1      40.106  28.758  29.195  1.00  0.00     0.037 A 
ATOM     45  C   UNL A   1      46.531  28.369  30.124  1.00  0.00     0.049 A 
ATOM     46  C   UNL A   1      41.132  29.729  29.709  1.00  0.00     0.074 A 
ATOM     47  C   UNL A   1      47.396  29.361  30.556  1.00  0.00     0.029 A 
ATOM     48  N   UNL A   1      45.261  28.925  30.114  1.00  0.00    -0.354 N 
ATOM     49  N   UNL A   1      42.424  29.567  29.853  1.00  0.00    -0.248 NA
ATOM     50  C   UNL A   1      40.643  31.056  30.113  1.00  0.00     0.031 C 
ATOM     51  C   UNL A   1      46.644  30.508  30.835  1.00  0.00     0.029 A 
ATOM     52  C   UNL A   1      45.317  30.240  30.544  1.00  0.00     0.049 A 
ATOM     53  H   UNL A   1      44.440  28.454  29.840  1.00  0.00     0.167 HD
ATOM     54  C   UNL A   1      42.906  30.776  30.338  1.00  0.00     0.074 A 
ATOM     55  C   UNL A   1      41.770  31.665  30.456  1.00  0.00     0.031 C 
ATOM     56  C   UNL A   1      44.180  31.117  30.653  1.00  0.00     0.037 A 
BRANCH  43  57
ATOM     57  C   UNL A   1      48.253  26.541  29.868  1.00  0.00     0.057 A 
ATOM     58  C   UNL A   1      49.190  26.741  28.845  1.00  0.00     0.134 A 
ATOM     59  C   UNL A   1      48.689  25.887  31.026  1.00  0.00     0.134 A 
ATOM     60  F   UNL A   1      48.831  27.350  27.705  1.00  0.00    -0.206 F 
ATOM     61  C   UNL A   1      50.501  26.277  28.956  1.00  0.00     0.040 A 
ATOM     62  C   UNL A   1      50.004  25.440  31.159  1.00  0.00     0.040 A 
ATOM     63  F   UNL A   1      47.845  25.669  32.046  1.00  0.00    -0.206 F 
ATOM     64  C   UNL A   1      50.913  25.626  30.119  1.00  0.00     0.006 A 
ENDBRANCH  43  57
BRANCH  44  65
ATOM     65  C   UNL A   1      38.684  29.162  29.068  1.00  0.00     0.057 A 
ATOM     66  C   UNL A   1      37.824  29.108  30.169  1.00  0.00     0.134 A 
ATOM     67  C   UNL A   1      38.156  29.614  27.853  1.00  0.00     0.134 A 
ATOM     68  F   UNL A   1      38.271  28.664  31.354  1.00  0.00    -0.206 F 
ATOM     69  C   UNL A   1      36.484  29.484  30.069  1.00  0.00     0.040 A 
ATOM     70  C   UNL A   1      36.823  30.010  27.742  1.00  0.00     0.040 A 
ATOM     71  F   UNL A   1      38.934  29.689  26.763  1.00  0.00    -0.206 F 
ATOM     72  C   UNL A   1      35.982  29.942  28.852  1.00  0.00     0.006 A 
ENDBRANCH  44  65
BRANCH  56  73
ATOM     73  C   UNL A   1      44.415  32.519  31.129  1.00  0.00     0.057 A 
ATOM     74  C   UNL A   1      44.671  33.566  30.237  1.00  0.00     0.134 A 
ATOM     75  C   UNL A   1      44.350  32.829  32.494  1.00  0.00     0.134 A 
ATOM     76  F   UNL A   1      44.758  33.332  28.919  1.00  0.00    -0.206 F 
ATOM     77  C   UNL A   1      44.872  34.873  30.687  1.00  0.00     0.040 A 
ATOM     78  C   UNL A   1      44.530  34.134  32.954  1.00  0.00     0.040 A 
ATOM     79  F   UNL A   1      44.103  31.870  33.399  1.00  0.00    -0.206 F 
ATOM     80  C   UNL A   1      44.796  35.159  32.049  1.00  0.00     0.006 A 
ENDBRANCH  56  73
ENDBRANCH  30  31
ENDBRANCH  22  25
ENDBRANCH  20  21
ENDBRANCH  19  20
ENDBRANCH   1  19
TORSDOF 15
ENDMDL
MODEL 2
REMARK VINA RESULT:     -10.1      5.913     10.279
REMARK SMILES C=CC[N@H+](CC(=O)NCCCNC(=O)c1ccc(-c2c3nc(c(-c4c(F)cccc4F)c4ccc([nH]4)c(-c4c(F)cccc4F)c4nc(c(-c5c(F)cccc5F)c5ccc2[nH]5)C=C4)C=C3)cc1)[C@H](C)c1ccsc1
REMARK SMILES IDX 9 1 8 2 6 3 7 4 5 6 4 7 3 9 2 10 1 11 69 12 70 13 71 14
REMARK SMILES IDX 72 15 75 16 73 17 74 18 10 19 11 20 12 21 13 22 14 24 15 25
REMARK SMILES IDX 16 26 68 27 17 28 67 29 18 30 19 31 20 32 61 33 21 34 66 35
REMARK SMILES IDX 60 36 62 37 22 38 65 39 59 40 58 41 23 43 49 44 32 45 48 46
REMARK SMILES IDX 33 47 36 48 47 49 63 50 34 51 35 52 46 54 64 55 37 56 24 57
REMARK SMILES IDX 25 58 30 59 26 60 27 61 29 62 31 63 28 64 50 65 51 66 56 67
REMARK SMILES IDX 52 68 53 69 55 70 57 71 54 72 38 73 39 74 44 75 40 76 41 77
REMARK SMILES IDX 43 78 45 79 42 80
REMARK H PARENT 8 5 4 8 12 23 62 42 36 53
REMARK Flexibility Score: inf
ROOT
ATOM      1  C   UNL A   1      31.317  30.819  26.299  1.00  0.00     0.118 C 
ENDROOT
BRANCH   1   2
ATOM      2  N   UNL A   1      32.431  30.294  25.516  1.00  0.00    -0.351 N 
ATOM      3  C   UNL A   1      32.526  29.216  24.673  1.00  0.00     0.275 C 
ATOM      4  O   UNL A   1      33.619  29.005  24.142  1.00  0.00    -0.269 OA
ATOM      5  H   UNL A   1      33.266  30.808  25.608  1.00  0.00     0.163 HD
BRANCH   3   6
ATOM      6  C   UNL A   1      31.305  28.326  24.387  1.00  0.00     0.364 C 
BRANCH   6   7
ATOM      7  N   UNL A   1      30.585  28.659  23.114  1.00  0.00    -0.318 N 
ATOM      8  H   UNL A   1      30.978  29.472  22.638  1.00  0.00     0.349 HD
BRANCH   7   9
ATOM      9  C   UNL A   1      30.762  27.561  22.163  1.00  0.00     0.291 C 
BRANCH   9  10
ATOM     10  C   UNL A   1      31.474  26.303  22.562  1.00  0.00     0.025 C 
ATOM     11  C   UNL A   1      32.483  25.749  21.876  1.00  0.00     0.010 C 
ENDBRANCH   9  10
ENDBRANCH   7   9
BRANCH   7  12
ATOM     12  C   UNL A   1      29.188  29.069  23.429  1.00  0.00     0.213 C 
ATOM     13  C   UNL A   1      28.123  27.974  23.237  1.00  0.00     0.081 C 
BRANCH  12  14
ATOM     14  C   UNL A   1      28.822  30.386  22.756  1.00  0.00     0.020 A 
ATOM     15  C   UNL A   1      28.897  31.671  23.405  1.00  0.00     0.021 A 
ATOM     16  C   UNL A   1      28.378  30.546  21.451  1.00  0.00     0.074 A 
ATOM     17  C   UNL A   1      28.579  32.717  22.569  1.00  0.00     0.065 A 
ATOM     18  S   UNL A   1      28.123  32.180  21.015  1.00  0.00    -0.152 S 
ENDBRANCH  12  14
ENDBRANCH   7  12
ENDBRANCH   6   7
ENDBRANCH   3   6
ENDBRANCH   1   2
BRANCH   1  19
ATOM     19  C   UNL A   1      31.367  32.340  26.490  1.00  0.00     0.042 C 
BRANCH  19  20
ATOM     20  C   UNL A   1      32.601  32.843  27.229  1.00  0.00     0.118 C 
BRANCH  20  21
ATOM     21  N   UNL A   1      32.464  34.245  27.586  1.00  0.00    -0.352 N 
ATOM     22  C   UNL A   1      33.017  34.959  28.620  1.00  0.00     0.251 C 
ATOM     23  H   UNL A   1      31.881  34.768  26.989  1.00  0.00     0.163 HD
ATOM     24  O   UNL A   1      32.543  36.059  28.894  1.00  0.00    -0.269 OA
BRANCH  22  25
ATOM     25  C   UNL A   1      34.165  34.446  29.412  1.00  0.00     0.039 A 
ATOM     26  C   UNL A   1      35.445  34.513  28.847  1.00  0.00     0.014 A 
ATOM     27  C   UNL A   1      33.998  33.804  30.643  1.00  0.00     0.014 A 
ATOM     28  C   UNL A   1      36.545  33.961  29.514  1.00  0.00     0.010 A 
ATOM     29  C   UNL A   1      35.105  33.322  31.345  1.00  0.00     0.010 A 
ATOM     30  C   UNL A   1      36.387  33.368  30.776  1.00  0.00    -0.014 A 
BRANCH  30  31
ATOM     31  C   UNL A   1      37.538  32.737  31.477  1.00  0.00     0.031 A 
ATOM     32  C   UNL A   1      38.235  31.547  30.873  1.00  0.00     0.074 A 
ATOM     33  C   UNL A   1      37.947  33.209  32.670  1.00  0.00     0.049 A 
ATOM     34  N   UNL A   1      39.226  30.833  31.350  1.00  0.00    -0.248 NA
ATOM     35  C   UNL A   1      37.738  31.083  29.567  1.00  0.00     0.031 C 
ATOM     36  C   UNL A   1      37.348  34.335  33.386  1.00  0.00     0.029 A 
ATOM     37  N   UNL A   1      38.966  32.794  33.493  1.00  0.00    -0.354 N 
ATOM     38  C   UNL A   1      39.451  29.826  30.418  1.00  0.00     0.074 A 
ATOM     39  C   UNL A   1      38.467  29.995  29.370  1.00  0.00     0.031 C 
ATOM     40  C   UNL A   1      38.029  34.542  34.526  1.00  0.00     0.029 A 
ATOM     41  C   UNL A   1      39.092  33.545  34.636  1.00  0.00     0.049 A 
ATOM     42  H   UNL A   1      39.551  32.031  33.283  1.00  0.00     0.167 HD
ATOM     43  C   UNL A   1      40.402  28.862  30.419  1.00  0.00     0.037 A 
ATOM     44  C   UNL A   1      39.963  33.444  35.656  1.00  0.00     0.037 A 
ATOM     45  C   UNL A   1      41.409  28.712  31.436  1.00  0.00     0.049 A 
ATOM     46  C   UNL A   1      41.015  32.370  35.635  1.00  0.00     0.074 A 
ATOM     47  C   UNL A   1      42.452  27.802  31.493  1.00  0.00     0.029 A 
ATOM     48  N   UNL A   1      41.503  29.496  32.575  1.00  0.00    -0.354 N 
ATOM     49  N   UNL A   1      41.243  31.455  34.726  1.00  0.00    -0.248 NA
ATOM     50  C   UNL A   1      41.931  32.319  36.785  1.00  0.00     0.031 C 
ATOM     51  C   UNL A   1      43.159  28.018  32.682  1.00  0.00     0.029 A 
ATOM     52  C   UNL A   1      42.576  29.084  33.347  1.00  0.00     0.049 A 
ATOM     53  H   UNL A   1      40.896  30.239  32.801  1.00  0.00     0.167 HD
ATOM     54  C   UNL A   1      42.342  30.736  35.178  1.00  0.00     0.074 A 
ATOM     55  C   UNL A   1      42.740  31.327  36.439  1.00  0.00     0.031 C 
ATOM     56  C   UNL A   1      42.966  29.683  34.597  1.00  0.00     0.037 A 
BRANCH  43  57
ATOM     57  C   UNL A   1      40.396  27.892  29.274  1.00  0.00     0.057 A 
ATOM     58  C   UNL A   1      39.558  26.770  29.263  1.00  0.00     0.134 A 
ATOM     59  C   UNL A   1      41.229  28.088  28.166  1.00  0.00     0.134 A 
ATOM     60  F   UNL A   1      38.744  26.519  30.301  1.00  0.00    -0.206 F 
ATOM     61  C   UNL A   1      39.572  25.859  28.206  1.00  0.00     0.040 A 
ATOM     62  C   UNL A   1      41.235  27.198  27.092  1.00  0.00     0.040 A 
ATOM     63  F   UNL A   1      42.051  29.147  28.110  1.00  0.00    -0.206 F 
ATOM     64  C   UNL A   1      40.412  26.074  27.114  1.00  0.00     0.006 A 
ENDBRANCH  43  57
BRANCH  44  65
ATOM     65  C   UNL A   1      39.906  34.420  36.771  1.00  0.00     0.057 A 
ATOM     66  C   UNL A   1      39.190  34.132  37.938  1.00  0.00     0.134 A 
ATOM     67  C   UNL A   1      40.565  35.653  36.702  1.00  0.00     0.134 A 
ATOM     68  F   UNL A   1      38.521  32.974  38.051  1.00  0.00    -0.206 F 
ATOM     69  C   UNL A   1      39.124  35.038  38.997  1.00  0.00     0.040 A 
ATOM     70  C   UNL A   1      40.524  36.560  37.762  1.00  0.00     0.040 A 
ATOM     71  F   UNL A   1      41.269  35.984  35.610  1.00  0.00    -0.206 F 
ATOM     72  C   UNL A   1      39.799  36.254  38.912  1.00  0.00     0.006 A 
ENDBRANCH  44  65
BRANCH  56  73
ATOM     73  C   UNL A   1      44.161  29.120  35.305  1.00  0.00     0.057 A 
ATOM     74  C   UNL A   1      45.457  29.575  35.038  1.00  0.00     0.134 A 
ATOM     75  C   UNL A   1      44.009  28.134  36.288  1.00  0.00     0.134 A 
ATOM     76  F   UNL A   1      45.671  30.508  34.098  1.00  0.00    -0.206 F 
ATOM     77  C   UNL A   1      46.564  29.058  35.714  1.00  0.00     0.040 A 
ATOM     78  C   UNL A   1      45.105  27.623  36.984  1.00  0.00     0.040 A 
ATOM     79  F   UNL A   1      42.792  27.660  36.594  1.00  0.00    -0.206 F 
ATOM     80  C   UNL A   1      46.388  28.083  36.694  1.00  0.00     0.006 A 
ENDBRANCH  56  73
ENDBRANCH  30  31
ENDBRANCH  22  25
ENDBRANCH  20  21
ENDBRANCH  19  20
ENDBRANCH   1  19
TORSDOF 15
ENDMDL
MODEL 3
REMARK VINA RESULT:     -10.1      1.785      2.934
REMARK SMILES C=CC[N@H+](CC(=O)NCCCNC(=O)c1ccc(-c2c3nc(c(-c4c(F)cccc4F)c4ccc([nH]4)c(-c4c(F)cccc4F)c4nc(c(-c5c(F)cccc5F)c5ccc2[nH]5)C=C4)C=C3)cc1)[C@H](C)c1ccsc1
REMARK SMILES IDX 9 1 8 2 6 3 7 4 5 6 4 7 3 9 2 10 1 11 69 12 70 13 71 14
REMARK SMILES IDX 72 15 75 16 73 17 74 18 10 19 11 20 12 21 13 22 14 24 15 25
REMARK SMILES IDX 16 26 68 27 17 28 67 29 18 30 19 31 20 32 61 33 21 34 66 35
REMARK SMILES IDX 60 36 62 37 22 38 65 39 59 40 58 41 23 43 49 44 32 45 48 46
REMARK SMILES IDX 33 47 36 48 47 49 63 50 34 51 35 52 46 54 64 55 37 56 24 57
REMARK SMILES IDX 25 58 30 59 26 60 27 61 29 62 31 63 28 64 50 65 51 66 56 67
REMARK SMILES IDX 52 68 53 69 55 70 57 71 54 72 38 73 39 74 44 75 40 76 41 77
REMARK SMILES IDX 43 78 45 79 42 80
REMARK H PARENT 8 5 4 8 12 23 62 42 36 53
REMARK Flexibility Score: inf
ROOT
ATOM      1  C   UNL A   1      36.178  20.356  24.933  1.00  0.00     0.118 C 
ENDROOT
BRANCH   1   2
ATOM      2  N   UNL A   1      34.931  19.600  24.978  1.00  0.00    -0.351 N 
ATOM      3  C   UNL A   1      33.654  19.965  25.325  1.00  0.00     0.275 C 
ATOM      4  O   UNL A   1      32.781  19.096  25.273  1.00  0.00    -0.269 OA
ATOM      5  H   UNL A   1      35.020  18.658  24.708  1.00  0.00     0.163 HD
BRANCH   3   6
ATOM      6  C   UNL A   1      33.330  21.411  25.737  1.00  0.00     0.364 C 
BRANCH   6   7
ATOM      7  N   UNL A   1      32.972  22.311  24.592  1.00  0.00    -0.318 N 
ATOM      8  H   UNL A   1      32.936  21.820  23.698  1.00  0.00     0.349 HD
BRANCH   7   9
ATOM      9  C   UNL A   1      31.611  22.813  24.784  1.00  0.00     0.291 C 
BRANCH   9  10
ATOM     10  C   UNL A   1      30.810  22.423  25.990  1.00  0.00     0.025 C 
ATOM     11  C   UNL A   1      30.223  23.290  26.827  1.00  0.00     0.010 C 
ENDBRANCH   9  10
ENDBRANCH   7   9
BRANCH   7  12
ATOM     12  C   UNL A   1      34.050  23.322  24.403  1.00  0.00     0.213 C 
ATOM     13  C   UNL A   1      34.688  23.854  25.699  1.00  0.00     0.081 C 
BRANCH  12  14
ATOM     14  C   UNL A   1      33.622  24.429  23.447  1.00  0.00     0.020 A 
ATOM     15  C   UNL A   1      33.195  24.202  22.089  1.00  0.00     0.021 A 
ATOM     16  C   UNL A   1      33.575  25.787  23.731  1.00  0.00     0.074 A 
ATOM     17  C   UNL A   1      32.794  25.353  21.450  1.00  0.00     0.065 A 
ATOM     18  S   UNL A   1      32.983  26.732  22.435  1.00  0.00    -0.152 S 
ENDBRANCH  12  14
ENDBRANCH   7  12
ENDBRANCH   6   7
ENDBRANCH   3   6
ENDBRANCH   1   2
BRANCH   1  19
ATOM     19  C   UNL A   1      37.431  19.472  24.971  1.00  0.00     0.042 C 
BRANCH  19  20
ATOM     20  C   UNL A   1      38.708  20.204  25.368  1.00  0.00     0.118 C 
BRANCH  20  21
ATOM     21  N   UNL A   1      39.773  19.267  25.684  1.00  0.00    -0.352 N 
ATOM     22  C   UNL A   1      41.065  19.492  26.086  1.00  0.00     0.251 C 
ATOM     23  H   UNL A   1      39.526  18.318  25.597  1.00  0.00     0.163 HD
ATOM     24  O   UNL A   1      41.870  18.565  26.024  1.00  0.00    -0.269 OA
BRANCH  22  25
ATOM     25  C   UNL A   1      41.519  20.814  26.593  1.00  0.00     0.039 A 
ATOM     26  C   UNL A   1      41.381  21.084  27.960  1.00  0.00     0.014 A 
ATOM     27  C   UNL A   1      41.972  21.826  25.741  1.00  0.00     0.014 A 
ATOM     28  C   UNL A   1      41.709  22.346  28.469  1.00  0.00     0.010 A 
ATOM     29  C   UNL A   1      42.373  23.060  26.260  1.00  0.00     0.010 A 
ATOM     30  C   UNL A   1      42.218  23.345  27.625  1.00  0.00    -0.014 A 
BRANCH  30  31
ATOM     31  C   UNL A   1      42.529  24.705  28.143  1.00  0.00     0.031 A 
ATOM     32  C   UNL A   1      43.944  25.075  28.502  1.00  0.00     0.074 A 
ATOM     33  C   UNL A   1      41.543  25.605  28.320  1.00  0.00     0.049 A 
ATOM     34  N   UNL A   1      44.408  26.191  29.009  1.00  0.00    -0.248 NA
ATOM     35  C   UNL A   1      44.971  24.044  28.285  1.00  0.00     0.031 C 
ATOM     36  C   UNL A   1      40.126  25.375  28.041  1.00  0.00     0.029 A 
ATOM     37  N   UNL A   1      41.587  26.898  28.780  1.00  0.00    -0.354 N 
ATOM     38  C   UNL A   1      45.770  25.987  29.192  1.00  0.00     0.074 A 
ATOM     39  C   UNL A   1      46.051  24.628  28.783  1.00  0.00     0.031 C 
ATOM     40  C   UNL A   1      39.439  26.499  28.306  1.00  0.00     0.029 A 
ATOM     41  C   UNL A   1      40.362  27.517  28.802  1.00  0.00     0.049 A 
ATOM     42  H   UNL A   1      42.419  27.340  29.067  1.00  0.00     0.167 HD
ATOM     43  C   UNL A   1      46.709  26.856  29.637  1.00  0.00     0.037 A 
ATOM     44  C   UNL A   1      40.019  28.763  29.178  1.00  0.00     0.037 A 
ATOM     45  C   UNL A   1      46.446  28.222  30.006  1.00  0.00     0.049 A 
ATOM     46  C   UNL A   1      41.077  29.713  29.664  1.00  0.00     0.074 A 
ATOM     47  C   UNL A   1      47.343  29.196  30.413  1.00  0.00     0.029 A 
ATOM     48  N   UNL A   1      45.191  28.809  30.011  1.00  0.00    -0.354 N 
ATOM     49  N   UNL A   1      42.367  29.520  29.788  1.00  0.00    -0.248 NA
ATOM     50  C   UNL A   1      40.628  31.057  30.059  1.00  0.00     0.031 C 
ATOM     51  C   UNL A   1      46.625  30.365  30.690  1.00  0.00     0.029 A 
ATOM     52  C   UNL A   1      45.287  30.128  30.424  1.00  0.00     0.049 A 
ATOM     53  H   UNL A   1      44.354  28.356  29.756  1.00  0.00     0.167 HD
ATOM     54  C   UNL A   1      42.888  30.722  30.250  1.00  0.00     0.074 A 
ATOM     55  C   UNL A   1      41.776  31.640  30.377  1.00  0.00     0.031 C 
ATOM     56  C   UNL A   1      44.174  31.035  30.541  1.00  0.00     0.037 A 
BRANCH  43  57
ATOM     57  C   UNL A   1      48.117  26.347  29.744  1.00  0.00     0.057 A 
ATOM     58  C   UNL A   1      48.595  25.742  30.914  1.00  0.00     0.134 A 
ATOM     59  C   UNL A   1      49.001  26.454  28.664  1.00  0.00     0.134 A 
ATOM     60  F   UNL A   1      47.802  25.622  31.990  1.00  0.00    -0.206 F 
ATOM     61  C   UNL A   1      49.912  25.293  31.017  1.00  0.00     0.040 A 
ATOM     62  C   UNL A   1      50.312  25.986  28.745  1.00  0.00     0.040 A 
ATOM     63  F   UNL A   1      48.605  27.017  27.512  1.00  0.00    -0.206 F 
ATOM     64  C   UNL A   1      50.774  25.411  29.928  1.00  0.00     0.006 A 
ENDBRANCH  43  57
BRANCH  44  65
ATOM     65  C   UNL A   1      38.606  29.201  29.069  1.00  0.00     0.057 A 
ATOM     66  C   UNL A   1      38.093  29.667  27.853  1.00  0.00     0.134 A 
ATOM     67  C   UNL A   1      37.737  29.158  30.166  1.00  0.00     0.134 A 
ATOM     68  F   UNL A   1      38.885  29.749  26.774  1.00  0.00    -0.206 F 
ATOM     69  C   UNL A   1      36.767  30.083  27.732  1.00  0.00     0.040 A 
ATOM     70  C   UNL A   1      36.404  29.553  30.053  1.00  0.00     0.040 A 
ATOM     71  F   UNL A   1      38.172  28.719  31.356  1.00  0.00    -0.206 F 
ATOM     72  C   UNL A   1      35.917  30.021  28.834  1.00  0.00     0.006 A 
ENDBRANCH  44  65
BRANCH  56  73
ATOM     73  C   UNL A   1      44.452  32.435  30.996  1.00  0.00     0.057 A 
ATOM     74  C   UNL A   1      44.469  32.779  32.353  1.00  0.00     0.134 A 
ATOM     75  C   UNL A   1      44.740  33.443  30.066  1.00  0.00     0.134 A 
ATOM     76  F   UNL A   1      44.188  31.862  33.291  1.00  0.00    -0.206 F 
ATOM     77  C   UNL A   1      44.746  34.082  32.769  1.00  0.00     0.040 A 
ATOM     78  C   UNL A   1      45.038  34.744  30.472  1.00  0.00     0.040 A 
ATOM     79  F   UNL A   1      44.745  33.175  28.752  1.00  0.00    -0.206 F 
ATOM     80  C   UNL A   1      45.037  35.068  31.827  1.00  0.00     0.006 A 
ENDBRANCH  56  73
ENDBRANCH  30  31
ENDBRANCH  22  25
ENDBRANCH  20  21
ENDBRANCH  19  20
ENDBRANCH   1  19
TORSDOF 15
ENDMDL
