MODEL 1
REMARK VINA RESULT:     -13.1      0.000      0.000
REMARK SMILES Cc1[nH]c2ccccc2c1/C=C1/SC(=S)N(c2cccc(C(=O)NCCCNC(=O)c3ccc(-c4c5nc(c(-c6c(F)cccc6F)c6ccc([nH]6)c(-c6c(F)cccc6F)c6nc(c(-c7c(F)cccc7F)c7ccc4[nH]7)C=C6)C=C5)cc3)c2)C1=O
REMARK SMILES IDX 26 1 25 2 24 3 22 4 23 5 21 7 17 8 18 9 85 10 19 11 20 12
REMARK SMILES IDX 16 13 11 14 12 15 13 16 86 17 14 18 87 19 15 20 10 21 1 22
REMARK SMILES IDX 2 23 3 24 4 25 9 27 5 28 8 29 6 30 7 31 27 32 28 33 29 34
REMARK SMILES IDX 30 36 31 37 32 38 84 39 33 40 83 41 34 42 35 43 36 44 77 45
REMARK SMILES IDX 37 46 82 47 76 48 78 49 38 50 81 51 75 52 74 53 39 55 65 56
REMARK SMILES IDX 48 57 64 58 49 59 52 60 63 61 79 62 50 63 51 64 62 66 80 67
REMARK SMILES IDX 53 68 40 69 41 70 46 71 42 72 43 73 45 74 47 75 44 76 66 77
REMARK SMILES IDX 67 78 72 79 68 80 69 81 71 82 73 83 70 84 54 85 55 86 60 87
REMARK SMILES IDX 56 88 57 89 59 90 61 91 58 92
REMARK H PARENT 24 6 3 26 28 35 78 54 52 65
REMARK Flexibility Score: inf
ROOT
ATOM      1  C   UNL A   1      33.229  28.729  26.897  1.00  0.00     0.042 C 
ENDROOT
BRANCH   1   2
ATOM      2  C   UNL A   1      32.717  29.412  25.636  1.00  0.00     0.118 C 
BRANCH   2   3
ATOM      3  N   UNL A   1      33.666  29.391  24.533  1.00  0.00    -0.352 N 
ATOM      4  C   UNL A   1      33.891  28.593  23.438  1.00  0.00     0.251 C 
ATOM      5  O   UNL A   1      34.841  28.916  22.720  1.00  0.00    -0.269 OA
ATOM      6  H   UNL A   1      34.307  30.136  24.584  1.00  0.00     0.163 HD
BRANCH   4   7
ATOM      7  C   UNL A   1      33.129  27.359  23.089  1.00  0.00     0.041 A 
ATOM      8  C   UNL A   1      31.987  25.266  23.631  1.00  0.00     0.051 A 
ATOM      9  C   UNL A   1      31.932  24.953  22.269  1.00  0.00     0.027 A 
ATOM     10  C   UNL A   1      32.514  26.511  24.011  1.00  0.00     0.040 A 
ATOM     11  C   UNL A   1      32.421  25.845  21.318  1.00  0.00     0.003 A 
ATOM     12  C   UNL A   1      33.040  27.027  21.728  1.00  0.00     0.014 A 
BRANCH   8  13
ATOM     13  N   UNL A   1      31.705  24.277  24.631  1.00  0.00    -0.261 N 
ATOM     14  C   UNL A   1      33.003  21.361  26.419  1.00  0.00     0.032 C 
ATOM     15  C   UNL A   1      32.293  22.401  25.957  1.00  0.00     0.081 C 
ATOM     16  S   UNL A   1      30.991  23.110  26.829  1.00  0.00    -0.054 SA
ATOM     17  C   UNL A   1      32.523  23.146  24.684  1.00  0.00     0.270 C 
ATOM     18  C   UNL A   1      30.778  24.408  25.655  1.00  0.00     0.152 C 
ATOM     19  O   UNL A   1      33.365  22.819  23.856  1.00  0.00    -0.268 OA
ATOM     20  S   UNL A   1      29.538  25.516  25.842  1.00  0.00    -0.051 S 
BRANCH  14  21
ATOM     21  C   UNL A   1      34.115  20.755  25.767  1.00  0.00     0.004 A 
ATOM     22  C   UNL A   1      33.036  18.516  24.918  1.00  0.00     0.065 C 
ATOM     23  C   UNL A   1      34.103  19.526  25.133  1.00  0.00     0.020 A 
ATOM     24  N   UNL A   1      35.392  19.285  24.716  1.00  0.00    -0.358 N 
ATOM     25  C   UNL A   1      36.218  20.336  25.044  1.00  0.00     0.046 A 
ATOM     26  H   UNL A   1      35.685  18.470  24.247  1.00  0.00     0.166 HD
ATOM     27  C   UNL A   1      35.433  21.290  25.689  1.00  0.00     0.007 A 
ATOM     28  C   UNL A   1      37.592  20.503  24.835  1.00  0.00     0.027 A 
ATOM     29  C   UNL A   1      36.045  22.478  26.138  1.00  0.00     0.011 A 
ATOM     30  C   UNL A   1      38.177  21.687  25.293  1.00  0.00     0.002 A 
ATOM     31  C   UNL A   1      37.417  22.664  25.932  1.00  0.00     0.001 A 
ENDBRANCH  14  21
ENDBRANCH   8  13
ENDBRANCH   4   7
ENDBRANCH   2   3
ENDBRANCH   1   2
BRANCH   1  32
ATOM     32  C   UNL A   1      34.667  29.083  27.256  1.00  0.00     0.118 C 
BRANCH  32  33
ATOM     33  N   UNL A   1      34.749  30.071  28.324  1.00  0.00    -0.352 N 
ATOM     34  C   UNL A   1      35.765  30.413  29.180  1.00  0.00     0.251 C 
ATOM     35  H   UNL A   1      33.922  30.590  28.456  1.00  0.00     0.163 HD
ATOM     36  O   UNL A   1      35.506  31.120  30.151  1.00  0.00    -0.269 OA
BRANCH  34  37
ATOM     37  C   UNL A   1      37.155  29.955  28.963  1.00  0.00     0.039 A 
ATOM     38  C   UNL A   1      37.884  29.491  30.064  1.00  0.00     0.014 A 
ATOM     39  C   UNL A   1      37.778  30.052  27.717  1.00  0.00     0.014 A 
ATOM     40  C   UNL A   1      39.211  29.087  29.904  1.00  0.00     0.010 A 
ATOM     41  C   UNL A   1      39.069  29.559  27.538  1.00  0.00     0.010 A 
ATOM     42  C   UNL A   1      39.806  29.091  28.632  1.00  0.00    -0.014 A 
BRANCH  42  43
ATOM     43  C   UNL A   1      41.204  28.626  28.445  1.00  0.00     0.031 A 
ATOM     44  C   UNL A   1      41.493  27.190  28.099  1.00  0.00     0.074 A 
ATOM     45  C   UNL A   1      42.217  29.495  28.625  1.00  0.00     0.049 A 
ATOM     46  N   UNL A   1      42.647  26.605  27.895  1.00  0.00    -0.248 NA
ATOM     47  C   UNL A   1      40.339  26.283  27.997  1.00  0.00     0.031 C 
ATOM     48  C   UNL A   1      42.070  30.894  29.031  1.00  0.00     0.029 A 
ATOM     49  N   UNL A   1      43.571  29.331  28.487  1.00  0.00    -0.354 N 
ATOM     50  C   UNL A   1      42.358  25.267  27.660  1.00  0.00     0.074 A 
ATOM     51  C   UNL A   1      40.926  25.113  27.803  1.00  0.00     0.031 C 
ATOM     52  C   UNL A   1      43.281  31.472  29.068  1.00  0.00     0.029 A 
ATOM     53  C   UNL A   1      44.290  30.479  28.713  1.00  0.00     0.049 A 
ATOM     54  H   UNL A   1      43.989  28.472  28.247  1.00  0.00     0.167 HD
ATOM     55  C   UNL A   1      43.203  24.262  27.327  1.00  0.00     0.037 A 
ATOM     56  C   UNL A   1      45.613  30.709  28.629  1.00  0.00     0.037 A 
ATOM     57  C   UNL A   1      44.622  24.426  27.151  1.00  0.00     0.049 A 
ATOM     58  C   UNL A   1      46.524  29.590  28.208  1.00  0.00     0.074 A 
ATOM     59  C   UNL A   1      45.558  23.486  26.758  1.00  0.00     0.029 A 
ATOM     60  N   UNL A   1      45.307  25.614  27.354  1.00  0.00    -0.354 N 
ATOM     61  N   UNL A   1      46.227  28.347  27.919  1.00  0.00    -0.248 NA
ATOM     62  C   UNL A   1      47.951  29.914  28.086  1.00  0.00     0.031 C 
ATOM     63  C   UNL A   1      46.817  24.099  26.751  1.00  0.00     0.029 A 
ATOM     64  C   UNL A   1      46.657  25.430  27.101  1.00  0.00     0.049 A 
ATOM     65  H   UNL A   1      44.896  26.463  27.634  1.00  0.00     0.167 HD
ATOM     66  C   UNL A   1      47.424  27.744  27.559  1.00  0.00     0.074 A 
ATOM     67  C   UNL A   1      48.448  28.766  27.645  1.00  0.00     0.031 C 
ATOM     68  C   UNL A   1      47.658  26.460  27.194  1.00  0.00     0.037 A 
BRANCH  55  69
ATOM     69  C   UNL A   1      42.607  22.899  27.118  1.00  0.00     0.057 A 
ATOM     70  C   UNL A   1      42.198  22.100  28.195  1.00  0.00     0.134 A 
ATOM     71  C   UNL A   1      42.413  22.389  25.829  1.00  0.00     0.134 A 
ATOM     72  F   UNL A   1      42.368  22.523  29.458  1.00  0.00    -0.206 F 
ATOM     73  C   UNL A   1      41.648  20.833  27.999  1.00  0.00     0.040 A 
ATOM     74  C   UNL A   1      41.838  21.134  25.619  1.00  0.00     0.040 A 
ATOM     75  F   UNL A   1      42.776  23.103  24.752  1.00  0.00    -0.206 F 
ATOM     76  C   UNL A   1      41.459  20.350  26.705  1.00  0.00     0.006 A 
ENDBRANCH  55  69
BRANCH  56  77
ATOM     77  C   UNL A   1      46.149  32.067  28.896  1.00  0.00     0.057 A 
ATOM     78  C   UNL A   1      46.558  32.438  30.183  1.00  0.00     0.134 A 
ATOM     79  C   UNL A   1      46.267  33.021  27.879  1.00  0.00     0.134 A 
ATOM     80  F   UNL A   1      46.455  31.571  31.199  1.00  0.00    -0.206 F 
ATOM     81  C   UNL A   1      47.045  33.717  30.454  1.00  0.00     0.040 A 
ATOM     82  C   UNL A   1      46.775  34.297  28.132  1.00  0.00     0.040 A 
ATOM     83  F   UNL A   1      45.904  32.722  26.623  1.00  0.00    -0.206 F 
ATOM     84  C   UNL A   1      47.158  34.650  29.425  1.00  0.00     0.006 A 
ENDBRANCH  56  77
BRANCH  68  85
ATOM     85  C   UNL A   1      49.072  26.106  26.838  1.00  0.00     0.057 A 
ATOM     86  C   UNL A   1      49.949  25.542  27.773  1.00  0.00     0.134 A 
ATOM     87  C   UNL A   1      49.559  26.329  25.544  1.00  0.00     0.134 A 
ATOM     88  F   UNL A   1      49.548  25.317  29.033  1.00  0.00    -0.206 F 
ATOM     89  C   UNL A   1      51.272  25.243  27.443  1.00  0.00     0.040 A 
ATOM     90  C   UNL A   1      50.871  26.010  25.195  1.00  0.00     0.040 A 
ATOM     91  F   UNL A   1      48.766  26.859  24.599  1.00  0.00    -0.206 F 
ATOM     92  C   UNL A   1      51.734  25.473  26.148  1.00  0.00     0.006 A 
ENDBRANCH  68  85
ENDBRANCH  42  43
ENDBRANCH  34  37
ENDBRANCH  32  33
ENDBRANCH   1  32
TORSDOF 12
ENDMDL
MODEL 2
REMARK VINA RESULT:     -12.6      2.031      3.133
REMARK SMILES Cc1[nH]c2ccccc2c1/C=C1/SC(=S)N(c2cccc(C(=O)NCCCNC(=O)c3ccc(-c4c5nc(c(-c6c(F)cccc6F)c6ccc([nH]6)c(-c6c(F)cccc6F)c6nc(c(-c7c(F)cccc7F)c7ccc4[nH]7)C=C6)C=C5)cc3)c2)C1=O
REMARK SMILES IDX 26 1 25 2 24 3 22 4 23 5 21 7 17 8 18 9 85 10 19 11 20 12
REMARK SMILES IDX 16 13 11 14 12 15 13 16 86 17 14 18 87 19 15 20 10 21 1 22
REMARK SMILES IDX 2 23 3 24 4 25 9 27 5 28 8 29 6 30 7 31 27 32 28 33 29 34
REMARK SMILES IDX 30 36 31 37 32 38 84 39 33 40 83 41 34 42 35 43 36 44 77 45
REMARK SMILES IDX 37 46 82 47 76 48 78 49 38 50 81 51 75 52 74 53 39 55 65 56
REMARK SMILES IDX 48 57 64 58 49 59 52 60 63 61 79 62 50 63 51 64 62 66 80 67
REMARK SMILES IDX 53 68 40 69 41 70 46 71 42 72 43 73 45 74 47 75 44 76 66 77
REMARK SMILES IDX 67 78 72 79 68 80 69 81 71 82 73 83 70 84 54 85 55 86 60 87
REMARK SMILES IDX 56 88 57 89 59 90 61 91 58 92
REMARK H PARENT 24 6 3 26 28 35 78 54 52 65
REMARK Flexibility Score: inf
ROOT
ATOM      1  C   UNL A   1      34.539  33.106  29.465  1.00  0.00     0.042 C 
ENDROOT
BRANCH   1   2
ATOM      2  C   UNL A   1      34.631  32.700  28.000  1.00  0.00     0.118 C 
BRANCH   2   3
ATOM      3  N   UNL A   1      35.556  31.603  27.755  1.00  0.00    -0.352 N 
ATOM      4  C   UNL A   1      35.458  30.308  27.311  1.00  0.00     0.251 C 
ATOM      5  O   UNL A   1      36.516  29.674  27.251  1.00  0.00    -0.269 OA
ATOM      6  H   UNL A   1      36.486  31.854  27.958  1.00  0.00     0.163 HD
BRANCH   4   7
ATOM      7  C   UNL A   1      34.191  29.602  26.959  1.00  0.00     0.041 A 
ATOM      8  C   UNL A   1      32.844  28.065  25.617  1.00  0.00     0.051 A 
ATOM      9  C   UNL A   1      31.689  28.544  26.244  1.00  0.00     0.027 A 
ATOM     10  C   UNL A   1      34.089  28.548  26.050  1.00  0.00     0.040 A 
ATOM     11  C   UNL A   1      31.776  29.503  27.251  1.00  0.00     0.003 A 
ATOM     12  C   UNL A   1      33.016  30.047  27.585  1.00  0.00     0.014 A 
BRANCH   8  13
ATOM     13  N   UNL A   1      32.765  27.258  24.434  1.00  0.00    -0.261 N 
ATOM     14  C   UNL A   1      32.760  23.843  23.122  1.00  0.00     0.032 C 
ATOM     15  C   UNL A   1      32.704  25.170  23.313  1.00  0.00     0.081 C 
ATOM     16  S   UNL A   1      32.025  26.255  22.165  1.00  0.00    -0.054 SA
ATOM     17  C   UNL A   1      33.148  25.918  24.526  1.00  0.00     0.270 C 
ATOM     18  C   UNL A   1      32.200  27.651  23.229  1.00  0.00     0.152 C 
ATOM     19  O   UNL A   1      33.707  25.387  25.478  1.00  0.00    -0.268 OA
ATOM     20  S   UNL A   1      31.778  29.178  22.690  1.00  0.00    -0.051 S 
BRANCH  14  21
ATOM     21  C   UNL A   1      33.272  22.889  24.047  1.00  0.00     0.004 A 
ATOM     22  C   UNL A   1      31.102  22.280  25.394  1.00  0.00     0.065 C 
ATOM     23  C   UNL A   1      32.538  22.235  25.019  1.00  0.00     0.020 A 
ATOM     24  N   UNL A   1      33.428  21.473  25.740  1.00  0.00    -0.358 N 
ATOM     25  C   UNL A   1      34.703  21.603  25.239  1.00  0.00     0.046 A 
ATOM     26  H   UNL A   1      33.186  20.910  26.510  1.00  0.00     0.166 HD
ATOM     27  C   UNL A   1      34.632  22.475  24.153  1.00  0.00     0.007 A 
ATOM     28  C   UNL A   1      35.905  21.033  25.673  1.00  0.00     0.027 A 
ATOM     29  C   UNL A   1      35.817  22.785  23.456  1.00  0.00     0.011 A 
ATOM     30  C   UNL A   1      37.068  21.360  24.969  1.00  0.00     0.002 A 
ATOM     31  C   UNL A   1      37.027  22.219  23.874  1.00  0.00     0.001 A 
ENDBRANCH  14  21
ENDBRANCH   8  13
ENDBRANCH   4   7
ENDBRANCH   2   3
ENDBRANCH   1   2
BRANCH   1  32
ATOM     32  C   UNL A   1      34.724  31.953  30.443  1.00  0.00     0.118 C 
BRANCH  32  33
ATOM     33  N   UNL A   1      35.212  32.396  31.743  1.00  0.00    -0.352 N 
ATOM     34  C   UNL A   1      36.414  32.220  32.379  1.00  0.00     0.251 C 
ATOM     35  H   UNL A   1      34.558  32.920  32.261  1.00  0.00     0.163 HD
ATOM     36  O   UNL A   1      36.497  32.495  33.574  1.00  0.00    -0.269 OA
BRANCH  34  37
ATOM     37  C   UNL A   1      37.608  31.712  31.666  1.00  0.00     0.039 A 
ATOM     38  C   UNL A   1      38.491  30.875  32.355  1.00  0.00     0.014 A 
ATOM     39  C   UNL A   1      37.914  32.110  30.362  1.00  0.00     0.014 A 
ATOM     40  C   UNL A   1      39.647  30.407  31.727  1.00  0.00     0.010 A 
ATOM     41  C   UNL A   1      39.014  31.568  29.703  1.00  0.00     0.010 A 
ATOM     42  C   UNL A   1      39.904  30.727  30.384  1.00  0.00    -0.014 A 
BRANCH  42  43
ATOM     43  C   UNL A   1      41.110  30.203  29.694  1.00  0.00     0.031 A 
ATOM     44  C   UNL A   1      41.128  28.802  29.146  1.00  0.00     0.074 A 
ATOM     45  C   UNL A   1      42.204  30.982  29.596  1.00  0.00     0.049 A 
ATOM     46  N   UNL A   1      42.089  28.175  28.512  1.00  0.00    -0.248 NA
ATOM     47  C   UNL A   1      39.924  27.985  29.362  1.00  0.00     0.031 C 
ATOM     48  C   UNL A   1      42.334  32.332  30.150  1.00  0.00     0.029 A 
ATOM     49  N   UNL A   1      43.414  30.753  28.994  1.00  0.00    -0.354 N 
ATOM     50  C   UNL A   1      41.611  26.893  28.272  1.00  0.00     0.074 A 
ATOM     51  C   UNL A   1      40.299  26.811  28.877  1.00  0.00     0.031 C 
ATOM     52  C   UNL A   1      43.539  32.826  29.825  1.00  0.00     0.029 A 
ATOM     53  C   UNL A   1      44.274  31.822  29.063  1.00  0.00     0.049 A 
ATOM     54  H   UNL A   1      43.644  29.904  28.552  1.00  0.00     0.167 HD
ATOM     55  C   UNL A   1      42.198  25.883  27.585  1.00  0.00     0.037 A 
ATOM     56  C   UNL A   1      45.510  31.979  28.557  1.00  0.00     0.037 A 
ATOM     57  C   UNL A   1      43.487  25.980  26.954  1.00  0.00     0.049 A 
ATOM     58  C   UNL A   1      46.118  30.863  27.755  1.00  0.00     0.074 A 
ATOM     59  C   UNL A   1      44.147  25.036  26.186  1.00  0.00     0.029 A 
ATOM     60  N   UNL A   1      44.312  27.093  27.016  1.00  0.00    -0.354 N 
ATOM     61  N   UNL A   1      45.625  29.681  27.476  1.00  0.00    -0.248 NA
ATOM     62  C   UNL A   1      47.450  31.111  27.186  1.00  0.00     0.031 C 
ATOM     63  C   UNL A   1      45.385  25.569  25.807  1.00  0.00     0.029 A 
ATOM     64  C   UNL A   1      45.479  26.857  26.307  1.00  0.00     0.049 A 
ATOM     65  H   UNL A   1      44.100  27.927  27.493  1.00  0.00     0.167 HD
ATOM     66  C   UNL A   1      46.572  29.053  26.679  1.00  0.00     0.074 A 
ATOM     67  C   UNL A   1      47.660  29.994  26.504  1.00  0.00     0.031 C 
ATOM     68  C   UNL A   1      46.548  27.807  26.144  1.00  0.00     0.037 A 
BRANCH  55  69
ATOM     69  C   UNL A   1      41.438  24.593  27.472  1.00  0.00     0.057 A 
ATOM     70  C   UNL A   1      40.378  24.437  26.567  1.00  0.00     0.134 A 
ATOM     71  C   UNL A   1      41.784  23.484  28.254  1.00  0.00     0.134 A 
ATOM     72  F   UNL A   1      39.987  25.465  25.796  1.00  0.00    -0.206 F 
ATOM     73  C   UNL A   1      39.672  23.238  26.465  1.00  0.00     0.040 A 
ATOM     74  C   UNL A   1      41.102  22.271  28.143  1.00  0.00     0.040 A 
ATOM     75  F   UNL A   1      42.791  23.561  29.137  1.00  0.00    -0.206 F 
ATOM     76  C   UNL A   1      40.039  22.147  27.251  1.00  0.00     0.006 A 
ENDBRANCH  55  69
BRANCH  56  77
ATOM     77  C   UNL A   1      46.232  33.262  28.744  1.00  0.00     0.057 A 
ATOM     78  C   UNL A   1      47.104  33.444  29.825  1.00  0.00     0.134 A 
ATOM     79  C   UNL A   1      46.071  34.330  27.855  1.00  0.00     0.134 A 
ATOM     80  F   UNL A   1      47.286  32.461  30.717  1.00  0.00    -0.206 F 
ATOM     81  C   UNL A   1      47.774  34.651  30.027  1.00  0.00     0.040 A 
ATOM     82  C   UNL A   1      46.754  35.535  28.033  1.00  0.00     0.040 A 
ATOM     83  F   UNL A   1      45.260  34.213  26.794  1.00  0.00    -0.206 F 
ATOM     84  C   UNL A   1      47.603  35.700  29.126  1.00  0.00     0.006 A 
ENDBRANCH  56  77
BRANCH  68  85
ATOM     85  C   UNL A   1      47.724  27.412  25.302  1.00  0.00     0.057 A 
ATOM     86  C   UNL A   1      48.859  26.806  25.855  1.00  0.00     0.134 A 
ATOM     87  C   UNL A   1      47.717  27.635  23.918  1.00  0.00     0.134 A 
ATOM     88  F   UNL A   1      48.933  26.580  27.175  1.00  0.00    -0.206 F 
ATOM     89  C   UNL A   1      49.961  26.469  25.069  1.00  0.00     0.040 A 
ATOM     90  C   UNL A   1      48.801  27.277  23.118  1.00  0.00     0.040 A 
ATOM     91  F   UNL A   1      46.655  28.202  23.325  1.00  0.00    -0.206 F 
ATOM     92  C   UNL A   1      49.932  26.700  23.695  1.00  0.00     0.006 A 
ENDBRANCH  68  85
ENDBRANCH  42  43
ENDBRANCH  34  37
ENDBRANCH  32  33
ENDBRANCH   1  32
TORSDOF 12
ENDMDL
MODEL 3
REMARK VINA RESULT:     -12.5      4.849      9.602
REMARK SMILES Cc1[nH]c2ccccc2c1/C=C1/SC(=S)N(c2cccc(C(=O)NCCCNC(=O)c3ccc(-c4c5nc(c(-c6c(F)cccc6F)c6ccc([nH]6)c(-c6c(F)cccc6F)c6nc(c(-c7c(F)cccc7F)c7ccc4[nH]7)C=C6)C=C5)cc3)c2)C1=O
REMARK SMILES IDX 26 1 25 2 24 3 22 4 23 5 21 7 17 8 18 9 85 10 19 11 20 12
REMARK SMILES IDX 16 13 11 14 12 15 13 16 86 17 14 18 87 19 15 20 10 21 1 22
REMARK SMILES IDX 2 23 3 24 4 25 9 27 5 28 8 29 6 30 7 31 27 32 28 33 29 34
REMARK SMILES IDX 30 36 31 37 32 38 84 39 33 40 83 41 34 42 35 43 36 44 77 45
REMARK SMILES IDX 37 46 82 47 76 48 78 49 38 50 81 51 75 52 74 53 39 55 65 56
REMARK SMILES IDX 48 57 64 58 49 59 52 60 63 61 79 62 50 63 51 64 62 66 80 67
REMARK SMILES IDX 53 68 40 69 41 70 46 71 42 72 43 73 45 74 47 75 44 76 66 77
REMARK SMILES IDX 67 78 72 79 68 80 69 81 71 82 73 83 70 84 54 85 55 86 60 87
REMARK SMILES IDX 56 88 57 89 59 90 61 91 58 92
REMARK H PARENT 24 6 3 26 28 35 78 54 52 65
REMARK Flexibility Score: inf
ROOT
ATOM      1  C   UNL A   1      41.522  21.611  26.235  1.00  0.00     0.042 C 
ENDROOT
BRANCH   1   2
ATOM      2  C   UNL A   1      40.164  21.621  26.924  1.00  0.00     0.118 C 
BRANCH   2   3
ATOM      3  N   UNL A   1      39.672  22.957  27.227  1.00  0.00    -0.352 N 
ATOM      4  C   UNL A   1      38.600  23.725  26.847  1.00  0.00     0.251 C 
ATOM      5  O   UNL A   1      38.543  24.856  27.338  1.00  0.00    -0.269 OA
ATOM      6  H   UNL A   1      40.255  23.427  27.866  1.00  0.00     0.163 HD
BRANCH   4   7
ATOM      7  C   UNL A   1      37.552  23.330  25.861  1.00  0.00     0.041 A 
ATOM      8  C   UNL A   1      35.241  23.131  25.086  1.00  0.00     0.051 A 
ATOM      9  C   UNL A   1      35.671  22.305  24.044  1.00  0.00     0.027 A 
ATOM     10  C   UNL A   1      36.207  23.699  25.931  1.00  0.00     0.040 A 
ATOM     11  C   UNL A   1      37.025  22.028  23.872  1.00  0.00     0.003 A 
ATOM     12  C   UNL A   1      37.955  22.515  24.792  1.00  0.00     0.014 A 
BRANCH   8  13
ATOM     13  N   UNL A   1      33.850  23.243  25.419  1.00  0.00    -0.261 N 
ATOM     14  C   UNL A   1      30.847  25.311  25.116  1.00  0.00     0.032 C 
ATOM     15  C   UNL A   1      31.757  24.354  25.358  1.00  0.00     0.081 C 
ATOM     16  S   UNL A   1      31.333  22.734  25.748  1.00  0.00    -0.054 SA
ATOM     17  C   UNL A   1      33.240  24.493  25.282  1.00  0.00     0.270 C 
ATOM     18  C   UNL A   1      33.009  22.184  25.727  1.00  0.00     0.152 C 
ATOM     19  O   UNL A   1      33.808  25.557  25.064  1.00  0.00    -0.268 OA
ATOM     20  S   UNL A   1      33.380  20.602  26.127  1.00  0.00    -0.051 S 
BRANCH  14  21
ATOM     21  C   UNL A   1      31.131  26.658  24.751  1.00  0.00     0.004 A 
ATOM     22  C   UNL A   1      31.097  26.485  22.131  1.00  0.00     0.065 C 
ATOM     23  C   UNL A   1      31.239  27.135  23.458  1.00  0.00     0.020 A 
ATOM     24  N   UNL A   1      31.602  28.459  23.555  1.00  0.00    -0.358 N 
ATOM     25  C   UNL A   1      31.704  28.844  24.873  1.00  0.00     0.046 A 
ATOM     26  H   UNL A   1      31.767  29.051  22.787  1.00  0.00     0.166 HD
ATOM     27  C   UNL A   1      31.389  27.731  25.652  1.00  0.00     0.007 A 
ATOM     28  C   UNL A   1      32.064  30.077  25.427  1.00  0.00     0.027 A 
ATOM     29  C   UNL A   1      31.423  27.857  27.056  1.00  0.00     0.011 A 
ATOM     30  C   UNL A   1      32.095  30.176  26.822  1.00  0.00     0.002 A 
ATOM     31  C   UNL A   1      31.776  29.085  27.626  1.00  0.00     0.001 A 
ENDBRANCH  14  21
ENDBRANCH   8  13
ENDBRANCH   4   7
ENDBRANCH   2   3
ENDBRANCH   1   2
BRANCH   1  32
ATOM     32  C   UNL A   1      41.871  22.914  25.527  1.00  0.00     0.118 C 
BRANCH  32  33
ATOM     33  N   UNL A   1      43.308  23.148  25.463  1.00  0.00    -0.352 N 
ATOM     34  C   UNL A   1      44.106  24.111  26.026  1.00  0.00     0.251 C 
ATOM     35  H   UNL A   1      43.798  22.492  24.915  1.00  0.00     0.163 HD
ATOM     36  O   UNL A   1      45.263  24.226  25.628  1.00  0.00    -0.269 OA
BRANCH  34  37
ATOM     37  C   UNL A   1      43.612  25.007  27.095  1.00  0.00     0.039 A 
ATOM     38  C   UNL A   1      43.984  26.356  27.060  1.00  0.00     0.014 A 
ATOM     39  C   UNL A   1      42.861  24.529  28.171  1.00  0.00     0.014 A 
ATOM     40  C   UNL A   1      43.568  27.223  28.072  1.00  0.00     0.010 A 
ATOM     41  C   UNL A   1      42.366  25.412  29.128  1.00  0.00     0.010 A 
ATOM     42  C   UNL A   1      42.730  26.763  29.101  1.00  0.00    -0.014 A 
BRANCH  42  43
ATOM     43  C   UNL A   1      42.250  27.686  30.160  1.00  0.00     0.031 A 
ATOM     44  C   UNL A   1      41.007  28.508  29.953  1.00  0.00     0.074 A 
ATOM     45  C   UNL A   1      42.960  27.810  31.298  1.00  0.00     0.049 A 
ATOM     46  N   UNL A   1      40.436  29.363  30.765  1.00  0.00    -0.248 NA
ATOM     47  C   UNL A   1      40.330  28.377  28.653  1.00  0.00     0.031 C 
ATOM     48  C   UNL A   1      44.220  27.121  31.588  1.00  0.00     0.029 A 
ATOM     49  N   UNL A   1      42.724  28.556  32.423  1.00  0.00    -0.354 N 
ATOM     50  C   UNL A   1      39.350  29.880  30.069  1.00  0.00     0.074 A 
ATOM     51  C   UNL A   1      39.373  29.288  28.750  1.00  0.00     0.031 C 
ATOM     52  C   UNL A   1      44.622  27.444  32.828  1.00  0.00     0.029 A 
ATOM     53  C   UNL A   1      43.664  28.380  33.408  1.00  0.00     0.049 A 
ATOM     54  H   UNL A   1      41.952  29.160  32.518  1.00  0.00     0.167 HD
ATOM     55  C   UNL A   1      38.402  30.748  30.499  1.00  0.00     0.037 A 
ATOM     56  C   UNL A   1      43.738  28.902  34.646  1.00  0.00     0.037 A 
ATOM     57  C   UNL A   1      38.363  31.308  31.824  1.00  0.00     0.049 A 
ATOM     58  C   UNL A   1      42.647  29.822  35.117  1.00  0.00     0.074 A 
ATOM     59  C   UNL A   1      37.414  32.150  32.378  1.00  0.00     0.029 A 
ATOM     60  N   UNL A   1      39.314  31.076  32.805  1.00  0.00    -0.354 N 
ATOM     61  N   UNL A   1      41.588  30.247  34.472  1.00  0.00    -0.248 NA
ATOM     62  C   UNL A   1      42.756  30.322  36.494  1.00  0.00     0.031 C 
ATOM     63  C   UNL A   1      37.809  32.451  33.687  1.00  0.00     0.029 A 
ATOM     64  C   UNL A   1      38.981  31.765  33.960  1.00  0.00     0.049 A 
ATOM     65  H   UNL A   1      40.109  30.505  32.698  1.00  0.00     0.167 HD
ATOM     66  C   UNL A   1      40.891  31.043  35.369  1.00  0.00     0.074 A 
ATOM     67  C   UNL A   1      41.638  31.025  36.611  1.00  0.00     0.031 C 
ATOM     68  C   UNL A   1      39.738  31.733  35.184  1.00  0.00     0.037 A 
BRANCH  55  69
ATOM     69  C   UNL A   1      37.325  31.130  29.525  1.00  0.00     0.057 A 
ATOM     70  C   UNL A   1      36.255  30.272  29.233  1.00  0.00     0.134 A 
ATOM     71  C   UNL A   1      37.339  32.379  28.892  1.00  0.00     0.134 A 
ATOM     72  F   UNL A   1      36.189  29.055  29.796  1.00  0.00    -0.206 F 
ATOM     73  C   UNL A   1      35.257  30.628  28.326  1.00  0.00     0.040 A 
ATOM     74  C   UNL A   1      36.331  32.758  28.002  1.00  0.00     0.040 A 
ATOM     75  F   UNL A   1      38.329  33.252  29.129  1.00  0.00    -0.206 F 
ATOM     76  C   UNL A   1      35.290  31.879  27.712  1.00  0.00     0.006 A 
ENDBRANCH  55  69
BRANCH  56  77
ATOM     77  C   UNL A   1      44.856  28.524  35.546  1.00  0.00     0.057 A 
ATOM     78  C   UNL A   1      44.760  27.402  36.377  1.00  0.00     0.134 A 
ATOM     79  C   UNL A   1      46.040  29.268  35.597  1.00  0.00     0.134 A 
ATOM     80  F   UNL A   1      43.645  26.659  36.382  1.00  0.00    -0.206 F 
ATOM     81  C   UNL A   1      45.794  27.045  37.244  1.00  0.00     0.040 A 
ATOM     82  C   UNL A   1      47.091  28.909  36.443  1.00  0.00     0.040 A 
ATOM     83  F   UNL A   1      46.197  30.347  34.816  1.00  0.00    -0.206 F 
ATOM     84  C   UNL A   1      46.965  27.797  37.275  1.00  0.00     0.006 A 
ENDBRANCH  56  77
BRANCH  68  85
ATOM     85  C   UNL A   1      39.212  32.498  36.361  1.00  0.00     0.057 A 
ATOM     86  C   UNL A   1      38.262  31.950  37.233  1.00  0.00     0.134 A 
ATOM     87  C   UNL A   1      39.666  33.796  36.628  1.00  0.00     0.134 A 
ATOM     88  F   UNL A   1      37.778  30.717  37.023  1.00  0.00    -0.206 F 
ATOM     89  C   UNL A   1      37.755  32.680  38.309  1.00  0.00     0.040 A 
ATOM     90  C   UNL A   1      39.186  34.525  37.716  1.00  0.00     0.040 A 
ATOM     91  F   UNL A   1      40.582  34.374  35.837  1.00  0.00    -0.206 F 
ATOM     92  C   UNL A   1      38.221  33.970  38.556  1.00  0.00     0.006 A 
ENDBRANCH  68  85
ENDBRANCH  42  43
ENDBRANCH  34  37
ENDBRANCH  32  33
ENDBRANCH   1  32
TORSDOF 12
ENDMDL
