MODEL 1
REMARK VINA RESULT:     -12.9      0.000      0.000
REMARK SMILES COc1ccc(-c2ccc3n(c2=O)C[C@H]2C[C@@H]3CN(C(=O)CCCC(=O)NCCCNC(=O)c3ccc(-c4c5nc(c(-c6c(F)cccc6F)c6ccc([nH]6)c(-c6c(F)cccc6F)c6nc(c(-c7c(F)cccc7F)c7ccc4[nH]7)C=C6)C=C5)cc3)C2)cc1
REMARK SMILES IDX 25 1 26 2 27 3 24 5 23 6 22 7 20 8 21 9 19 10 7 11 8 12
REMARK SMILES IDX 12 13 9 14 11 15 13 16 10 17 14 18 17 19 15 20 16 21 18 22
REMARK SMILES IDX 88 23 6 24 3 25 4 26 90 27 5 28 89 29 2 30 1 31 28 32 29 33
REMARK SMILES IDX 30 34 31 35 32 36 33 38 34 39 35 40 87 41 36 42 86 43 37 44
REMARK SMILES IDX 38 45 39 46 80 47 40 48 85 49 79 50 81 51 41 52 84 53 78 54
REMARK SMILES IDX 77 55 42 57 68 58 51 59 67 60 52 61 55 62 66 63 82 64 53 65
REMARK SMILES IDX 54 66 65 68 83 69 56 70 43 71 44 72 49 73 45 74 46 75 48 76
REMARK SMILES IDX 50 77 47 78 69 79 70 80 75 81 71 82 72 83 74 84 76 85 73 86
REMARK SMILES IDX 57 87 58 88 63 89 59 90 60 91 62 92 64 93 61 94
REMARK H PARENT 27 4 31 37 81 56 55 67
REMARK Flexibility Score: inf
ROOT
ATOM      1  C   UNL A   1      37.202  23.353  25.709  1.00  0.00     0.220 C 
ATOM      2  O   UNL A   1      37.991  24.201  26.139  1.00  0.00    -0.275 OA
ATOM      3  N   UNL A   1      37.774  22.280  25.107  1.00  0.00    -0.356 N 
ATOM      4  H   UNL A   1      38.746  22.367  24.974  1.00  0.00     0.163 HD
ENDROOT
BRANCH   1   5
ATOM      5  C   UNL A   1      35.702  23.521  25.962  1.00  0.00     0.100 C 
BRANCH   5   6
ATOM      6  C   UNL A   1      34.917  24.650  25.304  1.00  0.00     0.020 C 
BRANCH   6   7
ATOM      7  C   UNL A   1      33.839  25.441  26.045  1.00  0.00     0.101 C 
BRANCH   7   8
ATOM      8  C   UNL A   1      33.527  26.910  25.738  1.00  0.00     0.222 C 
ATOM      9  O   UNL A   1      34.033  27.753  26.492  1.00  0.00    -0.275 OA
BRANCH   8  10
ATOM     10  N   UNL A   1      32.861  27.317  24.584  1.00  0.00    -0.342 N 
ATOM     11  C   UNL A   1      32.210  22.472  23.627  1.00  0.00     0.047 A 
ATOM     12  C   UNL A   1      31.122  22.879  24.300  1.00  0.00     0.016 A 
ATOM     13  C   UNL A   1      32.956  23.468  22.783  1.00  0.00     0.258 A 
ATOM     14  C   UNL A   1      30.648  24.231  24.207  1.00  0.00     0.023 A 
ATOM     15  N   UNL A   1      32.424  24.764  22.732  1.00  0.00    -0.311 N 
ATOM     16  O   UNL A   1      33.966  23.136  22.163  1.00  0.00    -0.269 OA
ATOM     17  C   UNL A   1      31.277  25.132  23.437  1.00  0.00     0.026 A 
ATOM     18  C   UNL A   1      33.105  25.699  21.842  1.00  0.00     0.131 C 
ATOM     19  C   UNL A   1      30.802  26.575  23.407  1.00  0.00     0.056 C 
ATOM     20  C   UNL A   1      32.749  27.173  22.048  1.00  0.00     0.029 C 
ATOM     21  C   UNL A   1      31.237  27.291  22.128  1.00  0.00     0.019 C 
ATOM     22  C   UNL A   1      31.394  27.320  24.615  1.00  0.00     0.129 C 
ATOM     23  C   UNL A   1      33.410  27.764  23.307  1.00  0.00     0.125 C 
BRANCH  11  24
ATOM     24  C   UNL A   1      32.617  21.062  23.670  1.00  0.00    -0.013 A 
ATOM     25  C   UNL A   1      33.299  18.354  23.884  1.00  0.00     0.118 A 
ATOM     26  C   UNL A   1      32.504  18.793  22.826  1.00  0.00     0.047 A 
ATOM     27  C   UNL A   1      33.799  19.270  24.807  1.00  0.00     0.047 A 
ATOM     28  C   UNL A   1      32.153  20.142  22.724  1.00  0.00     0.013 A 
ATOM     29  C   UNL A   1      33.454  20.617  24.703  1.00  0.00     0.013 A 
BRANCH  25  30
ATOM     30  O   UNL A   1      33.572  17.013  23.926  1.00  0.00    -0.497 OA
ATOM     31  C   UNL A   1      33.099  16.380  25.113  1.00  0.00     0.278 C 
ENDBRANCH  25  30
ENDBRANCH  11  24
ENDBRANCH   8  10
ENDBRANCH   7   8
ENDBRANCH   6   7
ENDBRANCH   5   6
ENDBRANCH   1   5
BRANCH   3  32
ATOM     32  C   UNL A   1      37.228  21.040  24.625  1.00  0.00     0.117 C 
BRANCH  32  33
ATOM     33  C   UNL A   1      38.040  19.819  24.999  1.00  0.00     0.042 C 
BRANCH  33  34
ATOM     34  C   UNL A   1      39.285  20.199  25.767  1.00  0.00     0.118 C 
BRANCH  34  35
ATOM     35  N   UNL A   1      40.245  19.099  25.876  1.00  0.00    -0.352 N 
ATOM     36  C   UNL A   1      41.601  19.158  26.117  1.00  0.00     0.251 C 
ATOM     37  H   UNL A   1      39.872  18.195  25.760  1.00  0.00     0.163 HD
ATOM     38  O   UNL A   1      42.290  18.146  26.060  1.00  0.00    -0.269 OA
BRANCH  36  39
ATOM     39  C   UNL A   1      42.214  20.472  26.399  1.00  0.00     0.039 A 
ATOM     40  C   UNL A   1      42.659  21.270  25.343  1.00  0.00     0.014 A 
ATOM     41  C   UNL A   1      42.240  20.953  27.708  1.00  0.00     0.014 A 
ATOM     42  C   UNL A   1      43.032  22.592  25.595  1.00  0.00     0.010 A 
ATOM     43  C   UNL A   1      42.471  22.299  27.932  1.00  0.00     0.010 A 
ATOM     44  C   UNL A   1      42.886  23.133  26.883  1.00  0.00    -0.014 A 
BRANCH  44  45
ATOM     45  C   UNL A   1      43.199  24.550  27.197  1.00  0.00     0.031 A 
ATOM     46  C   UNL A   1      44.636  25.002  27.156  1.00  0.00     0.074 A 
ATOM     47  C   UNL A   1      42.233  25.390  27.616  1.00  0.00     0.049 A 
ATOM     48  N   UNL A   1      45.168  26.116  27.587  1.00  0.00    -0.248 NA
ATOM     49  C   UNL A   1      45.614  24.044  26.610  1.00  0.00     0.031 C 
ATOM     50  C   UNL A   1      40.813  25.059  27.759  1.00  0.00     0.029 A 
ATOM     51  N   UNL A   1      42.307  26.699  28.024  1.00  0.00    -0.354 N 
ATOM     52  C   UNL A   1      46.537  25.973  27.399  1.00  0.00     0.074 A 
ATOM     53  C   UNL A   1      46.762  24.640  26.887  1.00  0.00     0.031 C 
ATOM     54  C   UNL A   1      40.149  26.142  28.197  1.00  0.00     0.029 A 
ATOM     55  C   UNL A   1      41.098  27.229  28.409  1.00  0.00     0.049 A 
ATOM     56  H   UNL A   1      43.148  27.211  28.039  1.00  0.00     0.167 HD
ATOM     57  C   UNL A   1      47.519  26.882  27.593  1.00  0.00     0.037 A 
ATOM     58  C   UNL A   1      40.798  28.451  28.888  1.00  0.00     0.037 A 
ATOM     59  C   UNL A   1      47.284  28.228  28.036  1.00  0.00     0.049 A 
ATOM     60  C   UNL A   1      41.902  29.460  29.056  1.00  0.00     0.074 A 
ATOM     61  C   UNL A   1      48.200  29.248  28.222  1.00  0.00     0.029 A 
ATOM     62  N   UNL A   1      46.035  28.747  28.339  1.00  0.00    -0.354 N 
ATOM     63  N   UNL A   1      43.188  29.322  28.837  1.00  0.00    -0.248 NA
ATOM     64  C   UNL A   1      41.514  30.796  29.529  1.00  0.00     0.031 C 
ATOM     65  C   UNL A   1      47.505  30.382  28.652  1.00  0.00     0.029 A 
ATOM     66  C   UNL A   1      46.154  30.077  28.701  1.00  0.00     0.049 A 
ATOM     67  H   UNL A   1      45.189  28.244  28.301  1.00  0.00     0.167 HD
ATOM     68  C   UNL A   1      43.754  30.559  29.111  1.00  0.00     0.074 A 
ATOM     69  C   UNL A   1      42.672  31.439  29.501  1.00  0.00     0.031 C 
ATOM     70  C   UNL A   1      45.054  30.937  29.050  1.00  0.00     0.037 A 
BRANCH  57  71
ATOM     71  C   UNL A   1      48.925  26.458  27.289  1.00  0.00     0.057 A 
ATOM     72  C   UNL A   1      49.461  26.571  25.998  1.00  0.00     0.134 A 
ATOM     73  C   UNL A   1      49.759  25.953  28.293  1.00  0.00     0.134 A 
ATOM     74  F   UNL A   1      48.707  27.029  24.987  1.00  0.00    -0.206 F 
ATOM     75  C   UNL A   1      50.767  26.172  25.712  1.00  0.00     0.040 A 
ATOM     76  C   UNL A   1      51.078  25.579  28.025  1.00  0.00     0.040 A 
ATOM     77  F   UNL A   1      49.311  25.821  29.550  1.00  0.00    -0.206 F 
ATOM     78  C   UNL A   1      51.582  25.682  26.730  1.00  0.00     0.006 A 
ENDBRANCH  57  71
BRANCH  58  79
ATOM     79  C   UNL A   1      39.395  28.805  29.225  1.00  0.00     0.057 A 
ATOM     80  C   UNL A   1      38.554  29.398  28.275  1.00  0.00     0.134 A 
ATOM     81  C   UNL A   1      38.869  28.593  30.505  1.00  0.00     0.134 A 
ATOM     82  F   UNL A   1      39.003  29.642  27.034  1.00  0.00    -0.206 F 
ATOM     83  C   UNL A   1      37.254  29.797  28.593  1.00  0.00     0.040 A 
ATOM     84  C   UNL A   1      37.563  28.964  30.829  1.00  0.00     0.040 A 
ATOM     85  F   UNL A   1      39.619  28.021  31.458  1.00  0.00    -0.206 F 
ATOM     86  C   UNL A   1      36.755  29.578  29.875  1.00  0.00     0.006 A 
ENDBRANCH  58  79
BRANCH  70  87
ATOM     87  C   UNL A   1      45.370  32.370  29.352  1.00  0.00     0.057 A 
ATOM     88  C   UNL A   1      45.329  33.360  28.365  1.00  0.00     0.134 A 
ATOM     89  C   UNL A   1      45.659  32.768  30.664  1.00  0.00     0.134 A 
ATOM     90  F   UNL A   1      45.068  33.037  27.089  1.00  0.00    -0.206 F 
ATOM     91  C   UNL A   1      45.582  34.698  28.667  1.00  0.00     0.040 A 
ATOM     92  C   UNL A   1      45.890  34.106  30.983  1.00  0.00     0.040 A 
ATOM     93  F   UNL A   1      45.703  31.867  31.656  1.00  0.00    -0.206 F 
ATOM     94  C   UNL A   1      45.855  35.075  29.982  1.00  0.00     0.006 A 
ENDBRANCH  70  87
ENDBRANCH  44  45
ENDBRANCH  36  39
ENDBRANCH  34  35
ENDBRANCH  33  34
ENDBRANCH  32  33
ENDBRANCH   3  32
TORSDOF 16
ENDMDL
MODEL 2
REMARK VINA RESULT:     -12.9      4.760     10.136
REMARK SMILES COc1ccc(-c2ccc3n(c2=O)C[C@H]2C[C@@H]3CN(C(=O)CCCC(=O)NCCCNC(=O)c3ccc(-c4c5nc(c(-c6c(F)cccc6F)c6ccc([nH]6)c(-c6c(F)cccc6F)c6nc(c(-c7c(F)cccc7F)c7ccc4[nH]7)C=C6)C=C5)cc3)C2)cc1
REMARK SMILES IDX 25 1 26 2 27 3 24 5 23 6 22 7 20 8 21 9 19 10 7 11 8 12
REMARK SMILES IDX 12 13 9 14 11 15 13 16 10 17 14 18 17 19 15 20 16 21 18 22
REMARK SMILES IDX 88 23 6 24 3 25 4 26 90 27 5 28 89 29 2 30 1 31 28 32 29 33
REMARK SMILES IDX 30 34 31 35 32 36 33 38 34 39 35 40 87 41 36 42 86 43 37 44
REMARK SMILES IDX 38 45 39 46 80 47 40 48 85 49 79 50 81 51 41 52 84 53 78 54
REMARK SMILES IDX 77 55 42 57 68 58 51 59 67 60 52 61 55 62 66 63 82 64 53 65
REMARK SMILES IDX 54 66 65 68 83 69 56 70 43 71 44 72 49 73 45 74 46 75 48 76
REMARK SMILES IDX 50 77 47 78 69 79 70 80 75 81 71 82 72 83 74 84 76 85 73 86
REMARK SMILES IDX 57 87 58 88 63 89 59 90 60 91 62 92 64 93 61 94
REMARK H PARENT 27 4 31 37 81 56 55 67
REMARK Flexibility Score: inf
ROOT
ATOM      1  C   UNL A   1      33.921  29.212  26.459  1.00  0.00     0.220 C 
ATOM      2  O   UNL A   1      35.058  29.234  26.941  1.00  0.00    -0.275 OA
ATOM      3  N   UNL A   1      33.122  30.253  26.804  1.00  0.00    -0.356 N 
ATOM      4  H   UNL A   1      33.505  30.837  27.499  1.00  0.00     0.163 HD
ENDROOT
BRANCH   1   5
ATOM      5  C   UNL A   1      33.542  28.105  25.472  1.00  0.00     0.100 C 
BRANCH   5   6
ATOM      6  C   UNL A   1      33.744  26.636  25.824  1.00  0.00     0.020 C 
BRANCH   6   7
ATOM      7  C   UNL A   1      34.403  25.644  24.864  1.00  0.00     0.101 C 
BRANCH   7   8
ATOM      8  C   UNL A   1      34.943  24.283  25.318  1.00  0.00     0.222 C 
ATOM      9  O   UNL A   1      36.153  24.225  25.574  1.00  0.00    -0.275 OA
BRANCH   8  10
ATOM     10  N   UNL A   1      34.117  23.199  25.602  1.00  0.00    -0.342 N 
ATOM     11  C   UNL A   1      30.367  26.011  23.918  1.00  0.00     0.047 A 
ATOM     12  C   UNL A   1      30.809  25.296  22.871  1.00  0.00     0.016 A 
ATOM     13  C   UNL A   1      30.520  25.445  25.301  1.00  0.00     0.258 A 
ATOM     14  C   UNL A   1      31.396  23.998  23.048  1.00  0.00     0.023 A 
ATOM     15  N   UNL A   1      31.090  24.167  25.392  1.00  0.00    -0.311 N 
ATOM     16  O   UNL A   1      30.141  26.078  26.287  1.00  0.00    -0.269 OA
ATOM     17  C   UNL A   1      31.517  23.455  24.269  1.00  0.00     0.026 A 
ATOM     18  C   UNL A   1      31.155  23.590  26.730  1.00  0.00     0.131 C 
ATOM     19  C   UNL A   1      32.205  22.111  24.443  1.00  0.00     0.056 C 
ATOM     20  C   UNL A   1      32.074  22.375  26.874  1.00  0.00     0.029 C 
ATOM     21  C   UNL A   1      31.777  21.415  25.735  1.00  0.00     0.019 C 
ATOM     22  C   UNL A   1      33.727  22.333  24.483  1.00  0.00     0.129 C 
ATOM     23  C   UNL A   1      33.564  22.766  26.883  1.00  0.00     0.125 C 
BRANCH  11  24
ATOM     24  C   UNL A   1      29.688  27.295  23.697  1.00  0.00    -0.013 A 
ATOM     25  C   UNL A   1      28.462  29.748  23.128  1.00  0.00     0.118 A 
ATOM     26  C   UNL A   1      27.693  28.589  23.231  1.00  0.00     0.047 A 
ATOM     27  C   UNL A   1      29.834  29.696  23.361  1.00  0.00     0.047 A 
ATOM     28  C   UNL A   1      28.304  27.362  23.503  1.00  0.00     0.013 A 
ATOM     29  C   UNL A   1      30.445  28.474  23.638  1.00  0.00     0.013 A 
BRANCH  25  30
ATOM     30  O   UNL A   1      27.788  30.902  22.831  1.00  0.00    -0.497 OA
ATOM     31  C   UNL A   1      28.473  31.725  21.889  1.00  0.00     0.278 C 
ENDBRANCH  25  30
ENDBRANCH  11  24
ENDBRANCH   8  10
ENDBRANCH   7   8
ENDBRANCH   6   7
ENDBRANCH   5   6
ENDBRANCH   1   5
BRANCH   3  32
ATOM     32  C   UNL A   1      31.821  30.662  26.348  1.00  0.00     0.117 C 
BRANCH  32  33
ATOM     33  C   UNL A   1      31.482  32.104  26.661  1.00  0.00     0.042 C 
BRANCH  33  34
ATOM     34  C   UNL A   1      32.605  32.785  27.409  1.00  0.00     0.118 C 
BRANCH  34  35
ATOM     35  N   UNL A   1      32.341  34.202  27.665  1.00  0.00    -0.352 N 
ATOM     36  C   UNL A   1      32.947  35.042  28.575  1.00  0.00     0.251 C 
ATOM     37  H   UNL A   1      31.634  34.610  27.114  1.00  0.00     0.163 HD
ATOM     38  O   UNL A   1      32.527  36.180  28.751  1.00  0.00    -0.269 OA
BRANCH  36  39
ATOM     39  C   UNL A   1      34.082  34.527  29.367  1.00  0.00     0.039 A 
ATOM     40  C   UNL A   1      33.844  33.888  30.586  1.00  0.00     0.014 A 
ATOM     41  C   UNL A   1      35.372  34.582  28.839  1.00  0.00     0.014 A 
ATOM     42  C   UNL A   1      34.889  33.213  31.221  1.00  0.00     0.010 A 
ATOM     43  C   UNL A   1      36.367  33.795  29.393  1.00  0.00     0.010 A 
ATOM     44  C   UNL A   1      36.144  33.114  30.599  1.00  0.00    -0.014 A 
BRANCH  44  45
ATOM     45  C   UNL A   1      37.273  32.351  31.191  1.00  0.00     0.031 A 
ATOM     46  C   UNL A   1      37.867  32.827  32.491  1.00  0.00     0.074 A 
ATOM     47  C   UNL A   1      37.827  31.319  30.526  1.00  0.00     0.049 A 
ATOM     48  N   UNL A   1      38.972  32.456  33.084  1.00  0.00    -0.248 NA
ATOM     49  C   UNL A   1      37.149  33.910  33.189  1.00  0.00     0.031 C 
ATOM     50  C   UNL A   1      37.386  30.799  29.230  1.00  0.00     0.029 A 
ATOM     51  N   UNL A   1      38.906  30.532  30.845  1.00  0.00    -0.354 N 
ATOM     52  C   UNL A   1      39.096  33.283  34.194  1.00  0.00     0.074 A 
ATOM     53  C   UNL A   1      38.000  34.223  34.152  1.00  0.00     0.031 C 
ATOM     54  C   UNL A   1      38.170  29.767  28.878  1.00  0.00     0.029 A 
ATOM     55  C   UNL A   1      39.196  29.579  29.898  1.00  0.00     0.049 A 
ATOM     56  H   UNL A   1      39.424  30.641  31.675  1.00  0.00     0.167 HD
ATOM     57  C   UNL A   1      40.017  33.239  35.183  1.00  0.00     0.037 A 
ATOM     58  C   UNL A   1      40.185  28.666  29.857  1.00  0.00     0.037 A 
ATOM     59  C   UNL A   1      41.065  32.260  35.257  1.00  0.00     0.049 A 
ATOM     60  C   UNL A   1      41.172  28.610  30.992  1.00  0.00     0.074 A 
ATOM     61  C   UNL A   1      42.023  32.093  36.240  1.00  0.00     0.029 A 
ATOM     62  N   UNL A   1      41.273  31.262  34.317  1.00  0.00    -0.354 N 
ATOM     63  N   UNL A   1      41.254  29.374  32.055  1.00  0.00    -0.248 NA
ATOM     64  C   UNL A   1      42.198  27.560  30.928  1.00  0.00     0.031 C 
ATOM     65  C   UNL A   1      42.822  31.002  35.887  1.00  0.00     0.029 A 
ATOM     66  C   UNL A   1      42.339  30.470  34.702  1.00  0.00     0.049 A 
ATOM     67  H   UNL A   1      40.741  31.137  33.498  1.00  0.00     0.167 HD
ATOM     68  C   UNL A   1      42.315  28.877  32.799  1.00  0.00     0.074 A 
ATOM     69  C   UNL A   1      42.839  27.739  32.074  1.00  0.00     0.031 C 
ATOM     70  C   UNL A   1      42.816  29.322  33.977  1.00  0.00     0.037 A 
BRANCH  57  71
ATOM     71  C   UNL A   1      39.901  34.255  36.280  1.00  0.00     0.057 A 
ATOM     72  C   UNL A   1      40.520  35.509  36.185  1.00  0.00     0.134 A 
ATOM     73  C   UNL A   1      39.151  33.991  37.432  1.00  0.00     0.134 A 
ATOM     74  F   UNL A   1      41.270  35.818  35.117  1.00  0.00    -0.206 F 
ATOM     75  C   UNL A   1      40.418  36.454  37.207  1.00  0.00     0.040 A 
ATOM     76  C   UNL A   1      39.016  34.939  38.448  1.00  0.00     0.040 A 
ATOM     77  F   UNL A   1      38.531  32.811  37.586  1.00  0.00    -0.206 F 
ATOM     78  C   UNL A   1      39.657  36.172  38.339  1.00  0.00     0.006 A 
ENDBRANCH  57  71
BRANCH  58  79
ATOM     79  C   UNL A   1      40.287  27.715  28.721  1.00  0.00     0.057 A 
ATOM     80  C   UNL A   1      41.026  28.037  27.575  1.00  0.00     0.134 A 
ATOM     81  C   UNL A   1      39.625  26.481  28.732  1.00  0.00     0.134 A 
ATOM     82  F   UNL A   1      41.669  29.212  27.496  1.00  0.00    -0.206 F 
ATOM     83  C   UNL A   1      41.078  27.184  26.472  1.00  0.00     0.040 A 
ATOM     84  C   UNL A   1      39.690  25.607  27.645  1.00  0.00     0.040 A 
ATOM     85  F   UNL A   1      38.908  26.108  29.802  1.00  0.00    -0.206 F 
ATOM     86  C   UNL A   1      40.410  25.962  26.507  1.00  0.00     0.006 A 
ENDBRANCH  58  79
BRANCH  70  87
ATOM     87  C   UNL A   1      43.945  28.545  34.582  1.00  0.00     0.057 A 
ATOM     88  C   UNL A   1      45.283  28.879  34.344  1.00  0.00     0.134 A 
ATOM     89  C   UNL A   1      43.684  27.487  35.462  1.00  0.00     0.134 A 
ATOM     90  F   UNL A   1      45.595  29.876  33.502  1.00  0.00    -0.206 F 
ATOM     91  C   UNL A   1      46.325  28.175  34.948  1.00  0.00     0.040 A 
ATOM     92  C   UNL A   1      44.716  26.792  36.091  1.00  0.00     0.040 A 
ATOM     93  F   UNL A   1      42.421  27.127  35.739  1.00  0.00    -0.206 F 
ATOM     94  C   UNL A   1      46.042  27.134  35.832  1.00  0.00     0.006 A 
ENDBRANCH  70  87
ENDBRANCH  44  45
ENDBRANCH  36  39
ENDBRANCH  34  35
ENDBRANCH  33  34
ENDBRANCH  32  33
ENDBRANCH   3  32
TORSDOF 16
ENDMDL
MODEL 3
REMARK VINA RESULT:     -12.7      0.330      1.375
REMARK SMILES COc1ccc(-c2ccc3n(c2=O)C[C@H]2C[C@@H]3CN(C(=O)CCCC(=O)NCCCNC(=O)c3ccc(-c4c5nc(c(-c6c(F)cccc6F)c6ccc([nH]6)c(-c6c(F)cccc6F)c6nc(c(-c7c(F)cccc7F)c7ccc4[nH]7)C=C6)C=C5)cc3)C2)cc1
REMARK SMILES IDX 25 1 26 2 27 3 24 5 23 6 22 7 20 8 21 9 19 10 7 11 8 12
REMARK SMILES IDX 12 13 9 14 11 15 13 16 10 17 14 18 17 19 15 20 16 21 18 22
REMARK SMILES IDX 88 23 6 24 3 25 4 26 90 27 5 28 89 29 2 30 1 31 28 32 29 33
REMARK SMILES IDX 30 34 31 35 32 36 33 38 34 39 35 40 87 41 36 42 86 43 37 44
REMARK SMILES IDX 38 45 39 46 80 47 40 48 85 49 79 50 81 51 41 52 84 53 78 54
REMARK SMILES IDX 77 55 42 57 68 58 51 59 67 60 52 61 55 62 66 63 82 64 53 65
REMARK SMILES IDX 54 66 65 68 83 69 56 70 43 71 44 72 49 73 45 74 46 75 48 76
REMARK SMILES IDX 50 77 47 78 69 79 70 80 75 81 71 82 72 83 74 84 76 85 73 86
REMARK SMILES IDX 57 87 58 88 63 89 59 90 60 91 62 92 64 93 61 94
REMARK H PARENT 27 4 31 37 81 56 55 67
REMARK Flexibility Score: inf
ROOT
ATOM      1  C   UNL A   1      37.147  23.378  25.730  1.00  0.00     0.220 C 
ATOM      2  O   UNL A   1      37.836  24.194  26.351  1.00  0.00    -0.275 OA
ATOM      3  N   UNL A   1      37.830  22.344  25.177  1.00  0.00    -0.356 N 
ATOM      4  H   UNL A   1      38.809  22.435  25.232  1.00  0.00     0.163 HD
ENDROOT
BRANCH   1   5
ATOM      5  C   UNL A   1      35.626  23.536  25.710  1.00  0.00     0.100 C 
BRANCH   5   6
ATOM      6  C   UNL A   1      34.975  24.809  25.182  1.00  0.00     0.020 C 
BRANCH   6   7
ATOM      7  C   UNL A   1      34.018  25.652  26.025  1.00  0.00     0.101 C 
BRANCH   7   8
ATOM      8  C   UNL A   1      33.621  27.085  25.648  1.00  0.00     0.222 C 
ATOM      9  O   UNL A   1      34.315  27.994  26.123  1.00  0.00    -0.275 OA
BRANCH   8  10
ATOM     10  N   UNL A   1      32.652  27.374  24.691  1.00  0.00    -0.342 N 
ATOM     11  C   UNL A   1      32.140  22.447  24.170  1.00  0.00     0.047 A 
ATOM     12  C   UNL A   1      31.235  22.832  25.085  1.00  0.00     0.016 A 
ATOM     13  C   UNL A   1      32.566  23.428  23.114  1.00  0.00     0.258 A 
ATOM     14  C   UNL A   1      30.653  24.143  25.055  1.00  0.00     0.023 A 
ATOM     15  N   UNL A   1      31.944  24.684  23.142  1.00  0.00    -0.311 N 
ATOM     16  O   UNL A   1      33.403  23.117  22.267  1.00  0.00    -0.269 OA
ATOM     17  C   UNL A   1      30.993  25.028  24.104  1.00  0.00     0.026 A 
ATOM     18  C   UNL A   1      32.299  25.597  22.061  1.00  0.00     0.131 C 
ATOM     19  C   UNL A   1      30.419  26.435  24.131  1.00  0.00     0.056 C 
ATOM     20  C   UNL A   1      31.899  27.058  22.283  1.00  0.00     0.029 C 
ATOM     21  C   UNL A   1      30.454  27.090  22.751  1.00  0.00     0.019 C 
ATOM     22  C   UNL A   1      31.246  27.291  25.105  1.00  0.00     0.129 C 
ATOM     23  C   UNL A   1      32.817  27.769  23.295  1.00  0.00     0.125 C 
BRANCH  11  24
ATOM     24  C   UNL A   1      32.648  21.070  24.172  1.00  0.00    -0.013 A 
ATOM     25  C   UNL A   1      33.692  18.474  24.036  1.00  0.00     0.118 A 
ATOM     26  C   UNL A   1      34.158  19.365  25.002  1.00  0.00     0.047 A 
ATOM     27  C   UNL A   1      32.668  18.856  23.172  1.00  0.00     0.047 A 
ATOM     28  C   UNL A   1      33.647  20.664  25.064  1.00  0.00     0.013 A 
ATOM     29  C   UNL A   1      32.153  20.151  23.237  1.00  0.00     0.013 A 
BRANCH  25  30
ATOM     30  O   UNL A   1      34.265  17.231  24.026  1.00  0.00    -0.497 OA
ATOM     31  C   UNL A   1      33.401  16.209  24.519  1.00  0.00     0.278 C 
ENDBRANCH  25  30
ENDBRANCH  11  24
ENDBRANCH   8  10
ENDBRANCH   7   8
ENDBRANCH   6   7
ENDBRANCH   5   6
ENDBRANCH   1   5
BRANCH   3  32
ATOM     32  C   UNL A   1      37.392  21.139  24.524  1.00  0.00     0.117 C 
BRANCH  32  33
ATOM     33  C   UNL A   1      38.095  19.887  25.001  1.00  0.00     0.042 C 
BRANCH  33  34
ATOM     34  C   UNL A   1      39.298  20.220  25.853  1.00  0.00     0.118 C 
BRANCH  34  35
ATOM     35  N   UNL A   1      40.270  19.127  25.918  1.00  0.00    -0.352 N 
ATOM     36  C   UNL A   1      41.630  19.194  26.128  1.00  0.00     0.251 C 
ATOM     37  H   UNL A   1      39.902  18.222  25.796  1.00  0.00     0.163 HD
ATOM     38  O   UNL A   1      42.327  18.189  26.034  1.00  0.00    -0.269 OA
BRANCH  36  39
ATOM     39  C   UNL A   1      42.239  20.507  26.417  1.00  0.00     0.039 A 
ATOM     40  C   UNL A   1      42.718  21.296  25.369  1.00  0.00     0.014 A 
ATOM     41  C   UNL A   1      42.228  20.999  27.723  1.00  0.00     0.014 A 
ATOM     42  C   UNL A   1      43.088  22.619  25.622  1.00  0.00     0.010 A 
ATOM     43  C   UNL A   1      42.457  22.346  27.943  1.00  0.00     0.010 A 
ATOM     44  C   UNL A   1      42.905  23.170  26.900  1.00  0.00    -0.014 A 
BRANCH  44  45
ATOM     45  C   UNL A   1      43.214  24.589  27.213  1.00  0.00     0.031 A 
ATOM     46  C   UNL A   1      44.648  25.047  27.164  1.00  0.00     0.074 A 
ATOM     47  C   UNL A   1      42.246  25.424  27.638  1.00  0.00     0.049 A 
ATOM     48  N   UNL A   1      45.177  26.163  27.593  1.00  0.00    -0.248 NA
ATOM     49  C   UNL A   1      45.627  24.093  26.612  1.00  0.00     0.031 C 
ATOM     50  C   UNL A   1      40.828  25.087  27.788  1.00  0.00     0.029 A 
ATOM     51  N   UNL A   1      42.316  26.733  28.044  1.00  0.00    -0.354 N 
ATOM     52  C   UNL A   1      46.546  26.027  27.396  1.00  0.00     0.074 A 
ATOM     53  C   UNL A   1      46.774  24.695  26.884  1.00  0.00     0.031 C 
ATOM     54  C   UNL A   1      40.162  26.166  28.230  1.00  0.00     0.029 A 
ATOM     55  C   UNL A   1      41.107  27.258  28.437  1.00  0.00     0.049 A 
ATOM     56  H   UNL A   1      43.155  27.249  28.055  1.00  0.00     0.167 HD
ATOM     57  C   UNL A   1      47.525  26.941  27.586  1.00  0.00     0.037 A 
ATOM     58  C   UNL A   1      40.803  28.478  28.917  1.00  0.00     0.037 A 
ATOM     59  C   UNL A   1      47.286  28.285  28.030  1.00  0.00     0.049 A 
ATOM     60  C   UNL A   1      41.904  29.492  29.079  1.00  0.00     0.074 A 
ATOM     61  C   UNL A   1      48.198  29.310  28.211  1.00  0.00     0.029 A 
ATOM     62  N   UNL A   1      46.036  28.799  28.340  1.00  0.00    -0.354 N 
ATOM     63  N   UNL A   1      43.189  29.361  28.853  1.00  0.00    -0.248 NA
ATOM     64  C   UNL A   1      41.512  30.827  29.554  1.00  0.00     0.031 C 
ATOM     65  C   UNL A   1      47.500  30.440  28.645  1.00  0.00     0.029 A 
ATOM     66  C   UNL A   1      46.151  30.129  28.701  1.00  0.00     0.049 A 
ATOM     67  H   UNL A   1      45.192  28.292  28.307  1.00  0.00     0.167 HD
ATOM     68  C   UNL A   1      43.752  30.600  29.124  1.00  0.00     0.074 A 
ATOM     69  C   UNL A   1      42.668  31.475  29.520  1.00  0.00     0.031 C 
ATOM     70  C   UNL A   1      45.049  30.984  29.056  1.00  0.00     0.037 A 
BRANCH  57  71
ATOM     71  C   UNL A   1      48.931  26.523  27.274  1.00  0.00     0.057 A 
ATOM     72  C   UNL A   1      49.763  25.964  28.254  1.00  0.00     0.134 A 
ATOM     73  C   UNL A   1      49.454  26.660  25.983  1.00  0.00     0.134 A 
ATOM     74  F   UNL A   1      49.330  25.825  29.516  1.00  0.00    -0.206 F 
ATOM     75  C   UNL A   1      51.074  25.580  27.966  1.00  0.00     0.040 A 
ATOM     76  C   UNL A   1      50.753  26.251  25.676  1.00  0.00     0.040 A 
ATOM     77  F   UNL A   1      48.710  27.185  24.998  1.00  0.00    -0.206 F 
ATOM     78  C   UNL A   1      51.569  25.716  26.672  1.00  0.00     0.006 A 
ENDBRANCH  57  71
BRANCH  58  79
ATOM     79  C   UNL A   1      39.401  28.826  29.261  1.00  0.00     0.057 A 
ATOM     80  C   UNL A   1      38.559  29.436  28.323  1.00  0.00     0.134 A 
ATOM     81  C   UNL A   1      38.876  28.591  30.538  1.00  0.00     0.134 A 
ATOM     82  F   UNL A   1      39.007  29.703  27.087  1.00  0.00    -0.206 F 
ATOM     83  C   UNL A   1      37.260  29.829  28.650  1.00  0.00     0.040 A 
ATOM     84  C   UNL A   1      37.570  28.956  30.870  1.00  0.00     0.040 A 
ATOM     85  F   UNL A   1      39.627  28.001  31.479  1.00  0.00    -0.206 F 
ATOM     86  C   UNL A   1      36.762  29.586  29.928  1.00  0.00     0.006 A 
ENDBRANCH  58  79
BRANCH  70  87
ATOM     87  C   UNL A   1      45.360  32.418  29.357  1.00  0.00     0.057 A 
ATOM     88  C   UNL A   1      45.722  32.842  30.640  1.00  0.00     0.134 A 
ATOM     89  C   UNL A   1      45.354  33.373  28.332  1.00  0.00     0.134 A 
ATOM     90  F   UNL A   1      45.735  31.976  31.664  1.00  0.00    -0.206 F 
ATOM     91  C   UNL A   1      46.051  34.173  30.899  1.00  0.00     0.040 A 
ATOM     92  C   UNL A   1      45.705  34.701  28.573  1.00  0.00     0.040 A 
ATOM     93  F   UNL A   1      45.026  33.025  27.079  1.00  0.00    -0.206 F 
ATOM     94  C   UNL A   1      46.052  35.104  29.861  1.00  0.00     0.006 A 
ENDBRANCH  70  87
ENDBRANCH  44  45
ENDBRANCH  36  39
ENDBRANCH  34  35
ENDBRANCH  33  34
ENDBRANCH  32  33
ENDBRANCH   3  32
TORSDOF 16
ENDMDL
