MODEL 1
REMARK VINA RESULT:     -12.1      0.000      0.000
REMARK SMILES CC(C)Cc1cc2c(cc1Cl)C=C(C(=O)NCCCNC(=O)c1ccc(-c3c4nc(c(-c5c(F)cccc5F)c5ccc([nH]5)c(-c5c(F)cccc5F)c5nc(c(-c6c(F)cccc6F)c6ccc3[nH]6)C=C5)C=C4)cc1)[C@H](C(F)(F)F)O2
REMARK SMILES IDX 18 1 17 2 16 3 14 4 15 5 13 7 5 8 6 9 10 10 7 11 9 12 11 13
REMARK SMILES IDX 8 14 82 15 12 16 77 17 4 18 2 19 1 20 3 21 78 22 79 23 80 24
REMARK SMILES IDX 81 25 19 26 20 27 21 28 22 30 23 31 24 32 76 33 25 34 75 35
REMARK SMILES IDX 26 36 27 37 28 38 69 39 29 40 74 41 68 42 70 43 30 44 73 45
REMARK SMILES IDX 67 46 66 47 31 49 57 50 40 51 56 52 41 53 44 54 55 55 71 56
REMARK SMILES IDX 42 57 43 58 54 60 72 61 45 62 32 63 33 64 38 65 34 66 35 67
REMARK SMILES IDX 37 68 39 69 36 70 58 71 59 72 64 73 60 74 61 75 63 76 65 77
REMARK SMILES IDX 62 78 46 79 47 80 52 81 48 82 49 83 51 84 53 85 50 86
REMARK H PARENT 16 6 20 29 70 48 44 59
REMARK Flexibility Score: inf
ROOT
ATOM      1  C   UNL A   1      37.148  20.041  24.995  1.00  0.00     0.042 C 
ENDROOT
BRANCH   1   2
ATOM      2  C   UNL A   1      36.013  20.908  25.523  1.00  0.00     0.118 C 
BRANCH   2   3
ATOM      3  N   UNL A   1      34.788  20.708  24.765  1.00  0.00    -0.352 N 
ATOM      4  C   UNL A   1      33.685  21.419  24.442  1.00  0.00     0.251 C 
ATOM      5  O   UNL A   1      32.880  20.820  23.719  1.00  0.00    -0.270 OA
ATOM      6  H   UNL A   1      34.752  19.803  24.381  1.00  0.00     0.163 HD
BRANCH   4   7
ATOM      7  C   UNL A   1      33.387  22.813  24.876  1.00  0.00     0.067 C 
ATOM      8  C   UNL A   1      33.384  27.851  25.254  1.00  0.00    -0.025 A 
ATOM      9  C   UNL A   1      33.060  26.797  26.127  1.00  0.00     0.052 A 
ATOM     10  C   UNL A   1      33.768  27.535  23.939  1.00  0.00     0.045 A 
ATOM     11  C   UNL A   1      33.158  25.474  25.704  1.00  0.00     0.128 A 
ATOM     12  C   UNL A   1      33.923  26.203  23.543  1.00  0.00     0.032 A 
ATOM     13  Cl  UNL A   1      34.083  28.750  22.751  1.00  0.00    -0.084 Cl
ATOM     14  C   UNL A   1      33.639  25.170  24.434  1.00  0.00     0.019 A 
ATOM     15  O   UNL A   1      32.809  24.508  26.606  1.00  0.00    -0.475 OA
ATOM     16  C   UNL A   1      33.898  23.778  24.089  1.00  0.00     0.025 C 
ATOM     17  C   UNL A   1      32.518  23.196  26.041  1.00  0.00     0.314 C 
BRANCH   8  18
ATOM     18  C   UNL A   1      33.365  29.264  25.798  1.00  0.00     0.040 C 
BRANCH  18  19
ATOM     19  C   UNL A   1      31.940  29.774  26.111  1.00  0.00    -0.013 C 
ATOM     20  C   UNL A   1      31.927  31.164  26.751  1.00  0.00     0.008 C 
ATOM     21  C   UNL A   1      31.105  29.801  24.828  1.00  0.00     0.008 C 
ENDBRANCH  18  19
ENDBRANCH   8  18
BRANCH  17  22
ATOM     22  C   UNL A   1      31.016  23.048  25.737  1.00  0.00     0.429 C 
ATOM     23  F   UNL A   1      30.694  23.483  24.496  1.00  0.00    -0.167 F 
ATOM     24  F   UNL A   1      30.653  21.741  25.793  1.00  0.00    -0.167 F 
ATOM     25  F   UNL A   1      30.230  23.722  26.605  1.00  0.00    -0.167 F 
ENDBRANCH  17  22
ENDBRANCH   4   7
ENDBRANCH   2   3
ENDBRANCH   1   2
BRANCH   1  26
ATOM     26  C   UNL A   1      38.522  20.612  25.326  1.00  0.00     0.118 C 
BRANCH  26  27
ATOM     27  N   UNL A   1      39.518  19.564  25.520  1.00  0.00    -0.352 N 
ATOM     28  C   UNL A   1      40.822  19.647  25.946  1.00  0.00     0.251 C 
ATOM     29  H   UNL A   1      39.207  18.653  25.312  1.00  0.00     0.163 HD
ATOM     30  O   UNL A   1      41.570  18.682  25.808  1.00  0.00    -0.269 OA
BRANCH  28  31
ATOM     31  C   UNL A   1      41.332  20.896  26.548  1.00  0.00     0.039 A 
ATOM     32  C   UNL A   1      41.196  21.131  27.916  1.00  0.00     0.014 A 
ATOM     33  C   UNL A   1      41.963  21.844  25.738  1.00  0.00     0.014 A 
ATOM     34  C   UNL A   1      41.503  22.382  28.435  1.00  0.00     0.010 A 
ATOM     35  C   UNL A   1      42.377  23.062  26.286  1.00  0.00     0.010 A 
ATOM     36  C   UNL A   1      42.100  23.363  27.629  1.00  0.00    -0.014 A 
BRANCH  36  37
ATOM     37  C   UNL A   1      42.419  24.691  28.217  1.00  0.00     0.031 A 
ATOM     38  C   UNL A   1      43.837  25.062  28.558  1.00  0.00     0.074 A 
ATOM     39  C   UNL A   1      41.429  25.591  28.386  1.00  0.00     0.049 A 
ATOM     40  N   UNL A   1      44.303  26.181  29.056  1.00  0.00    -0.248 NA
ATOM     41  C   UNL A   1      44.869  24.042  28.318  1.00  0.00     0.031 C 
ATOM     42  C   UNL A   1      40.016  25.360  28.073  1.00  0.00     0.029 A 
ATOM     43  N   UNL A   1      41.462  26.888  28.828  1.00  0.00    -0.354 N 
ATOM     44  C   UNL A   1      45.670  25.990  29.212  1.00  0.00     0.074 A 
ATOM     45  C   UNL A   1      45.955  24.637  28.787  1.00  0.00     0.031 C 
ATOM     46  C   UNL A   1      39.332  26.498  28.263  1.00  0.00     0.029 A 
ATOM     47  C   UNL A   1      40.240  27.512  28.785  1.00  0.00     0.049 A 
ATOM     48  H   UNL A   1      42.283  27.329  29.145  1.00  0.00     0.167 HD
ATOM     49  C   UNL A   1      46.605  26.864  29.661  1.00  0.00     0.037 A 
ATOM     50  C   UNL A   1      39.885  28.759  29.141  1.00  0.00     0.037 A 
ATOM     51  C   UNL A   1      46.321  28.217  30.064  1.00  0.00     0.049 A 
ATOM     52  C   UNL A   1      40.928  29.680  29.702  1.00  0.00     0.074 A 
ATOM     53  C   UNL A   1      47.201  29.193  30.498  1.00  0.00     0.029 A 
ATOM     54  N   UNL A   1      45.054  28.785  30.088  1.00  0.00    -0.354 N 
ATOM     55  N   UNL A   1      42.219  29.492  29.828  1.00  0.00    -0.248 NA
ATOM     56  C   UNL A   1      40.458  30.984  30.188  1.00  0.00     0.031 C 
ATOM     57  C   UNL A   1      46.461  30.333  30.838  1.00  0.00     0.029 A 
ATOM     58  C   UNL A   1      45.125  30.085  30.564  1.00  0.00     0.049 A 
ATOM     59  H   UNL A   1      44.227  28.330  29.809  1.00  0.00     0.167 HD
ATOM     60  C   UNL A   1      42.719  30.660  30.386  1.00  0.00     0.074 A 
ATOM     61  C   UNL A   1      41.594  31.558  30.554  1.00  0.00     0.031 C 
ATOM     62  C   UNL A   1      43.995  30.964  30.730  1.00  0.00     0.037 A 
BRANCH  49  63
ATOM     63  C   UNL A   1      48.017  26.362  29.775  1.00  0.00     0.057 A 
ATOM     64  C   UNL A   1      48.897  26.464  28.689  1.00  0.00     0.134 A 
ATOM     65  C   UNL A   1      48.513  25.778  30.950  1.00  0.00     0.134 A 
ATOM     66  F   UNL A   1      48.489  27.003  27.531  1.00  0.00    -0.206 F 
ATOM     67  C   UNL A   1      50.217  26.017  28.770  1.00  0.00     0.040 A 
ATOM     68  C   UNL A   1      49.840  25.354  31.052  1.00  0.00     0.040 A 
ATOM     69  F   UNL A   1      47.729  25.659  32.033  1.00  0.00    -0.206 F 
ATOM     70  C   UNL A   1      50.695  25.470  29.959  1.00  0.00     0.006 A 
ENDBRANCH  49  63
BRANCH  50  71
ATOM     71  C   UNL A   1      38.480  29.211  28.986  1.00  0.00     0.057 A 
ATOM     72  C   UNL A   1      37.581  29.201  30.059  1.00  0.00     0.134 A 
ATOM     73  C   UNL A   1      38.010  29.687  27.756  1.00  0.00     0.134 A 
ATOM     74  F   UNL A   1      37.967  28.754  31.263  1.00  0.00    -0.206 F 
ATOM     75  C   UNL A   1      36.263  29.634  29.913  1.00  0.00     0.040 A 
ATOM     76  C   UNL A   1      36.703  30.151  27.603  1.00  0.00     0.040 A 
ATOM     77  F   UNL A   1      38.830  29.741  26.695  1.00  0.00    -0.206 F 
ATOM     78  C   UNL A   1      35.823  30.120  28.683  1.00  0.00     0.006 A 
ENDBRANCH  50  71
BRANCH  62  79
ATOM     79  C   UNL A   1      44.235  32.336  31.291  1.00  0.00     0.057 A 
ATOM     80  C   UNL A   1      44.494  33.417  30.441  1.00  0.00     0.134 A 
ATOM     81  C   UNL A   1      44.208  32.587  32.669  1.00  0.00     0.134 A 
ATOM     82  F   UNL A   1      44.541  33.245  29.111  1.00  0.00    -0.206 F 
ATOM     83  C   UNL A   1      44.713  34.702  30.940  1.00  0.00     0.040 A 
ATOM     84  C   UNL A   1      44.395  33.873  33.179  1.00  0.00     0.040 A 
ATOM     85  F   UNL A   1      43.946  31.598  33.537  1.00  0.00    -0.206 F 
ATOM     86  C   UNL A   1      44.655  34.934  32.313  1.00  0.00     0.006 A 
ENDBRANCH  62  79
ENDBRANCH  36  37
ENDBRANCH  28  31
ENDBRANCH  26  27
ENDBRANCH   1  26
TORSDOF 13
ENDMDL
MODEL 2
REMARK VINA RESULT:     -12.1      1.192      1.783
REMARK SMILES CC(C)Cc1cc2c(cc1Cl)C=C(C(=O)NCCCNC(=O)c1ccc(-c3c4nc(c(-c5c(F)cccc5F)c5ccc([nH]5)c(-c5c(F)cccc5F)c5nc(c(-c6c(F)cccc6F)c6ccc3[nH]6)C=C5)C=C4)cc1)[C@H](C(F)(F)F)O2
REMARK SMILES IDX 18 1 17 2 16 3 14 4 15 5 13 7 5 8 6 9 10 10 7 11 9 12 11 13
REMARK SMILES IDX 8 14 82 15 12 16 77 17 4 18 2 19 1 20 3 21 78 22 79 23 80 24
REMARK SMILES IDX 81 25 19 26 20 27 21 28 22 30 23 31 24 32 76 33 25 34 75 35
REMARK SMILES IDX 26 36 27 37 28 38 69 39 29 40 74 41 68 42 70 43 30 44 73 45
REMARK SMILES IDX 67 46 66 47 31 49 57 50 40 51 56 52 41 53 44 54 55 55 71 56
REMARK SMILES IDX 42 57 43 58 54 60 72 61 45 62 32 63 33 64 38 65 34 66 35 67
REMARK SMILES IDX 37 68 39 69 36 70 58 71 59 72 64 73 60 74 61 75 63 76 65 77
REMARK SMILES IDX 62 78 46 79 47 80 52 81 48 82 49 83 51 84 53 85 50 86
REMARK H PARENT 16 6 20 29 70 48 44 59
REMARK Flexibility Score: inf
ROOT
ATOM      1  C   UNL A   1      37.500  19.876  24.980  1.00  0.00     0.042 C 
ENDROOT
BRANCH   1   2
ATOM      2  C   UNL A   1      36.414  20.928  24.799  1.00  0.00     0.118 C 
BRANCH   2   3
ATOM      3  N   UNL A   1      35.671  21.149  26.030  1.00  0.00    -0.352 N 
ATOM      4  C   UNL A   1      34.573  21.831  26.426  1.00  0.00     0.251 C 
ATOM      5  O   UNL A   1      34.288  21.696  27.622  1.00  0.00    -0.270 OA
ATOM      6  H   UNL A   1      36.081  20.668  26.783  1.00  0.00     0.163 HD
BRANCH   4   7
ATOM      7  C   UNL A   1      33.721  22.693  25.559  1.00  0.00     0.067 C 
ATOM      8  C   UNL A   1      31.787  26.680  23.134  1.00  0.00    -0.025 A 
ATOM      9  C   UNL A   1      31.283  25.429  23.531  1.00  0.00     0.052 A 
ATOM     10  C   UNL A   1      33.139  26.966  23.387  1.00  0.00     0.045 A 
ATOM     11  C   UNL A   1      32.099  24.516  24.194  1.00  0.00     0.128 A 
ATOM     12  C   UNL A   1      33.934  26.070  24.108  1.00  0.00     0.032 A 
ATOM     13  Cl  UNL A   1      33.892  28.426  22.847  1.00  0.00    -0.084 Cl
ATOM     14  C   UNL A   1      33.407  24.851  24.533  1.00  0.00     0.019 A 
ATOM     15  O   UNL A   1      31.540  23.316  24.532  1.00  0.00    -0.475 OA
ATOM     16  C   UNL A   1      34.174  23.948  25.380  1.00  0.00     0.025 C 
ATOM     17  C   UNL A   1      32.483  22.246  24.834  1.00  0.00     0.314 C 
BRANCH   8  18
ATOM     18  C   UNL A   1      30.828  27.675  22.515  1.00  0.00     0.040 C 
BRANCH  18  19
ATOM     19  C   UNL A   1      29.939  28.390  23.558  1.00  0.00    -0.013 C 
ATOM     20  C   UNL A   1      30.596  29.638  24.152  1.00  0.00     0.008 C 
ATOM     21  C   UNL A   1      28.602  28.776  22.924  1.00  0.00     0.008 C 
ENDBRANCH  18  19
ENDBRANCH   8  18
BRANCH  17  22
ATOM     22  C   UNL A   1      32.798  21.418  23.575  1.00  0.00     0.429 C 
ATOM     23  F   UNL A   1      33.194  20.157  23.870  1.00  0.00    -0.167 F 
ATOM     24  F   UNL A   1      31.689  21.301  22.800  1.00  0.00    -0.167 F 
ATOM     25  F   UNL A   1      33.767  21.965  22.809  1.00  0.00    -0.167 F 
ENDBRANCH  17  22
ENDBRANCH   4   7
ENDBRANCH   2   3
ENDBRANCH   1   2
BRANCH   1  26
ATOM     26  C   UNL A   1      38.746  20.433  25.660  1.00  0.00     0.118 C 
BRANCH  26  27
ATOM     27  N   UNL A   1      39.807  19.436  25.759  1.00  0.00    -0.352 N 
ATOM     28  C   UNL A   1      41.139  19.586  26.061  1.00  0.00     0.251 C 
ATOM     29  H   UNL A   1      39.523  18.510  25.580  1.00  0.00     0.163 HD
ATOM     30  O   UNL A   1      41.918  18.659  25.853  1.00  0.00    -0.269 OA
BRANCH  28  31
ATOM     31  C   UNL A   1      41.639  20.861  26.615  1.00  0.00     0.039 A 
ATOM     32  C   UNL A   1      41.633  21.087  27.991  1.00  0.00     0.014 A 
ATOM     33  C   UNL A   1      42.130  21.843  25.750  1.00  0.00     0.014 A 
ATOM     34  C   UNL A   1      41.923  22.353  28.483  1.00  0.00     0.010 A 
ATOM     35  C   UNL A   1      42.531  23.081  26.260  1.00  0.00     0.010 A 
ATOM     36  C   UNL A   1      42.378  23.366  27.626  1.00  0.00    -0.014 A 
BRANCH  36  37
ATOM     37  C   UNL A   1      42.684  24.709  28.186  1.00  0.00     0.031 A 
ATOM     38  C   UNL A   1      44.102  25.116  28.483  1.00  0.00     0.074 A 
ATOM     39  C   UNL A   1      41.679  25.589  28.369  1.00  0.00     0.049 A 
ATOM     40  N   UNL A   1      44.557  26.253  28.951  1.00  0.00    -0.248 NA
ATOM     41  C   UNL A   1      45.149  24.116  28.228  1.00  0.00     0.031 C 
ATOM     42  C   UNL A   1      40.264  25.323  28.099  1.00  0.00     0.029 A 
ATOM     43  N   UNL A   1      41.695  26.893  28.791  1.00  0.00    -0.354 N 
ATOM     44  C   UNL A   1      45.931  26.094  29.072  1.00  0.00     0.074 A 
ATOM     45  C   UNL A   1      46.235  24.741  28.659  1.00  0.00     0.031 C 
ATOM     46  C   UNL A   1      39.560  26.448  28.292  1.00  0.00     0.029 A 
ATOM     47  C   UNL A   1      40.459  27.489  28.774  1.00  0.00     0.049 A 
ATOM     48  H   UNL A   1      42.515  27.357  29.079  1.00  0.00     0.167 HD
ATOM     49  C   UNL A   1      46.858  26.995  29.483  1.00  0.00     0.037 A 
ATOM     50  C   UNL A   1      40.085  28.734  29.121  1.00  0.00     0.037 A 
ATOM     51  C   UNL A   1      46.555  28.348  29.874  1.00  0.00     0.049 A 
ATOM     52  C   UNL A   1      41.123  29.686  29.640  1.00  0.00     0.074 A 
ATOM     53  C   UNL A   1      47.425  29.349  30.270  1.00  0.00     0.029 A 
ATOM     54  N   UNL A   1      45.277  28.887  29.925  1.00  0.00    -0.354 N 
ATOM     55  N   UNL A   1      42.421  29.528  29.733  1.00  0.00    -0.248 NA
ATOM     56  C   UNL A   1      40.637  30.986  30.120  1.00  0.00     0.031 C 
ATOM     57  C   UNL A   1      46.669  30.477  30.614  1.00  0.00     0.029 A 
ATOM     58  C   UNL A   1      45.332  30.196  30.380  1.00  0.00     0.049 A 
ATOM     59  H   UNL A   1      44.453  28.410  29.675  1.00  0.00     0.167 HD
ATOM     60  C   UNL A   1      42.910  30.715  30.261  1.00  0.00     0.074 A 
ATOM     61  C   UNL A   1      41.769  31.590  30.446  1.00  0.00     0.031 C 
ATOM     62  C   UNL A   1      44.188  31.052  30.565  1.00  0.00     0.037 A 
BRANCH  49  63
ATOM     63  C   UNL A   1      48.284  26.526  29.565  1.00  0.00     0.057 A 
ATOM     64  C   UNL A   1      49.154  26.704  28.480  1.00  0.00     0.134 A 
ATOM     65  C   UNL A   1      48.802  25.899  30.707  1.00  0.00     0.134 A 
ATOM     66  F   UNL A   1      48.724  27.288  27.352  1.00  0.00    -0.206 F 
ATOM     67  C   UNL A   1      50.486  26.289  28.533  1.00  0.00     0.040 A 
ATOM     68  C   UNL A   1      50.141  25.506  30.781  1.00  0.00     0.040 A 
ATOM     69  F   UNL A   1      48.029  25.707  31.787  1.00  0.00    -0.206 F 
ATOM     70  C   UNL A   1      50.986  25.698  29.691  1.00  0.00     0.006 A 
ENDBRANCH  49  63
BRANCH  50  71
ATOM     71  C   UNL A   1      38.667  29.153  28.999  1.00  0.00     0.057 A 
ATOM     72  C   UNL A   1      38.141  29.624  27.789  1.00  0.00     0.134 A 
ATOM     73  C   UNL A   1      37.796  29.070  30.092  1.00  0.00     0.134 A 
ATOM     74  F   UNL A   1      38.924  29.731  26.706  1.00  0.00    -0.206 F 
ATOM     75  C   UNL A   1      36.805  30.009  27.674  1.00  0.00     0.040 A 
ATOM     76  C   UNL A   1      36.451  29.424  29.983  1.00  0.00     0.040 A 
ATOM     77  F   UNL A   1      38.236  28.607  31.272  1.00  0.00    -0.206 F 
ATOM     78  C   UNL A   1      35.954  29.901  28.772  1.00  0.00     0.006 A 
ENDBRANCH  50  71
BRANCH  62  79
ATOM     79  C   UNL A   1      44.412  32.437  31.099  1.00  0.00     0.057 A 
ATOM     80  C   UNL A   1      44.631  33.510  30.227  1.00  0.00     0.134 A 
ATOM     81  C   UNL A   1      44.410  32.710  32.473  1.00  0.00     0.134 A 
ATOM     82  F   UNL A   1      44.651  33.318  28.899  1.00  0.00    -0.206 F 
ATOM     83  C   UNL A   1      44.834  34.807  30.702  1.00  0.00     0.040 A 
ATOM     84  C   UNL A   1      44.582  34.007  32.959  1.00  0.00     0.040 A 
ATOM     85  F   UNL A   1      44.187  31.729  33.362  1.00  0.00    -0.206 F 
ATOM     86  C   UNL A   1      44.801  35.059  32.071  1.00  0.00     0.006 A 
ENDBRANCH  62  79
ENDBRANCH  36  37
ENDBRANCH  28  31
ENDBRANCH  26  27
ENDBRANCH   1  26
TORSDOF 13
ENDMDL
MODEL 3
REMARK VINA RESULT:     -12.0      4.069      8.890
REMARK SMILES CC(C)Cc1cc2c(cc1Cl)C=C(C(=O)NCCCNC(=O)c1ccc(-c3c4nc(c(-c5c(F)cccc5F)c5ccc([nH]5)c(-c5c(F)cccc5F)c5nc(c(-c6c(F)cccc6F)c6ccc3[nH]6)C=C5)C=C4)cc1)[C@H](C(F)(F)F)O2
REMARK SMILES IDX 18 1 17 2 16 3 14 4 15 5 13 7 5 8 6 9 10 10 7 11 9 12 11 13
REMARK SMILES IDX 8 14 82 15 12 16 77 17 4 18 2 19 1 20 3 21 78 22 79 23 80 24
REMARK SMILES IDX 81 25 19 26 20 27 21 28 22 30 23 31 24 32 76 33 25 34 75 35
REMARK SMILES IDX 26 36 27 37 28 38 69 39 29 40 74 41 68 42 70 43 30 44 73 45
REMARK SMILES IDX 67 46 66 47 31 49 57 50 40 51 56 52 41 53 44 54 55 55 71 56
REMARK SMILES IDX 42 57 43 58 54 60 72 61 45 62 32 63 33 64 38 65 34 66 35 67
REMARK SMILES IDX 37 68 39 69 36 70 58 71 59 72 64 73 60 74 61 75 63 76 65 77
REMARK SMILES IDX 62 78 46 79 47 80 52 81 48 82 49 83 51 84 53 85 50 86
REMARK H PARENT 16 6 20 29 70 48 44 59
REMARK Flexibility Score: inf
ROOT
ATOM      1  C   UNL A   1      31.052  30.463  25.414  1.00  0.00     0.042 C 
ENDROOT
BRANCH   1   2
ATOM      2  C   UNL A   1      31.396  29.188  24.658  1.00  0.00     0.118 C 
BRANCH   2   3
ATOM      3  N   UNL A   1      32.662  29.308  23.950  1.00  0.00    -0.352 N 
ATOM      4  C   UNL A   1      33.576  28.486  23.389  1.00  0.00     0.251 C 
ATOM      5  O   UNL A   1      34.525  29.065  22.849  1.00  0.00    -0.270 OA
ATOM      6  H   UNL A   1      32.924  30.252  23.851  1.00  0.00     0.163 HD
BRANCH   4   7
ATOM      7  C   UNL A   1      33.520  26.997  23.378  1.00  0.00     0.067 C 
ATOM      8  C   UNL A   1      33.766  22.149  24.778  1.00  0.00    -0.025 A 
ATOM      9  C   UNL A   1      33.837  22.824  23.547  1.00  0.00     0.052 A 
ATOM     10  C   UNL A   1      33.535  22.905  25.941  1.00  0.00     0.045 A 
ATOM     11  C   UNL A   1      33.719  24.210  23.492  1.00  0.00     0.128 A 
ATOM     12  C   UNL A   1      33.479  24.301  25.884  1.00  0.00     0.032 A 
ATOM     13  Cl  UNL A   1      33.321  22.172  27.492  1.00  0.00    -0.084 Cl
ATOM     14  C   UNL A   1      33.594  24.957  24.660  1.00  0.00     0.019 A 
ATOM     15  O   UNL A   1      33.781  24.790  22.255  1.00  0.00    -0.475 OA
ATOM     16  C   UNL A   1      33.654  26.411  24.582  1.00  0.00     0.025 C 
ATOM     17  C   UNL A   1      33.251  26.144  22.169  1.00  0.00     0.314 C 
BRANCH   8  18
ATOM     18  C   UNL A   1      34.010  20.655  24.792  1.00  0.00     0.040 C 
BRANCH  18  19
ATOM     19  C   UNL A   1      32.708  19.828  24.690  1.00  0.00    -0.013 C 
ATOM     20  C   UNL A   1      32.376  19.406  23.256  1.00  0.00     0.008 C 
ATOM     21  C   UNL A   1      32.815  18.582  25.571  1.00  0.00     0.008 C 
ENDBRANCH  18  19
ENDBRANCH   8  18
BRANCH  17  22
ATOM     22  C   UNL A   1      31.765  26.131  21.770  1.00  0.00     0.429 C 
ATOM     23  F   UNL A   1      31.170  27.334  21.947  1.00  0.00    -0.167 F 
ATOM     24  F   UNL A   1      31.635  25.827  20.453  1.00  0.00    -0.167 F 
ATOM     25  F   UNL A   1      31.038  25.228  22.464  1.00  0.00    -0.167 F 
ENDBRANCH  17  22
ENDBRANCH   4   7
ENDBRANCH   2   3
ENDBRANCH   1   2
BRANCH   1  26
ATOM     26  C   UNL A   1      32.143  30.871  26.399  1.00  0.00     0.118 C 
BRANCH  26  27
ATOM     27  N   UNL A   1      32.081  32.291  26.727  1.00  0.00    -0.352 N 
ATOM     28  C   UNL A   1      32.882  33.047  27.548  1.00  0.00     0.251 C 
ATOM     29  H   UNL A   1      31.349  32.785  26.292  1.00  0.00     0.163 HD
ATOM     30  O   UNL A   1      32.518  34.171  27.886  1.00  0.00    -0.269 OA
BRANCH  28  31
ATOM     31  C   UNL A   1      34.165  32.507  28.042  1.00  0.00     0.039 A 
ATOM     32  C   UNL A   1      34.293  31.153  28.352  1.00  0.00     0.014 A 
ATOM     33  C   UNL A   1      35.261  33.362  28.191  1.00  0.00     0.014 A 
ATOM     34  C   UNL A   1      35.437  30.698  28.994  1.00  0.00     0.010 A 
ATOM     35  C   UNL A   1      36.454  32.875  28.733  1.00  0.00     0.010 A 
ATOM     36  C   UNL A   1      36.534  31.550  29.191  1.00  0.00    -0.014 A 
BRANCH  36  37
ATOM     37  C   UNL A   1      37.745  31.029  29.878  1.00  0.00     0.031 A 
ATOM     38  C   UNL A   1      37.998  31.335  31.330  1.00  0.00     0.074 A 
ATOM     39  C   UNL A   1      38.588  30.223  29.203  1.00  0.00     0.049 A 
ATOM     40  N   UNL A   1      38.987  30.947  32.097  1.00  0.00    -0.248 NA
ATOM     41  C   UNL A   1      37.019  32.194  32.011  1.00  0.00     0.031 C 
ATOM     42  C   UNL A   1      38.442  29.834  27.798  1.00  0.00     0.029 A 
ATOM     43  N   UNL A   1      39.715  29.559  29.614  1.00  0.00    -0.354 N 
ATOM     44  C   UNL A   1      38.764  31.535  33.336  1.00  0.00     0.074 A 
ATOM     45  C   UNL A   1      37.563  32.332  33.211  1.00  0.00     0.031 C 
ATOM     46  C   UNL A   1      39.396  28.945  27.486  1.00  0.00     0.029 A 
ATOM     47  C   UNL A   1      40.266  28.762  28.641  1.00  0.00     0.049 A 
ATOM     48  H   UNL A   1      40.093  29.645  30.519  1.00  0.00     0.167 HD
ATOM     49  C   UNL A   1      39.489  31.416  34.476  1.00  0.00     0.037 A 
ATOM     50  C   UNL A   1      41.361  27.981  28.669  1.00  0.00     0.037 A 
ATOM     51  C   UNL A   1      40.672  30.605  34.603  1.00  0.00     0.049 A 
ATOM     52  C   UNL A   1      42.182  27.926  29.924  1.00  0.00     0.074 A 
ATOM     53  C   UNL A   1      41.456  30.388  35.723  1.00  0.00     0.029 A 
ATOM     54  N   UNL A   1      41.248  29.881  33.569  1.00  0.00    -0.354 N 
ATOM     55  N   UNL A   1      41.950  28.474  31.092  1.00  0.00    -0.248 NA
ATOM     56  C   UNL A   1      43.431  27.156  29.855  1.00  0.00     0.031 C 
ATOM     57  C   UNL A   1      42.537  29.578  35.353  1.00  0.00     0.029 A 
ATOM     58  C   UNL A   1      42.396  29.246  34.015  1.00  0.00     0.049 A 
ATOM     59  H   UNL A   1      40.892  29.827  32.652  1.00  0.00     0.167 HD
ATOM     60  C   UNL A   1      43.010  28.097  31.904  1.00  0.00     0.074 A 
ATOM     61  C   UNL A   1      43.875  27.257  31.099  1.00  0.00     0.031 C 
ATOM     62  C   UNL A   1      43.249  28.417  33.200  1.00  0.00     0.037 A 
BRANCH  49  63
ATOM     63  C   UNL A   1      39.035  32.217  35.665  1.00  0.00     0.057 A 
ATOM     64  C   UNL A   1      38.231  31.630  36.651  1.00  0.00     0.134 A 
ATOM     65  C   UNL A   1      39.388  33.563  35.840  1.00  0.00     0.134 A 
ATOM     66  F   UNL A   1      37.847  30.350  36.545  1.00  0.00    -0.206 F 
ATOM     67  C   UNL A   1      37.805  32.347  37.772  1.00  0.00     0.040 A 
ATOM     68  C   UNL A   1      38.992  34.281  36.971  1.00  0.00     0.040 A 
ATOM     69  F   UNL A   1      40.166  34.184  34.941  1.00  0.00    -0.206 F 
ATOM     70  C   UNL A   1      38.196  33.674  37.939  1.00  0.00     0.006 A 
ENDBRANCH  49  63
BRANCH  50  71
ATOM     71  C   UNL A   1      41.750  27.193  27.474  1.00  0.00     0.057 A 
ATOM     72  C   UNL A   1      42.520  27.749  26.445  1.00  0.00     0.134 A 
ATOM     73  C   UNL A   1      41.375  25.850  27.345  1.00  0.00     0.134 A 
ATOM     74  F   UNL A   1      42.908  29.031  26.505  1.00  0.00    -0.206 F 
ATOM     75  C   UNL A   1      42.892  27.003  25.326  1.00  0.00     0.040 A 
ATOM     76  C   UNL A   1      41.765  25.085  26.246  1.00  0.00     0.040 A 
ATOM     77  F   UNL A   1      40.655  25.256  28.308  1.00  0.00    -0.206 F 
ATOM     78  C   UNL A   1      42.522  25.664  25.229  1.00  0.00     0.006 A 
ENDBRANCH  50  71
BRANCH  62  79
ATOM     79  C   UNL A   1      44.478  27.826  33.826  1.00  0.00     0.057 A 
ATOM     80  C   UNL A   1      45.705  28.498  33.760  1.00  0.00     0.134 A 
ATOM     81  C   UNL A   1      44.450  26.596  34.497  1.00  0.00     0.134 A 
ATOM     82  F   UNL A   1      45.804  29.677  33.129  1.00  0.00    -0.206 F 
ATOM     83  C   UNL A   1      46.859  27.970  34.342  1.00  0.00     0.040 A 
ATOM     84  C   UNL A   1      45.590  26.072  35.108  1.00  0.00     0.040 A 
ATOM     85  F   UNL A   1      43.301  25.911  34.613  1.00  0.00    -0.206 F 
ATOM     86  C   UNL A   1      46.800  26.758  35.026  1.00  0.00     0.006 A 
ENDBRANCH  62  79
ENDBRANCH  36  37
ENDBRANCH  28  31
ENDBRANCH  26  27
ENDBRANCH   1  26
TORSDOF 13
ENDMDL
