MODEL 1
REMARK VINA RESULT:     -10.1      0.000      0.000
REMARK SMILES Cc1nc(CCNc2nccc(-c3cc(C(=O)NCCCNC(=O)c4ccc(-c5c6nc(c(-c7c(F)cccc7F)c7ccc([nH]7)c(-c7c(F)cccc7F)c7nc(c(-c8c(F)cccc8F)c8ccc5[nH]8)C=C7)C=C6)cc4)ccn3)n2)cc(=O)[nH]1
REMARK SMILES IDX 16 1 17 2 18 3 15 5 13 6 14 7 81 8 80 9 79 10 12 11 8 12
REMARK SMILES IDX 9 13 82 14 10 15 11 16 7 17 6 19 5 20 4 21 1 22 2 23 3 24
REMARK SMILES IDX 86 25 84 26 83 28 85 29 19 30 20 31 21 32 22 33 23 34 24 36
REMARK SMILES IDX 25 37 26 38 78 39 27 40 77 41 28 42 29 43 30 44 71 45 31 46
REMARK SMILES IDX 76 47 70 48 72 49 32 50 75 51 69 52 68 53 33 55 59 56 42 57
REMARK SMILES IDX 58 58 43 59 46 60 57 61 73 62 44 63 45 64 56 66 74 67 47 68
REMARK SMILES IDX 34 69 35 70 40 71 36 72 37 73 39 74 41 75 38 76 60 77 61 78
REMARK SMILES IDX 66 79 62 80 63 81 65 82 67 83 64 84 48 85 49 86 54 87 50 88
REMARK SMILES IDX 51 89 53 90 55 91 52 92
REMARK H PARENT 18 4 7 18 86 27 22 35 72 54 46 65
REMARK Flexibility Score: inf
ROOT
ATOM      1  C   UNL A   1      35.884  33.860  35.535  1.00  0.00     0.251 C 
ATOM      2  O   UNL A   1      35.579  33.790  36.726  1.00  0.00    -0.269 OA
ATOM      3  N   UNL A   1      35.000  34.478  34.688  1.00  0.00    -0.352 N 
ATOM      4  H   UNL A   1      34.173  34.776  35.131  1.00  0.00     0.163 HD
ENDROOT
BRANCH   1   5
ATOM      5  C   UNL A   1      37.203  33.337  35.099  1.00  0.00     0.043 A 
ATOM      6  C   UNL A   1      38.652  31.704  34.116  1.00  0.00     0.090 A 
ATOM      7  C   UNL A   1      37.413  32.042  34.642  1.00  0.00     0.044 A 
ATOM      8  N   UNL A   1      39.701  32.560  34.120  1.00  0.00    -0.255 NA
ATOM      9  C   UNL A   1      39.512  33.774  34.674  1.00  0.00     0.112 A 
ATOM     10  C   UNL A   1      38.292  34.210  35.152  1.00  0.00     0.034 A 
BRANCH   6  11
ATOM     11  C   UNL A   1      38.841  30.424  33.430  1.00  0.00     0.094 A 
ATOM     12  C   UNL A   1      40.303  28.843  32.672  1.00  0.00     0.223 A 
ATOM     13  N   UNL A   1      39.330  28.134  32.084  1.00  0.00    -0.222 NA
ATOM     14  N   UNL A   1      40.102  29.950  33.387  1.00  0.00    -0.211 NA
ATOM     15  C   UNL A   1      38.074  28.586  32.223  1.00  0.00     0.117 A 
ATOM     16  C   UNL A   1      37.769  29.749  32.879  1.00  0.00     0.051 A 
BRANCH  12  17
ATOM     17  N   UNL A   1      41.572  28.400  32.449  1.00  0.00    -0.354 N 
ATOM     18  H   UNL A   1      41.845  28.158  31.535  1.00  0.00     0.163 HD
BRANCH  17  19
ATOM     19  C   UNL A   1      42.529  28.278  33.529  1.00  0.00     0.122 C 
BRANCH  19  20
ATOM     20  C   UNL A   1      42.966  26.812  33.709  1.00  0.00     0.077 C 
BRANCH  20  21
ATOM     21  C   UNL A   1      42.770  26.301  35.125  1.00  0.00     0.050 A 
ATOM     22  C   UNL A   1      44.834  24.504  37.593  1.00  0.00     0.087 C 
ATOM     23  C   UNL A   1      43.700  25.177  36.880  1.00  0.00     0.105 A 
ATOM     24  N   UNL A   1      43.849  25.654  35.686  1.00  0.00    -0.240 NA
ATOM     25  N   UNL A   1      42.531  25.247  37.582  1.00  0.00    -0.311 N 
ATOM     26  C   UNL A   1      41.431  25.879  37.089  1.00  0.00     0.251 A 
ATOM     27  H   UNL A   1      42.482  24.827  38.471  1.00  0.00     0.171 HD
ATOM     28  C   UNL A   1      41.612  26.504  35.774  1.00  0.00     0.095 A 
ATOM     29  O   UNL A   1      40.360  25.918  37.678  1.00  0.00    -0.270 OA
ENDBRANCH  20  21
ENDBRANCH  19  20
ENDBRANCH  17  19
ENDBRANCH  12  17
ENDBRANCH   6  11
ENDBRANCH   1   5
BRANCH   3  30
ATOM     30  C   UNL A   1      35.040  34.780  33.268  1.00  0.00     0.118 C 
BRANCH  30  31
ATOM     31  C   UNL A   1      33.633  35.000  32.714  1.00  0.00     0.042 C 
BRANCH  31  32
ATOM     32  C   UNL A   1      33.613  35.897  31.480  1.00  0.00     0.118 C 
BRANCH  32  33
ATOM     33  N   UNL A   1      32.899  35.273  30.373  1.00  0.00    -0.352 N 
ATOM     34  C   UNL A   1      33.355  34.432  29.392  1.00  0.00     0.251 C 
ATOM     35  H   UNL A   1      31.940  35.489  30.323  1.00  0.00     0.163 HD
ATOM     36  O   UNL A   1      32.652  34.218  28.408  1.00  0.00    -0.269 OA
BRANCH  34  37
ATOM     37  C   UNL A   1      34.679  33.788  29.504  1.00  0.00     0.039 A 
ATOM     38  C   UNL A   1      35.705  34.206  28.652  1.00  0.00     0.014 A 
ATOM     39  C   UNL A   1      34.901  32.743  30.406  1.00  0.00     0.014 A 
ATOM     40  C   UNL A   1      36.965  33.610  28.738  1.00  0.00     0.010 A 
ATOM     41  C   UNL A   1      36.177  32.203  30.545  1.00  0.00     0.010 A 
ATOM     42  C   UNL A   1      37.219  32.625  29.707  1.00  0.00    -0.014 A 
BRANCH  42  43
ATOM     43  C   UNL A   1      38.569  32.026  29.857  1.00  0.00     0.031 A 
ATOM     44  C   UNL A   1      39.684  32.815  30.484  1.00  0.00     0.074 A 
ATOM     45  C   UNL A   1      38.802  30.792  29.368  1.00  0.00     0.049 A 
ATOM     46  N   UNL A   1      40.943  32.489  30.637  1.00  0.00    -0.248 NA
ATOM     47  C   UNL A   1      39.348  34.158  30.981  1.00  0.00     0.031 C 
ATOM     48  C   UNL A   1      37.812  29.946  28.700  1.00  0.00     0.029 A 
ATOM     49  N   UNL A   1      39.949  30.040  29.349  1.00  0.00    -0.354 N 
ATOM     50  C   UNL A   1      41.548  33.588  31.233  1.00  0.00     0.074 A 
ATOM     51  C   UNL A   1      40.533  34.611  31.365  1.00  0.00     0.031 C 
ATOM     52  C   UNL A   1      38.388  28.782  28.357  1.00  0.00     0.029 A 
ATOM     53  C   UNL A   1      39.795  28.817  28.741  1.00  0.00     0.049 A 
ATOM     54  H   UNL A   1      40.802  30.347  29.735  1.00  0.00     0.167 HD
ATOM     55  C   UNL A   1      42.828  33.725  31.653  1.00  0.00     0.037 A 
ATOM     56  C   UNL A   1      40.690  27.840  28.509  1.00  0.00     0.037 A 
ATOM     57  C   UNL A   1      43.831  32.697  31.535  1.00  0.00     0.049 A 
ATOM     58  C   UNL A   1      42.110  28.022  28.971  1.00  0.00     0.074 A 
ATOM     59  C   UNL A   1      45.140  32.715  31.980  1.00  0.00     0.029 A 
ATOM     60  N   UNL A   1      43.632  31.467  30.924  1.00  0.00    -0.354 N 
ATOM     61  N   UNL A   1      42.652  29.040  29.595  1.00  0.00    -0.248 NA
ATOM     62  C   UNL A   1      43.040  26.917  28.702  1.00  0.00     0.031 C 
ATOM     63  C   UNL A   1      45.750  31.518  31.593  1.00  0.00     0.029 A 
ATOM     64  C   UNL A   1      44.805  30.729  30.958  1.00  0.00     0.049 A 
ATOM     65  H   UNL A   1      42.784  31.165  30.525  1.00  0.00     0.167 HD
ATOM     66  C   UNL A   1      43.976  28.687  29.819  1.00  0.00     0.074 A 
ATOM     67  C   UNL A   1      44.150  27.355  29.278  1.00  0.00     0.031 C 
ATOM     68  C   UNL A   1      44.959  29.401  30.420  1.00  0.00     0.037 A 
BRANCH  55  69
ATOM     69  C   UNL A   1      43.219  35.035  32.278  1.00  0.00     0.057 A 
ATOM     70  C   UNL A   1      43.183  35.232  33.665  1.00  0.00     0.134 A 
ATOM     71  C   UNL A   1      43.669  36.100  31.488  1.00  0.00     0.134 A 
ATOM     72  F   UNL A   1      42.753  34.258  34.480  1.00  0.00    -0.206 F 
ATOM     73  C   UNL A   1      43.553  36.450  34.240  1.00  0.00     0.040 A 
ATOM     74  C   UNL A   1      44.070  37.311  32.053  1.00  0.00     0.040 A 
ATOM     75  F   UNL A   1      43.736  35.978  30.154  1.00  0.00    -0.206 F 
ATOM     76  C   UNL A   1      44.005  37.491  33.434  1.00  0.00     0.006 A 
ENDBRANCH  55  69
BRANCH  56  77
ATOM     77  C   UNL A   1      40.268  26.591  27.823  1.00  0.00     0.057 A 
ATOM     78  C   UNL A   1      39.479  25.639  28.479  1.00  0.00     0.134 A 
ATOM     79  C   UNL A   1      40.645  26.317  26.504  1.00  0.00     0.134 A 
ATOM     80  F   UNL A   1      39.098  25.836  29.750  1.00  0.00    -0.206 F 
ATOM     81  C   UNL A   1      39.099  24.449  27.856  1.00  0.00     0.040 A 
ATOM     82  C   UNL A   1      40.250  25.145  25.858  1.00  0.00     0.040 A 
ATOM     83  F   UNL A   1      41.392  27.194  25.816  1.00  0.00    -0.206 F 
ATOM     84  C   UNL A   1      39.481  24.202  26.539  1.00  0.00     0.006 A 
ENDBRANCH  56  77
BRANCH  68  85
ATOM     85  C   UNL A   1      46.300  28.741  30.559  1.00  0.00     0.057 A 
ATOM     86  C   UNL A   1      46.657  28.017  31.704  1.00  0.00     0.134 A 
ATOM     87  C   UNL A   1      47.233  28.799  29.515  1.00  0.00     0.134 A 
ATOM     88  F   UNL A   1      45.814  27.934  32.744  1.00  0.00    -0.206 F 
ATOM     89  C   UNL A   1      47.902  27.396  31.816  1.00  0.00     0.040 A 
ATOM     90  C   UNL A   1      48.469  28.157  29.603  1.00  0.00     0.040 A 
ATOM     91  F   UNL A   1      46.952  29.468  28.386  1.00  0.00    -0.206 F 
ATOM     92  C   UNL A   1      48.809  27.460  30.760  1.00  0.00     0.006 A 
ENDBRANCH  68  85
ENDBRANCH  42  43
ENDBRANCH  34  37
ENDBRANCH  32  33
ENDBRANCH  31  32
ENDBRANCH  30  31
ENDBRANCH   3  30
TORSDOF 15
ENDMDL
MODEL 2
REMARK VINA RESULT:      -9.9      5.418     10.234
REMARK SMILES Cc1nc(CCNc2nccc(-c3cc(C(=O)NCCCNC(=O)c4ccc(-c5c6nc(c(-c7c(F)cccc7F)c7ccc([nH]7)c(-c7c(F)cccc7F)c7nc(c(-c8c(F)cccc8F)c8ccc5[nH]8)C=C7)C=C6)cc4)ccn3)n2)cc(=O)[nH]1
REMARK SMILES IDX 16 1 17 2 18 3 15 5 13 6 14 7 81 8 80 9 79 10 12 11 8 12
REMARK SMILES IDX 9 13 82 14 10 15 11 16 7 17 6 19 5 20 4 21 1 22 2 23 3 24
REMARK SMILES IDX 86 25 84 26 83 28 85 29 19 30 20 31 21 32 22 33 23 34 24 36
REMARK SMILES IDX 25 37 26 38 78 39 27 40 77 41 28 42 29 43 30 44 71 45 31 46
REMARK SMILES IDX 76 47 70 48 72 49 32 50 75 51 69 52 68 53 33 55 59 56 42 57
REMARK SMILES IDX 58 58 43 59 46 60 57 61 73 62 44 63 45 64 56 66 74 67 47 68
REMARK SMILES IDX 34 69 35 70 40 71 36 72 37 73 39 74 41 75 38 76 60 77 61 78
REMARK SMILES IDX 66 79 62 80 63 81 65 82 67 83 64 84 48 85 49 86 54 87 50 88
REMARK SMILES IDX 51 89 53 90 55 91 52 92
REMARK H PARENT 18 4 7 18 86 27 22 35 72 54 46 65
REMARK Flexibility Score: inf
ROOT
ATOM      1  C   UNL A   1      30.481  29.593  23.831  1.00  0.00     0.251 C 
ATOM      2  O   UNL A   1      29.576  29.698  23.005  1.00  0.00    -0.269 OA
ATOM      3  N   UNL A   1      30.630  30.605  24.744  1.00  0.00    -0.352 N 
ATOM      4  H   UNL A   1      30.000  31.349  24.612  1.00  0.00     0.163 HD
ENDROOT
BRANCH   1   5
ATOM      5  C   UNL A   1      31.311  28.361  23.835  1.00  0.00     0.043 A 
ATOM      6  C   UNL A   1      31.974  26.216  24.665  1.00  0.00     0.090 A 
ATOM      7  C   UNL A   1      31.270  27.400  24.837  1.00  0.00     0.044 A 
ATOM      8  N   UNL A   1      32.783  25.999  23.601  1.00  0.00    -0.255 NA
ATOM      9  C   UNL A   1      32.901  26.991  22.696  1.00  0.00     0.112 A 
ATOM     10  C   UNL A   1      32.180  28.167  22.758  1.00  0.00     0.034 A 
BRANCH   6  11
ATOM     11  C   UNL A   1      31.781  25.099  25.592  1.00  0.00     0.094 A 
ATOM     12  C   UNL A   1      32.741  23.524  26.937  1.00  0.00     0.223 A 
ATOM     13  N   UNL A   1      31.561  22.958  27.225  1.00  0.00    -0.222 NA
ATOM     14  N   UNL A   1      32.892  24.610  26.178  1.00  0.00    -0.211 NA
ATOM     15  C   UNL A   1      30.466  23.526  26.697  1.00  0.00     0.117 A 
ATOM     16  C   UNL A   1      30.518  24.601  25.850  1.00  0.00     0.051 A 
BRANCH  12  17
ATOM     17  N   UNL A   1      33.839  22.880  27.426  1.00  0.00    -0.354 N 
ATOM     18  H   UNL A   1      34.503  23.386  27.946  1.00  0.00     0.163 HD
BRANCH  17  19
ATOM     19  C   UNL A   1      34.047  21.465  27.195  1.00  0.00     0.122 C 
BRANCH  19  20
ATOM     20  C   UNL A   1      34.737  21.228  25.839  1.00  0.00     0.077 C 
BRANCH  20  21
ATOM     21  C   UNL A   1      33.841  20.537  24.827  1.00  0.00     0.050 A 
ATOM     22  C   UNL A   1      33.106  17.047  23.901  1.00  0.00     0.087 C 
ATOM     23  C   UNL A   1      33.161  18.545  23.947  1.00  0.00     0.105 A 
ATOM     24  N   UNL A   1      33.888  19.161  24.823  1.00  0.00    -0.240 NA
ATOM     25  N   UNL A   1      32.393  19.184  23.017  1.00  0.00    -0.311 N 
ATOM     26  C   UNL A   1      32.295  20.540  22.973  1.00  0.00     0.251 A 
ATOM     27  H   UNL A   1      31.895  18.647  22.358  1.00  0.00     0.171 HD
ATOM     28  C   UNL A   1      33.043  21.251  24.016  1.00  0.00     0.095 A 
ATOM     29  O   UNL A   1      31.650  21.138  22.124  1.00  0.00    -0.270 OA
ENDBRANCH  20  21
ENDBRANCH  19  20
ENDBRANCH  17  19
ENDBRANCH  12  17
ENDBRANCH   6  11
ENDBRANCH   1   5
BRANCH   3  30
ATOM     30  C   UNL A   1      31.533  30.799  25.865  1.00  0.00     0.118 C 
BRANCH  30  31
ATOM     31  C   UNL A   1      31.317  32.166  26.513  1.00  0.00     0.042 C 
BRANCH  31  32
ATOM     32  C   UNL A   1      32.582  32.725  27.160  1.00  0.00     0.118 C 
BRANCH  32  33
ATOM     33  N   UNL A   1      32.407  34.111  27.572  1.00  0.00    -0.352 N 
ATOM     34  C   UNL A   1      33.012  34.814  28.581  1.00  0.00     0.251 C 
ATOM     35  H   UNL A   1      31.754  34.622  27.043  1.00  0.00     0.163 HD
ATOM     36  O   UNL A   1      32.544  35.896  28.925  1.00  0.00    -0.269 OA
BRANCH  34  37
ATOM     37  C   UNL A   1      34.212  34.282  29.259  1.00  0.00     0.039 A 
ATOM     38  C   UNL A   1      34.051  33.575  30.454  1.00  0.00     0.014 A 
ATOM     39  C   UNL A   1      35.493  34.520  28.753  1.00  0.00     0.014 A 
ATOM     40  C   UNL A   1      35.171  33.065  31.113  1.00  0.00     0.010 A 
ATOM     41  C   UNL A   1      36.601  33.945  29.370  1.00  0.00     0.010 A 
ATOM     42  C   UNL A   1      36.452  33.219  30.560  1.00  0.00    -0.014 A 
BRANCH  42  43
ATOM     43  C   UNL A   1      37.648  32.629  31.213  1.00  0.00     0.031 A 
ATOM     44  C   UNL A   1      38.321  31.425  30.617  1.00  0.00     0.074 A 
ATOM     45  C   UNL A   1      38.085  33.143  32.379  1.00  0.00     0.049 A 
ATOM     46  N   UNL A   1      39.329  30.728  31.077  1.00  0.00    -0.248 NA
ATOM     47  C   UNL A   1      37.773  30.919  29.348  1.00  0.00     0.031 C 
ATOM     48  C   UNL A   1      37.489  34.283  33.078  1.00  0.00     0.029 A 
ATOM     49  N   UNL A   1      39.129  32.767  33.187  1.00  0.00    -0.354 N 
ATOM     50  C   UNL A   1      39.526  29.698  30.166  1.00  0.00     0.074 A 
ATOM     51  C   UNL A   1      38.499  29.828  29.154  1.00  0.00     0.031 C 
ATOM     52  C   UNL A   1      38.189  34.527  34.197  1.00  0.00     0.029 A 
ATOM     53  C   UNL A   1      39.254  33.537  34.318  1.00  0.00     0.049 A 
ATOM     54  H   UNL A   1      39.730  32.016  32.976  1.00  0.00     0.167 HD
ATOM     55  C   UNL A   1      40.488  28.745  30.160  1.00  0.00     0.037 A 
ATOM     56  C   UNL A   1      40.123  33.448  35.341  1.00  0.00     0.037 A 
ATOM     57  C   UNL A   1      41.517  28.632  31.161  1.00  0.00     0.049 A 
ATOM     58  C   UNL A   1      41.173  32.371  35.319  1.00  0.00     0.074 A 
ATOM     59  C   UNL A   1      42.571  27.737  31.216  1.00  0.00     0.029 A 
ATOM     60  N   UNL A   1      41.618  29.439  32.285  1.00  0.00    -0.354 N 
ATOM     61  N   UNL A   1      41.388  31.446  34.416  1.00  0.00    -0.248 NA
ATOM     62  C   UNL A   1      42.101  32.330  36.457  1.00  0.00     0.031 C 
ATOM     63  C   UNL A   1      43.279  27.969  32.399  1.00  0.00     0.029 A 
ATOM     64  C   UNL A   1      42.703  29.046  33.053  1.00  0.00     0.049 A 
ATOM     65  H   UNL A   1      41.009  30.182  32.504  1.00  0.00     0.167 HD
ATOM     66  C   UNL A   1      42.495  30.733  34.860  1.00  0.00     0.074 A 
ATOM     67  C   UNL A   1      42.912  31.342  36.104  1.00  0.00     0.031 C 
ATOM     68  C   UNL A   1      43.109  29.669  34.287  1.00  0.00     0.037 A 
BRANCH  55  69
ATOM     69  C   UNL A   1      40.470  27.747  29.037  1.00  0.00     0.057 A 
ATOM     70  C   UNL A   1      39.639  26.618  29.065  1.00  0.00     0.134 A 
ATOM     71  C   UNL A   1      41.267  27.932  27.900  1.00  0.00     0.134 A 
ATOM     72  F   UNL A   1      38.858  26.374  30.127  1.00  0.00    -0.206 F 
ATOM     73  C   UNL A   1      39.624  25.696  28.015  1.00  0.00     0.040 A 
ATOM     74  C   UNL A   1      41.238  27.034  26.833  1.00  0.00     0.040 A 
ATOM     75  F   UNL A   1      42.080  28.994  27.804  1.00  0.00    -0.206 F 
ATOM     76  C   UNL A   1      40.418  25.907  26.892  1.00  0.00     0.006 A 
ENDBRANCH  55  69
BRANCH  56  77
ATOM     77  C   UNL A   1      40.053  34.419  36.464  1.00  0.00     0.057 A 
ATOM     78  C   UNL A   1      39.326  34.128  37.624  1.00  0.00     0.134 A 
ATOM     79  C   UNL A   1      40.701  35.657  36.403  1.00  0.00     0.134 A 
ATOM     80  F   UNL A   1      38.670  32.963  37.736  1.00  0.00    -0.206 F 
ATOM     81  C   UNL A   1      39.228  35.042  38.674  1.00  0.00     0.040 A 
ATOM     82  C   UNL A   1      40.635  36.570  37.456  1.00  0.00     0.040 A 
ATOM     83  F   UNL A   1      41.422  35.993  35.323  1.00  0.00    -0.206 F 
ATOM     84  C   UNL A   1      39.888  36.266  38.594  1.00  0.00     0.006 A 
ENDBRANCH  56  77
BRANCH  68  85
ATOM     85  C   UNL A   1      44.322  29.121  34.981  1.00  0.00     0.057 A 
ATOM     86  C   UNL A   1      44.236  28.096  35.930  1.00  0.00     0.134 A 
ATOM     87  C   UNL A   1      45.600  29.603  34.665  1.00  0.00     0.134 A 
ATOM     88  F   UNL A   1      43.042  27.599  36.287  1.00  0.00    -0.206 F 
ATOM     89  C   UNL A   1      45.373  27.586  36.559  1.00  0.00     0.040 A 
ATOM     90  C   UNL A   1      46.746  29.080  35.265  1.00  0.00     0.040 A 
ATOM     91  F   UNL A   1      45.756  30.578  33.758  1.00  0.00    -0.206 F 
ATOM     92  C   UNL A   1      46.633  28.074  36.221  1.00  0.00     0.006 A 
ENDBRANCH  68  85
ENDBRANCH  42  43
ENDBRANCH  34  37
ENDBRANCH  32  33
ENDBRANCH  31  32
ENDBRANCH  30  31
ENDBRANCH   3  30
TORSDOF 15
ENDMDL
MODEL 3
REMARK VINA RESULT:      -9.9      5.985     10.484
REMARK SMILES Cc1nc(CCNc2nccc(-c3cc(C(=O)NCCCNC(=O)c4ccc(-c5c6nc(c(-c7c(F)cccc7F)c7ccc([nH]7)c(-c7c(F)cccc7F)c7nc(c(-c8c(F)cccc8F)c8ccc5[nH]8)C=C7)C=C6)cc4)ccn3)n2)cc(=O)[nH]1
REMARK SMILES IDX 16 1 17 2 18 3 15 5 13 6 14 7 81 8 80 9 79 10 12 11 8 12
REMARK SMILES IDX 9 13 82 14 10 15 11 16 7 17 6 19 5 20 4 21 1 22 2 23 3 24
REMARK SMILES IDX 86 25 84 26 83 28 85 29 19 30 20 31 21 32 22 33 23 34 24 36
REMARK SMILES IDX 25 37 26 38 78 39 27 40 77 41 28 42 29 43 30 44 71 45 31 46
REMARK SMILES IDX 76 47 70 48 72 49 32 50 75 51 69 52 68 53 33 55 59 56 42 57
REMARK SMILES IDX 58 58 43 59 46 60 57 61 73 62 44 63 45 64 56 66 74 67 47 68
REMARK SMILES IDX 34 69 35 70 40 71 36 72 37 73 39 74 41 75 38 76 60 77 61 78
REMARK SMILES IDX 66 79 62 80 63 81 65 82 67 83 64 84 48 85 49 86 54 87 50 88
REMARK SMILES IDX 51 89 53 90 55 91 52 92
REMARK H PARENT 18 4 7 18 86 27 22 35 72 54 46 65
REMARK Flexibility Score: inf
ROOT
ATOM      1  C   UNL A   1      30.284  29.582  23.288  1.00  0.00     0.251 C 
ATOM      2  O   UNL A   1      29.811  30.029  22.244  1.00  0.00    -0.269 OA
ATOM      3  N   UNL A   1      30.783  30.481  24.196  1.00  0.00    -0.352 N 
ATOM      4  H   UNL A   1      30.743  31.414  23.888  1.00  0.00     0.163 HD
ENDROOT
BRANCH   1   5
ATOM      5  C   UNL A   1      30.230  28.118  23.534  1.00  0.00     0.043 A 
ATOM      6  C   UNL A   1      31.185  25.990  24.069  1.00  0.00     0.090 A 
ATOM      7  C   UNL A   1      31.352  27.315  23.693  1.00  0.00     0.044 A 
ATOM      8  N   UNL A   1      29.964  25.417  24.192  1.00  0.00    -0.255 NA
ATOM      9  C   UNL A   1      28.887  26.181  23.919  1.00  0.00     0.112 A 
ATOM     10  C   UNL A   1      28.967  27.524  23.609  1.00  0.00     0.034 A 
BRANCH   6  11
ATOM     11  C   UNL A   1      32.341  25.179  24.456  1.00  0.00     0.094 A 
ATOM     12  C   UNL A   1      33.401  23.160  24.348  1.00  0.00     0.223 A 
ATOM     13  N   UNL A   1      34.364  23.548  25.195  1.00  0.00    -0.222 NA
ATOM     14  N   UNL A   1      32.414  23.946  23.918  1.00  0.00    -0.211 NA
ATOM     15  C   UNL A   1      34.312  24.811  25.642  1.00  0.00     0.117 A 
ATOM     16  C   UNL A   1      33.302  25.677  25.316  1.00  0.00     0.051 A 
BRANCH  12  17
ATOM     17  N   UNL A   1      33.440  21.850  23.972  1.00  0.00    -0.354 N 
ATOM     18  H   UNL A   1      34.214  21.516  23.465  1.00  0.00     0.163 HD
BRANCH  17  19
ATOM     19  C   UNL A   1      32.363  20.939  24.303  1.00  0.00     0.122 C 
BRANCH  19  20
ATOM     20  C   UNL A   1      32.791  19.972  25.422  1.00  0.00     0.077 C 
BRANCH  20  21
ATOM     21  C   UNL A   1      32.910  18.533  24.954  1.00  0.00     0.050 A 
ATOM     22  C   UNL A   1      32.007  15.230  26.314  1.00  0.00     0.087 C 
ATOM     23  C   UNL A   1      32.549  16.338  25.463  1.00  0.00     0.105 A 
ATOM     24  N   UNL A   1      32.429  17.577  25.820  1.00  0.00    -0.240 NA
ATOM     25  N   UNL A   1      33.155  15.939  24.306  1.00  0.00    -0.311 N 
ATOM     26  C   UNL A   1      33.644  16.833  23.404  1.00  0.00     0.251 A 
ATOM     27  H   UNL A   1      33.242  14.977  24.120  1.00  0.00     0.171 HD
ATOM     28  C   UNL A   1      33.435  18.243  23.752  1.00  0.00     0.095 A 
ATOM     29  O   UNL A   1      34.230  16.503  22.383  1.00  0.00    -0.270 OA
ENDBRANCH  20  21
ENDBRANCH  19  20
ENDBRANCH  17  19
ENDBRANCH  12  17
ENDBRANCH   6  11
ENDBRANCH   1   5
BRANCH   3  30
ATOM     30  C   UNL A   1      31.361  30.329  25.520  1.00  0.00     0.118 C 
BRANCH  30  31
ATOM     31  C   UNL A   1      31.171  31.599  26.349  1.00  0.00     0.042 C 
BRANCH  31  32
ATOM     32  C   UNL A   1      32.469  32.098  26.978  1.00  0.00     0.118 C 
BRANCH  32  33
ATOM     33  N   UNL A   1      32.396  33.515  27.307  1.00  0.00    -0.352 N 
ATOM     34  C   UNL A   1      33.085  34.240  28.245  1.00  0.00     0.251 C 
ATOM     35  H   UNL A   1      31.752  34.033  26.773  1.00  0.00     0.163 HD
ATOM     36  O   UNL A   1      32.698  35.369  28.537  1.00  0.00    -0.269 OA
BRANCH  34  37
ATOM     37  C   UNL A   1      34.279  33.677  28.908  1.00  0.00     0.039 A 
ATOM     38  C   UNL A   1      34.105  32.694  29.886  1.00  0.00     0.014 A 
ATOM     39  C   UNL A   1      35.562  34.147  28.608  1.00  0.00     0.014 A 
ATOM     40  C   UNL A   1      35.218  32.149  30.528  1.00  0.00     0.010 A 
ATOM     41  C   UNL A   1      36.675  33.548  29.192  1.00  0.00     0.010 A 
ATOM     42  C   UNL A   1      36.514  32.549  30.163  1.00  0.00    -0.014 A 
BRANCH  42  43
ATOM     43  C   UNL A   1      37.712  31.935  30.788  1.00  0.00     0.031 A 
ATOM     44  C   UNL A   1      38.459  30.840  30.081  1.00  0.00     0.074 A 
ATOM     45  C   UNL A   1      38.086  32.324  32.022  1.00  0.00     0.049 A 
ATOM     46  N   UNL A   1      39.482  30.135  30.495  1.00  0.00    -0.248 NA
ATOM     47  C   UNL A   1      37.978  30.467  28.741  1.00  0.00     0.031 C 
ATOM     48  C   UNL A   1      37.416  33.347  32.827  1.00  0.00     0.029 A 
ATOM     49  N   UNL A   1      39.118  31.897  32.821  1.00  0.00    -0.354 N 
ATOM     50  C   UNL A   1      39.756  29.231  29.477  1.00  0.00     0.074 A 
ATOM     51  C   UNL A   1      38.759  29.437  28.448  1.00  0.00     0.031 C 
ATOM     52  C   UNL A   1      38.065  33.484  33.994  1.00  0.00     0.029 A 
ATOM     53  C   UNL A   1      39.170  32.532  34.038  1.00  0.00     0.049 A 
ATOM     54  H   UNL A   1      39.759  31.202  32.546  1.00  0.00     0.167 HD
ATOM     55  C   UNL A   1      40.760  28.325  29.396  1.00  0.00     0.037 A 
ATOM     56  C   UNL A   1      40.007  32.357  35.077  1.00  0.00     0.037 A 
ATOM     57  C   UNL A   1      41.760  28.136  30.416  1.00  0.00     0.049 A 
ATOM     58  C   UNL A   1      41.104  31.334  34.970  1.00  0.00     0.074 A 
ATOM     59  C   UNL A   1      42.851  27.285  30.406  1.00  0.00     0.029 A 
ATOM     60  N   UNL A   1      41.785  28.807  31.631  1.00  0.00    -0.354 N 
ATOM     61  N   UNL A   1      41.392  30.533  33.973  1.00  0.00    -0.248 NA
ATOM     62  C   UNL A   1      41.995  31.196  36.130  1.00  0.00     0.031 C 
ATOM     63  C   UNL A   1      43.507  27.403  31.635  1.00  0.00     0.029 A 
ATOM     64  C   UNL A   1      42.860  28.369  32.389  1.00  0.00     0.049 A 
ATOM     65  H   UNL A   1      41.136  29.492  31.912  1.00  0.00     0.167 HD
ATOM     66  C   UNL A   1      42.514  29.819  34.372  1.00  0.00     0.074 A 
ATOM     67  C   UNL A   1      42.861  30.292  35.695  1.00  0.00     0.031 C 
ATOM     68  C   UNL A   1      43.196  28.857  33.703  1.00  0.00     0.037 A 
BRANCH  55  69
ATOM     69  C   UNL A   1      40.826  27.468  28.164  1.00  0.00     0.057 A 
ATOM     70  C   UNL A   1      40.160  26.237  28.083  1.00  0.00     0.134 A 
ATOM     71  C   UNL A   1      41.534  27.892  27.032  1.00  0.00     0.134 A 
ATOM     72  F   UNL A   1      39.472  25.765  29.134  1.00  0.00    -0.206 F 
ATOM     73  C   UNL A   1      40.221  25.447  26.933  1.00  0.00     0.040 A 
ATOM     74  C   UNL A   1      41.577  27.126  25.867  1.00  0.00     0.040 A 
ATOM     75  F   UNL A   1      42.189  29.063  27.038  1.00  0.00    -0.206 F 
ATOM     76  C   UNL A   1      40.925  25.895  25.818  1.00  0.00     0.006 A 
ENDBRANCH  55  69
BRANCH  56  77
ATOM     77  C   UNL A   1      39.854  33.183  36.303  1.00  0.00     0.057 A 
ATOM     78  C   UNL A   1      40.604  34.350  36.485  1.00  0.00     0.134 A 
ATOM     79  C   UNL A   1      38.963  32.825  37.321  1.00  0.00     0.134 A 
ATOM     80  F   UNL A   1      41.486  34.739  35.551  1.00  0.00    -0.206 F 
ATOM     81  C   UNL A   1      40.491  35.120  37.643  1.00  0.00     0.040 A 
ATOM     82  C   UNL A   1      38.819  33.598  38.473  1.00  0.00     0.040 A 
ATOM     83  F   UNL A   1      38.208  31.722  37.204  1.00  0.00    -0.206 F 
ATOM     84  C   UNL A   1      39.592  34.747  38.640  1.00  0.00     0.006 A 
ENDBRANCH  56  77
BRANCH  68  85
ATOM     85  C   UNL A   1      44.409  28.281  34.374  1.00  0.00     0.057 A 
ATOM     86  C   UNL A   1      44.345  27.120  35.155  1.00  0.00     0.134 A 
ATOM     87  C   UNL A   1      45.665  28.877  34.204  1.00  0.00     0.134 A 
ATOM     88  F   UNL A   1      43.170  26.508  35.368  1.00  0.00    -0.206 F 
ATOM     89  C   UNL A   1      45.483  26.587  35.763  1.00  0.00     0.040 A 
ATOM     90  C   UNL A   1      46.814  28.335  34.782  1.00  0.00     0.040 A 
ATOM     91  F   UNL A   1      45.799  29.985  33.461  1.00  0.00    -0.206 F 
ATOM     92  C   UNL A   1      46.723  27.191  35.571  1.00  0.00     0.006 A 
ENDBRANCH  68  85
ENDBRANCH  42  43
ENDBRANCH  34  37
ENDBRANCH  32  33
ENDBRANCH  31  32
ENDBRANCH  30  31
ENDBRANCH   3  30
TORSDOF 15
ENDMDL
