MODEL 1
REMARK VINA RESULT:     -10.8      0.000      0.000
REMARK SMILES COCC[C@H](NC(=O)N1CC[C@H](C(=O)OC)C1)C(=O)NCCCNC(=O)c1ccc(-c2c3nc(c(-c4c(F)cccc4F)c4ccc([nH]4)c(-c4c(F)cccc4F)c4nc(c(-c5c(F)cccc5F)c5ccc2[nH]5)C=C4)C=C3)cc1
REMARK SMILES IDX 21 1 20 2 18 3 19 4 5 6 4 7 3 8 2 9 1 10 6 11 7 12 8 14 9 15
REMARK SMILES IDX 10 16 17 17 11 18 12 19 13 20 14 21 15 22 16 23 22 24 23 25
REMARK SMILES IDX 24 26 25 27 26 29 27 30 28 31 80 32 29 33 79 34 30 35 31 36
REMARK SMILES IDX 32 37 73 38 33 39 78 40 72 41 74 42 34 43 77 44 71 45 70 46
REMARK SMILES IDX 35 48 61 49 44 50 60 51 45 52 48 53 59 54 75 55 46 56 47 57
REMARK SMILES IDX 58 59 76 60 49 61 36 62 37 63 42 64 38 65 39 66 41 67 43 68
REMARK SMILES IDX 40 69 62 70 63 71 68 72 64 73 65 74 67 75 69 76 66 77 50 78
REMARK SMILES IDX 51 79 56 80 52 81 53 82 55 83 57 84 54 85
REMARK H PARENT 20 5 6 13 24 28 74 47 48 58
REMARK Flexibility Score: inf
ROOT
ATOM      1  C   UNL A   1      36.534  20.283  25.001  1.00  0.00     0.117 C 
ENDROOT
BRANCH   1   2
ATOM      2  N   UNL A   1      36.658  21.706  25.224  1.00  0.00    -0.354 N 
ATOM      3  C   UNL A   1      35.703  22.677  25.195  1.00  0.00     0.242 C 
ATOM      4  O   UNL A   1      35.946  23.688  25.868  1.00  0.00    -0.273 OA
ATOM      5  H   UNL A   1      37.568  22.020  25.426  1.00  0.00     0.163 HD
BRANCH   3   6
ATOM      6  C   UNL A   1      34.377  22.562  24.398  1.00  0.00     0.175 C 
BRANCH   6   7
ATOM      7  C   UNL A   1      34.059  23.822  23.546  1.00  0.00     0.063 C 
BRANCH   7   8
ATOM      8  C   UNL A   1      33.284  23.617  22.232  1.00  0.00     0.162 C 
BRANCH   8   9
ATOM      9  O   UNL A   1      33.221  24.832  21.487  1.00  0.00    -0.385 OA
ATOM     10  C   UNL A   1      33.338  26.030  22.243  1.00  0.00     0.194 C 
ENDBRANCH   8   9
ENDBRANCH   7   8
ENDBRANCH   6   7
BRANCH   6  11
ATOM     11  N   UNL A   1      33.264  22.105  25.231  1.00  0.00    -0.326 N 
ATOM     12  C   UNL A   1      32.297  21.192  24.989  1.00  0.00     0.318 C 
ATOM     13  H   UNL A   1      33.209  22.535  26.115  1.00  0.00     0.166 HD
ATOM     14  O   UNL A   1      31.168  21.454  25.410  1.00  0.00    -0.249 OA
BRANCH  12  15
ATOM     15  N   UNL A   1      32.563  20.039  24.322  1.00  0.00    -0.324 N 
ATOM     16  C   UNL A   1      32.274  19.709  22.944  1.00  0.00     0.122 C 
ATOM     17  C   UNL A   1      33.572  19.117  24.827  1.00  0.00     0.136 C 
ATOM     18  C   UNL A   1      32.424  18.202  22.885  1.00  0.00     0.039 C 
ATOM     19  C   UNL A   1      33.533  17.905  23.896  1.00  0.00     0.120 C 
BRANCH  19  20
ATOM     20  C   UNL A   1      33.280  16.628  24.657  1.00  0.00     0.310 C 
ATOM     21  O   UNL A   1      32.305  16.451  25.375  1.00  0.00    -0.252 OA
BRANCH  20  22
ATOM     22  O   UNL A   1      34.276  15.721  24.458  1.00  0.00    -0.469 OA
ATOM     23  C   UNL A   1      35.364  15.829  25.376  1.00  0.00     0.282 C 
ENDBRANCH  20  22
ENDBRANCH  19  20
ENDBRANCH  12  15
ENDBRANCH   6  11
ENDBRANCH   3   6
ENDBRANCH   1   2
BRANCH   1  24
ATOM     24  C   UNL A   1      37.861  19.576  24.776  1.00  0.00     0.042 C 
BRANCH  24  25
ATOM     25  C   UNL A   1      38.964  20.065  25.708  1.00  0.00     0.118 C 
BRANCH  25  26
ATOM     26  N   UNL A   1      40.069  19.116  25.812  1.00  0.00    -0.352 N 
ATOM     27  C   UNL A   1      41.413  19.316  25.994  1.00  0.00     0.251 C 
ATOM     28  H   UNL A   1      39.803  18.171  25.738  1.00  0.00     0.163 HD
ATOM     29  O   UNL A   1      42.184  18.370  25.858  1.00  0.00    -0.269 OA
BRANCH  27  30
ATOM     30  C   UNL A   1      41.948  20.648  26.350  1.00  0.00     0.039 A 
ATOM     31  C   UNL A   1      42.150  20.954  27.700  1.00  0.00     0.014 A 
ATOM     32  C   UNL A   1      42.188  21.620  25.376  1.00  0.00     0.014 A 
ATOM     33  C   UNL A   1      42.628  22.215  28.068  1.00  0.00     0.010 A 
ATOM     34  C   UNL A   1      42.750  22.842  25.734  1.00  0.00     0.010 A 
ATOM     35  C   UNL A   1      42.950  23.162  27.084  1.00  0.00    -0.014 A 
BRANCH  35  36
ATOM     36  C   UNL A   1      43.437  24.517  27.444  1.00  0.00     0.031 A 
ATOM     37  C   UNL A   1      42.454  25.565  27.896  1.00  0.00     0.074 A 
ATOM     38  C   UNL A   1      44.739  24.827  27.303  1.00  0.00     0.049 A 
ATOM     39  N   UNL A   1      42.652  26.833  28.152  1.00  0.00    -0.248 NA
ATOM     40  C   UNL A   1      41.053  25.137  28.048  1.00  0.00     0.031 C 
ATOM     41  C   UNL A   1      45.783  23.915  26.830  1.00  0.00     0.029 A 
ATOM     42  N   UNL A   1      45.407  26.003  27.533  1.00  0.00    -0.354 N 
ATOM     43  C   UNL A   1      41.402  27.356  28.459  1.00  0.00     0.074 A 
ATOM     44  C   UNL A   1      40.445  26.283  28.313  1.00  0.00     0.031 C 
ATOM     45  C   UNL A   1      46.961  24.560  26.824  1.00  0.00     0.029 A 
ATOM     46  C   UNL A   1      46.751  25.937  27.259  1.00  0.00     0.049 A 
ATOM     47  H   UNL A   1      44.964  26.818  27.863  1.00  0.00     0.167 HD
ATOM     48  C   UNL A   1      41.084  28.612  28.853  1.00  0.00     0.037 A 
ATOM     49  C   UNL A   1      47.704  26.884  27.345  1.00  0.00     0.037 A 
ATOM     50  C   UNL A   1      42.046  29.663  29.051  1.00  0.00     0.049 A 
ATOM     51  C   UNL A   1      47.330  28.260  27.823  1.00  0.00     0.074 A 
ATOM     52  C   UNL A   1      41.833  30.952  29.508  1.00  0.00     0.029 A 
ATOM     53  N   UNL A   1      43.406  29.538  28.815  1.00  0.00    -0.354 N 
ATOM     54  N   UNL A   1      46.152  28.726  28.162  1.00  0.00    -0.248 NA
ATOM     55  C   UNL A   1      48.420  29.238  27.943  1.00  0.00     0.031 C 
ATOM     56  C   UNL A   1      43.064  31.616  29.524  1.00  0.00     0.029 A 
ATOM     57  C   UNL A   1      44.046  30.729  29.113  1.00  0.00     0.049 A 
ATOM     58  H   UNL A   1      43.851  28.725  28.485  1.00  0.00     0.167 HD
ATOM     59  C   UNL A   1      46.364  30.037  28.566  1.00  0.00     0.074 A 
ATOM     60  C   UNL A   1      47.784  30.290  28.440  1.00  0.00     0.031 C 
ATOM     61  C   UNL A   1      45.464  30.951  29.003  1.00  0.00     0.037 A 
BRANCH  48  62
ATOM     62  C   UNL A   1      39.637  28.914  29.110  1.00  0.00     0.057 A 
ATOM     63  C   UNL A   1      39.075  28.802  30.388  1.00  0.00     0.134 A 
ATOM     64  C   UNL A   1      38.802  29.353  28.075  1.00  0.00     0.134 A 
ATOM     65  F   UNL A   1      39.816  28.372  31.422  1.00  0.00    -0.206 F 
ATOM     66  C   UNL A   1      37.731  29.094  30.624  1.00  0.00     0.040 A 
ATOM     67  C   UNL A   1      37.463  29.674  28.302  1.00  0.00     0.040 A 
ATOM     68  F   UNL A   1      39.278  29.486  26.826  1.00  0.00    -0.206 F 
ATOM     69  C   UNL A   1      36.922  29.539  29.580  1.00  0.00     0.006 A 
ENDBRANCH  48  62
BRANCH  49  70
ATOM     70  C   UNL A   1      49.112  26.559  27.003  1.00  0.00     0.057 A 
ATOM     71  C   UNL A   1      50.011  26.128  27.985  1.00  0.00     0.134 A 
ATOM     72  C   UNL A   1      49.596  26.687  25.697  1.00  0.00     0.134 A 
ATOM     73  F   UNL A   1      49.609  26.004  29.259  1.00  0.00    -0.206 F 
ATOM     74  C   UNL A   1      51.347  25.858  27.687  1.00  0.00     0.040 A 
ATOM     75  C   UNL A   1      50.925  26.397  25.379  1.00  0.00     0.040 A 
ATOM     76  F   UNL A   1      48.783  27.087  24.708  1.00  0.00    -0.206 F 
ATOM     77  C   UNL A   1      51.806  25.989  26.379  1.00  0.00     0.006 A 
ENDBRANCH  49  70
BRANCH  61  78
ATOM     78  C   UNL A   1      45.995  32.288  29.428  1.00  0.00     0.057 A 
ATOM     79  C   UNL A   1      46.423  32.532  30.737  1.00  0.00     0.134 A 
ATOM     80  C   UNL A   1      46.118  33.328  28.499  1.00  0.00     0.134 A 
ATOM     81  F   UNL A   1      46.320  31.579  31.676  1.00  0.00    -0.206 F 
ATOM     82  C   UNL A   1      46.933  33.775  31.115  1.00  0.00     0.040 A 
ATOM     83  C   UNL A   1      46.649  34.567  28.858  1.00  0.00     0.040 A 
ATOM     84  F   UNL A   1      45.735  33.153  27.224  1.00  0.00    -0.206 F 
ATOM     85  C   UNL A   1      47.053  34.794  30.172  1.00  0.00     0.006 A 
ENDBRANCH  61  78
ENDBRANCH  35  36
ENDBRANCH  27  30
ENDBRANCH  25  26
ENDBRANCH  24  25
ENDBRANCH   1  24
TORSDOF 17
ENDMDL
MODEL 2
REMARK VINA RESULT:     -10.7      5.701     10.153
REMARK SMILES COCC[C@H](NC(=O)N1CC[C@H](C(=O)OC)C1)C(=O)NCCCNC(=O)c1ccc(-c2c3nc(c(-c4c(F)cccc4F)c4ccc([nH]4)c(-c4c(F)cccc4F)c4nc(c(-c5c(F)cccc5F)c5ccc2[nH]5)C=C4)C=C3)cc1
REMARK SMILES IDX 21 1 20 2 18 3 19 4 5 6 4 7 3 8 2 9 1 10 6 11 7 12 8 14 9 15
REMARK SMILES IDX 10 16 17 17 11 18 12 19 13 20 14 21 15 22 16 23 22 24 23 25
REMARK SMILES IDX 24 26 25 27 26 29 27 30 28 31 80 32 29 33 79 34 30 35 31 36
REMARK SMILES IDX 32 37 73 38 33 39 78 40 72 41 74 42 34 43 77 44 71 45 70 46
REMARK SMILES IDX 35 48 61 49 44 50 60 51 45 52 48 53 59 54 75 55 46 56 47 57
REMARK SMILES IDX 58 59 76 60 49 61 36 62 37 63 42 64 38 65 39 66 41 67 43 68
REMARK SMILES IDX 40 69 62 70 63 71 68 72 64 73 65 74 67 75 69 76 66 77 50 78
REMARK SMILES IDX 51 79 56 80 52 81 53 82 55 83 57 84 54 85
REMARK H PARENT 20 5 6 13 24 28 74 47 48 58
REMARK Flexibility Score: inf
ROOT
ATOM      1  C   UNL A   1      31.274  30.960  25.939  1.00  0.00     0.117 C 
ENDROOT
BRANCH   1   2
ATOM      2  N   UNL A   1      32.476  30.203  26.208  1.00  0.00    -0.354 N 
ATOM      3  C   UNL A   1      32.862  28.986  25.734  1.00  0.00     0.242 C 
ATOM      4  O   UNL A   1      34.082  28.779  25.714  1.00  0.00    -0.273 OA
ATOM      5  H   UNL A   1      33.111  30.631  26.825  1.00  0.00     0.163 HD
BRANCH   3   6
ATOM      6  C   UNL A   1      31.873  27.903  25.227  1.00  0.00     0.175 C 
BRANCH   6   7
ATOM      7  C   UNL A   1      31.972  26.563  26.009  1.00  0.00     0.063 C 
BRANCH   7   8
ATOM      8  C   UNL A   1      32.945  25.496  25.475  1.00  0.00     0.162 C 
BRANCH   8   9
ATOM      9  O   UNL A   1      32.378  24.806  24.363  1.00  0.00    -0.385 OA
ATOM     10  C   UNL A   1      31.170  24.102  24.620  1.00  0.00     0.194 C 
ENDBRANCH   8   9
ENDBRANCH   7   8
ENDBRANCH   6   7
BRANCH   6  11
ATOM     11  N   UNL A   1      31.909  27.751  23.772  1.00  0.00    -0.326 N 
ATOM     12  C   UNL A   1      30.909  27.602  22.875  1.00  0.00     0.318 C 
ATOM     13  H   UNL A   1      32.812  27.759  23.381  1.00  0.00     0.166 HD
ATOM     14  O   UNL A   1      31.115  26.827  21.938  1.00  0.00    -0.249 OA
BRANCH  12  15
ATOM     15  N   UNL A   1      29.739  28.283  22.998  1.00  0.00    -0.324 N 
ATOM     16  C   UNL A   1      28.437  27.774  23.365  1.00  0.00     0.122 C 
ATOM     17  C   UNL A   1      29.749  29.729  23.175  1.00  0.00     0.136 C 
ATOM     18  C   UNL A   1      27.480  28.874  22.955  1.00  0.00     0.039 C 
ATOM     19  C   UNL A   1      28.282  30.158  23.178  1.00  0.00     0.120 C 
BRANCH  19  20
ATOM     20  C   UNL A   1      28.004  31.193  22.116  1.00  0.00     0.310 C 
ATOM     21  O   UNL A   1      28.058  30.961  20.916  1.00  0.00    -0.252 OA
BRANCH  20  22
ATOM     22  O   UNL A   1      27.710  32.404  22.663  1.00  0.00    -0.469 OA
ATOM     23  C   UNL A   1      28.846  33.231  22.914  1.00  0.00     0.282 C 
ENDBRANCH  20  22
ENDBRANCH  19  20
ENDBRANCH  12  15
ENDBRANCH   6  11
ENDBRANCH   3   6
ENDBRANCH   1   2
BRANCH   1  24
ATOM     24  C   UNL A   1      31.226  32.309  26.637  1.00  0.00     0.042 C 
BRANCH  24  25
ATOM     25  C   UNL A   1      32.604  32.824  27.038  1.00  0.00     0.118 C 
BRANCH  25  26
ATOM     26  N   UNL A   1      32.545  34.130  27.686  1.00  0.00    -0.352 N 
ATOM     27  C   UNL A   1      33.235  34.636  28.758  1.00  0.00     0.251 C 
ATOM     28  H   UNL A   1      31.900  34.756  27.285  1.00  0.00     0.163 HD
ATOM     29  O   UNL A   1      32.880  35.704  29.250  1.00  0.00    -0.269 OA
BRANCH  27  30
ATOM     30  C   UNL A   1      34.395  33.918  29.331  1.00  0.00     0.039 A 
ATOM     31  C   UNL A   1      35.682  34.296  28.935  1.00  0.00     0.014 A 
ATOM     32  C   UNL A   1      34.226  32.835  30.197  1.00  0.00     0.014 A 
ATOM     33  C   UNL A   1      36.796  33.618  29.438  1.00  0.00     0.010 A 
ATOM     34  C   UNL A   1      35.335  32.220  30.767  1.00  0.00     0.010 A 
ATOM     35  C   UNL A   1      36.630  32.585  30.374  1.00  0.00    -0.014 A 
BRANCH  35  36
ATOM     36  C   UNL A   1      37.791  31.830  30.908  1.00  0.00     0.031 A 
ATOM     37  C   UNL A   1      38.326  32.159  32.276  1.00  0.00     0.074 A 
ATOM     38  C   UNL A   1      38.402  30.902  30.147  1.00  0.00     0.049 A 
ATOM     39  N   UNL A   1      39.390  31.698  32.884  1.00  0.00    -0.248 NA
ATOM     40  C   UNL A   1      37.585  33.167  33.053  1.00  0.00     0.031 C 
ATOM     41  C   UNL A   1      38.007  30.525  28.788  1.00  0.00     0.029 A 
ATOM     42  N   UNL A   1      39.495  30.115  30.405  1.00  0.00    -0.354 N 
ATOM     43  C   UNL A   1      39.462  32.383  34.091  1.00  0.00     0.074 A 
ATOM     44  C   UNL A   1      38.364  33.323  34.112  1.00  0.00     0.031 C 
ATOM     45  C   UNL A   1      38.835  29.566  28.341  1.00  0.00     0.029 A 
ATOM     46  C   UNL A   1      39.835  29.286  29.366  1.00  0.00     0.049 A 
ATOM     47  H   UNL A   1      39.989  30.143  31.256  1.00  0.00     0.167 HD
ATOM     48  C   UNL A   1      40.348  32.224  35.102  1.00  0.00     0.037 A 
ATOM     49  C   UNL A   1      40.844  28.402  29.252  1.00  0.00     0.037 A 
ATOM     50  C   UNL A   1      41.406  31.250  35.102  1.00  0.00     0.049 A 
ATOM     51  C   UNL A   1      41.791  28.217  30.405  1.00  0.00     0.074 A 
ATOM     52  C   UNL A   1      42.319  30.968  36.102  1.00  0.00     0.029 A 
ATOM     53  N   UNL A   1      41.683  30.391  34.050  1.00  0.00    -0.354 N 
ATOM     54  N   UNL A   1      41.815  28.834  31.563  1.00  0.00    -0.248 NA
ATOM     55  C   UNL A   1      42.844  27.205  30.243  1.00  0.00     0.031 C 
ATOM     56  C   UNL A   1      43.166  29.953  35.645  1.00  0.00     0.029 A 
ATOM     57  C   UNL A   1      42.755  29.578  34.376  1.00  0.00     0.049 A 
ATOM     58  H   UNL A   1      41.190  30.362  33.198  1.00  0.00     0.167 HD
ATOM     59  C   UNL A   1      42.860  28.262  32.276  1.00  0.00     0.074 A 
ATOM     60  C   UNL A   1      43.440  27.243  31.427  1.00  0.00     0.031 C 
ATOM     61  C   UNL A   1      43.301  28.554  33.524  1.00  0.00     0.037 A 
BRANCH  48  62
ATOM     62  C   UNL A   1      40.202  33.116  36.300  1.00  0.00     0.057 A 
ATOM     63  C   UNL A   1      39.307  32.820  37.336  1.00  0.00     0.134 A 
ATOM     64  C   UNL A   1      40.989  34.267  36.437  1.00  0.00     0.134 A 
ATOM     65  F   UNL A   1      38.512  31.740  37.261  1.00  0.00    -0.206 F 
ATOM     66  C   UNL A   1      39.182  33.647  38.453  1.00  0.00     0.040 A 
ATOM     67  C   UNL A   1      40.893  35.087  37.561  1.00  0.00     0.040 A 
ATOM     68  F   UNL A   1      41.870  34.607  35.483  1.00  0.00    -0.206 F 
ATOM     69  C   UNL A   1      39.983  34.781  38.572  1.00  0.00     0.006 A 
ENDBRANCH  48  62
BRANCH  49  70
ATOM     70  C   UNL A   1      40.997  27.598  28.013  1.00  0.00     0.057 A 
ATOM     71  C   UNL A   1      41.747  28.075  26.932  1.00  0.00     0.134 A 
ATOM     72  C   UNL A   1      40.386  26.347  27.872  1.00  0.00     0.134 A 
ATOM     73  F   UNL A   1      42.341  29.276  27.002  1.00  0.00    -0.206 F 
ATOM     74  C   UNL A   1      41.866  27.350  25.746  1.00  0.00     0.040 A 
ATOM     75  C   UNL A   1      40.516  25.598  26.700  1.00  0.00     0.040 A 
ATOM     76  F   UNL A   1      39.661  25.830  28.875  1.00  0.00    -0.206 F 
ATOM     77  C   UNL A   1      41.252  26.105  25.630  1.00  0.00     0.006 A 
ENDBRANCH  49  70
BRANCH  61  78
ATOM     78  C   UNL A   1      44.428  27.725  34.064  1.00  0.00     0.057 A 
ATOM     79  C   UNL A   1      45.762  28.133  33.958  1.00  0.00     0.134 A 
ATOM     80  C   UNL A   1      44.166  26.525  34.736  1.00  0.00     0.134 A 
ATOM     81  F   UNL A   1      46.078  29.267  33.316  1.00  0.00    -0.206 F 
ATOM     82  C   UNL A   1      46.801  27.362  34.482  1.00  0.00     0.040 A 
ATOM     83  C   UNL A   1      45.193  25.759  35.286  1.00  0.00     0.040 A 
ATOM     84  F   UNL A   1      42.906  26.085  34.880  1.00  0.00    -0.206 F 
ATOM     85  C   UNL A   1      46.517  26.175  35.155  1.00  0.00     0.006 A 
ENDBRANCH  61  78
ENDBRANCH  35  36
ENDBRANCH  27  30
ENDBRANCH  25  26
ENDBRANCH  24  25
ENDBRANCH   1  24
TORSDOF 17
ENDMDL
MODEL 3
REMARK VINA RESULT:     -10.6      1.562      6.485
REMARK SMILES COCC[C@H](NC(=O)N1CC[C@H](C(=O)OC)C1)C(=O)NCCCNC(=O)c1ccc(-c2c3nc(c(-c4c(F)cccc4F)c4ccc([nH]4)c(-c4c(F)cccc4F)c4nc(c(-c5c(F)cccc5F)c5ccc2[nH]5)C=C4)C=C3)cc1
REMARK SMILES IDX 21 1 20 2 18 3 19 4 5 6 4 7 3 8 2 9 1 10 6 11 7 12 8 14 9 15
REMARK SMILES IDX 10 16 17 17 11 18 12 19 13 20 14 21 15 22 16 23 22 24 23 25
REMARK SMILES IDX 24 26 25 27 26 29 27 30 28 31 80 32 29 33 79 34 30 35 31 36
REMARK SMILES IDX 32 37 73 38 33 39 78 40 72 41 74 42 34 43 77 44 71 45 70 46
REMARK SMILES IDX 35 48 61 49 44 50 60 51 45 52 48 53 59 54 75 55 46 56 47 57
REMARK SMILES IDX 58 59 76 60 49 61 36 62 37 63 42 64 38 65 39 66 41 67 43 68
REMARK SMILES IDX 40 69 62 70 63 71 68 72 64 73 65 74 67 75 69 76 66 77 50 78
REMARK SMILES IDX 51 79 56 80 52 81 53 82 55 83 57 84 54 85
REMARK H PARENT 20 5 6 13 24 28 74 47 48 58
REMARK Flexibility Score: inf
ROOT
ATOM      1  C   UNL A   1      37.117  20.290  24.988  1.00  0.00     0.117 C 
ENDROOT
BRANCH   1   2
ATOM      2  N   UNL A   1      37.011  21.688  25.336  1.00  0.00    -0.354 N 
ATOM      3  C   UNL A   1      35.917  22.500  25.354  1.00  0.00     0.242 C 
ATOM      4  O   UNL A   1      35.980  23.471  26.120  1.00  0.00    -0.273 OA
ATOM      5  H   UNL A   1      37.855  22.119  25.601  1.00  0.00     0.163 HD
BRANCH   3   6
ATOM      6  C   UNL A   1      34.646  22.256  24.498  1.00  0.00     0.175 C 
BRANCH   6   7
ATOM      7  C   UNL A   1      34.324  23.424  23.525  1.00  0.00     0.063 C 
BRANCH   7   8
ATOM      8  C   UNL A   1      33.603  24.656  24.103  1.00  0.00     0.162 C 
BRANCH   8   9
ATOM      9  O   UNL A   1      32.228  24.368  24.348  1.00  0.00    -0.385 OA
ATOM     10  C   UNL A   1      31.411  24.219  23.194  1.00  0.00     0.194 C 
ENDBRANCH   8   9
ENDBRANCH   7   8
ENDBRANCH   6   7
BRANCH   6  11
ATOM     11  N   UNL A   1      33.506  21.816  25.305  1.00  0.00    -0.326 N 
ATOM     12  C   UNL A   1      32.490  20.975  25.012  1.00  0.00     0.318 C 
ATOM     13  H   UNL A   1      33.474  22.197  26.212  1.00  0.00     0.166 HD
ATOM     14  O   UNL A   1      31.377  21.276  25.449  1.00  0.00    -0.249 OA
BRANCH  12  15
ATOM     15  N   UNL A   1      32.692  19.847  24.281  1.00  0.00    -0.324 N 
ATOM     16  C   UNL A   1      32.265  19.564  22.928  1.00  0.00     0.122 C 
ATOM     17  C   UNL A   1      33.751  18.917  24.647  1.00  0.00     0.136 C 
ATOM     18  C   UNL A   1      32.415  18.062  22.800  1.00  0.00     0.039 C 
ATOM     19  C   UNL A   1      33.622  17.739  23.681  1.00  0.00     0.120 C 
BRANCH  19  20
ATOM     20  C   UNL A   1      33.454  16.433  24.418  1.00  0.00     0.310 C 
ATOM     21  O   UNL A   1      32.452  16.143  25.060  1.00  0.00    -0.252 OA
BRANCH  20  22
ATOM     22  O   UNL A   1      34.554  15.642  24.293  1.00  0.00    -0.469 OA
ATOM     23  C   UNL A   1      35.492  15.760  25.363  1.00  0.00     0.282 C 
ENDBRANCH  20  22
ENDBRANCH  19  20
ENDBRANCH  12  15
ENDBRANCH   6  11
ENDBRANCH   3   6
ENDBRANCH   1   2
BRANCH   1  24
ATOM     24  C   UNL A   1      38.544  19.815  24.771  1.00  0.00     0.042 C 
BRANCH  24  25
ATOM     25  C   UNL A   1      39.287  19.537  26.073  1.00  0.00     0.118 C 
BRANCH  25  26
ATOM     26  N   UNL A   1      40.607  18.955  25.850  1.00  0.00    -0.352 N 
ATOM     27  C   UNL A   1      41.858  19.515  25.900  1.00  0.00     0.251 C 
ATOM     28  H   UNL A   1      40.597  17.997  25.625  1.00  0.00     0.163 HD
ATOM     29  O   UNL A   1      42.819  18.873  25.487  1.00  0.00    -0.269 OA
BRANCH  27  30
ATOM     30  C   UNL A   1      42.067  20.875  26.443  1.00  0.00     0.039 A 
ATOM     31  C   UNL A   1      42.390  21.910  25.558  1.00  0.00     0.014 A 
ATOM     32  C   UNL A   1      42.017  21.127  27.816  1.00  0.00     0.014 A 
ATOM     33  C   UNL A   1      42.620  23.200  26.046  1.00  0.00     0.010 A 
ATOM     34  C   UNL A   1      42.156  22.427  28.291  1.00  0.00     0.010 A 
ATOM     35  C   UNL A   1      42.486  23.471  27.416  1.00  0.00    -0.014 A 
BRANCH  35  36
ATOM     36  C   UNL A   1      42.748  24.824  27.967  1.00  0.00     0.031 A 
ATOM     37  C   UNL A   1      44.144  25.196  28.392  1.00  0.00     0.074 A 
ATOM     38  C   UNL A   1      41.732  25.689  28.146  1.00  0.00     0.049 A 
ATOM     39  N   UNL A   1      44.566  26.279  28.994  1.00  0.00    -0.248 NA
ATOM     40  C   UNL A   1      45.201  24.203  28.137  1.00  0.00     0.031 C 
ATOM     41  C   UNL A   1      40.329  25.430  27.817  1.00  0.00     0.029 A 
ATOM     42  N   UNL A   1      41.723  26.960  28.663  1.00  0.00    -0.354 N 
ATOM     43  C   UNL A   1      45.924  26.081  29.218  1.00  0.00     0.074 A 
ATOM     44  C   UNL A   1      46.246  24.759  28.732  1.00  0.00     0.031 C 
ATOM     45  C   UNL A   1      39.599  26.516  28.122  1.00  0.00     0.029 A 
ATOM     46  C   UNL A   1      40.475  27.532  28.698  1.00  0.00     0.049 A 
ATOM     47  H   UNL A   1      42.534  27.419  28.979  1.00  0.00     0.167 HD
ATOM     48  C   UNL A   1      46.825  26.935  29.757  1.00  0.00     0.037 A 
ATOM     49  C   UNL A   1      40.083  28.738  29.149  1.00  0.00     0.037 A 
ATOM     50  C   UNL A   1      46.514  28.271  30.189  1.00  0.00     0.049 A 
ATOM     51  C   UNL A   1      41.112  29.683  29.706  1.00  0.00     0.074 A 
ATOM     52  C   UNL A   1      47.367  29.237  30.692  1.00  0.00     0.029 A 
ATOM     53  N   UNL A   1      45.246  28.831  30.156  1.00  0.00    -0.354 N 
ATOM     54  N   UNL A   1      42.402  29.502  29.863  1.00  0.00    -0.248 NA
ATOM     55  C   UNL A   1      40.634  31.003  30.139  1.00  0.00     0.031 C 
ATOM     56  C   UNL A   1      46.611  30.375  30.987  1.00  0.00     0.029 A 
ATOM     57  C   UNL A   1      45.294  30.130  30.633  1.00  0.00     0.049 A 
ATOM     58  H   UNL A   1      44.433  28.375  29.841  1.00  0.00     0.167 HD
ATOM     59  C   UNL A   1      42.892  30.694  30.379  1.00  0.00     0.074 A 
ATOM     60  C   UNL A   1      41.764  31.594  30.500  1.00  0.00     0.031 C 
ATOM     61  C   UNL A   1      44.163  31.017  30.722  1.00  0.00     0.037 A 
BRANCH  48  62
ATOM     62  C   UNL A   1      48.240  26.454  29.897  1.00  0.00     0.057 A 
ATOM     63  C   UNL A   1      49.201  26.691  28.905  1.00  0.00     0.134 A 
ATOM     64  C   UNL A   1      48.655  25.776  31.049  1.00  0.00     0.134 A 
ATOM     65  F   UNL A   1      48.866  27.322  27.769  1.00  0.00    -0.206 F 
ATOM     66  C   UNL A   1      50.518  26.251  29.045  1.00  0.00     0.040 A 
ATOM     67  C   UNL A   1      49.975  25.354  31.212  1.00  0.00     0.040 A 
ATOM     68  F   UNL A   1      47.786  25.520  32.039  1.00  0.00    -0.206 F 
ATOM     69  C   UNL A   1      50.910  25.586  30.206  1.00  0.00     0.006 A 
ENDBRANCH  48  62
BRANCH  49  70
ATOM     70  C   UNL A   1      38.656  29.140  29.063  1.00  0.00     0.057 A 
ATOM     71  C   UNL A   1      38.115  29.625  27.867  1.00  0.00     0.134 A 
ATOM     72  C   UNL A   1      37.807  29.066  30.172  1.00  0.00     0.134 A 
ATOM     73  F   UNL A   1      38.885  29.735  26.774  1.00  0.00    -0.206 F 
ATOM     74  C   UNL A   1      36.787  30.044  27.781  1.00  0.00     0.040 A 
ATOM     75  C   UNL A   1      36.469  29.459  30.095  1.00  0.00     0.040 A 
ATOM     76  F   UNL A   1      38.262  28.601  31.345  1.00  0.00    -0.206 F 
ATOM     77  C   UNL A   1      35.959  29.958  28.898  1.00  0.00     0.006 A 
ENDBRANCH  49  70
BRANCH  61  78
ATOM     78  C   UNL A   1      44.409  32.414  31.207  1.00  0.00     0.057 A 
ATOM     79  C   UNL A   1      44.700  33.462  30.328  1.00  0.00     0.134 A 
ATOM     80  C   UNL A   1      44.310  32.717  32.571  1.00  0.00     0.134 A 
ATOM     81  F   UNL A   1      44.820  33.233  29.011  1.00  0.00    -0.206 F 
ATOM     82  C   UNL A   1      44.909  34.763  30.790  1.00  0.00     0.040 A 
ATOM     83  C   UNL A   1      44.491  34.017  33.042  1.00  0.00     0.040 A 
ATOM     84  F   UNL A   1      44.023  31.757  33.464  1.00  0.00    -0.206 F 
ATOM     85  C   UNL A   1      44.797  35.044  32.151  1.00  0.00     0.006 A 
ENDBRANCH  61  78
ENDBRANCH  35  36
ENDBRANCH  27  30
ENDBRANCH  25  26
ENDBRANCH  24  25
ENDBRANCH   1  24
TORSDOF 17
ENDMDL
