MODEL 1
REMARK VINA RESULT:     -12.3      0.000      0.000
REMARK SMILES Cc1ccc(C)c(/C=C2\SC(=S)N(CC(=O)NCCCNC(=O)c3ccc(-c4c5nc(c(-c6c(F)cccc6F)c6ccc([nH]6)c(-c6c(F)cccc6F)c6nc(c(-c7c(F)cccc7F)c7ccc4[nH]7)C=C6)C=C5)cc3)C2=O)c1
REMARK SMILES IDX 19 1 18 2 17 3 15 4 16 5 14 7 13 8 8 9 9 10 10 11 78 12
REMARK SMILES IDX 11 13 79 14 12 15 7 16 1 17 2 18 3 19 80 20 4 21 5 22 6 23
REMARK SMILES IDX 20 24 21 25 22 26 23 28 24 29 25 30 77 31 26 32 76 33 27 34
REMARK SMILES IDX 28 35 29 36 70 37 30 38 75 39 69 40 71 41 31 42 74 43 68 44
REMARK SMILES IDX 67 45 32 47 58 48 41 49 57 50 42 51 45 52 56 53 72 54 43 55
REMARK SMILES IDX 44 56 55 58 73 59 46 60 33 61 34 62 39 63 35 64 36 65 38 66
REMARK SMILES IDX 40 67 37 68 59 69 60 70 65 71 61 72 62 73 64 74 66 75 63 76
REMARK SMILES IDX 47 77 48 78 53 79 49 80 50 81 52 82 54 83 51 84
REMARK H PARENT 17 6 21 27 71 46 45 57
REMARK Flexibility Score: inf
ROOT
ATOM      1  C   UNL A   1      32.147  30.701  26.739  1.00  0.00     0.042 C 
ENDROOT
BRANCH   1   2
ATOM      2  C   UNL A   1      31.854  30.043  25.387  1.00  0.00     0.117 C 
BRANCH   2   3
ATOM      3  N   UNL A   1      33.034  29.709  24.606  1.00  0.00    -0.354 N 
ATOM      4  C   UNL A   1      33.151  28.898  23.512  1.00  0.00     0.240 C 
ATOM      5  O   UNL A   1      34.103  29.110  22.756  1.00  0.00    -0.273 OA
ATOM      6  H   UNL A   1      33.871  30.130  24.910  1.00  0.00     0.163 HD
BRANCH   4   7
ATOM      7  C   UNL A   1      32.078  27.865  23.147  1.00  0.00     0.227 C 
BRANCH   7   8
ATOM      8  N   UNL A   1      32.360  26.540  23.696  1.00  0.00    -0.283 N 
ATOM      9  C   UNL A   1      34.121  23.430  23.134  1.00  0.00     0.029 C 
ATOM     10  C   UNL A   1      33.355  24.403  23.647  1.00  0.00     0.081 C 
ATOM     11  S   UNL A   1      32.527  24.431  25.152  1.00  0.00    -0.054 SA
ATOM     12  C   UNL A   1      33.139  25.686  22.931  1.00  0.00     0.266 C 
ATOM     13  C   UNL A   1      31.820  26.009  24.845  1.00  0.00     0.148 C 
ATOM     14  O   UNL A   1      33.595  25.926  21.823  1.00  0.00    -0.268 OA
ATOM     15  S   UNL A   1      30.664  26.663  25.854  1.00  0.00    -0.052 S 
BRANCH   9  16
ATOM     16  C   UNL A   1      34.448  22.156  23.793  1.00  0.00    -0.021 A 
ATOM     17  C   UNL A   1      32.573  18.977  24.775  1.00  0.00     0.044 C 
ATOM     18  C   UNL A   1      33.674  19.976  24.593  1.00  0.00    -0.051 A 
ATOM     19  C   UNL A   1      34.943  19.731  25.118  1.00  0.00     0.004 A 
ATOM     20  C   UNL A   1      33.447  21.175  23.911  1.00  0.00     0.011 A 
ATOM     21  C   UNL A   1      35.962  20.673  24.967  1.00  0.00     0.004 A 
ATOM     22  C   UNL A   1      35.733  21.893  24.307  1.00  0.00    -0.044 A 
ATOM     23  C   UNL A   1      36.888  22.854  24.208  1.00  0.00     0.045 C 
ENDBRANCH   9  16
ENDBRANCH   7   8
ENDBRANCH   4   7
ENDBRANCH   2   3
ENDBRANCH   1   2
BRANCH   1  24
ATOM     24  C   UNL A   1      33.617  30.742  27.144  1.00  0.00     0.118 C 
BRANCH  24  25
ATOM     25  N   UNL A   1      33.890  31.690  28.234  1.00  0.00    -0.352 N 
ATOM     26  C   UNL A   1      34.887  31.779  29.200  1.00  0.00     0.251 C 
ATOM     27  H   UNL A   1      33.227  32.415  28.292  1.00  0.00     0.163 HD
ATOM     28  O   UNL A   1      34.732  32.503  30.160  1.00  0.00    -0.269 OA
BRANCH  26  29
ATOM     29  C   UNL A   1      36.144  31.009  29.064  1.00  0.00     0.039 A 
ATOM     30  C   UNL A   1      36.210  29.691  28.594  1.00  0.00     0.014 A 
ATOM     31  C   UNL A   1      37.299  31.585  29.522  1.00  0.00     0.014 A 
ATOM     32  C   UNL A   1      37.429  29.004  28.689  1.00  0.00     0.010 A 
ATOM     33  C   UNL A   1      38.488  31.091  29.119  1.00  0.00     0.010 A 
ATOM     34  C   UNL A   1      38.571  29.728  29.020  1.00  0.00    -0.014 A 
BRANCH  34  35
ATOM     35  C   UNL A   1      39.896  29.196  29.269  1.00  0.00     0.031 A 
ATOM     36  C   UNL A   1      40.275  29.127  30.693  1.00  0.00     0.074 A 
ATOM     37  C   UNL A   1      40.547  28.448  28.348  1.00  0.00     0.049 A 
ATOM     38  N   UNL A   1      41.119  29.869  31.325  1.00  0.00    -0.248 NA
ATOM     39  C   UNL A   1      39.495  28.229  31.561  1.00  0.00     0.031 C 
ATOM     40  C   UNL A   1      40.090  28.005  27.022  1.00  0.00     0.029 A 
ATOM     41  N   UNL A   1      41.748  27.822  28.468  1.00  0.00    -0.354 N 
ATOM     42  C   UNL A   1      41.122  29.386  32.628  1.00  0.00     0.074 A 
ATOM     43  C   UNL A   1      39.930  28.598  32.766  1.00  0.00     0.031 C 
ATOM     44  C   UNL A   1      40.918  27.042  26.554  1.00  0.00     0.029 A 
ATOM     45  C   UNL A   1      42.032  26.894  27.474  1.00  0.00     0.049 A 
ATOM     46  H   UNL A   1      42.372  28.013  29.206  1.00  0.00     0.167 HD
ATOM     47  C   UNL A   1      42.243  29.422  33.400  1.00  0.00     0.037 A 
ATOM     48  C   UNL A   1      43.090  26.044  27.451  1.00  0.00     0.037 A 
ATOM     49  C   UNL A   1      43.255  30.258  32.799  1.00  0.00     0.049 A 
ATOM     50  C   UNL A   1      44.079  26.546  28.442  1.00  0.00     0.074 A 
ATOM     51  C   UNL A   1      43.308  31.574  32.382  1.00  0.00     0.029 A 
ATOM     52  N   UNL A   1      44.309  29.631  32.177  1.00  0.00    -0.354 N 
ATOM     53  N   UNL A   1      44.763  27.648  28.303  1.00  0.00    -0.248 NA
ATOM     54  C   UNL A   1      43.983  26.044  29.806  1.00  0.00     0.031 C 
ATOM     55  C   UNL A   1      44.070  31.552  31.177  1.00  0.00     0.029 A 
ATOM     56  C   UNL A   1      44.488  30.237  30.960  1.00  0.00     0.049 A 
ATOM     57  H   UNL A   1      44.839  28.884  32.538  1.00  0.00     0.167 HD
ATOM     58  C   UNL A   1      44.823  28.195  29.578  1.00  0.00     0.074 A 
ATOM     59  C   UNL A   1      44.417  27.116  30.475  1.00  0.00     0.031 C 
ATOM     60  C   UNL A   1      44.910  29.545  29.763  1.00  0.00     0.037 A 
BRANCH  47  61
ATOM     61  C   UNL A   1      42.571  28.428  34.492  1.00  0.00     0.057 A 
ATOM     62  C   UNL A   1      42.799  28.912  35.793  1.00  0.00     0.134 A 
ATOM     63  C   UNL A   1      42.920  27.075  34.293  1.00  0.00     0.134 A 
ATOM     64  F   UNL A   1      42.517  30.182  36.115  1.00  0.00    -0.206 F 
ATOM     65  C   UNL A   1      43.400  28.134  36.790  1.00  0.00     0.040 A 
ATOM     66  C   UNL A   1      43.463  26.273  35.300  1.00  0.00     0.040 A 
ATOM     67  F   UNL A   1      42.855  26.474  33.100  1.00  0.00    -0.206 F 
ATOM     68  C   UNL A   1      43.739  26.811  36.544  1.00  0.00     0.006 A 
ENDBRANCH  47  61
BRANCH  48  69
ATOM     69  C   UNL A   1      43.214  24.710  26.824  1.00  0.00     0.057 A 
ATOM     70  C   UNL A   1      42.552  23.591  27.353  1.00  0.00     0.134 A 
ATOM     71  C   UNL A   1      43.772  24.544  25.544  1.00  0.00     0.134 A 
ATOM     72  F   UNL A   1      41.952  23.659  28.550  1.00  0.00    -0.206 F 
ATOM     73  C   UNL A   1      42.433  22.388  26.643  1.00  0.00     0.040 A 
ATOM     74  C   UNL A   1      43.670  23.346  24.830  1.00  0.00     0.040 A 
ATOM     75  F   UNL A   1      44.355  25.571  24.908  1.00  0.00    -0.206 F 
ATOM     76  C   UNL A   1      42.986  22.266  25.372  1.00  0.00     0.006 A 
ENDBRANCH  48  69
BRANCH  60  77
ATOM     77  C   UNL A   1      45.203  30.402  28.561  1.00  0.00     0.057 A 
ATOM     78  C   UNL A   1      44.213  30.971  27.746  1.00  0.00     0.134 A 
ATOM     79  C   UNL A   1      46.521  30.800  28.322  1.00  0.00     0.134 A 
ATOM     80  F   UNL A   1      42.915  30.732  27.962  1.00  0.00    -0.206 F 
ATOM     81  C   UNL A   1      44.523  31.864  26.717  1.00  0.00     0.040 A 
ATOM     82  C   UNL A   1      46.844  31.718  27.318  1.00  0.00     0.040 A 
ATOM     83  F   UNL A   1      47.518  30.343  29.097  1.00  0.00    -0.206 F 
ATOM     84  C   UNL A   1      45.844  32.247  26.505  1.00  0.00     0.006 A 
ENDBRANCH  60  77
ENDBRANCH  34  35
ENDBRANCH  26  29
ENDBRANCH  24  25
ENDBRANCH   1  24
TORSDOF 12
ENDMDL
MODEL 2
REMARK VINA RESULT:     -12.3      2.748      8.173
REMARK SMILES Cc1ccc(C)c(/C=C2\SC(=S)N(CC(=O)NCCCNC(=O)c3ccc(-c4c5nc(c(-c6c(F)cccc6F)c6ccc([nH]6)c(-c6c(F)cccc6F)c6nc(c(-c7c(F)cccc7F)c7ccc4[nH]7)C=C6)C=C5)cc3)C2=O)c1
REMARK SMILES IDX 19 1 18 2 17 3 15 4 16 5 14 7 13 8 8 9 9 10 10 11 78 12
REMARK SMILES IDX 11 13 79 14 12 15 7 16 1 17 2 18 3 19 80 20 4 21 5 22 6 23
REMARK SMILES IDX 20 24 21 25 22 26 23 28 24 29 25 30 77 31 26 32 76 33 27 34
REMARK SMILES IDX 28 35 29 36 70 37 30 38 75 39 69 40 71 41 31 42 74 43 68 44
REMARK SMILES IDX 67 45 32 47 58 48 41 49 57 50 42 51 45 52 56 53 72 54 43 55
REMARK SMILES IDX 44 56 55 58 73 59 46 60 33 61 34 62 39 63 35 64 36 65 38 66
REMARK SMILES IDX 40 67 37 68 59 69 60 70 65 71 61 72 62 73 64 74 66 75 63 76
REMARK SMILES IDX 47 77 48 78 53 79 49 80 50 81 52 82 54 83 51 84
REMARK H PARENT 17 6 21 27 71 46 45 57
REMARK Flexibility Score: inf
ROOT
ATOM      1  C   UNL A   1      37.321  21.357  24.643  1.00  0.00     0.042 C 
ENDROOT
BRANCH   1   2
ATOM      2  C   UNL A   1      36.024  20.704  25.128  1.00  0.00     0.117 C 
BRANCH   2   3
ATOM      3  N   UNL A   1      35.548  21.183  26.416  1.00  0.00    -0.354 N 
ATOM      4  C   UNL A   1      34.290  21.565  26.791  1.00  0.00     0.240 C 
ATOM      5  O   UNL A   1      34.017  21.494  27.992  1.00  0.00    -0.273 OA
ATOM      6  H   UNL A   1      36.233  21.239  27.122  1.00  0.00     0.163 HD
BRANCH   4   7
ATOM      7  C   UNL A   1      33.211  21.928  25.763  1.00  0.00     0.227 C 
BRANCH   7   8
ATOM      8  N   UNL A   1      33.163  23.360  25.476  1.00  0.00    -0.283 N 
ATOM      9  C   UNL A   1      31.859  26.547  26.584  1.00  0.00     0.029 C 
ATOM     10  C   UNL A   1      32.480  25.576  25.900  1.00  0.00     0.081 C 
ATOM     11  S   UNL A   1      33.485  25.720  24.513  1.00  0.00    -0.054 SA
ATOM     12  C   UNL A   1      32.390  24.152  26.310  1.00  0.00     0.266 C 
ATOM     13  C   UNL A   1      33.712  23.983  24.378  1.00  0.00     0.148 C 
ATOM     14  O   UNL A   1      31.718  23.762  27.254  1.00  0.00    -0.268 OA
ATOM     15  S   UNL A   1      34.479  23.300  23.065  1.00  0.00    -0.052 S 
BRANCH   9  16
ATOM     16  C   UNL A   1      31.940  27.988  26.297  1.00  0.00    -0.021 A 
ATOM     17  C   UNL A   1      33.682  31.029  27.817  1.00  0.00     0.044 C 
ATOM     18  C   UNL A   1      32.841  30.179  26.913  1.00  0.00    -0.051 A 
ATOM     19  C   UNL A   1      32.091  30.762  25.892  1.00  0.00     0.004 A 
ATOM     20  C   UNL A   1      32.779  28.793  27.088  1.00  0.00     0.011 A 
ATOM     21  C   UNL A   1      31.290  29.971  25.066  1.00  0.00     0.004 A 
ATOM     22  C   UNL A   1      31.202  28.581  25.254  1.00  0.00    -0.044 A 
ATOM     23  C   UNL A   1      30.300  27.813  24.325  1.00  0.00     0.045 C 
ENDBRANCH   9  16
ENDBRANCH   7   8
ENDBRANCH   4   7
ENDBRANCH   2   3
ENDBRANCH   1   2
BRANCH   1  24
ATOM     24  C   UNL A   1      38.046  22.221  25.671  1.00  0.00     0.118 C 
BRANCH  24  25
ATOM     25  N   UNL A   1      39.465  21.868  25.824  1.00  0.00    -0.352 N 
ATOM     26  C   UNL A   1      40.585  22.568  26.263  1.00  0.00     0.251 C 
ATOM     27  H   UNL A   1      39.665  20.940  25.561  1.00  0.00     0.163 HD
ATOM     28  O   UNL A   1      41.693  22.135  26.032  1.00  0.00    -0.269 OA
BRANCH  26  29
ATOM     29  C   UNL A   1      40.439  23.830  27.021  1.00  0.00     0.039 A 
ATOM     30  C   UNL A   1      39.301  24.645  26.978  1.00  0.00     0.014 A 
ATOM     31  C   UNL A   1      41.524  24.280  27.727  1.00  0.00     0.014 A 
ATOM     32  C   UNL A   1      39.354  25.907  27.588  1.00  0.00     0.010 A 
ATOM     33  C   UNL A   1      41.346  25.212  28.687  1.00  0.00     0.010 A 
ATOM     34  C   UNL A   1      40.440  26.199  28.407  1.00  0.00    -0.014 A 
BRANCH  34  35
ATOM     35  C   UNL A   1      40.735  27.470  29.040  1.00  0.00     0.031 A 
ATOM     36  C   UNL A   1      41.894  28.186  28.474  1.00  0.00     0.074 A 
ATOM     37  C   UNL A   1      39.810  28.131  29.774  1.00  0.00     0.049 A 
ATOM     38  N   UNL A   1      43.059  28.347  29.000  1.00  0.00    -0.248 NA
ATOM     39  C   UNL A   1      41.797  28.638  27.076  1.00  0.00     0.031 C 
ATOM     40  C   UNL A   1      38.408  27.772  30.039  1.00  0.00     0.029 A 
ATOM     41  N   UNL A   1      39.914  29.356  30.355  1.00  0.00    -0.354 N 
ATOM     42  C   UNL A   1      43.772  29.103  28.076  1.00  0.00     0.074 A 
ATOM     43  C   UNL A   1      43.056  28.999  26.836  1.00  0.00     0.031 C 
ATOM     44  C   UNL A   1      37.757  28.838  30.562  1.00  0.00     0.029 A 
ATOM     45  C   UNL A   1      38.716  29.904  30.796  1.00  0.00     0.049 A 
ATOM     46  H   UNL A   1      40.777  29.820  30.457  1.00  0.00     0.167 HD
ATOM     47  C   UNL A   1      44.726  29.992  28.466  1.00  0.00     0.037 A 
ATOM     48  C   UNL A   1      38.540  31.162  31.273  1.00  0.00     0.037 A 
ATOM     49  C   UNL A   1      45.063  29.808  29.858  1.00  0.00     0.049 A 
ATOM     50  C   UNL A   1      39.886  31.697  31.610  1.00  0.00     0.074 A 
ATOM     51  C   UNL A   1      45.517  28.747  30.617  1.00  0.00     0.029 A 
ATOM     52  N   UNL A   1      44.559  30.717  30.759  1.00  0.00    -0.354 N 
ATOM     53  N   UNL A   1      40.624  31.261  32.594  1.00  0.00    -0.248 NA
ATOM     54  C   UNL A   1      40.604  32.425  30.574  1.00  0.00     0.031 C 
ATOM     55  C   UNL A   1      44.826  28.857  31.860  1.00  0.00     0.029 A 
ATOM     56  C   UNL A   1      44.038  30.008  31.810  1.00  0.00     0.049 A 
ATOM     57  H   UNL A   1      44.569  31.697  30.666  1.00  0.00     0.167 HD
ATOM     58  C   UNL A   1      41.924  31.287  32.105  1.00  0.00     0.074 A 
ATOM     59  C   UNL A   1      41.860  32.107  30.898  1.00  0.00     0.031 C 
ATOM     60  C   UNL A   1      42.864  30.405  32.555  1.00  0.00     0.037 A 
BRANCH  47  61
ATOM     61  C   UNL A   1      45.087  31.255  27.716  1.00  0.00     0.057 A 
ATOM     62  C   UNL A   1      46.360  31.343  27.124  1.00  0.00     0.134 A 
ATOM     63  C   UNL A   1      44.367  32.468  27.756  1.00  0.00     0.134 A 
ATOM     64  F   UNL A   1      47.151  30.265  27.027  1.00  0.00    -0.206 F 
ATOM     65  C   UNL A   1      46.902  32.555  26.682  1.00  0.00     0.040 A 
ATOM     66  C   UNL A   1      44.875  33.671  27.261  1.00  0.00     0.040 A 
ATOM     67  F   UNL A   1      43.180  32.591  28.360  1.00  0.00    -0.206 F 
ATOM     68  C   UNL A   1      46.161  33.727  26.753  1.00  0.00     0.006 A 
ENDBRANCH  47  61
BRANCH  48  69
ATOM     69  C   UNL A   1      37.338  32.025  31.237  1.00  0.00     0.057 A 
ATOM     70  C   UNL A   1      36.967  32.709  30.070  1.00  0.00     0.134 A 
ATOM     71  C   UNL A   1      36.379  31.997  32.264  1.00  0.00     0.134 A 
ATOM     72  F   UNL A   1      37.796  32.759  29.017  1.00  0.00    -0.206 F 
ATOM     73  C   UNL A   1      35.709  33.310  29.924  1.00  0.00     0.040 A 
ATOM     74  C   UNL A   1      35.124  32.602  32.136  1.00  0.00     0.040 A 
ATOM     75  F   UNL A   1      36.594  31.302  33.391  1.00  0.00    -0.206 F 
ATOM     76  C   UNL A   1      34.779  33.250  30.957  1.00  0.00     0.006 A 
ENDBRANCH  48  69
BRANCH  60  77
ATOM     77  C   UNL A   1      42.534  29.586  33.774  1.00  0.00     0.057 A 
ATOM     78  C   UNL A   1      41.940  28.316  33.725  1.00  0.00     0.134 A 
ATOM     79  C   UNL A   1      42.984  30.023  35.022  1.00  0.00     0.134 A 
ATOM     80  F   UNL A   1      41.569  27.768  32.562  1.00  0.00    -0.206 F 
ATOM     81  C   UNL A   1      41.767  27.534  34.870  1.00  0.00     0.040 A 
ATOM     82  C   UNL A   1      42.849  29.238  36.171  1.00  0.00     0.040 A 
ATOM     83  F   UNL A   1      43.614  31.203  35.140  1.00  0.00    -0.206 F 
ATOM     84  C   UNL A   1      42.230  27.992  36.099  1.00  0.00     0.006 A 
ENDBRANCH  60  77
ENDBRANCH  34  35
ENDBRANCH  26  29
ENDBRANCH  24  25
ENDBRANCH   1  24
TORSDOF 12
ENDMDL
MODEL 3
REMARK VINA RESULT:     -12.3      4.680      7.956
REMARK SMILES Cc1ccc(C)c(/C=C2\SC(=S)N(CC(=O)NCCCNC(=O)c3ccc(-c4c5nc(c(-c6c(F)cccc6F)c6ccc([nH]6)c(-c6c(F)cccc6F)c6nc(c(-c7c(F)cccc7F)c7ccc4[nH]7)C=C6)C=C5)cc3)C2=O)c1
REMARK SMILES IDX 19 1 18 2 17 3 15 4 16 5 14 7 13 8 8 9 9 10 10 11 78 12
REMARK SMILES IDX 11 13 79 14 12 15 7 16 1 17 2 18 3 19 80 20 4 21 5 22 6 23
REMARK SMILES IDX 20 24 21 25 22 26 23 28 24 29 25 30 77 31 26 32 76 33 27 34
REMARK SMILES IDX 28 35 29 36 70 37 30 38 75 39 69 40 71 41 31 42 74 43 68 44
REMARK SMILES IDX 67 45 32 47 58 48 41 49 57 50 42 51 45 52 56 53 72 54 43 55
REMARK SMILES IDX 44 56 55 58 73 59 46 60 33 61 34 62 39 63 35 64 36 65 38 66
REMARK SMILES IDX 40 67 37 68 59 69 60 70 65 71 61 72 62 73 64 74 66 75 63 76
REMARK SMILES IDX 47 77 48 78 53 79 49 80 50 81 52 82 54 83 51 84
REMARK H PARENT 17 6 21 27 71 46 45 57
REMARK Flexibility Score: inf
ROOT
ATOM      1  C   UNL A   1      34.871  33.681  32.746  1.00  0.00     0.042 C 
ENDROOT
BRANCH   1   2
ATOM      2  C   UNL A   1      36.120  33.992  33.577  1.00  0.00     0.117 C 
BRANCH   2   3
ATOM      3  N   UNL A   1      35.973  33.756  35.004  1.00  0.00    -0.354 N 
ATOM      4  C   UNL A   1      36.836  33.156  35.879  1.00  0.00     0.240 C 
ATOM      5  O   UNL A   1      36.730  33.461  37.069  1.00  0.00    -0.273 OA
ATOM      6  H   UNL A   1      35.129  34.076  35.398  1.00  0.00     0.163 HD
BRANCH   4   7
ATOM      7  C   UNL A   1      37.983  32.256  35.401  1.00  0.00     0.227 C 
BRANCH   7   8
ATOM      8  N   UNL A   1      38.927  32.958  34.534  1.00  0.00    -0.283 N 
ATOM      9  C   UNL A   1      40.367  33.061  31.217  1.00  0.00     0.029 C 
ATOM     10  C   UNL A   1      40.067  33.307  32.500  1.00  0.00     0.081 C 
ATOM     11  S   UNL A   1      40.636  34.577  33.507  1.00  0.00    -0.054 SA
ATOM     12  C   UNL A   1      39.106  32.460  33.253  1.00  0.00     0.266 C 
ATOM     13  C   UNL A   1      39.753  33.992  34.909  1.00  0.00     0.148 C 
ATOM     14  O   UNL A   1      38.566  31.470  32.782  1.00  0.00    -0.268 OA
ATOM     15  S   UNL A   1      39.974  34.656  36.422  1.00  0.00    -0.052 S 
BRANCH   9  16
ATOM     16  C   UNL A   1      41.253  33.876  30.370  1.00  0.00    -0.021 A 
ATOM     17  C   UNL A   1      45.012  34.472  30.048  1.00  0.00     0.044 C 
ATOM     18  C   UNL A   1      43.535  34.558  29.808  1.00  0.00    -0.051 A 
ATOM     19  C   UNL A   1      43.024  35.456  28.871  1.00  0.00     0.004 A 
ATOM     20  C   UNL A   1      42.645  33.757  30.530  1.00  0.00     0.011 A 
ATOM     21  C   UNL A   1      41.646  35.551  28.666  1.00  0.00     0.004 A 
ATOM     22  C   UNL A   1      40.744  34.769  29.407  1.00  0.00    -0.044 A 
ATOM     23  C   UNL A   1      39.276  34.953  29.128  1.00  0.00     0.045 C 
ENDBRANCH   9  16
ENDBRANCH   7   8
ENDBRANCH   4   7
ENDBRANCH   2   3
ENDBRANCH   1   2
BRANCH   1  24
ATOM     24  C   UNL A   1      34.915  32.374  31.960  1.00  0.00     0.118 C 
BRANCH  24  25
ATOM     25  N   UNL A   1      34.403  32.508  30.589  1.00  0.00    -0.352 N 
ATOM     26  C   UNL A   1      34.931  32.214  29.335  1.00  0.00     0.251 C 
ATOM     27  H   UNL A   1      33.494  32.884  30.549  1.00  0.00     0.163 HD
ATOM     28  O   UNL A   1      34.414  32.676  28.341  1.00  0.00    -0.269 OA
BRANCH  26  29
ATOM     29  C   UNL A   1      36.112  31.332  29.200  1.00  0.00     0.039 A 
ATOM     30  C   UNL A   1      36.040  29.956  28.954  1.00  0.00     0.014 A 
ATOM     31  C   UNL A   1      37.347  31.878  29.433  1.00  0.00     0.014 A 
ATOM     32  C   UNL A   1      37.216  29.196  29.035  1.00  0.00     0.010 A 
ATOM     33  C   UNL A   1      38.448  31.231  28.998  1.00  0.00     0.010 A 
ATOM     34  C   UNL A   1      38.432  29.867  29.120  1.00  0.00    -0.014 A 
BRANCH  34  35
ATOM     35  C   UNL A   1      39.741  29.276  29.316  1.00  0.00     0.031 A 
ATOM     36  C   UNL A   1      40.056  28.926  30.714  1.00  0.00     0.074 A 
ATOM     37  C   UNL A   1      40.426  28.710  28.295  1.00  0.00     0.049 A 
ATOM     38  N   UNL A   1      40.878  29.518  31.512  1.00  0.00    -0.248 NA
ATOM     39  C   UNL A   1      39.232  27.890  31.359  1.00  0.00     0.031 C 
ATOM     40  C   UNL A   1      40.023  28.539  26.890  1.00  0.00     0.029 A 
ATOM     41  N   UNL A   1      41.615  28.052  28.341  1.00  0.00    -0.354 N 
ATOM     42  C   UNL A   1      40.820  28.792  32.696  1.00  0.00     0.074 A 
ATOM     43  C   UNL A   1      39.616  28.012  32.629  1.00  0.00     0.031 C 
ATOM     44  C   UNL A   1      40.863  27.671  26.279  1.00  0.00     0.029 A 
ATOM     45  C   UNL A   1      41.935  27.331  27.198  1.00  0.00     0.049 A 
ATOM     46  H   UNL A   1      42.208  28.087  29.127  1.00  0.00     0.167 HD
ATOM     47  C   UNL A   1      41.906  28.660  33.506  1.00  0.00     0.037 A 
ATOM     48  C   UNL A   1      42.986  26.484  27.055  1.00  0.00     0.037 A 
ATOM     49  C   UNL A   1      42.950  29.580  33.121  1.00  0.00     0.049 A 
ATOM     50  C   UNL A   1      43.935  26.769  28.165  1.00  0.00     0.074 A 
ATOM     51  C   UNL A   1      43.031  30.951  32.970  1.00  0.00     0.029 A 
ATOM     52  N   UNL A   1      44.026  29.068  32.434  1.00  0.00    -0.354 N 
ATOM     53  N   UNL A   1      44.633  27.866  28.271  1.00  0.00    -0.248 NA
ATOM     54  C   UNL A   1      43.776  26.014  29.400  1.00  0.00     0.031 C 
ATOM     55  C   UNL A   1      43.846  31.150  31.816  1.00  0.00     0.029 A 
ATOM     56  C   UNL A   1      44.262  29.895  31.366  1.00  0.00     0.049 A 
ATOM     57  H   UNL A   1      44.533  28.257  32.665  1.00  0.00     0.167 HD
ATOM     58  C   UNL A   1      44.642  28.154  29.629  1.00  0.00     0.074 A 
ATOM     59  C   UNL A   1      44.188  26.929  30.282  1.00  0.00     0.031 C 
ATOM     60  C   UNL A   1      44.730  29.441  30.076  1.00  0.00     0.037 A 
BRANCH  47  61
ATOM     61  C   UNL A   1      42.178  27.469  34.397  1.00  0.00     0.057 A 
ATOM     62  C   UNL A   1      41.873  27.571  35.766  1.00  0.00     0.134 A 
ATOM     63  C   UNL A   1      42.944  26.337  34.043  1.00  0.00     0.134 A 
ATOM     64  F   UNL A   1      41.156  28.601  36.237  1.00  0.00    -0.206 F 
ATOM     65  C   UNL A   1      42.359  26.664  36.715  1.00  0.00     0.040 A 
ATOM     66  C   UNL A   1      43.381  25.393  34.975  1.00  0.00     0.040 A 
ATOM     67  F   UNL A   1      43.401  26.124  32.805  1.00  0.00    -0.206 F 
ATOM     68  C   UNL A   1      43.121  25.572  36.323  1.00  0.00     0.006 A 
ENDBRANCH  47  61
BRANCH  48  69
ATOM     69  C   UNL A   1      43.128  25.294  26.187  1.00  0.00     0.057 A 
ATOM     70  C   UNL A   1      44.180  25.186  25.265  1.00  0.00     0.134 A 
ATOM     71  C   UNL A   1      42.391  24.119  26.417  1.00  0.00     0.134 A 
ATOM     72  F   UNL A   1      44.968  26.240  25.005  1.00  0.00    -0.206 F 
ATOM     73  C   UNL A   1      44.495  23.978  24.628  1.00  0.00     0.040 A 
ATOM     74  C   UNL A   1      42.687  22.910  25.780  1.00  0.00     0.040 A 
ATOM     75  F   UNL A   1      41.417  24.086  27.339  1.00  0.00    -0.206 F 
ATOM     76  C   UNL A   1      43.752  22.832  24.892  1.00  0.00     0.006 A 
ENDBRANCH  48  69
BRANCH  60  77
ATOM     77  C   UNL A   1      45.083  30.510  29.076  1.00  0.00     0.057 A 
ATOM     78  C   UNL A   1      46.395  30.807  28.679  1.00  0.00     0.134 A 
ATOM     79  C   UNL A   1      44.054  31.140  28.371  1.00  0.00     0.134 A 
ATOM     80  F   UNL A   1      47.444  30.180  29.224  1.00  0.00    -0.206 F 
ATOM     81  C   UNL A   1      46.671  31.717  27.655  1.00  0.00     0.040 A 
ATOM     82  C   UNL A   1      44.313  32.026  27.323  1.00  0.00     0.040 A 
ATOM     83  F   UNL A   1      42.771  30.863  28.655  1.00  0.00    -0.206 F 
ATOM     84  C   UNL A   1      45.627  32.325  26.966  1.00  0.00     0.006 A 
ENDBRANCH  60  77
ENDBRANCH  34  35
ENDBRANCH  26  29
ENDBRANCH  24  25
ENDBRANCH   1  24
TORSDOF 12
ENDMDL
