MODEL 1
REMARK VINA RESULT:     -12.1      0.000      0.000
REMARK SMILES COc1ccc(C(=O)c2ccccc2)cc1[C@@H](C)C(=O)NCCCNC(=O)c1ccc(-c2c3nc(c(-c4c(F)cccc4F)c4ccc([nH]4)c(-c4c(F)cccc4F)c4nc(c(-c5c(F)cccc5F)c5ccc2[nH]5)C=C4)C=C3)cc1
REMARK SMILES IDX 22 1 21 2 19 3 20 4 17 6 18 7 16 8 3 9 4 10 5 11 15 12 6 13
REMARK SMILES IDX 2 14 1 15 7 16 8 17 9 18 10 19 14 20 11 21 13 22 12 23 23 24
REMARK SMILES IDX 24 25 25 26 26 27 27 29 28 30 29 31 81 32 30 33 80 34 31 35
REMARK SMILES IDX 32 36 33 37 74 38 34 39 79 40 73 41 75 42 35 43 78 44 72 45
REMARK SMILES IDX 71 46 36 48 62 49 45 50 61 51 46 52 49 53 60 54 76 55 47 56
REMARK SMILES IDX 48 57 59 59 77 60 50 61 37 62 38 63 43 64 39 65 40 66 42 67
REMARK SMILES IDX 44 68 41 69 63 70 64 71 69 72 65 73 66 74 68 75 70 76 67 77
REMARK SMILES IDX 51 78 52 79 57 80 53 81 54 82 56 83 58 84 55 85
REMARK H PARENT 21 5 25 28 75 47 49 58
REMARK Flexibility Score: inf
ROOT
ATOM      1  C   UNL A   1      31.304  30.770  25.502  1.00  0.00     0.117 C 
ENDROOT
BRANCH   1   2
ATOM      2  N   UNL A   1      32.385  29.933  25.991  1.00  0.00    -0.356 N 
ATOM      3  C   UNL A   1      32.989  28.817  25.503  1.00  0.00     0.227 C 
ATOM      4  O   UNL A   1      33.830  28.302  26.252  1.00  0.00    -0.274 OA
ATOM      5  H   UNL A   1      32.755  30.236  26.851  1.00  0.00     0.163 HD
BRANCH   3   6
ATOM      6  C   UNL A   1      32.679  28.168  24.142  1.00  0.00     0.109 C 
ATOM      7  C   UNL A   1      33.146  28.928  22.902  1.00  0.00     0.023 C 
BRANCH   6   8
ATOM      8  C   UNL A   1      31.259  27.624  24.049  1.00  0.00     0.007 A 
ATOM      9  C   UNL A   1      30.949  26.297  24.386  1.00  0.00     0.122 A 
ATOM     10  C   UNL A   1      29.637  25.821  24.318  1.00  0.00     0.047 A 
ATOM     11  C   UNL A   1      28.603  26.669  23.919  1.00  0.00     0.016 A 
ATOM     12  C   UNL A   1      30.200  28.448  23.623  1.00  0.00     0.020 A 
ATOM     13  C   UNL A   1      28.876  27.989  23.551  1.00  0.00     0.023 A 
BRANCH   9  14
ATOM     14  O   UNL A   1      31.927  25.376  24.654  1.00  0.00    -0.496 OA
ATOM     15  C   UNL A   1      31.871  24.899  25.998  1.00  0.00     0.278 C 
ENDBRANCH   9  14
BRANCH  13  16
ATOM     16  C   UNL A   1      27.727  28.858  23.143  1.00  0.00     0.193 C 
ATOM     17  O   UNL A   1      26.574  28.473  23.322  1.00  0.00    -0.289 OA
BRANCH  16  18
ATOM     18  C   UNL A   1      27.915  30.219  22.592  1.00  0.00     0.022 A 
ATOM     19  C   UNL A   1      28.035  31.278  23.498  1.00  0.00     0.012 A 
ATOM     20  C   UNL A   1      27.953  30.470  21.215  1.00  0.00     0.012 A 
ATOM     21  C   UNL A   1      28.247  32.572  23.027  1.00  0.00     0.001 A 
ATOM     22  C   UNL A   1      28.186  31.767  20.751  1.00  0.00     0.001 A 
ATOM     23  C   UNL A   1      28.343  32.816  21.658  1.00  0.00     0.000 A 
ENDBRANCH  16  18
ENDBRANCH  13  16
ENDBRANCH   6   8
ENDBRANCH   3   6
ENDBRANCH   1   2
BRANCH   1  24
ATOM     24  C   UNL A   1      31.209  32.084  26.270  1.00  0.00     0.042 C 
BRANCH  24  25
ATOM     25  C   UNL A   1      32.347  32.350  27.246  1.00  0.00     0.118 C 
BRANCH  25  26
ATOM     26  N   UNL A   1      32.456  33.757  27.606  1.00  0.00    -0.352 N 
ATOM     27  C   UNL A   1      33.314  34.435  28.439  1.00  0.00     0.251 C 
ATOM     28  H   UNL A   1      31.787  34.333  27.170  1.00  0.00     0.163 HD
ATOM     29  O   UNL A   1      33.053  35.605  28.710  1.00  0.00    -0.269 OA
BRANCH  27  30
ATOM     30  C   UNL A   1      34.526  33.812  29.037  1.00  0.00     0.039 A 
ATOM     31  C   UNL A   1      34.349  32.788  29.981  1.00  0.00     0.014 A 
ATOM     32  C   UNL A   1      35.820  34.247  28.752  1.00  0.00     0.014 A 
ATOM     33  C   UNL A   1      35.453  32.161  30.573  1.00  0.00     0.010 A 
ATOM     34  C   UNL A   1      36.924  33.575  29.283  1.00  0.00     0.010 A 
ATOM     35  C   UNL A   1      36.752  32.535  30.209  1.00  0.00    -0.014 A 
BRANCH  35  36
ATOM     36  C   UNL A   1      37.948  31.922  30.841  1.00  0.00     0.031 A 
ATOM     37  C   UNL A   1      38.683  30.824  30.121  1.00  0.00     0.074 A 
ATOM     38  C   UNL A   1      38.337  32.291  32.076  1.00  0.00     0.049 A 
ATOM     39  N   UNL A   1      39.688  30.092  30.528  1.00  0.00    -0.248 NA
ATOM     40  C   UNL A   1      38.204  30.491  28.770  1.00  0.00     0.031 C 
ATOM     41  C   UNL A   1      37.698  33.320  32.894  1.00  0.00     0.029 A 
ATOM     42  N   UNL A   1      39.357  31.823  32.867  1.00  0.00    -0.354 N 
ATOM     43  C   UNL A   1      39.952  29.206  29.492  1.00  0.00     0.074 A 
ATOM     44  C   UNL A   1      38.969  29.456  28.460  1.00  0.00     0.031 C 
ATOM     45  C   UNL A   1      38.338  33.405  34.073  1.00  0.00     0.029 A 
ATOM     46  C   UNL A   1      39.417  32.422  34.103  1.00  0.00     0.049 A 
ATOM     47  H   UNL A   1      39.986  31.123  32.577  1.00  0.00     0.167 HD
ATOM     48  C   UNL A   1      40.938  28.283  29.395  1.00  0.00     0.037 A 
ATOM     49  C   UNL A   1      40.243  32.197  35.142  1.00  0.00     0.037 A 
ATOM     50  C   UNL A   1      41.928  28.044  30.410  1.00  0.00     0.049 A 
ATOM     51  C   UNL A   1      41.317  31.150  35.020  1.00  0.00     0.074 A 
ATOM     52  C   UNL A   1      42.996  27.165  30.385  1.00  0.00     0.029 A 
ATOM     53  N   UNL A   1      41.968  28.688  31.638  1.00  0.00    -0.354 N 
ATOM     54  N   UNL A   1      41.597  30.365  34.008  1.00  0.00    -0.248 NA
ATOM     55  C   UNL A   1      42.196  30.964  36.184  1.00  0.00     0.031 C 
ATOM     56  C   UNL A   1      43.662  27.251  31.612  1.00  0.00     0.029 A 
ATOM     57  C   UNL A   1      43.032  28.214  32.385  1.00  0.00     0.049 A 
ATOM     58  H   UNL A   1      41.333  29.380  31.933  1.00  0.00     0.167 HD
ATOM     59  C   UNL A   1      42.702  29.618  34.399  1.00  0.00     0.074 A 
ATOM     60  C   UNL A   1      43.046  30.050  35.738  1.00  0.00     0.031 C 
ATOM     61  C   UNL A   1      43.372  28.664  33.710  1.00  0.00     0.037 A 
BRANCH  48  62
ATOM     62  C   UNL A   1      40.988  27.467  28.137  1.00  0.00     0.057 A 
ATOM     63  C   UNL A   1      41.731  27.878  27.022  1.00  0.00     0.134 A 
ATOM     64  C   UNL A   1      40.297  26.253  28.041  1.00  0.00     0.134 A 
ATOM     65  F   UNL A   1      42.403  29.039  27.045  1.00  0.00    -0.206 F 
ATOM     66  C   UNL A   1      41.758  27.128  25.846  1.00  0.00     0.040 A 
ATOM     67  C   UNL A   1      40.338  25.482  26.880  1.00  0.00     0.040 A 
ATOM     68  F   UNL A   1      39.570  25.799  29.075  1.00  0.00    -0.206 F 
ATOM     69  C   UNL A   1      41.063  25.922  25.775  1.00  0.00     0.006 A 
ENDBRANCH  48  62
BRANCH  49  70
ATOM     70  C   UNL A   1      40.110  32.993  36.388  1.00  0.00     0.057 A 
ATOM     71  C   UNL A   1      40.930  34.103  36.624  1.00  0.00     0.134 A 
ATOM     72  C   UNL A   1      39.184  32.650  37.381  1.00  0.00     0.134 A 
ATOM     73  F   UNL A   1      41.850  34.465  35.718  1.00  0.00    -0.206 F 
ATOM     74  C   UNL A   1      40.848  34.833  37.810  1.00  0.00     0.040 A 
ATOM     75  C   UNL A   1      39.077  33.385  38.563  1.00  0.00     0.040 A 
ATOM     76  F   UNL A   1      38.372  31.597  37.213  1.00  0.00    -0.206 F 
ATOM     77  C   UNL A   1      39.917  34.475  38.783  1.00  0.00     0.006 A 
ENDBRANCH  49  70
BRANCH  61  78
ATOM     78  C   UNL A   1      44.571  28.052  34.370  1.00  0.00     0.057 A 
ATOM     79  C   UNL A   1      44.480  26.881  35.131  1.00  0.00     0.134 A 
ATOM     80  C   UNL A   1      45.841  28.619  34.203  1.00  0.00     0.134 A 
ATOM     81  F   UNL A   1      43.291  26.296  35.339  1.00  0.00    -0.206 F 
ATOM     82  C   UNL A   1      45.608  26.303  35.718  1.00  0.00     0.040 A 
ATOM     83  C   UNL A   1      46.980  28.038  34.764  1.00  0.00     0.040 A 
ATOM     84  F   UNL A   1      45.998  29.737  33.478  1.00  0.00    -0.206 F 
ATOM     85  C   UNL A   1      46.863  26.879  35.527  1.00  0.00     0.006 A 
ENDBRANCH  61  78
ENDBRANCH  35  36
ENDBRANCH  27  30
ENDBRANCH  25  26
ENDBRANCH  24  25
ENDBRANCH   1  24
TORSDOF 14
ENDMDL
MODEL 2
REMARK VINA RESULT:     -11.9      2.747      7.999
REMARK SMILES COc1ccc(C(=O)c2ccccc2)cc1[C@@H](C)C(=O)NCCCNC(=O)c1ccc(-c2c3nc(c(-c4c(F)cccc4F)c4ccc([nH]4)c(-c4c(F)cccc4F)c4nc(c(-c5c(F)cccc5F)c5ccc2[nH]5)C=C4)C=C3)cc1
REMARK SMILES IDX 22 1 21 2 19 3 20 4 17 6 18 7 16 8 3 9 4 10 5 11 15 12 6 13
REMARK SMILES IDX 2 14 1 15 7 16 8 17 9 18 10 19 14 20 11 21 13 22 12 23 23 24
REMARK SMILES IDX 24 25 25 26 26 27 27 29 28 30 29 31 81 32 30 33 80 34 31 35
REMARK SMILES IDX 32 36 33 37 74 38 34 39 79 40 73 41 75 42 35 43 78 44 72 45
REMARK SMILES IDX 71 46 36 48 62 49 45 50 61 51 46 52 49 53 60 54 76 55 47 56
REMARK SMILES IDX 48 57 59 59 77 60 50 61 37 62 38 63 43 64 39 65 40 66 42 67
REMARK SMILES IDX 44 68 41 69 63 70 64 71 69 72 65 73 66 74 68 75 70 76 67 77
REMARK SMILES IDX 51 78 52 79 57 80 53 81 54 82 56 83 58 84 55 85
REMARK H PARENT 21 5 25 28 75 47 49 58
REMARK Flexibility Score: inf
ROOT
ATOM      1  C   UNL A   1      31.675  28.062  26.747  1.00  0.00     0.117 C 
ENDROOT
BRANCH   1   2
ATOM      2  N   UNL A   1      30.968  26.798  26.850  1.00  0.00    -0.356 N 
ATOM      3  C   UNL A   1      30.144  26.124  26.005  1.00  0.00     0.227 C 
ATOM      4  O   UNL A   1      29.632  25.097  26.472  1.00  0.00    -0.274 OA
ATOM      5  H   UNL A   1      31.115  26.336  27.706  1.00  0.00     0.163 HD
BRANCH   3   6
ATOM      6  C   UNL A   1      29.801  26.560  24.569  1.00  0.00     0.109 C 
ATOM      7  C   UNL A   1      28.353  26.365  24.123  1.00  0.00     0.023 C 
BRANCH   6   8
ATOM      8  C   UNL A   1      30.840  26.118  23.546  1.00  0.00     0.007 A 
ATOM      9  C   UNL A   1      31.082  26.847  22.371  1.00  0.00     0.122 A 
ATOM     10  C   UNL A   1      32.056  26.439  21.454  1.00  0.00     0.047 A 
ATOM     11  C   UNL A   1      32.816  25.296  21.701  1.00  0.00     0.016 A 
ATOM     12  C   UNL A   1      31.603  24.953  23.754  1.00  0.00     0.020 A 
ATOM     13  C   UNL A   1      32.587  24.530  22.847  1.00  0.00     0.023 A 
BRANCH   9  14
ATOM     14  O   UNL A   1      30.285  27.897  21.999  1.00  0.00    -0.496 OA
ATOM     15  C   UNL A   1      30.903  29.161  22.241  1.00  0.00     0.278 C 
ENDBRANCH   9  14
BRANCH  13  16
ATOM     16  C   UNL A   1      33.439  23.319  23.068  1.00  0.00     0.193 C 
ATOM     17  O   UNL A   1      33.131  22.250  22.546  1.00  0.00    -0.289 OA
BRANCH  16  18
ATOM     18  C   UNL A   1      34.703  23.364  23.837  1.00  0.00     0.022 A 
ATOM     19  C   UNL A   1      35.849  22.832  23.239  1.00  0.00     0.012 A 
ATOM     20  C   UNL A   1      34.772  23.897  25.130  1.00  0.00     0.012 A 
ATOM     21  C   UNL A   1      37.069  22.884  23.911  1.00  0.00     0.001 A 
ATOM     22  C   UNL A   1      36.003  23.963  25.789  1.00  0.00     0.001 A 
ATOM     23  C   UNL A   1      37.152  23.466  25.175  1.00  0.00     0.000 A 
ENDBRANCH  16  18
ENDBRANCH  13  16
ENDBRANCH   6   8
ENDBRANCH   3   6
ENDBRANCH   1   2
BRANCH   1  24
ATOM     24  C   UNL A   1      33.187  27.866  26.697  1.00  0.00     0.042 C 
BRANCH  24  25
ATOM     25  C   UNL A   1      33.957  28.952  25.958  1.00  0.00     0.118 C 
BRANCH  25  26
ATOM     26  N   UNL A   1      33.833  30.256  26.595  1.00  0.00    -0.352 N 
ATOM     27  C   UNL A   1      34.530  30.857  27.616  1.00  0.00     0.251 C 
ATOM     28  H   UNL A   1      33.112  30.813  26.223  1.00  0.00     0.163 HD
ATOM     29  O   UNL A   1      34.081  31.900  28.087  1.00  0.00    -0.269 OA
BRANCH  27  30
ATOM     30  C   UNL A   1      35.785  30.294  28.183  1.00  0.00     0.039 A 
ATOM     31  C   UNL A   1      36.970  30.433  27.441  1.00  0.00     0.014 A 
ATOM     32  C   UNL A   1      35.823  29.578  29.379  1.00  0.00     0.014 A 
ATOM     33  C   UNL A   1      38.182  29.927  27.926  1.00  0.00     0.010 A 
ATOM     34  C   UNL A   1      37.041  29.138  29.902  1.00  0.00     0.010 A 
ATOM     35  C   UNL A   1      38.230  29.296  29.176  1.00  0.00    -0.014 A 
BRANCH  35  36
ATOM     36  C   UNL A   1      39.488  28.713  29.708  1.00  0.00     0.031 A 
ATOM     37  C   UNL A   1      40.155  29.353  30.895  1.00  0.00     0.074 A 
ATOM     38  C   UNL A   1      40.070  27.662  29.099  1.00  0.00     0.049 A 
ATOM     39  N   UNL A   1      41.299  29.066  31.461  1.00  0.00    -0.248 NA
ATOM     40  C   UNL A   1      39.447  30.487  31.512  1.00  0.00     0.031 C 
ATOM     41  C   UNL A   1      39.545  26.965  27.926  1.00  0.00     0.029 A 
ATOM     42  N   UNL A   1      41.246  27.010  29.375  1.00  0.00    -0.354 N 
ATOM     43  C   UNL A   1      41.454  29.987  32.488  1.00  0.00     0.074 A 
ATOM     44  C   UNL A   1      40.313  30.876  32.435  1.00  0.00     0.031 C 
ATOM     45  C   UNL A   1      40.397  25.984  27.580  1.00  0.00     0.029 A 
ATOM     46  C   UNL A   1      41.537  25.998  28.492  1.00  0.00     0.049 A 
ATOM     47  H   UNL A   1      41.828  27.246  30.134  1.00  0.00     0.167 HD
ATOM     48  C   UNL A   1      42.443  30.074  33.408  1.00  0.00     0.037 A 
ATOM     49  C   UNL A   1      42.605  25.180  28.424  1.00  0.00     0.037 A 
ATOM     50  C   UNL A   1      43.568  29.182  33.476  1.00  0.00     0.049 A 
ATOM     51  C   UNL A   1      43.702  25.310  29.444  1.00  0.00     0.074 A 
ATOM     52  C   UNL A   1      44.596  29.158  34.401  1.00  0.00     0.029 A 
ATOM     53  N   UNL A   1      43.814  28.155  32.577  1.00  0.00    -0.354 N 
ATOM     54  N   UNL A   1      43.803  26.144  30.451  1.00  0.00    -0.248 NA
ATOM     55  C   UNL A   1      44.833  24.377  29.323  1.00  0.00     0.031 C 
ATOM     56  C   UNL A   1      45.485  28.139  34.042  1.00  0.00     0.029 A 
ATOM     57  C   UNL A   1      44.986  27.502  32.916  1.00  0.00     0.049 A 
ATOM     58  H   UNL A   1      43.238  27.925  31.812  1.00  0.00     0.167 HD
ATOM     59  C   UNL A   1      44.986  25.815  31.101  1.00  0.00     0.074 A 
ATOM     60  C   UNL A   1      45.565  24.701  30.379  1.00  0.00     0.031 C 
ATOM     61  C   UNL A   1      45.541  26.384  32.198  1.00  0.00     0.037 A 
BRANCH  48  62
ATOM     62  C   UNL A   1      42.339  31.178  34.420  1.00  0.00     0.057 A 
ATOM     63  C   UNL A   1      41.657  31.004  35.632  1.00  0.00     0.134 A 
ATOM     64  C   UNL A   1      42.935  32.423  34.187  1.00  0.00     0.134 A 
ATOM     65  F   UNL A   1      41.052  29.839  35.909  1.00  0.00    -0.206 F 
ATOM     66  C   UNL A   1      41.544  32.038  36.561  1.00  0.00     0.040 A 
ATOM     67  C   UNL A   1      42.851  33.457  35.119  1.00  0.00     0.040 A 
ATOM     68  F   UNL A   1      43.607  32.654  33.048  1.00  0.00    -0.206 F 
ATOM     69  C   UNL A   1      42.147  33.269  36.307  1.00  0.00     0.006 A 
ENDBRANCH  48  62
BRANCH  49  70
ATOM     70  C   UNL A   1      42.685  24.144  27.363  1.00  0.00     0.057 A 
ATOM     71  C   UNL A   1      42.245  22.836  27.601  1.00  0.00     0.134 A 
ATOM     72  C   UNL A   1      43.224  24.426  26.103  1.00  0.00     0.134 A 
ATOM     73  F   UNL A   1      41.741  22.502  28.798  1.00  0.00    -0.206 F 
ATOM     74  C   UNL A   1      42.357  21.839  26.631  1.00  0.00     0.040 A 
ATOM     75  C   UNL A   1      43.321  23.444  25.115  1.00  0.00     0.040 A 
ATOM     76  F   UNL A   1      43.662  25.660  25.816  1.00  0.00    -0.206 F 
ATOM     77  C   UNL A   1      42.894  22.144  25.382  1.00  0.00     0.006 A 
ENDBRANCH  49  70
BRANCH  61  78
ATOM     78  C   UNL A   1      46.815  25.785  32.714  1.00  0.00     0.057 A 
ATOM     79  C   UNL A   1      48.070  26.199  32.250  1.00  0.00     0.134 A 
ATOM     80  C   UNL A   1      46.786  24.813  33.723  1.00  0.00     0.134 A 
ATOM     81  F   UNL A   1      48.164  27.117  31.276  1.00  0.00    -0.206 F 
ATOM     82  C   UNL A   1      49.251  25.655  32.757  1.00  0.00     0.040 A 
ATOM     83  C   UNL A   1      47.961  24.279  34.256  1.00  0.00     0.040 A 
ATOM     84  F   UNL A   1      45.617  24.379  34.217  1.00  0.00    -0.206 F 
ATOM     85  C   UNL A   1      49.197  24.697  33.770  1.00  0.00     0.006 A 
ENDBRANCH  61  78
ENDBRANCH  35  36
ENDBRANCH  27  30
ENDBRANCH  25  26
ENDBRANCH  24  25
ENDBRANCH   1  24
TORSDOF 14
ENDMDL
MODEL 3
REMARK VINA RESULT:     -11.9      5.972     11.068
REMARK SMILES COc1ccc(C(=O)c2ccccc2)cc1[C@@H](C)C(=O)NCCCNC(=O)c1ccc(-c2c3nc(c(-c4c(F)cccc4F)c4ccc([nH]4)c(-c4c(F)cccc4F)c4nc(c(-c5c(F)cccc5F)c5ccc2[nH]5)C=C4)C=C3)cc1
REMARK SMILES IDX 22 1 21 2 19 3 20 4 17 6 18 7 16 8 3 9 4 10 5 11 15 12 6 13
REMARK SMILES IDX 2 14 1 15 7 16 8 17 9 18 10 19 14 20 11 21 13 22 12 23 23 24
REMARK SMILES IDX 24 25 25 26 26 27 27 29 28 30 29 31 81 32 30 33 80 34 31 35
REMARK SMILES IDX 32 36 33 37 74 38 34 39 79 40 73 41 75 42 35 43 78 44 72 45
REMARK SMILES IDX 71 46 36 48 62 49 45 50 61 51 46 52 49 53 60 54 76 55 47 56
REMARK SMILES IDX 48 57 59 59 77 60 50 61 37 62 38 63 43 64 39 65 40 66 42 67
REMARK SMILES IDX 44 68 41 69 63 70 64 71 69 72 65 73 66 74 68 75 70 76 67 77
REMARK SMILES IDX 51 78 52 79 57 80 53 81 54 82 56 83 58 84 55 85
REMARK H PARENT 21 5 25 28 75 47 49 58
REMARK Flexibility Score: inf
ROOT
ATOM      1  C   UNL A   1      36.541  20.286  25.006  1.00  0.00     0.117 C 
ENDROOT
BRANCH   1   2
ATOM      2  N   UNL A   1      36.743  21.666  25.406  1.00  0.00    -0.356 N 
ATOM      3  C   UNL A   1      35.906  22.631  25.871  1.00  0.00     0.227 C 
ATOM      4  O   UNL A   1      36.419  23.748  26.022  1.00  0.00    -0.274 OA
ATOM      5  H   UNL A   1      37.678  21.964  25.323  1.00  0.00     0.163 HD
BRANCH   3   6
ATOM      6  C   UNL A   1      34.412  22.429  26.182  1.00  0.00     0.109 C 
ATOM      7  C   UNL A   1      34.078  21.655  27.456  1.00  0.00     0.023 C 
BRANCH   6   8
ATOM      8  C   UNL A   1      33.599  22.013  24.962  1.00  0.00     0.007 A 
ATOM      9  C   UNL A   1      33.000  22.958  24.113  1.00  0.00     0.122 A 
ATOM     10  C   UNL A   1      32.278  22.560  22.984  1.00  0.00     0.047 A 
ATOM     11  C   UNL A   1      32.148  21.205  22.676  1.00  0.00     0.016 A 
ATOM     12  C   UNL A   1      33.427  20.653  24.642  1.00  0.00     0.020 A 
ATOM     13  C   UNL A   1      32.708  20.235  23.512  1.00  0.00     0.023 A 
BRANCH   9  14
ATOM     14  O   UNL A   1      32.971  24.290  24.426  1.00  0.00    -0.496 OA
ATOM     15  C   UNL A   1      33.813  25.067  23.575  1.00  0.00     0.278 C 
ENDBRANCH   9  14
BRANCH  13  16
ATOM     16  C   UNL A   1      32.548  18.797  23.128  1.00  0.00     0.193 C 
ATOM     17  O   UNL A   1      32.084  18.505  22.028  1.00  0.00    -0.289 OA
BRANCH  16  18
ATOM     18  C   UNL A   1      33.004  17.686  23.993  1.00  0.00     0.022 A 
ATOM     19  C   UNL A   1      34.322  17.244  23.848  1.00  0.00     0.012 A 
ATOM     20  C   UNL A   1      32.156  17.065  24.919  1.00  0.00     0.012 A 
ATOM     21  C   UNL A   1      34.805  16.224  24.666  1.00  0.00     0.001 A 
ATOM     22  C   UNL A   1      32.654  16.057  25.749  1.00  0.00     0.001 A 
ATOM     23  C   UNL A   1      33.981  15.644  25.628  1.00  0.00     0.000 A 
ENDBRANCH  16  18
ENDBRANCH  13  16
ENDBRANCH   6   8
ENDBRANCH   3   6
ENDBRANCH   1   2
BRANCH   1  24
ATOM     24  C   UNL A   1      37.850  19.503  24.974  1.00  0.00     0.042 C 
BRANCH  24  25
ATOM     25  C   UNL A   1      38.990  20.113  25.778  1.00  0.00     0.118 C 
BRANCH  25  26
ATOM     26  N   UNL A   1      40.109  19.194  25.944  1.00  0.00    -0.352 N 
ATOM     27  C   UNL A   1      41.457  19.401  26.120  1.00  0.00     0.251 C 
ATOM     28  H   UNL A   1      39.850  18.245  25.926  1.00  0.00     0.163 HD
ATOM     29  O   UNL A   1      42.205  18.430  26.037  1.00  0.00    -0.269 OA
BRANCH  27  30
ATOM     30  C   UNL A   1      42.044  20.742  26.387  1.00  0.00     0.039 A 
ATOM     31  C   UNL A   1      42.231  21.131  27.724  1.00  0.00     0.014 A 
ATOM     32  C   UNL A   1      42.350  21.651  25.374  1.00  0.00     0.014 A 
ATOM     33  C   UNL A   1      42.784  22.379  28.035  1.00  0.00     0.010 A 
ATOM     34  C   UNL A   1      42.970  22.865  25.678  1.00  0.00     0.010 A 
ATOM     35  C   UNL A   1      43.181  23.247  27.010  1.00  0.00    -0.014 A 
BRANCH  35  36
ATOM     36  C   UNL A   1      43.736  24.594  27.299  1.00  0.00     0.031 A 
ATOM     37  C   UNL A   1      42.805  25.704  27.707  1.00  0.00     0.074 A 
ATOM     38  C   UNL A   1      45.048  24.847  27.133  1.00  0.00     0.049 A 
ATOM     39  N   UNL A   1      43.063  26.970  27.914  1.00  0.00    -0.248 NA
ATOM     40  C   UNL A   1      41.390  25.342  27.880  1.00  0.00     0.031 C 
ATOM     41  C   UNL A   1      46.053  23.871  26.715  1.00  0.00     0.029 A 
ATOM     42  N   UNL A   1      45.757  26.014  27.278  1.00  0.00    -0.354 N 
ATOM     43  C   UNL A   1      41.844  27.556  28.229  1.00  0.00     0.074 A 
ATOM     44  C   UNL A   1      40.839  26.519  28.134  1.00  0.00     0.031 C 
ATOM     45  C   UNL A   1      47.249  24.479  26.635  1.00  0.00     0.029 A 
ATOM     46  C   UNL A   1      47.091  25.890  26.973  1.00  0.00     0.049 A 
ATOM     47  H   UNL A   1      45.348  26.860  27.572  1.00  0.00     0.167 HD
ATOM     48  C   UNL A   1      41.585  28.835  28.589  1.00  0.00     0.037 A 
ATOM     49  C   UNL A   1      48.072  26.814  26.959  1.00  0.00     0.037 A 
ATOM     50  C   UNL A   1      42.583  29.863  28.702  1.00  0.00     0.049 A 
ATOM     51  C   UNL A   1      47.756  28.234  27.341  1.00  0.00     0.074 A 
ATOM     52  C   UNL A   1      42.426  31.178  29.106  1.00  0.00     0.029 A 
ATOM     53  N   UNL A   1      43.927  29.692  28.407  1.00  0.00    -0.354 N 
ATOM     54  N   UNL A   1      46.610  28.759  27.701  1.00  0.00    -0.248 NA
ATOM     55  C   UNL A   1      48.874  29.189  27.322  1.00  0.00     0.031 C 
ATOM     56  C   UNL A   1      43.670  31.812  29.021  1.00  0.00     0.029 A 
ATOM     57  C   UNL A   1      44.608  30.881  28.604  1.00  0.00     0.049 A 
ATOM     58  H   UNL A   1      44.335  28.850  28.102  1.00  0.00     0.167 HD
ATOM     59  C   UNL A   1      46.875  30.094  27.983  1.00  0.00     0.074 A 
ATOM     60  C   UNL A   1      48.291  30.296  27.760  1.00  0.00     0.031 C 
ATOM     61  C   UNL A   1      46.021  31.063  28.393  1.00  0.00     0.037 A 
BRANCH  48  62
ATOM     62  C   UNL A   1      40.157  29.184  28.888  1.00  0.00     0.057 A 
ATOM     63  C   UNL A   1      39.686  29.293  30.204  1.00  0.00     0.134 A 
ATOM     64  C   UNL A   1      39.245  29.425  27.854  1.00  0.00     0.134 A 
ATOM     65  F   UNL A   1      40.507  29.060  31.240  1.00  0.00    -0.206 F 
ATOM     66  C   UNL A   1      38.353  29.597  30.479  1.00  0.00     0.040 A 
ATOM     67  C   UNL A   1      37.915  29.754  28.117  1.00  0.00     0.040 A 
ATOM     68  F   UNL A   1      39.631  29.341  26.571  1.00  0.00    -0.206 F 
ATOM     69  C   UNL A   1      37.463  29.833  29.433  1.00  0.00     0.006 A 
ENDBRANCH  48  62
BRANCH  49  70
ATOM     70  C   UNL A   1      49.458  26.425  26.595  1.00  0.00     0.057 A 
ATOM     71  C   UNL A   1      50.332  25.897  27.553  1.00  0.00     0.134 A 
ATOM     72  C   UNL A   1      49.949  26.597  25.296  1.00  0.00     0.134 A 
ATOM     73  F   UNL A   1      49.924  25.731  28.819  1.00  0.00    -0.206 F 
ATOM     74  C   UNL A   1      51.652  25.571  27.237  1.00  0.00     0.040 A 
ATOM     75  C   UNL A   1      51.261  26.254  24.961  1.00  0.00     0.040 A 
ATOM     76  F   UNL A   1      49.160  27.099  24.336  1.00  0.00    -0.206 F 
ATOM     77  C   UNL A   1      52.118  25.747  25.936  1.00  0.00     0.006 A 
ENDBRANCH  49  70
BRANCH  61  78
ATOM     78  C   UNL A   1      46.601  32.418  28.670  1.00  0.00     0.057 A 
ATOM     79  C   UNL A   1      46.666  33.411  27.686  1.00  0.00     0.134 A 
ATOM     80  C   UNL A   1      47.057  32.747  29.954  1.00  0.00     0.134 A 
ATOM     81  F   UNL A   1      46.257  33.155  26.434  1.00  0.00    -0.206 F 
ATOM     82  C   UNL A   1      47.181  34.679  27.963  1.00  0.00     0.040 A 
ATOM     83  C   UNL A   1      47.552  34.018  30.249  1.00  0.00     0.040 A 
ATOM     84  F   UNL A   1      47.014  31.843  30.944  1.00  0.00    -0.206 F 
ATOM     85  C   UNL A   1      47.618  34.987  29.251  1.00  0.00     0.006 A 
ENDBRANCH  61  78
ENDBRANCH  35  36
ENDBRANCH  27  30
ENDBRANCH  25  26
ENDBRANCH  24  25
ENDBRANCH   1  24
TORSDOF 14
ENDMDL
