MODEL 1
REMARK VINA RESULT:     -14.3      0.000      0.000
REMARK SMILES O=C(CNC(=O)[C@@H](CC1=c2ccccc2=NC1)N1C(=O)N=C2C=CC=C[C@H]2C1=O)NCCCNC(=O)c1ccc(-c2c3nc(c(-c4c(F)cccc4F)c4ccc([nH]4)c(-c4c(F)cccc4F)c4nc(c(-c5c(F)cccc5F)c5ccc2[nH]5)C=C4)C=C3)cc1
REMARK SMILES IDX 31 1 30 2 1 3 2 4 3 6 4 7 5 8 6 10 7 11 8 12 9 13 10 14
REMARK SMILES IDX 17 15 11 16 15 17 16 18 12 19 14 20 13 21 18 22 19 23 28 24
REMARK SMILES IDX 21 25 20 26 27 27 29 28 22 29 26 30 23 31 25 32 24 33 32 34
REMARK SMILES IDX 33 35 34 36 35 37 36 39 37 40 38 41 90 42 39 43 89 44 40 45
REMARK SMILES IDX 41 46 42 47 83 48 43 49 88 50 82 51 84 52 44 53 87 54 81 55
REMARK SMILES IDX 80 56 45 58 71 59 54 60 70 61 55 62 58 63 69 64 85 65 56 66
REMARK SMILES IDX 57 67 68 69 86 70 59 71 46 72 47 73 52 74 48 75 49 76 51 77
REMARK SMILES IDX 53 78 50 79 72 80 73 81 78 82 74 83 75 84 77 85 79 86 76 87
REMARK SMILES IDX 60 88 61 89 66 90 62 91 63 92 65 93 67 94 64 95
REMARK H PARENT 30 5 4 9 34 38 84 57 58 68
REMARK Flexibility Score: inf
ROOT
ATOM      1  C   UNL A   1      41.239  21.019  27.344  1.00  0.00     0.117 C 
ENDROOT
BRANCH   1   2
ATOM      2  N   UNL A   1      39.788  21.648  26.872  1.00  0.00    -0.355 N 
ATOM      3  O   UNL A   1      39.138  24.522  26.551  1.00  0.00    -0.273 OA
ATOM      4  C   UNL A   1      38.812  23.292  26.446  1.00  0.00     0.239 C 
ATOM      5  H   UNL A   1      39.163  20.896  26.757  1.00  0.00     0.163 HD
BRANCH   4   6
ATOM      6  C   UNL A   1      37.090  23.455  25.961  1.00  0.00     0.216 C 
BRANCH   6   7
ATOM      7  N   UNL A   1      35.934  22.934  26.683  1.00  0.00    -0.345 N 
ATOM      8  C   UNL A   1      34.624  22.822  26.361  1.00  0.00     0.244 C 
ATOM      9  H   UNL A   1      36.149  22.595  27.581  1.00  0.00     0.164 HD
ATOM     10  O   UNL A   1      33.873  22.705  27.339  1.00  0.00    -0.273 OA
BRANCH   8  11
ATOM     11  C   UNL A   1      34.049  22.664  24.938  1.00  0.00     0.188 C 
BRANCH  11  12
ATOM     12  C   UNL A   1      34.555  23.487  23.729  1.00  0.00     0.069 C 
BRANCH  12  13
ATOM     13  C   UNL A   1      33.948  24.810  23.383  1.00  0.00    -0.037 C 
ATOM     14  C   UNL A   1      33.731  25.853  24.175  1.00  0.00     0.001 A 
ATOM     15  C   UNL A   1      33.641  25.130  21.902  1.00  0.00     0.174 C 
ATOM     16  C   UNL A   1      33.842  26.520  25.956  1.00  0.00     0.010 A 
ATOM     17  C   UNL A   1      33.332  27.156  22.796  1.00  0.00     0.065 A 
ATOM     18  N   UNL A   1      33.304  26.588  21.638  1.00  0.00    -0.280 NA
ATOM     19  C   UNL A   1      33.626  28.074  26.288  1.00  0.00     0.001 A 
ATOM     20  C   UNL A   1      33.067  29.002  23.389  1.00  0.00     0.028 A 
ATOM     21  C   UNL A   1      33.209  29.375  24.976  1.00  0.00     0.002 A 
ENDBRANCH  12  13
ENDBRANCH  11  12
BRANCH  11  22
ATOM     22  N   UNL A   1      33.816  21.202  24.835  1.00  0.00    -0.249 N 
ATOM     23  C   UNL A   1      32.474  20.841  24.703  1.00  0.00     0.351 C 
ATOM     24  C   UNL A   1      34.826  20.261  24.863  1.00  0.00     0.244 C 
ATOM     25  N   UNL A   1      32.068  19.602  25.078  1.00  0.00    -0.197 NA
ATOM     26  O   UNL A   1      31.656  21.608  24.202  1.00  0.00    -0.246 OA
ATOM     27  C   UNL A   1      34.410  18.810  25.115  1.00  0.00     0.151 C 
ATOM     28  O   UNL A   1      36.015  20.555  24.719  1.00  0.00    -0.273 OA
ATOM     29  C   UNL A   1      32.917  18.643  25.203  1.00  0.00     0.062 C 
ATOM     30  C   UNL A   1      34.921  17.775  24.134  1.00  0.00    -0.007 C 
ATOM     31  C   UNL A   1      32.362  17.276  25.319  1.00  0.00     0.025 C 
ATOM     32  C   UNL A   1      34.243  16.633  23.908  1.00  0.00    -0.003 C 
ATOM     33  C   UNL A   1      33.009  16.343  24.608  1.00  0.00     0.002 C 
ENDBRANCH  11  22
ENDBRANCH   8  11
ENDBRANCH   6   7
ENDBRANCH   4   6
ENDBRANCH   1   2
BRANCH   1  34
ATOM     34  C   UNL A   1      42.261  21.114  26.210  1.00  0.00     0.042 C 
BRANCH  34  35
ATOM     35  C   UNL A   1      42.285  22.433  25.446  1.00  0.00     0.118 C 
BRANCH  35  36
ATOM     36  N   UNL A   1      43.626  22.943  25.190  1.00  0.00    -0.352 N 
ATOM     37  C   UNL A   1      44.187  24.145  25.565  1.00  0.00     0.251 C 
ATOM     38  H   UNL A   1      44.215  22.344  24.675  1.00  0.00     0.163 HD
ATOM     39  O   UNL A   1      45.296  24.470  25.158  1.00  0.00    -0.269 OA
BRANCH  37  40
ATOM     40  C   UNL A   1      43.409  25.059  26.423  1.00  0.00     0.039 A 
ATOM     41  C   UNL A   1      43.602  26.438  26.334  1.00  0.00     0.014 A 
ATOM     42  C   UNL A   1      42.556  24.523  27.388  1.00  0.00     0.014 A 
ATOM     43  C   UNL A   1      43.120  27.259  27.346  1.00  0.00     0.010 A 
ATOM     44  C   UNL A   1      41.989  25.366  28.347  1.00  0.00     0.010 A 
ATOM     45  C   UNL A   1      42.322  26.731  28.373  1.00  0.00    -0.014 A 
BRANCH  45  46
ATOM     46  C   UNL A   1      41.879  27.606  29.489  1.00  0.00     0.031 A 
ATOM     47  C   UNL A   1      42.631  27.626  30.794  1.00  0.00     0.074 A 
ATOM     48  C   UNL A   1      40.823  28.422  29.310  1.00  0.00     0.049 A 
ATOM     49  N   UNL A   1      42.362  28.281  31.895  1.00  0.00    -0.248 NA
ATOM     50  C   UNL A   1      43.844  26.796  30.876  1.00  0.00     0.031 C 
ATOM     51  C   UNL A   1      40.030  28.522  28.083  1.00  0.00     0.029 A 
ATOM     52  N   UNL A   1      40.240  29.328  30.158  1.00  0.00    -0.354 N 
ATOM     53  C   UNL A   1      43.353  27.927  32.804  1.00  0.00     0.074 A 
ATOM     54  C   UNL A   1      44.215  26.977  32.136  1.00  0.00     0.031 C 
ATOM     55  C   UNL A   1      39.088  29.463  28.245  1.00  0.00     0.029 A 
ATOM     56  C   UNL A   1      39.163  29.976  29.607  1.00  0.00     0.049 A 
ATOM     57  H   UNL A   1      40.563  29.497  31.072  1.00  0.00     0.167 HD
ATOM     58  C   UNL A   1      43.534  28.363  34.075  1.00  0.00     0.037 A 
ATOM     59  C   UNL A   1      38.306  30.859  30.150  1.00  0.00     0.037 A 
ATOM     60  C   UNL A   1      42.684  29.324  34.732  1.00  0.00     0.049 A 
ATOM     61  C   UNL A   1      38.479  31.259  31.587  1.00  0.00     0.074 A 
ATOM     62  C   UNL A   1      42.798  29.849  36.009  1.00  0.00     0.029 A 
ATOM     63  N   UNL A   1      41.560  29.902  34.162  1.00  0.00    -0.354 N 
ATOM     64  N   UNL A   1      39.418  30.915  32.434  1.00  0.00    -0.248 NA
ATOM     65  C   UNL A   1      37.459  32.156  32.146  1.00  0.00     0.031 C 
ATOM     66  C   UNL A   1      41.714  30.707  36.227  1.00  0.00     0.029 A 
ATOM     67  C   UNL A   1      40.951  30.753  35.072  1.00  0.00     0.049 A 
ATOM     68  H   UNL A   1      41.241  29.733  33.247  1.00  0.00     0.167 HD
ATOM     69  C   UNL A   1      39.108  31.560  33.623  1.00  0.00     0.074 A 
ATOM     70  C   UNL A   1      37.912  32.339  33.379  1.00  0.00     0.031 C 
ATOM     71  C   UNL A   1      39.752  31.508  34.816  1.00  0.00     0.037 A 
BRANCH  58  72
ATOM     72  C   UNL A   1      44.684  27.785  34.850  1.00  0.00     0.057 A 
ATOM     73  C   UNL A   1      44.497  26.670  35.678  1.00  0.00     0.134 A 
ATOM     74  C   UNL A   1      45.969  28.342  34.801  1.00  0.00     0.134 A 
ATOM     75  F   UNL A   1      43.291  26.090  35.776  1.00  0.00    -0.206 F 
ATOM     76  C   UNL A   1      45.544  26.131  36.428  1.00  0.00     0.040 A 
ATOM     77  C   UNL A   1      47.030  27.797  35.527  1.00  0.00     0.040 A 
ATOM     78  F   UNL A   1      46.221  29.403  34.019  1.00  0.00    -0.206 F 
ATOM     79  C   UNL A   1      46.817  26.692  36.348  1.00  0.00     0.006 A 
ENDBRANCH  58  72
BRANCH  59  80
ATOM     80  C   UNL A   1      37.179  31.394  29.345  1.00  0.00     0.057 A 
ATOM     81  C   UNL A   1      36.027  30.634  29.109  1.00  0.00     0.134 A 
ATOM     82  C   UNL A   1      37.223  32.685  28.809  1.00  0.00     0.134 A 
ATOM     83  F   UNL A   1      35.926  29.388  29.594  1.00  0.00    -0.206 F 
ATOM     84  C   UNL A   1      34.962  31.134  28.361  1.00  0.00     0.040 A 
ATOM     85  C   UNL A   1      36.153  33.210  28.082  1.00  0.00     0.040 A 
ATOM     86  F   UNL A   1      38.292  33.467  29.019  1.00  0.00    -0.206 F 
ATOM     87  C   UNL A   1      35.020  32.431  27.853  1.00  0.00     0.006 A 
ENDBRANCH  59  80
BRANCH  71  88
ATOM     88  C   UNL A   1      39.169  32.323  35.932  1.00  0.00     0.057 A 
ATOM     89  C   UNL A   1      39.543  33.661  36.114  1.00  0.00     0.134 A 
ATOM     90  C   UNL A   1      38.237  31.784  36.827  1.00  0.00     0.134 A 
ATOM     91  F   UNL A   1      40.436  34.237  35.295  1.00  0.00    -0.206 F 
ATOM     92  C   UNL A   1      39.006  34.433  37.144  1.00  0.00     0.040 A 
ATOM     93  C   UNL A   1      37.672  32.554  37.845  1.00  0.00     0.040 A 
ATOM     94  F   UNL A   1      37.823  30.514  36.695  1.00  0.00    -0.206 F 
ATOM     95  C   UNL A   1      38.062  33.883  38.008  1.00  0.00     0.006 A 
ENDBRANCH  71  88
ENDBRANCH  45  46
ENDBRANCH  37  40
ENDBRANCH  35  36
ENDBRANCH  34  35
ENDBRANCH   1  34
TORSDOF 15
ENDMDL
MODEL 2
REMARK VINA RESULT:     -14.3      3.597      9.242
REMARK SMILES O=C(CNC(=O)[C@@H](CC1=c2ccccc2=NC1)N1C(=O)N=C2C=CC=C[C@H]2C1=O)NCCCNC(=O)c1ccc(-c2c3nc(c(-c4c(F)cccc4F)c4ccc([nH]4)c(-c4c(F)cccc4F)c4nc(c(-c5c(F)cccc5F)c5ccc2[nH]5)C=C4)C=C3)cc1
REMARK SMILES IDX 31 1 30 2 1 3 2 4 3 6 4 7 5 8 6 10 7 11 8 12 9 13 10 14
REMARK SMILES IDX 17 15 11 16 15 17 16 18 12 19 14 20 13 21 18 22 19 23 28 24
REMARK SMILES IDX 21 25 20 26 27 27 29 28 22 29 26 30 23 31 25 32 24 33 32 34
REMARK SMILES IDX 33 35 34 36 35 37 36 39 37 40 38 41 90 42 39 43 89 44 40 45
REMARK SMILES IDX 41 46 42 47 83 48 43 49 88 50 82 51 84 52 44 53 87 54 81 55
REMARK SMILES IDX 80 56 45 58 71 59 54 60 70 61 55 62 58 63 69 64 85 65 56 66
REMARK SMILES IDX 57 67 68 69 86 70 59 71 46 72 47 73 52 74 48 75 49 76 51 77
REMARK SMILES IDX 53 78 50 79 72 80 73 81 78 82 74 83 75 84 77 85 79 86 76 87
REMARK SMILES IDX 60 88 61 89 66 90 62 91 63 92 65 93 67 94 64 95
REMARK H PARENT 30 5 4 9 34 38 84 57 58 68
REMARK Flexibility Score: inf
ROOT
ATOM      1  C   UNL A   1      34.388  33.103  29.430  1.00  0.00     0.117 C 
ENDROOT
BRANCH   1   2
ATOM      2  N   UNL A   1      34.175  31.756  28.501  1.00  0.00    -0.355 N 
ATOM      3  O   UNL A   1      36.303  29.936  27.530  1.00  0.00    -0.273 OA
ATOM      4  C   UNL A   1      35.068  30.234  27.649  1.00  0.00     0.239 C 
ATOM      5  H   UNL A   1      33.216  31.690  28.290  1.00  0.00     0.163 HD
BRANCH   4   6
ATOM      6  C   UNL A   1      34.326  28.948  26.639  1.00  0.00     0.216 C 
BRANCH   6   7
ATOM      7  N   UNL A   1      34.187  28.960  25.186  1.00  0.00    -0.345 N 
ATOM      8  C   UNL A   1      33.467  28.202  24.326  1.00  0.00     0.244 C 
ATOM      9  H   UNL A   1      34.722  29.657  24.744  1.00  0.00     0.164 HD
ATOM     10  O   UNL A   1      33.886  28.227  23.161  1.00  0.00    -0.273 OA
BRANCH   8  11
ATOM     11  C   UNL A   1      32.136  27.489  24.640  1.00  0.00     0.188 C 
BRANCH  11  12
ATOM     12  C   UNL A   1      31.857  26.781  25.988  1.00  0.00     0.069 C 
BRANCH  12  13
ATOM     13  C   UNL A   1      32.080  25.310  26.152  1.00  0.00    -0.037 C 
ATOM     14  C   UNL A   1      33.188  24.613  25.936  1.00  0.00     0.001 A 
ATOM     15  C   UNL A   1      30.965  24.449  26.789  1.00  0.00     0.174 C 
ATOM     16  C   UNL A   1      34.994  24.683  25.334  1.00  0.00     0.010 A 
ATOM     17  C   UNL A   1      32.635  22.962  26.789  1.00  0.00     0.065 A 
ATOM     18  N   UNL A   1      31.404  23.045  27.168  1.00  0.00    -0.280 NA
ATOM     19  C   UNL A   1      35.998  23.448  25.534  1.00  0.00     0.001 A 
ATOM     20  C   UNL A   1      33.984  21.550  26.918  1.00  0.00     0.028 A 
ATOM     21  C   UNL A   1      35.491  21.810  26.338  1.00  0.00     0.002 A 
ENDBRANCH  12  13
ENDBRANCH  11  12
BRANCH  11  22
ATOM     22  N   UNL A   1      31.127  28.376  24.011  1.00  0.00    -0.249 N 
ATOM     23  C   UNL A   1      30.444  27.801  22.937  1.00  0.00     0.351 C 
ATOM     24  C   UNL A   1      30.868  29.664  24.435  1.00  0.00     0.244 C 
ATOM     25  N   UNL A   1      29.882  28.594  21.991  1.00  0.00    -0.197 NA
ATOM     26  O   UNL A   1      30.295  26.584  22.858  1.00  0.00    -0.246 OA
ATOM     27  C   UNL A   1      30.084  30.562  23.474  1.00  0.00     0.151 C 
ATOM     28  O   UNL A   1      31.260  30.100  25.519  1.00  0.00    -0.273 OA
ATOM     29  C   UNL A   1      29.642  29.834  22.233  1.00  0.00     0.062 C 
ATOM     30  C   UNL A   1      28.868  31.266  24.040  1.00  0.00    -0.007 C 
ATOM     31  C   UNL A   1      28.766  30.541  21.271  1.00  0.00     0.025 C 
ATOM     32  C   UNL A   1      27.834  31.616  23.251  1.00  0.00    -0.003 C 
ATOM     33  C   UNL A   1      27.853  31.347  21.827  1.00  0.00     0.002 C 
ENDBRANCH  11  22
ENDBRANCH   8  11
ENDBRANCH   6   7
ENDBRANCH   4   6
ENDBRANCH   1   2
BRANCH   1  34
ATOM     34  C   UNL A   1      33.534  34.259  28.904  1.00  0.00     0.042 C 
BRANCH  34  35
ATOM     35  C   UNL A   1      33.754  35.608  29.580  1.00  0.00     0.118 C 
BRANCH  35  36
ATOM     36  N   UNL A   1      32.703  35.976  30.521  1.00  0.00    -0.352 N 
ATOM     37  C   UNL A   1      32.632  35.750  31.879  1.00  0.00     0.251 C 
ATOM     38  H   UNL A   1      31.935  36.453  30.131  1.00  0.00     0.163 HD
ATOM     39  O   UNL A   1      31.613  36.018  32.503  1.00  0.00    -0.269 OA
BRANCH  37  40
ATOM     40  C   UNL A   1      33.785  35.130  32.561  1.00  0.00     0.039 A 
ATOM     41  C   UNL A   1      35.011  35.794  32.610  1.00  0.00     0.014 A 
ATOM     42  C   UNL A   1      33.658  33.836  33.067  1.00  0.00     0.014 A 
ATOM     43  C   UNL A   1      36.154  35.087  32.959  1.00  0.00     0.010 A 
ATOM     44  C   UNL A   1      34.796  33.160  33.513  1.00  0.00     0.010 A 
ATOM     45  C   UNL A   1      36.063  33.757  33.398  1.00  0.00    -0.014 A 
BRANCH  45  46
ATOM     46  C   UNL A   1      37.301  32.990  33.693  1.00  0.00     0.031 A 
ATOM     47  C   UNL A   1      38.059  33.221  34.975  1.00  0.00     0.074 A 
ATOM     48  C   UNL A   1      37.719  32.049  32.826  1.00  0.00     0.049 A 
ATOM     49  N   UNL A   1      39.186  32.688  35.377  1.00  0.00    -0.248 NA
ATOM     50  C   UNL A   1      37.479  34.181  35.927  1.00  0.00     0.031 C 
ATOM     51  C   UNL A   1      37.056  31.705  31.567  1.00  0.00     0.029 A 
ATOM     52  N   UNL A   1      38.796  31.202  32.877  1.00  0.00    -0.354 N 
ATOM     53  C   UNL A   1      39.460  33.262  36.614  1.00  0.00     0.074 A 
ATOM     54  C   UNL A   1      38.397  34.206  36.884  1.00  0.00     0.031 C 
ATOM     55  C   UNL A   1      37.719  30.696  30.982  1.00  0.00     0.029 A 
ATOM     56  C   UNL A   1      38.892  30.375  31.785  1.00  0.00     0.049 A 
ATOM     57  H   UNL A   1      39.438  31.189  33.623  1.00  0.00     0.167 HD
ATOM     58  C   UNL A   1      40.496  33.017  37.452  1.00  0.00     0.037 A 
ATOM     59  C   UNL A   1      39.840  29.482  31.449  1.00  0.00     0.037 A 
ATOM     60  C   UNL A   1      41.544  32.062  37.189  1.00  0.00     0.049 A 
ATOM     61  C   UNL A   1      41.022  29.293  32.355  1.00  0.00     0.074 A 
ATOM     62  C   UNL A   1      42.625  31.723  37.987  1.00  0.00     0.029 A 
ATOM     63  N   UNL A   1      41.643  31.297  36.037  1.00  0.00    -0.354 N 
ATOM     64  N   UNL A   1      41.269  29.843  33.519  1.00  0.00    -0.248 NA
ATOM     65  C   UNL A   1      42.066  28.371  31.888  1.00  0.00     0.031 C 
ATOM     66  C   UNL A   1      43.403  30.789  37.294  1.00  0.00     0.029 A 
ATOM     67  C   UNL A   1      42.783  30.510  36.087  1.00  0.00     0.049 A 
ATOM     68  H   UNL A   1      40.999  31.311  35.294  1.00  0.00     0.167 HD
ATOM     69  C   UNL A   1      42.491  29.328  33.928  1.00  0.00     0.074 A 
ATOM     70  C   UNL A   1      42.920  28.399  32.902  1.00  0.00     0.031 C 
ATOM     71  C   UNL A   1      43.202  29.603  35.050  1.00  0.00     0.037 A 
BRANCH  58  72
ATOM     72  C   UNL A   1      40.562  33.812  38.726  1.00  0.00     0.057 A 
ATOM     73  C   UNL A   1      41.378  34.948  38.816  1.00  0.00     0.134 A 
ATOM     74  C   UNL A   1      39.844  33.443  39.871  1.00  0.00     0.134 A 
ATOM     75  F   UNL A   1      42.098  35.354  37.759  1.00  0.00    -0.206 F 
ATOM     76  C   UNL A   1      41.476  35.687  39.996  1.00  0.00     0.040 A 
ATOM     77  C   UNL A   1      39.915  34.189  41.050  1.00  0.00     0.040 A 
ATOM     78  F   UNL A   1      39.034  32.373  39.850  1.00  0.00    -0.206 F 
ATOM     79  C   UNL A   1      40.737  35.311  41.116  1.00  0.00     0.006 A 
ENDBRANCH  58  72
BRANCH  59  80
ATOM     80  C   UNL A   1      39.734  28.729  30.174  1.00  0.00     0.057 A 
ATOM     81  C   UNL A   1      40.253  29.242  28.980  1.00  0.00     0.134 A 
ATOM     82  C   UNL A   1      39.126  27.471  30.127  1.00  0.00     0.134 A 
ATOM     83  F   UNL A   1      40.845  30.445  28.958  1.00  0.00    -0.206 F 
ATOM     84  C   UNL A   1      40.164  28.535  27.780  1.00  0.00     0.040 A 
ATOM     85  C   UNL A   1      39.054  26.739  28.941  1.00  0.00     0.040 A 
ATOM     86  F   UNL A   1      38.628  26.919  31.244  1.00  0.00    -0.206 F 
ATOM     87  C   UNL A   1      39.570  27.274  27.762  1.00  0.00     0.006 A 
ENDBRANCH  59  80
BRANCH  71  88
ATOM     88  C   UNL A   1      44.506  28.881  35.215  1.00  0.00     0.057 A 
ATOM     89  C   UNL A   1      44.560  27.634  35.851  1.00  0.00     0.134 A 
ATOM     90  C   UNL A   1      45.710  29.421  34.745  1.00  0.00     0.134 A 
ATOM     91  F   UNL A   1      43.443  27.064  36.329  1.00  0.00    -0.206 F 
ATOM     92  C   UNL A   1      45.764  26.948  36.008  1.00  0.00     0.040 A 
ATOM     93  C   UNL A   1      46.918  28.732  34.872  1.00  0.00     0.040 A 
ATOM     94  F   UNL A   1      45.723  30.603  34.111  1.00  0.00    -0.206 F 
ATOM     95  C   UNL A   1      46.946  27.493  35.511  1.00  0.00     0.006 A 
ENDBRANCH  71  88
ENDBRANCH  45  46
ENDBRANCH  37  40
ENDBRANCH  35  36
ENDBRANCH  34  35
ENDBRANCH   1  34
TORSDOF 15
ENDMDL
MODEL 3
REMARK VINA RESULT:     -14.0      0.347      5.796
REMARK SMILES O=C(CNC(=O)[C@@H](CC1=c2ccccc2=NC1)N1C(=O)N=C2C=CC=C[C@H]2C1=O)NCCCNC(=O)c1ccc(-c2c3nc(c(-c4c(F)cccc4F)c4ccc([nH]4)c(-c4c(F)cccc4F)c4nc(c(-c5c(F)cccc5F)c5ccc2[nH]5)C=C4)C=C3)cc1
REMARK SMILES IDX 31 1 30 2 1 3 2 4 3 6 4 7 5 8 6 10 7 11 8 12 9 13 10 14
REMARK SMILES IDX 17 15 11 16 15 17 16 18 12 19 14 20 13 21 18 22 19 23 28 24
REMARK SMILES IDX 21 25 20 26 27 27 29 28 22 29 26 30 23 31 25 32 24 33 32 34
REMARK SMILES IDX 33 35 34 36 35 37 36 39 37 40 38 41 90 42 39 43 89 44 40 45
REMARK SMILES IDX 41 46 42 47 83 48 43 49 88 50 82 51 84 52 44 53 87 54 81 55
REMARK SMILES IDX 80 56 45 58 71 59 54 60 70 61 55 62 58 63 69 64 85 65 56 66
REMARK SMILES IDX 57 67 68 69 86 70 59 71 46 72 47 73 52 74 48 75 49 76 51 77
REMARK SMILES IDX 53 78 50 79 72 80 73 81 78 82 74 83 75 84 77 85 79 86 76 87
REMARK SMILES IDX 60 88 61 89 66 90 62 91 63 92 65 93 67 94 64 95
REMARK H PARENT 30 5 4 9 34 38 84 57 58 68
REMARK Flexibility Score: inf
ROOT
ATOM      1  C   UNL A   1      41.491  21.161  27.216  1.00  0.00     0.117 C 
ENDROOT
BRANCH   1   2
ATOM      2  N   UNL A   1      40.006  21.691  26.727  1.00  0.00    -0.355 N 
ATOM      3  O   UNL A   1      39.044  24.494  26.755  1.00  0.00    -0.273 OA
ATOM      4  C   UNL A   1      38.870  23.265  26.459  1.00  0.00     0.239 C 
ATOM      5  H   UNL A   1      39.481  20.901  26.465  1.00  0.00     0.163 HD
BRANCH   4   6
ATOM      6  C   UNL A   1      37.173  23.310  25.875  1.00  0.00     0.216 C 
BRANCH   6   7
ATOM      7  N   UNL A   1      35.993  22.858  26.605  1.00  0.00    -0.345 N 
ATOM      8  C   UNL A   1      34.682  22.785  26.277  1.00  0.00     0.244 C 
ATOM      9  H   UNL A   1      36.190  22.544  27.517  1.00  0.00     0.164 HD
ATOM     10  O   UNL A   1      33.921  22.731  27.253  1.00  0.00    -0.273 OA
BRANCH   8  11
ATOM     11  C   UNL A   1      34.111  22.598  24.857  1.00  0.00     0.188 C 
BRANCH  11  12
ATOM     12  C   UNL A   1      34.613  23.403  23.634  1.00  0.00     0.069 C 
BRANCH  12  13
ATOM     13  C   UNL A   1      33.990  24.711  23.259  1.00  0.00    -0.037 C 
ATOM     14  C   UNL A   1      33.793  25.781  24.019  1.00  0.00     0.001 A 
ATOM     15  C   UNL A   1      33.638  24.976  21.777  1.00  0.00     0.174 C 
ATOM     16  C   UNL A   1      33.954  26.513  25.771  1.00  0.00     0.010 A 
ATOM     17  C   UNL A   1      33.347  27.033  22.607  1.00  0.00     0.065 A 
ATOM     18  N   UNL A   1      33.286  26.423  21.471  1.00  0.00    -0.280 NA
ATOM     19  C   UNL A   1      33.742  28.078  26.053  1.00  0.00     0.001 A 
ATOM     20  C   UNL A   1      33.093  28.899  23.140  1.00  0.00     0.028 A 
ATOM     21  C   UNL A   1      33.281  29.329  24.708  1.00  0.00     0.002 A 
ENDBRANCH  12  13
ENDBRANCH  11  12
BRANCH  11  22
ATOM     22  N   UNL A   1      33.889  21.132  24.778  1.00  0.00    -0.249 N 
ATOM     23  C   UNL A   1      32.549  20.759  24.655  1.00  0.00     0.351 C 
ATOM     24  C   UNL A   1      34.906  20.200  24.820  1.00  0.00     0.244 C 
ATOM     25  N   UNL A   1      32.153  19.523  25.051  1.00  0.00    -0.197 NA
ATOM     26  O   UNL A   1      31.724  21.512  24.143  1.00  0.00    -0.246 OA
ATOM     27  C   UNL A   1      34.501  18.750  25.097  1.00  0.00     0.151 C 
ATOM     28  O   UNL A   1      36.092  20.501  24.668  1.00  0.00    -0.273 OA
ATOM     29  C   UNL A   1      33.009  18.573  25.191  1.00  0.00     0.062 C 
ATOM     30  C   UNL A   1      35.019  17.703  24.132  1.00  0.00    -0.007 C 
ATOM     31  C   UNL A   1      32.465  17.204  25.330  1.00  0.00     0.025 C 
ATOM     32  C   UNL A   1      34.349  16.552  23.926  1.00  0.00    -0.003 C 
ATOM     33  C   UNL A   1      33.118  16.264  24.633  1.00  0.00     0.002 C 
ENDBRANCH  11  22
ENDBRANCH   8  11
ENDBRANCH   6   7
ENDBRANCH   4   6
ENDBRANCH   1   2
BRANCH   1  34
ATOM     34  C   UNL A   1      42.543  21.444  26.142  1.00  0.00     0.042 C 
BRANCH  34  35
ATOM     35  C   UNL A   1      42.385  22.760  25.388  1.00  0.00     0.118 C 
BRANCH  35  36
ATOM     36  N   UNL A   1      43.650  23.399  25.043  1.00  0.00    -0.352 N 
ATOM     37  C   UNL A   1      44.116  24.649  25.386  1.00  0.00     0.251 C 
ATOM     38  H   UNL A   1      44.257  22.860  24.485  1.00  0.00     0.163 HD
ATOM     39  O   UNL A   1      45.157  25.080  24.906  1.00  0.00    -0.269 OA
BRANCH  37  40
ATOM     40  C   UNL A   1      43.315  25.484  26.303  1.00  0.00     0.039 A 
ATOM     41  C   UNL A   1      43.500  26.866  26.335  1.00  0.00     0.014 A 
ATOM     42  C   UNL A   1      42.446  24.863  27.201  1.00  0.00     0.014 A 
ATOM     43  C   UNL A   1      42.992  27.596  27.402  1.00  0.00     0.010 A 
ATOM     44  C   UNL A   1      41.854  25.619  28.215  1.00  0.00     0.010 A 
ATOM     45  C   UNL A   1      42.178  26.979  28.364  1.00  0.00    -0.014 A 
BRANCH  45  46
ATOM     46  C   UNL A   1      41.706  27.755  29.540  1.00  0.00     0.031 A 
ATOM     47  C   UNL A   1      40.484  28.632  29.440  1.00  0.00     0.074 A 
ATOM     48  C   UNL A   1      42.352  27.634  30.715  1.00  0.00     0.049 A 
ATOM     49  N   UNL A   1      39.958  29.422  30.342  1.00  0.00    -0.248 NA
ATOM     50  C   UNL A   1      39.762  28.623  28.158  1.00  0.00     0.031 C 
ATOM     51  C   UNL A   1      43.526  26.792  30.951  1.00  0.00     0.029 A 
ATOM     52  N   UNL A   1      42.106  28.212  31.933  1.00  0.00    -0.354 N 
ATOM     53  C   UNL A   1      38.860  30.020  29.732  1.00  0.00     0.074 A 
ATOM     54  C   UNL A   1      38.812  29.523  28.374  1.00  0.00     0.031 C 
ATOM     55  C   UNL A   1      43.877  26.880  32.243  1.00  0.00     0.029 A 
ATOM     56  C   UNL A   1      43.001  27.840  32.905  1.00  0.00     0.049 A 
ATOM     57  H   UNL A   1      41.360  28.834  32.096  1.00  0.00     0.167 HD
ATOM     58  C   UNL A   1      37.969  30.895  30.258  1.00  0.00     0.037 A 
ATOM     59  C   UNL A   1      43.128  28.253  34.179  1.00  0.00     0.037 A 
ATOM     60  C   UNL A   1      38.008  31.374  31.617  1.00  0.00     0.049 A 
ATOM     61  C   UNL A   1      42.179  29.287  34.710  1.00  0.00     0.074 A 
ATOM     62  C   UNL A   1      37.136  32.242  32.254  1.00  0.00     0.029 A 
ATOM     63  N   UNL A   1      38.976  31.027  32.548  1.00  0.00    -0.354 N 
ATOM     64  N   UNL A   1      41.148  29.844  34.122  1.00  0.00    -0.248 NA
ATOM     65  C   UNL A   1      42.424  29.761  36.078  1.00  0.00     0.031 C 
ATOM     66  C   UNL A   1      37.605  32.458  33.555  1.00  0.00     0.029 A 
ATOM     67  C   UNL A   1      38.742  31.689  33.744  1.00  0.00     0.049 A 
ATOM     68  H   UNL A   1      39.719  30.404  32.384  1.00  0.00     0.167 HD
ATOM     69  C   UNL A   1      40.617  30.729  35.051  1.00  0.00     0.074 A 
ATOM     70  C   UNL A   1      41.421  30.610  36.250  1.00  0.00     0.031 C 
ATOM     71  C   UNL A   1      39.562  31.571  34.922  1.00  0.00     0.037 A 
BRANCH  58  72
ATOM     72  C   UNL A   1      36.885  31.411  29.354  1.00  0.00     0.057 A 
ATOM     73  C   UNL A   1      35.817  30.586  28.979  1.00  0.00     0.134 A 
ATOM     74  C   UNL A   1      36.910  32.711  28.831  1.00  0.00     0.134 A 
ATOM     75  F   UNL A   1      35.735  29.327  29.437  1.00  0.00    -0.206 F 
ATOM     76  C   UNL A   1      34.813  31.034  28.118  1.00  0.00     0.040 A 
ATOM     77  C   UNL A   1      35.897  33.178  27.989  1.00  0.00     0.040 A 
ATOM     78  F   UNL A   1      37.897  33.558  29.159  1.00  0.00    -0.206 F 
ATOM     79  C   UNL A   1      34.849  32.337  27.627  1.00  0.00     0.006 A 
ENDBRANCH  58  72
BRANCH  59  80
ATOM     80  C   UNL A   1      44.222  27.719  35.029  1.00  0.00     0.057 A 
ATOM     81  C   UNL A   1      44.050  26.561  35.796  1.00  0.00     0.134 A 
ATOM     82  C   UNL A   1      45.470  28.347  35.077  1.00  0.00     0.134 A 
ATOM     83  F   UNL A   1      42.875  25.915  35.795  1.00  0.00    -0.206 F 
ATOM     84  C   UNL A   1      45.076  26.051  36.590  1.00  0.00     0.040 A 
ATOM     85  C   UNL A   1      46.517  27.832  35.844  1.00  0.00     0.040 A 
ATOM     86  F   UNL A   1      45.701  29.448  34.347  1.00  0.00    -0.206 F 
ATOM     87  C   UNL A   1      46.319  26.682  36.607  1.00  0.00     0.006 A 
ENDBRANCH  59  80
BRANCH  71  88
ATOM     88  C   UNL A   1      39.224  32.416  36.115  1.00  0.00     0.057 A 
ATOM     89  C   UNL A   1      39.777  33.694  36.267  1.00  0.00     0.134 A 
ATOM     90  C   UNL A   1      38.352  31.965  37.112  1.00  0.00     0.134 A 
ATOM     91  F   UNL A   1      40.624  34.185  35.349  1.00  0.00    -0.206 F 
ATOM     92  C   UNL A   1      39.469  34.494  37.368  1.00  0.00     0.040 A 
ATOM     93  C   UNL A   1      38.015  32.766  38.205  1.00  0.00     0.040 A 
ATOM     94  F   UNL A   1      37.775  30.757  37.015  1.00  0.00    -0.206 F 
ATOM     95  C   UNL A   1      38.579  34.034  38.336  1.00  0.00     0.006 A 
ENDBRANCH  71  88
ENDBRANCH  45  46
ENDBRANCH  37  40
ENDBRANCH  35  36
ENDBRANCH  34  35
ENDBRANCH   1  34
TORSDOF 15
ENDMDL
