MODEL 1
REMARK VINA RESULT:     -12.0      0.000      0.000
REMARK SMILES O=C(NCCCNC(=O)[C@@H](NC(=O)c1ccc(C[NH+]2CCCCC2)cc1)c1ccccc1F)c1ccc(-c2c3nc(c(-c4c(F)cccc4F)c4ccc([nH]4)c(-c4c(F)cccc4F)c4nc(c(-c5c(F)cccc5F)c5ccc2[nH]5)C=C4)C=C3)cc1
REMARK SMILES IDX 6 1 5 2 4 3 3 4 1 5 2 6 34 8 35 9 87 10 36 11 86 12 37 13
REMARK SMILES IDX 38 14 39 15 80 16 40 17 85 18 79 19 81 20 41 21 84 22 78 23
REMARK SMILES IDX 77 24 42 26 68 27 51 28 67 29 52 30 55 31 66 32 82 33 53 34
REMARK SMILES IDX 54 35 65 37 83 38 56 39 43 40 44 41 49 42 45 43 46 44 48 45
REMARK SMILES IDX 50 46 47 47 69 48 70 49 75 50 71 51 72 52 74 53 76 54 73 55
REMARK SMILES IDX 57 56 58 57 63 58 59 59 60 60 62 61 64 62 61 63 7 64 8 65
REMARK SMILES IDX 9 67 10 68 11 69 12 70 13 72 14 73 15 74 26 75 16 76 25 77
REMARK SMILES IDX 17 78 18 79 19 80 20 81 24 82 21 84 23 85 22 86 27 87 28 88
REMARK SMILES IDX 32 89 29 90 31 91 33 92 30 93
REMARK H PARENT 3 7 81 25 55 36 7 66 11 71 19 83
REMARK Flexibility Score: inf
ROOT
ATOM      1  C   UNL A   1      37.796  21.770  24.976  1.00  0.00     0.117 C 
ENDROOT
BRANCH   1   2
ATOM      2  C   UNL A   1      38.310  20.357  24.818  1.00  0.00     0.042 C 
BRANCH   2   3
ATOM      3  C   UNL A   1      38.949  19.833  26.090  1.00  0.00     0.118 C 
BRANCH   3   4
ATOM      4  N   UNL A   1      40.230  19.175  25.845  1.00  0.00    -0.352 N 
ATOM      5  O   UNL A   1      42.444  18.998  25.468  1.00  0.00    -0.269 OA
ATOM      6  C   UNL A   1      41.513  19.660  25.919  1.00  0.00     0.251 C 
ATOM      7  H   UNL A   1      40.163  18.228  25.586  1.00  0.00     0.163 HD
BRANCH   6   8
ATOM      8  C   UNL A   1      41.771  20.988  26.509  1.00  0.00     0.039 A 
ATOM      9  C   UNL A   1      41.895  22.114  25.694  1.00  0.00     0.014 A 
ATOM     10  C   UNL A   1      41.882  21.116  27.897  1.00  0.00     0.014 A 
ATOM     11  C   UNL A   1      42.336  23.313  26.232  1.00  0.00     0.010 A 
ATOM     12  C   UNL A   1      42.191  22.358  28.452  1.00  0.00     0.010 A 
ATOM     13  C   UNL A   1      42.459  23.457  27.620  1.00  0.00    -0.014 A 
BRANCH  13  14
ATOM     14  C   UNL A   1      42.798  24.783  28.188  1.00  0.00     0.031 A 
ATOM     15  C   UNL A   1      41.731  25.808  28.437  1.00  0.00     0.074 A 
ATOM     16  C   UNL A   1      44.087  25.057  28.462  1.00  0.00     0.049 A 
ATOM     17  N   UNL A   1      41.859  27.051  28.823  1.00  0.00    -0.248 NA
ATOM     18  C   UNL A   1      40.340  25.387  28.214  1.00  0.00     0.031 C 
ATOM     19  C   UNL A   1      45.206  24.130  28.267  1.00  0.00     0.029 A 
ATOM     20  N   UNL A   1      44.677  26.190  28.954  1.00  0.00    -0.354 N 
ATOM     21  C   UNL A   1      40.573  27.573  28.853  1.00  0.00     0.074 A 
ATOM     22  C   UNL A   1      39.679  26.515  28.430  1.00  0.00     0.031 C 
ATOM     23  C   UNL A   1      46.342  24.724  28.653  1.00  0.00     0.029 A 
ATOM     24  C   UNL A   1      46.045  26.096  29.040  1.00  0.00     0.049 A 
ATOM     25  H   UNL A   1      44.172  26.992  29.220  1.00  0.00     0.167 HD
ATOM     26  C   UNL A   1      40.179  28.822  29.200  1.00  0.00     0.037 A 
ATOM     27  C   UNL A   1      46.967  27.024  29.348  1.00  0.00     0.037 A 
ATOM     28  C   UNL A   1      41.083  29.858  29.631  1.00  0.00     0.049 A 
ATOM     29  C   UNL A   1      46.514  28.410  29.689  1.00  0.00     0.074 A 
ATOM     30  C   UNL A   1      40.787  31.146  30.041  1.00  0.00     0.029 A 
ATOM     31  N   UNL A   1      42.464  29.724  29.699  1.00  0.00    -0.354 N 
ATOM     32  N   UNL A   1      45.295  28.889  29.729  1.00  0.00    -0.248 NA
ATOM     33  C   UNL A   1      47.558  29.384  30.025  1.00  0.00     0.031 C 
ATOM     34  C   UNL A   1      41.991  31.806  30.306  1.00  0.00     0.029 A 
ATOM     35  C   UNL A   1      43.035  30.914  30.118  1.00  0.00     0.049 A 
ATOM     36  H   UNL A   1      42.962  28.903  29.482  1.00  0.00     0.167 HD
ATOM     37  C   UNL A   1      45.420  30.214  30.116  1.00  0.00     0.074 A 
ATOM     38  C   UNL A   1      46.836  30.462  30.302  1.00  0.00     0.031 C 
ATOM     39  C   UNL A   1      44.447  31.138  30.306  1.00  0.00     0.037 A 
BRANCH  26  40
ATOM     40  C   UNL A   1      38.717  29.145  29.083  1.00  0.00     0.057 A 
ATOM     41  C   UNL A   1      37.844  29.071  30.177  1.00  0.00     0.134 A 
ATOM     42  C   UNL A   1      38.175  29.546  27.855  1.00  0.00     0.134 A 
ATOM     43  F   UNL A   1      38.293  28.682  31.380  1.00  0.00    -0.206 F 
ATOM     44  C   UNL A   1      36.481  29.347  30.046  1.00  0.00     0.040 A 
ATOM     45  C   UNL A   1      36.820  29.854  27.717  1.00  0.00     0.040 A 
ATOM     46  F   UNL A   1      38.953  29.648  26.766  1.00  0.00    -0.206 F 
ATOM     47  C   UNL A   1      35.966  29.744  28.813  1.00  0.00     0.006 A 
ENDBRANCH  26  40
BRANCH  27  48
ATOM     48  C   UNL A   1      48.402  26.652  29.312  1.00  0.00     0.057 A 
ATOM     49  C   UNL A   1      49.016  26.035  30.406  1.00  0.00     0.134 A 
ATOM     50  C   UNL A   1      49.171  26.837  28.155  1.00  0.00     0.134 A 
ATOM     51  F   UNL A   1      48.334  25.839  31.543  1.00  0.00    -0.206 F 
ATOM     52  C   UNL A   1      50.346  25.613  30.350  1.00  0.00     0.040 A 
ATOM     53  C   UNL A   1      50.492  26.397  28.077  1.00  0.00     0.040 A 
ATOM     54  F   UNL A   1      48.630  27.406  27.067  1.00  0.00    -0.206 F 
ATOM     55  C   UNL A   1      51.084  25.785  29.179  1.00  0.00     0.006 A 
ENDBRANCH  27  48
BRANCH  39  56
ATOM     56  C   UNL A   1      44.873  32.494  30.783  1.00  0.00     0.057 A 
ATOM     57  C   UNL A   1      45.125  33.546  29.897  1.00  0.00     0.134 A 
ATOM     58  C   UNL A   1      44.967  32.762  32.155  1.00  0.00     0.134 A 
ATOM     59  F   UNL A   1      45.068  33.348  28.571  1.00  0.00    -0.206 F 
ATOM     60  C   UNL A   1      45.462  34.821  30.358  1.00  0.00     0.040 A 
ATOM     61  C   UNL A   1      45.278  34.037  32.628  1.00  0.00     0.040 A 
ATOM     62  F   UNL A   1      44.733  31.796  33.055  1.00  0.00    -0.206 F 
ATOM     63  C   UNL A   1      45.528  35.070  31.727  1.00  0.00     0.006 A 
ENDBRANCH  39  56
ENDBRANCH  13  14
ENDBRANCH   6   8
ENDBRANCH   3   4
ENDBRANCH   2   3
ENDBRANCH   1   2
BRANCH   1  64
ATOM     64  N   UNL A   1      36.945  21.962  26.135  1.00  0.00    -0.354 N 
ATOM     65  C   UNL A   1      35.575  22.016  26.186  1.00  0.00     0.247 C 
ATOM     66  H   UNL A   1      37.411  22.069  26.996  1.00  0.00     0.163 HD
ATOM     67  O   UNL A   1      35.047  21.904  27.297  1.00  0.00    -0.272 OA
BRANCH  65  68
ATOM     68  C   UNL A   1      34.730  22.140  24.888  1.00  0.00     0.205 C 
BRANCH  68  69
ATOM     69  N   UNL A   1      33.694  21.085  24.936  1.00  0.00    -0.336 N 
ATOM     70  C   UNL A   1      32.335  21.010  24.899  1.00  0.00     0.252 C 
ATOM     71  H   UNL A   1      34.098  20.191  25.018  1.00  0.00     0.165 HD
ATOM     72  O   UNL A   1      31.778  19.916  24.899  1.00  0.00    -0.269 OA
BRANCH  70  73
ATOM     73  C   UNL A   1      31.533  22.223  25.021  1.00  0.00     0.039 A 
ATOM     74  C   UNL A   1      31.304  22.704  26.312  1.00  0.00     0.014 A 
ATOM     75  C   UNL A   1      31.130  22.931  23.893  1.00  0.00     0.014 A 
ATOM     76  C   UNL A   1      30.799  23.989  26.472  1.00  0.00     0.010 A 
ATOM     77  C   UNL A   1      30.596  24.206  24.062  1.00  0.00     0.010 A 
ATOM     78  C   UNL A   1      30.470  24.765  25.349  1.00  0.00     0.006 A 
BRANCH  78  79
ATOM     79  C   UNL A   1      30.032  26.208  25.508  1.00  0.00     0.299 C 
BRANCH  79  80
ATOM     80  N   UNL A   1      31.105  27.205  25.631  1.00  0.00    -0.331 N 
ATOM     81  C   UNL A   1      30.920  28.331  24.709  1.00  0.00     0.262 C 
ATOM     82  C   UNL A   1      31.326  27.627  27.017  1.00  0.00     0.262 C 
ATOM     83  H   UNL A   1      31.968  26.741  25.347  1.00  0.00     0.348 HD
ATOM     84  C   UNL A   1      32.071  29.332  24.794  1.00  0.00     0.062 C 
ATOM     85  C   UNL A   1      32.491  28.605  27.138  1.00  0.00     0.062 C 
ATOM     86  C   UNL A   1      32.271  29.806  26.228  1.00  0.00     0.012 C 
ENDBRANCH  79  80
ENDBRANCH  78  79
ENDBRANCH  70  73
ENDBRANCH  68  69
BRANCH  68  87
ATOM     87  C   UNL A   1      34.431  23.599  24.589  1.00  0.00     0.020 A 
ATOM     88  C   UNL A   1      34.445  24.642  25.527  1.00  0.00     0.009 A 
ATOM     89  C   UNL A   1      34.226  23.974  23.252  1.00  0.00     0.129 A 
ATOM     90  C   UNL A   1      34.233  25.976  25.159  1.00  0.00     0.001 A 
ATOM     91  C   UNL A   1      34.010  25.300  22.871  1.00  0.00     0.039 A 
ATOM     92  F   UNL A   1      34.235  23.041  22.290  1.00  0.00    -0.207 F 
ATOM     93  C   UNL A   1      34.008  26.306  23.830  1.00  0.00     0.003 A 
ENDBRANCH  68  87
ENDBRANCH  65  68
ENDBRANCH   1  64
TORSDOF 15
ENDMDL
MODEL 2
REMARK VINA RESULT:     -11.9      4.383      9.104
REMARK SMILES O=C(NCCCNC(=O)[C@@H](NC(=O)c1ccc(C[NH+]2CCCCC2)cc1)c1ccccc1F)c1ccc(-c2c3nc(c(-c4c(F)cccc4F)c4ccc([nH]4)c(-c4c(F)cccc4F)c4nc(c(-c5c(F)cccc5F)c5ccc2[nH]5)C=C4)C=C3)cc1
REMARK SMILES IDX 6 1 5 2 4 3 3 4 1 5 2 6 34 8 35 9 87 10 36 11 86 12 37 13
REMARK SMILES IDX 38 14 39 15 80 16 40 17 85 18 79 19 81 20 41 21 84 22 78 23
REMARK SMILES IDX 77 24 42 26 68 27 51 28 67 29 52 30 55 31 66 32 82 33 53 34
REMARK SMILES IDX 54 35 65 37 83 38 56 39 43 40 44 41 49 42 45 43 46 44 48 45
REMARK SMILES IDX 50 46 47 47 69 48 70 49 75 50 71 51 72 52 74 53 76 54 73 55
REMARK SMILES IDX 57 56 58 57 63 58 59 59 60 60 62 61 64 62 61 63 7 64 8 65
REMARK SMILES IDX 9 67 10 68 11 69 12 70 13 72 14 73 15 74 26 75 16 76 25 77
REMARK SMILES IDX 17 78 18 79 19 80 20 81 24 82 21 84 23 85 22 86 27 87 28 88
REMARK SMILES IDX 32 89 29 90 31 91 33 92 30 93
REMARK H PARENT 3 7 81 25 55 36 7 66 11 71 19 83
REMARK Flexibility Score: inf
ROOT
ATOM      1  C   UNL A   1      32.622  30.341  27.194  1.00  0.00     0.117 C 
ENDROOT
BRANCH   1   2
ATOM      2  C   UNL A   1      31.876  31.655  27.202  1.00  0.00     0.042 C 
BRANCH   2   3
ATOM      3  C   UNL A   1      32.757  32.817  26.779  1.00  0.00     0.118 C 
BRANCH   3   4
ATOM      4  N   UNL A   1      32.524  34.017  27.578  1.00  0.00    -0.352 N 
ATOM      5  O   UNL A   1      32.647  35.394  29.357  1.00  0.00    -0.269 OA
ATOM      6  C   UNL A   1      33.135  34.461  28.725  1.00  0.00     0.251 C 
ATOM      7  H   UNL A   1      31.812  34.606  27.238  1.00  0.00     0.163 HD
BRANCH   6   8
ATOM      8  C   UNL A   1      34.360  33.799  29.217  1.00  0.00     0.039 A 
ATOM      9  C   UNL A   1      34.277  32.647  29.999  1.00  0.00     0.014 A 
ATOM     10  C   UNL A   1      35.610  34.329  28.886  1.00  0.00     0.014 A 
ATOM     11  C   UNL A   1      35.410  32.150  30.622  1.00  0.00     0.010 A 
ATOM     12  C   UNL A   1      36.765  33.744  29.404  1.00  0.00     0.010 A 
ATOM     13  C   UNL A   1      36.671  32.673  30.308  1.00  0.00    -0.014 A 
BRANCH  13  14
ATOM     14  C   UNL A   1      37.885  32.042  30.877  1.00  0.00     0.031 A 
ATOM     15  C   UNL A   1      38.615  30.967  30.128  1.00  0.00     0.074 A 
ATOM     16  C   UNL A   1      38.312  32.442  32.089  1.00  0.00     0.049 A 
ATOM     17  N   UNL A   1      39.624  30.231  30.520  1.00  0.00    -0.248 NA
ATOM     18  C   UNL A   1      38.146  30.669  28.767  1.00  0.00     0.031 C 
ATOM     19  C   UNL A   1      37.683  33.488  32.902  1.00  0.00     0.029 A 
ATOM     20  N   UNL A   1      39.367  32.018  32.853  1.00  0.00    -0.354 N 
ATOM     21  C   UNL A   1      39.886  29.359  29.471  1.00  0.00     0.074 A 
ATOM     22  C   UNL A   1      38.920  29.647  28.432  1.00  0.00     0.031 C 
ATOM     23  C   UNL A   1      38.374  33.636  34.040  1.00  0.00     0.029 A 
ATOM     24  C   UNL A   1      39.438  32.642  34.074  1.00  0.00     0.049 A 
ATOM     25  H   UNL A   1      40.009  31.334  32.556  1.00  0.00     0.167 HD
ATOM     26  C   UNL A   1      40.845  28.406  29.390  1.00  0.00     0.037 A 
ATOM     27  C   UNL A   1      40.238  32.410  35.129  1.00  0.00     0.037 A 
ATOM     28  C   UNL A   1      41.807  28.144  30.431  1.00  0.00     0.049 A 
ATOM     29  C   UNL A   1      41.266  31.325  35.033  1.00  0.00     0.074 A 
ATOM     30  C   UNL A   1      42.844  27.228  30.436  1.00  0.00     0.029 A 
ATOM     31  N   UNL A   1      41.842  28.796  31.657  1.00  0.00    -0.354 N 
ATOM     32  N   UNL A   1      41.516  30.517  34.032  1.00  0.00    -0.248 NA
ATOM     33  C   UNL A   1      42.119  31.116  36.208  1.00  0.00     0.031 C 
ATOM     34  C   UNL A   1      43.473  27.289  31.684  1.00  0.00     0.029 A 
ATOM     35  C   UNL A   1      42.866  28.283  32.436  1.00  0.00     0.049 A 
ATOM     36  H   UNL A   1      41.230  29.516  31.930  1.00  0.00     0.167 HD
ATOM     37  C   UNL A   1      42.570  29.717  34.445  1.00  0.00     0.074 A 
ATOM     38  C   UNL A   1      42.914  30.141  35.788  1.00  0.00     0.031 C 
ATOM     39  C   UNL A   1      43.198  28.725  33.768  1.00  0.00     0.037 A 
BRANCH  26  40
ATOM     40  C   UNL A   1      40.871  27.552  28.154  1.00  0.00     0.057 A 
ATOM     41  C   UNL A   1      40.167  26.344  28.064  1.00  0.00     0.134 A 
ATOM     42  C   UNL A   1      41.608  27.952  27.031  1.00  0.00     0.134 A 
ATOM     43  F   UNL A   1      39.450  25.896  29.106  1.00  0.00    -0.206 F 
ATOM     44  C   UNL A   1      40.223  25.548  26.918  1.00  0.00     0.040 A 
ATOM     45  C   UNL A   1      41.649  27.179  25.869  1.00  0.00     0.040 A 
ATOM     46  F   UNL A   1      42.299  29.102  27.043  1.00  0.00    -0.206 F 
ATOM     47  C   UNL A   1      40.963  25.967  25.814  1.00  0.00     0.006 A 
ENDBRANCH  26  40
BRANCH  27  48
ATOM     48  C   UNL A   1      40.058  33.216  36.360  1.00  0.00     0.057 A 
ATOM     49  C   UNL A   1      40.770  34.403  36.557  1.00  0.00     0.134 A 
ATOM     50  C   UNL A   1      39.113  32.857  37.331  1.00  0.00     0.134 A 
ATOM     51  F   UNL A   1      41.693  34.794  35.667  1.00  0.00    -0.206 F 
ATOM     52  C   UNL A   1      40.550  35.206  37.678  1.00  0.00     0.040 A 
ATOM     53  C   UNL A   1      38.864  33.663  38.441  1.00  0.00     0.040 A 
ATOM     54  F   UNL A   1      38.386  31.740  37.186  1.00  0.00    -0.206 F 
ATOM     55  C   UNL A   1      39.586  34.842  38.618  1.00  0.00     0.006 A 
ENDBRANCH  27  48
BRANCH  39  56
ATOM     56  C   UNL A   1      44.356  28.057  34.448  1.00  0.00     0.057 A 
ATOM     57  C   UNL A   1      45.656  28.568  34.370  1.00  0.00     0.134 A 
ATOM     58  C   UNL A   1      44.148  26.923  35.244  1.00  0.00     0.134 A 
ATOM     59  F   UNL A   1      45.921  29.642  33.611  1.00  0.00    -0.206 F 
ATOM     60  C   UNL A   1      46.714  27.970  35.058  1.00  0.00     0.040 A 
ATOM     61  C   UNL A   1      45.193  26.332  35.955  1.00  0.00     0.040 A 
ATOM     62  F   UNL A   1      42.924  26.388  35.362  1.00  0.00    -0.206 F 
ATOM     63  C   UNL A   1      46.481  26.855  35.861  1.00  0.00     0.006 A 
ENDBRANCH  39  56
ENDBRANCH  13  14
ENDBRANCH   6   8
ENDBRANCH   3   4
ENDBRANCH   2   3
ENDBRANCH   1   2
BRANCH   1  64
ATOM     64  N   UNL A   1      33.347  30.080  25.965  1.00  0.00    -0.354 N 
ATOM     65  C   UNL A   1      32.999  29.250  24.929  1.00  0.00     0.247 C 
ATOM     66  H   UNL A   1      34.201  30.560  25.861  1.00  0.00     0.163 HD
ATOM     67  O   UNL A   1      33.609  29.389  23.865  1.00  0.00    -0.272 OA
BRANCH  65  68
ATOM     68  C   UNL A   1      31.834  28.232  25.078  1.00  0.00     0.205 C 
BRANCH  68  69
ATOM     69  N   UNL A   1      30.929  28.430  23.924  1.00  0.00    -0.336 N 
ATOM     70  C   UNL A   1      30.437  27.686  22.895  1.00  0.00     0.252 C 
ATOM     71  H   UNL A   1      30.589  29.353  23.892  1.00  0.00     0.165 HD
ATOM     72  O   UNL A   1      29.621  28.174  22.119  1.00  0.00    -0.269 OA
BRANCH  70  73
ATOM     73  C   UNL A   1      30.994  26.367  22.616  1.00  0.00     0.039 A 
ATOM     74  C   UNL A   1      32.183  26.324  21.884  1.00  0.00     0.014 A 
ATOM     75  C   UNL A   1      30.431  25.220  23.167  1.00  0.00     0.014 A 
ATOM     76  C   UNL A   1      32.901  25.135  21.833  1.00  0.00     0.010 A 
ATOM     77  C   UNL A   1      31.141  24.024  23.085  1.00  0.00     0.010 A 
ATOM     78  C   UNL A   1      32.402  23.981  22.461  1.00  0.00     0.006 A 
BRANCH  78  79
ATOM     79  C   UNL A   1      33.230  22.712  22.514  1.00  0.00     0.299 C 
BRANCH  79  80
ATOM     80  N   UNL A   1      34.169  22.593  23.638  1.00  0.00    -0.331 N 
ATOM     81  C   UNL A   1      33.991  21.337  24.375  1.00  0.00     0.262 C 
ATOM     82  C   UNL A   1      35.558  22.835  23.242  1.00  0.00     0.262 C 
ATOM     83  H   UNL A   1      33.938  23.342  24.291  1.00  0.00     0.348 HD
ATOM     84  C   UNL A   1      34.923  21.246  25.581  1.00  0.00     0.062 C 
ATOM     85  C   UNL A   1      36.511  22.782  24.433  1.00  0.00     0.062 C 
ATOM     86  C   UNL A   1      36.373  21.452  25.162  1.00  0.00     0.012 C 
ENDBRANCH  79  80
ENDBRANCH  78  79
ENDBRANCH  70  73
ENDBRANCH  68  69
BRANCH  68  87
ATOM     87  C   UNL A   1      32.369  26.875  25.504  1.00  0.00     0.020 A 
ATOM     88  C   UNL A   1      33.692  26.437  25.350  1.00  0.00     0.009 A 
ATOM     89  C   UNL A   1      31.512  26.015  26.207  1.00  0.00     0.129 A 
ATOM     90  C   UNL A   1      34.128  25.199  25.838  1.00  0.00     0.001 A 
ATOM     91  C   UNL A   1      31.931  24.777  26.697  1.00  0.00     0.039 A 
ATOM     92  F   UNL A   1      30.240  26.377  26.429  1.00  0.00    -0.207 F 
ATOM     93  C   UNL A   1      33.244  24.363  26.507  1.00  0.00     0.003 A 
ENDBRANCH  68  87
ENDBRANCH  65  68
ENDBRANCH   1  64
TORSDOF 15
ENDMDL
MODEL 3
REMARK VINA RESULT:     -11.7      2.856      8.143
REMARK SMILES O=C(NCCCNC(=O)[C@@H](NC(=O)c1ccc(C[NH+]2CCCCC2)cc1)c1ccccc1F)c1ccc(-c2c3nc(c(-c4c(F)cccc4F)c4ccc([nH]4)c(-c4c(F)cccc4F)c4nc(c(-c5c(F)cccc5F)c5ccc2[nH]5)C=C4)C=C3)cc1
REMARK SMILES IDX 6 1 5 2 4 3 3 4 1 5 2 6 34 8 35 9 87 10 36 11 86 12 37 13
REMARK SMILES IDX 38 14 39 15 80 16 40 17 85 18 79 19 81 20 41 21 84 22 78 23
REMARK SMILES IDX 77 24 42 26 68 27 51 28 67 29 52 30 55 31 66 32 82 33 53 34
REMARK SMILES IDX 54 35 65 37 83 38 56 39 43 40 44 41 49 42 45 43 46 44 48 45
REMARK SMILES IDX 50 46 47 47 69 48 70 49 75 50 71 51 72 52 74 53 76 54 73 55
REMARK SMILES IDX 57 56 58 57 63 58 59 59 60 60 62 61 64 62 61 63 7 64 8 65
REMARK SMILES IDX 9 67 10 68 11 69 12 70 13 72 14 73 15 74 26 75 16 76 25 77
REMARK SMILES IDX 17 78 18 79 19 80 20 81 24 82 21 84 23 85 22 86 27 87 28 88
REMARK SMILES IDX 32 89 29 90 31 91 33 92 30 93
REMARK H PARENT 3 7 81 25 55 36 7 66 11 71 19 83
REMARK Flexibility Score: inf
ROOT
ATOM      1  C   UNL A   1      33.251  30.046  27.196  1.00  0.00     0.117 C 
ENDROOT
BRANCH   1   2
ATOM      2  C   UNL A   1      33.216  31.490  27.638  1.00  0.00     0.042 C 
BRANCH   2   3
ATOM      3  C   UNL A   1      34.531  31.935  28.251  1.00  0.00     0.118 C 
BRANCH   3   4
ATOM      4  N   UNL A   1      34.404  32.280  29.665  1.00  0.00    -0.352 N 
ATOM      5  O   UNL A   1      34.841  32.216  31.874  1.00  0.00    -0.269 OA
ATOM      6  C   UNL A   1      35.235  32.021  30.727  1.00  0.00     0.251 C 
ATOM      7  H   UNL A   1      33.588  32.781  29.894  1.00  0.00     0.163 HD
BRANCH   6   8
ATOM      8  C   UNL A   1      36.589  31.480  30.495  1.00  0.00     0.039 A 
ATOM      9  C   UNL A   1      37.287  31.796  29.329  1.00  0.00     0.014 A 
ATOM     10  C   UNL A   1      37.175  30.653  31.456  1.00  0.00     0.014 A 
ATOM     11  C   UNL A   1      38.462  31.129  29.023  1.00  0.00     0.010 A 
ATOM     12  C   UNL A   1      38.426  30.088  31.208  1.00  0.00     0.010 A 
ATOM     13  C   UNL A   1      39.061  30.291  29.973  1.00  0.00    -0.014 A 
BRANCH  13  14
ATOM     14  C   UNL A   1      40.386  29.693  29.685  1.00  0.00     0.031 A 
ATOM     15  C   UNL A   1      41.638  30.513  29.786  1.00  0.00     0.074 A 
ATOM     16  C   UNL A   1      40.444  28.400  29.315  1.00  0.00     0.049 A 
ATOM     17  N   UNL A   1      42.864  30.186  29.467  1.00  0.00    -0.248 NA
ATOM     18  C   UNL A   1      41.495  31.882  30.303  1.00  0.00     0.031 C 
ATOM     19  C   UNL A   1      39.288  27.505  29.193  1.00  0.00     0.029 A 
ATOM     20  N   UNL A   1      41.510  27.614  28.967  1.00  0.00    -0.354 N 
ATOM     21  C   UNL A   1      43.632  31.318  29.706  1.00  0.00     0.074 A 
ATOM     22  C   UNL A   1      42.731  32.346  30.183  1.00  0.00     0.031 C 
ATOM     23  C   UNL A   1      39.710  26.291  28.818  1.00  0.00     0.029 A 
ATOM     24  C   UNL A   1      41.147  26.344  28.590  1.00  0.00     0.049 A 
ATOM     25  H   UNL A   1      42.442  27.928  28.985  1.00  0.00     0.167 HD
ATOM     26  C   UNL A   1      44.967  31.479  29.539  1.00  0.00     0.037 A 
ATOM     27  C   UNL A   1      41.879  25.343  28.071  1.00  0.00     0.037 A 
ATOM     28  C   UNL A   1      45.849  30.439  29.075  1.00  0.00     0.049 A 
ATOM     29  C   UNL A   1      43.346  25.556  27.857  1.00  0.00     0.074 A 
ATOM     30  C   UNL A   1      47.222  30.485  28.905  1.00  0.00     0.029 A 
ATOM     31  N   UNL A   1      45.441  29.166  28.698  1.00  0.00    -0.354 N 
ATOM     32  N   UNL A   1      44.066  26.624  28.101  1.00  0.00    -0.248 NA
ATOM     33  C   UNL A   1      44.103  24.432  27.295  1.00  0.00     0.031 C 
ATOM     34  C   UNL A   1      47.636  29.257  28.377  1.00  0.00     0.029 A 
ATOM     35  C   UNL A   1      46.532  28.426  28.271  1.00  0.00     0.049 A 
ATOM     36  H   UNL A   1      44.514  28.838  28.730  1.00  0.00     0.167 HD
ATOM     37  C   UNL A   1      45.364  26.297  27.744  1.00  0.00     0.074 A 
ATOM     38  C   UNL A   1      45.333  24.927  27.270  1.00  0.00     0.031 C 
ATOM     39  C   UNL A   1      46.482  27.061  27.810  1.00  0.00     0.037 A 
BRANCH  26  40
ATOM     40  C   UNL A   1      45.540  32.840  29.817  1.00  0.00     0.057 A 
ATOM     41  C   UNL A   1      46.033  33.201  31.078  1.00  0.00     0.134 A 
ATOM     42  C   UNL A   1      45.608  33.802  28.801  1.00  0.00     0.134 A 
ATOM     43  F   UNL A   1      45.989  32.332  32.100  1.00  0.00    -0.206 F 
ATOM     44  C   UNL A   1      46.538  34.479  31.328  1.00  0.00     0.040 A 
ATOM     45  C   UNL A   1      46.137  35.074  29.030  1.00  0.00     0.040 A 
ATOM     46  F   UNL A   1      45.163  33.523  27.566  1.00  0.00    -0.206 F 
ATOM     47  C   UNL A   1      46.594  35.419  30.300  1.00  0.00     0.006 A 
ENDBRANCH  26  40
BRANCH  27  48
ATOM     48  C   UNL A   1      41.207  24.075  27.703  1.00  0.00     0.057 A 
ATOM     49  C   UNL A   1      40.356  24.002  26.596  1.00  0.00     0.134 A 
ATOM     50  C   UNL A   1      41.460  22.889  28.406  1.00  0.00     0.134 A 
ATOM     51  F   UNL A   1      40.070  25.105  25.889  1.00  0.00    -0.206 F 
ATOM     52  C   UNL A   1      39.781  22.793  26.199  1.00  0.00     0.040 A 
ATOM     53  C   UNL A   1      40.914  21.670  28.005  1.00  0.00     0.040 A 
ATOM     54  F   UNL A   1      42.283  22.893  29.465  1.00  0.00    -0.206 F 
ATOM     55  C   UNL A   1      40.069  21.621  26.898  1.00  0.00     0.006 A 
ENDBRANCH  27  48
BRANCH  39  56
ATOM     56  C   UNL A   1      47.775  26.422  27.404  1.00  0.00     0.057 A 
ATOM     57  C   UNL A   1      48.301  26.566  26.116  1.00  0.00     0.134 A 
ATOM     58  C   UNL A   1      48.534  25.707  28.341  1.00  0.00     0.134 A 
ATOM     59  F   UNL A   1      47.615  27.225  25.171  1.00  0.00    -0.206 F 
ATOM     60  C   UNL A   1      49.537  26.016  25.770  1.00  0.00     0.040 A 
ATOM     61  C   UNL A   1      49.780  25.174  28.014  1.00  0.00     0.040 A 
ATOM     62  F   UNL A   1      48.086  25.537  29.594  1.00  0.00    -0.206 F 
ATOM     63  C   UNL A   1      50.285  25.327  26.723  1.00  0.00     0.006 A 
ENDBRANCH  39  56
ENDBRANCH  13  14
ENDBRANCH   6   8
ENDBRANCH   3   4
ENDBRANCH   2   3
ENDBRANCH   1   2
BRANCH   1  64
ATOM     64  N   UNL A   1      33.762  29.852  25.852  1.00  0.00    -0.354 N 
ATOM     65  C   UNL A   1      33.200  29.142  24.821  1.00  0.00     0.247 C 
ATOM     66  H   UNL A   1      34.623  30.286  25.654  1.00  0.00     0.163 HD
ATOM     67  O   UNL A   1      33.651  29.338  23.688  1.00  0.00    -0.272 OA
BRANCH  65  68
ATOM     68  C   UNL A   1      31.997  28.189  25.068  1.00  0.00     0.205 C 
BRANCH  68  69
ATOM     69  N   UNL A   1      31.047  28.382  23.951  1.00  0.00    -0.336 N 
ATOM     70  C   UNL A   1      30.489  27.627  22.965  1.00  0.00     0.252 C 
ATOM     71  H   UNL A   1      30.731  29.314  23.908  1.00  0.00     0.165 HD
ATOM     72  O   UNL A   1      29.653  28.117  22.212  1.00  0.00    -0.269 OA
BRANCH  70  73
ATOM     73  C   UNL A   1      30.997  26.285  22.698  1.00  0.00     0.039 A 
ATOM     74  C   UNL A   1      32.182  26.191  21.963  1.00  0.00     0.014 A 
ATOM     75  C   UNL A   1      30.394  25.165  23.261  1.00  0.00     0.014 A 
ATOM     76  C   UNL A   1      32.855  24.976  21.923  1.00  0.00     0.010 A 
ATOM     77  C   UNL A   1      31.058  23.943  23.190  1.00  0.00     0.010 A 
ATOM     78  C   UNL A   1      32.316  23.847  22.564  1.00  0.00     0.006 A 
BRANCH  78  79
ATOM     79  C   UNL A   1      33.097  22.549  22.628  1.00  0.00     0.299 C 
BRANCH  79  80
ATOM     80  N   UNL A   1      34.124  22.458  23.675  1.00  0.00    -0.331 N 
ATOM     81  C   UNL A   1      34.050  21.191  24.411  1.00  0.00     0.262 C 
ATOM     82  C   UNL A   1      35.469  22.753  23.173  1.00  0.00     0.262 C 
ATOM     83  H   UNL A   1      33.918  23.194  24.350  1.00  0.00     0.348 HD
ATOM     84  C   UNL A   1      35.076  21.127  25.541  1.00  0.00     0.062 C 
ATOM     85  C   UNL A   1      36.513  22.728  24.285  1.00  0.00     0.062 C 
ATOM     86  C   UNL A   1      36.481  21.389  25.011  1.00  0.00     0.012 C 
ENDBRANCH  79  80
ENDBRANCH  78  79
ENDBRANCH  70  73
ENDBRANCH  68  69
BRANCH  68  87
ATOM     87  C   UNL A   1      32.489  26.827  25.528  1.00  0.00     0.020 A 
ATOM     88  C   UNL A   1      33.794  26.338  25.375  1.00  0.00     0.009 A 
ATOM     89  C   UNL A   1      31.608  26.018  26.264  1.00  0.00     0.129 A 
ATOM     90  C   UNL A   1      34.190  25.100  25.895  1.00  0.00     0.001 A 
ATOM     91  C   UNL A   1      31.989  24.780  26.785  1.00  0.00     0.039 A 
ATOM     92  F   UNL A   1      30.353  26.431  26.486  1.00  0.00    -0.207 F 
ATOM     93  C   UNL A   1      33.285  24.315  26.595  1.00  0.00     0.003 A 
ENDBRANCH  68  87
ENDBRANCH  65  68
ENDBRANCH   1  64
TORSDOF 15
ENDMDL
