MODEL 1
REMARK VINA RESULT:     -12.4      0.000      0.000
REMARK SMILES O=C(NCCCNC(=O)[C@@H]1CCCN(C(=O)Nc2ccccc2)C1)c1ccc(-c2c3nc(c(-c4c(F)cccc4F)c4ccc([nH]4)c(-c4c(F)cccc4F)c4nc(c(-c5c(F)cccc5F)c5ccc2[nH]5)C=C4)C=C3)cc1
REMARK SMILES IDX 5 1 4 2 3 3 1 4 2 5 25 7 26 8 78 9 27 10 77 11 28 12 29 13
REMARK SMILES IDX 30 14 71 15 31 16 76 17 70 18 72 19 32 20 75 21 69 22 68 23
REMARK SMILES IDX 33 25 59 26 42 27 58 28 43 29 46 30 57 31 73 32 44 33 45 34
REMARK SMILES IDX 56 36 74 37 47 38 34 39 35 40 40 41 36 42 37 43 39 44 41 45
REMARK SMILES IDX 38 46 60 47 61 48 66 49 62 50 63 51 65 52 67 53 64 54 48 55
REMARK SMILES IDX 49 56 54 57 50 58 51 59 53 60 55 61 52 62 6 63 7 64 8 65
REMARK SMILES IDX 9 67 10 68 11 69 24 70 12 71 14 72 13 73 15 74 16 75 17 76
REMARK SMILES IDX 18 78 19 79 23 80 20 81 22 82 21 83
REMARK H PARENT 3 6 72 24 46 35 7 66 17 77
REMARK Flexibility Score: inf
ROOT
ATOM      1  C   UNL A   1      40.411  21.766  27.318  1.00  0.00     0.042 C 
ENDROOT
BRANCH   1   2
ATOM      2  C   UNL A   1      41.089  23.100  27.614  1.00  0.00     0.118 C 
BRANCH   2   3
ATOM      3  N   UNL A   1      41.394  23.850  26.401  1.00  0.00    -0.352 N 
ATOM      4  O   UNL A   1      41.389  25.614  25.001  1.00  0.00    -0.269 OA
ATOM      5  C   UNL A   1      41.302  25.196  26.148  1.00  0.00     0.251 C 
ATOM      6  H   UNL A   1      41.716  23.306  25.647  1.00  0.00     0.163 HD
BRANCH   5   7
ATOM      7  C   UNL A   1      41.089  26.137  27.265  1.00  0.00     0.039 A 
ATOM      8  C   UNL A   1      41.900  27.264  27.402  1.00  0.00     0.014 A 
ATOM      9  C   UNL A   1      40.049  25.906  28.170  1.00  0.00     0.014 A 
ATOM     10  C   UNL A   1      41.776  28.072  28.522  1.00  0.00     0.010 A 
ATOM     11  C   UNL A   1      39.856  26.783  29.241  1.00  0.00     0.010 A 
ATOM     12  C   UNL A   1      40.733  27.860  29.437  1.00  0.00    -0.014 A 
BRANCH  12  13
ATOM     13  C   UNL A   1      40.535  28.839  30.534  1.00  0.00     0.031 A 
ATOM     14  C   UNL A   1      39.468  29.892  30.461  1.00  0.00     0.074 A 
ATOM     15  C   UNL A   1      41.322  28.740  31.623  1.00  0.00     0.049 A 
ATOM     16  N   UNL A   1      39.154  30.805  31.346  1.00  0.00    -0.248 NA
ATOM     17  C   UNL A   1      38.651  29.937  29.238  1.00  0.00     0.031 C 
ATOM     18  C   UNL A   1      42.400  27.761  31.795  1.00  0.00     0.029 A 
ATOM     19  N   UNL A   1      41.329  29.448  32.795  1.00  0.00    -0.354 N 
ATOM     20  C   UNL A   1      38.117  31.539  30.786  1.00  0.00     0.074 A 
ATOM     21  C   UNL A   1      37.872  30.985  29.471  1.00  0.00     0.031 C 
ATOM     22  C   UNL A   1      42.928  27.897  33.019  1.00  0.00     0.029 A 
ATOM     23  C   UNL A   1      42.280  29.017  33.689  1.00  0.00     0.049 A 
ATOM     24  H   UNL A   1      40.713  30.192  32.980  1.00  0.00     0.167 HD
ATOM     25  C   UNL A   1      37.429  32.573  31.328  1.00  0.00     0.037 A 
ATOM     26  C   UNL A   1      42.612  29.485  34.904  1.00  0.00     0.037 A 
ATOM     27  C   UNL A   1      37.679  33.113  32.641  1.00  0.00     0.049 A 
ATOM     28  C   UNL A   1      41.859  30.658  35.458  1.00  0.00     0.074 A 
ATOM     29  C   UNL A   1      37.017  34.139  33.291  1.00  0.00     0.029 A 
ATOM     30  N   UNL A   1      38.676  32.675  33.502  1.00  0.00    -0.354 N 
ATOM     31  N   UNL A   1      40.854  31.316  34.933  1.00  0.00    -0.248 NA
ATOM     32  C   UNL A   1      42.287  31.155  36.770  1.00  0.00     0.031 C 
ATOM     33  C   UNL A   1      37.647  34.359  34.521  1.00  0.00     0.029 A 
ATOM     34  C   UNL A   1      38.663  33.431  34.664  1.00  0.00     0.049 A 
ATOM     35  H   UNL A   1      39.299  31.937  33.314  1.00  0.00     0.167 HD
ATOM     36  C   UNL A   1      40.517  32.293  35.859  1.00  0.00     0.074 A 
ATOM     37  C   UNL A   1      41.409  32.123  36.987  1.00  0.00     0.031 C 
ATOM     38  C   UNL A   1      39.559  33.249  35.779  1.00  0.00     0.037 A 
BRANCH  25  39
ATOM     39  C   UNL A   1      36.350  33.207  30.497  1.00  0.00     0.057 A 
ATOM     40  C   UNL A   1      36.641  34.057  29.422  1.00  0.00     0.134 A 
ATOM     41  C   UNL A   1      35.000  32.916  30.739  1.00  0.00     0.134 A 
ATOM     42  F   UNL A   1      37.911  34.387  29.141  1.00  0.00    -0.206 F 
ATOM     43  C   UNL A   1      35.631  34.608  28.630  1.00  0.00     0.040 A 
ATOM     44  C   UNL A   1      33.982  33.439  29.938  1.00  0.00     0.040 A 
ATOM     45  F   UNL A   1      34.649  32.103  31.747  1.00  0.00    -0.206 F 
ATOM     46  C   UNL A   1      34.297  34.291  28.882  1.00  0.00     0.006 A 
ENDBRANCH  25  39
BRANCH  26  47
ATOM     47  C   UNL A   1      43.721  28.856  35.664  1.00  0.00     0.057 A 
ATOM     48  C   UNL A   1      43.483  27.823  36.576  1.00  0.00     0.134 A 
ATOM     49  C   UNL A   1      45.048  29.275  35.496  1.00  0.00     0.134 A 
ATOM     50  F   UNL A   1      42.233  27.387  36.791  1.00  0.00    -0.206 F 
ATOM     51  C   UNL A   1      44.519  27.244  37.311  1.00  0.00     0.040 A 
ATOM     52  C   UNL A   1      46.097  28.683  36.199  1.00  0.00     0.040 A 
ATOM     53  F   UNL A   1      45.345  30.253  34.628  1.00  0.00    -0.206 F 
ATOM     54  C   UNL A   1      45.831  27.671  37.118  1.00  0.00     0.006 A 
ENDBRANCH  26  47
BRANCH  38  55
ATOM     55  C   UNL A   1      39.410  34.159  36.962  1.00  0.00     0.057 A 
ATOM     56  C   UNL A   1      39.965  35.446  36.982  1.00  0.00     0.134 A 
ATOM     57  C   UNL A   1      38.688  33.749  38.091  1.00  0.00     0.134 A 
ATOM     58  F   UNL A   1      40.681  35.894  35.939  1.00  0.00    -0.206 F 
ATOM     59  C   UNL A   1      39.834  36.279  38.094  1.00  0.00     0.040 A 
ATOM     60  C   UNL A   1      38.525  34.584  39.196  1.00  0.00     0.040 A 
ATOM     61  F   UNL A   1      38.125  32.531  38.134  1.00  0.00    -0.206 F 
ATOM     62  C   UNL A   1      39.107  35.850  39.203  1.00  0.00     0.006 A 
ENDBRANCH  38  55
ENDBRANCH  12  13
ENDBRANCH   5   7
ENDBRANCH   2   3
ENDBRANCH   1   2
BRANCH   1  63
ATOM     63  C   UNL A   1      39.467  21.829  26.124  1.00  0.00     0.117 C 
BRANCH  63  64
ATOM     64  N   UNL A   1      38.215  22.453  26.496  1.00  0.00    -0.356 N 
ATOM     65  C   UNL A   1      37.104  22.706  25.756  1.00  0.00     0.224 C 
ATOM     66  H   UNL A   1      38.159  22.739  27.437  1.00  0.00     0.163 HD
ATOM     67  O   UNL A   1      36.301  23.514  26.224  1.00  0.00    -0.275 OA
BRANCH  65  68
ATOM     68  C   UNL A   1      36.896  21.994  24.423  1.00  0.00     0.098 C 
ATOM     69  C   UNL A   1      36.457  22.963  23.326  1.00  0.00     0.017 C 
ATOM     70  C   UNL A   1      35.885  20.857  24.602  1.00  0.00     0.134 C 
ATOM     71  C   UNL A   1      35.028  23.440  23.514  1.00  0.00     0.022 C 
ATOM     72  N   UNL A   1      34.522  21.344  24.815  1.00  0.00    -0.324 N 
ATOM     73  C   UNL A   1      34.055  22.303  23.806  1.00  0.00     0.121 C 
BRANCH  72  74
ATOM     74  C   UNL A   1      33.886  20.958  25.982  1.00  0.00     0.321 C 
ATOM     75  O   UNL A   1      33.966  21.624  27.020  1.00  0.00    -0.248 OA
ATOM     76  N   UNL A   1      33.051  19.885  26.019  1.00  0.00    -0.308 N 
ATOM     77  H   UNL A   1      32.358  19.939  26.717  1.00  0.00     0.171 HD
BRANCH  76  78
ATOM     78  C   UNL A   1      32.993  18.722  25.249  1.00  0.00     0.042 A 
ATOM     79  C   UNL A   1      32.696  18.864  23.892  1.00  0.00     0.026 A 
ATOM     80  C   UNL A   1      33.308  17.465  25.771  1.00  0.00     0.026 A 
ATOM     81  C   UNL A   1      32.872  17.780  23.032  1.00  0.00     0.002 A 
ATOM     82  C   UNL A   1      33.466  16.378  24.911  1.00  0.00     0.002 A 
ATOM     83  C   UNL A   1      33.280  16.546  23.538  1.00  0.00     0.000 A 
ENDBRANCH  76  78
ENDBRANCH  72  74
ENDBRANCH  65  68
ENDBRANCH  63  64
ENDBRANCH   1  63
TORSDOF 12
ENDMDL
MODEL 2
REMARK VINA RESULT:     -12.3      4.467      6.308
REMARK SMILES O=C(NCCCNC(=O)[C@@H]1CCCN(C(=O)Nc2ccccc2)C1)c1ccc(-c2c3nc(c(-c4c(F)cccc4F)c4ccc([nH]4)c(-c4c(F)cccc4F)c4nc(c(-c5c(F)cccc5F)c5ccc2[nH]5)C=C4)C=C3)cc1
REMARK SMILES IDX 5 1 4 2 3 3 1 4 2 5 25 7 26 8 78 9 27 10 77 11 28 12 29 13
REMARK SMILES IDX 30 14 71 15 31 16 76 17 70 18 72 19 32 20 75 21 69 22 68 23
REMARK SMILES IDX 33 25 59 26 42 27 58 28 43 29 46 30 57 31 73 32 44 33 45 34
REMARK SMILES IDX 56 36 74 37 47 38 34 39 35 40 40 41 36 42 37 43 39 44 41 45
REMARK SMILES IDX 38 46 60 47 61 48 66 49 62 50 63 51 65 52 67 53 64 54 48 55
REMARK SMILES IDX 49 56 54 57 50 58 51 59 53 60 55 61 52 62 6 63 7 64 8 65
REMARK SMILES IDX 9 67 10 68 11 69 24 70 12 71 14 72 13 73 15 74 16 75 17 76
REMARK SMILES IDX 18 78 19 79 23 80 20 81 22 82 21 83
REMARK H PARENT 3 6 72 24 46 35 7 66 17 77
REMARK Flexibility Score: inf
ROOT
ATOM      1  C   UNL A   1      38.155  19.475  25.000  1.00  0.00     0.042 C 
ENDROOT
BRANCH   1   2
ATOM      2  C   UNL A   1      39.240  19.986  25.942  1.00  0.00     0.118 C 
BRANCH   2   3
ATOM      3  N   UNL A   1      40.458  19.186  25.874  1.00  0.00    -0.352 N 
ATOM      4  O   UNL A   1      42.668  18.789  25.698  1.00  0.00    -0.269 OA
ATOM      5  C   UNL A   1      41.771  19.563  26.008  1.00  0.00     0.251 C 
ATOM      6  H   UNL A   1      40.315  18.227  25.706  1.00  0.00     0.163 HD
BRANCH   5   7
ATOM      7  C   UNL A   1      42.097  20.909  26.520  1.00  0.00     0.039 A 
ATOM      8  C   UNL A   1      42.326  21.963  25.635  1.00  0.00     0.014 A 
ATOM      9  C   UNL A   1      42.146  21.126  27.900  1.00  0.00     0.014 A 
ATOM     10  C   UNL A   1      42.755  23.189  26.119  1.00  0.00     0.010 A 
ATOM     11  C   UNL A   1      42.473  22.393  28.390  1.00  0.00     0.010 A 
ATOM     12  C   UNL A   1      42.803  23.428  27.502  1.00  0.00    -0.014 A 
BRANCH  12  13
ATOM     13  C   UNL A   1      43.111  24.799  27.979  1.00  0.00     0.031 A 
ATOM     14  C   UNL A   1      42.024  25.799  28.244  1.00  0.00     0.074 A 
ATOM     15  C   UNL A   1      44.400  25.117  28.205  1.00  0.00     0.049 A 
ATOM     16  N   UNL A   1      42.128  27.027  28.685  1.00  0.00    -0.248 NA
ATOM     17  C   UNL A   1      40.641  25.377  27.971  1.00  0.00     0.031 C 
ATOM     18  C   UNL A   1      45.540  24.225  27.970  1.00  0.00     0.029 A 
ATOM     19  N   UNL A   1      44.972  26.260  28.698  1.00  0.00    -0.354 N 
ATOM     20  C   UNL A   1      40.834  27.529  28.732  1.00  0.00     0.074 A 
ATOM     21  C   UNL A   1      39.961  26.482  28.246  1.00  0.00     0.031 C 
ATOM     22  C   UNL A   1      46.666  24.835  28.366  1.00  0.00     0.029 A 
ATOM     23  C   UNL A   1      46.339  26.183  28.812  1.00  0.00     0.049 A 
ATOM     24  H   UNL A   1      44.453  27.059  28.947  1.00  0.00     0.167 HD
ATOM     25  C   UNL A   1      40.418  28.748  29.152  1.00  0.00     0.037 A 
ATOM     26  C   UNL A   1      47.236  27.103  29.207  1.00  0.00     0.037 A 
ATOM     27  C   UNL A   1      41.297  29.781  29.638  1.00  0.00     0.049 A 
ATOM     28  C   UNL A   1      46.746  28.456  29.626  1.00  0.00     0.074 A 
ATOM     29  C   UNL A   1      40.970  31.038  30.115  1.00  0.00     0.029 A 
ATOM     30  N   UNL A   1      42.680  29.680  29.703  1.00  0.00    -0.354 N 
ATOM     31  N   UNL A   1      45.515  28.902  29.703  1.00  0.00    -0.248 NA
ATOM     32  C   UNL A   1      47.768  29.437  30.011  1.00  0.00     0.031 C 
ATOM     33  C   UNL A   1      42.156  31.717  30.416  1.00  0.00     0.029 A 
ATOM     34  C   UNL A   1      43.220  30.863  30.185  1.00  0.00     0.049 A 
ATOM     35  H   UNL A   1      43.201  28.885  29.446  1.00  0.00     0.167 HD
ATOM     36  C   UNL A   1      45.613  30.208  30.162  1.00  0.00     0.074 A 
ATOM     37  C   UNL A   1      47.022  30.471  30.370  1.00  0.00     0.031 C 
ATOM     38  C   UNL A   1      44.625  31.109  30.386  1.00  0.00     0.037 A 
BRANCH  25  39
ATOM     39  C   UNL A   1      38.947  29.045  29.087  1.00  0.00     0.057 A 
ATOM     40  C   UNL A   1      38.124  28.976  30.219  1.00  0.00     0.134 A 
ATOM     41  C   UNL A   1      38.355  29.464  27.887  1.00  0.00     0.134 A 
ATOM     42  F   UNL A   1      38.622  28.572  31.398  1.00  0.00    -0.206 F 
ATOM     43  C   UNL A   1      36.765  29.295  30.157  1.00  0.00     0.040 A 
ATOM     44  C   UNL A   1      37.004  29.811  27.818  1.00  0.00     0.040 A 
ATOM     45  F   UNL A   1      39.085  29.561  26.766  1.00  0.00    -0.206 F 
ATOM     46  C   UNL A   1      36.204  29.723  28.955  1.00  0.00     0.006 A 
ENDBRANCH  25  39
BRANCH  26  47
ATOM     47  C   UNL A   1      48.684  26.777  29.204  1.00  0.00     0.057 A 
ATOM     48  C   UNL A   1      49.478  27.007  28.076  1.00  0.00     0.134 A 
ATOM     49  C   UNL A   1      49.307  26.225  30.331  1.00  0.00     0.134 A 
ATOM     50  F   UNL A   1      48.936  27.520  26.962  1.00  0.00    -0.206 F 
ATOM     51  C   UNL A   1      50.835  26.680  28.060  1.00  0.00     0.040 A 
ATOM     52  C   UNL A   1      50.669  25.924  30.340  1.00  0.00     0.040 A 
ATOM     53  F   UNL A   1      48.604  25.990  31.448  1.00  0.00    -0.206 F 
ATOM     54  C   UNL A   1      51.435  26.142  29.197  1.00  0.00     0.006 A 
ENDBRANCH  26  47
BRANCH  38  55
ATOM     55  C   UNL A   1      45.040  32.451  30.914  1.00  0.00     0.057 A 
ATOM     56  C   UNL A   1      45.164  32.701  32.287  1.00  0.00     0.134 A 
ATOM     57  C   UNL A   1      45.335  33.503  30.036  1.00  0.00     0.134 A 
ATOM     58  F   UNL A   1      44.881  31.742  33.182  1.00  0.00    -0.206 F 
ATOM     59  C   UNL A   1      45.536  33.958  32.769  1.00  0.00     0.040 A 
ATOM     60  C   UNL A   1      45.736  34.753  30.505  1.00  0.00     0.040 A 
ATOM     61  F   UNL A   1      45.243  33.328  28.709  1.00  0.00    -0.206 F 
ATOM     62  C   UNL A   1      45.829  34.986  31.875  1.00  0.00     0.006 A 
ENDBRANCH  38  55
ENDBRANCH  12  13
ENDBRANCH   5   7
ENDBRANCH   2   3
ENDBRANCH   1   2
BRANCH   1  63
ATOM     63  C   UNL A   1      37.272  20.587  24.447  1.00  0.00     0.117 C 
BRANCH  63  64
ATOM     64  N   UNL A   1      37.243  21.714  25.356  1.00  0.00    -0.356 N 
ATOM     65  C   UNL A   1      36.619  22.915  25.246  1.00  0.00     0.224 C 
ATOM     66  H   UNL A   1      37.756  21.589  26.187  1.00  0.00     0.163 HD
ATOM     67  O   UNL A   1      36.999  23.807  26.008  1.00  0.00    -0.275 OA
BRANCH  65  68
ATOM     68  C   UNL A   1      35.503  23.107  24.224  1.00  0.00     0.098 C 
ATOM     69  C   UNL A   1      34.873  24.495  24.326  1.00  0.00     0.017 C 
ATOM     70  C   UNL A   1      34.454  22.003  24.399  1.00  0.00     0.134 C 
ATOM     71  C   UNL A   1      34.021  24.653  25.573  1.00  0.00     0.022 C 
ATOM     72  N   UNL A   1      33.671  22.160  25.624  1.00  0.00    -0.324 N 
ATOM     73  C   UNL A   1      33.064  23.487  25.791  1.00  0.00     0.121 C 
BRANCH  72  74
ATOM     74  C   UNL A   1      33.691  21.113  26.529  1.00  0.00     0.321 C 
ATOM     75  O   UNL A   1      33.958  21.287  27.723  1.00  0.00    -0.248 OA
ATOM     76  N   UNL A   1      33.313  19.856  26.175  1.00  0.00    -0.308 N 
ATOM     77  H   UNL A   1      32.966  19.315  26.922  1.00  0.00     0.171 HD
BRANCH  76  78
ATOM     78  C   UNL A   1      33.324  19.190  24.948  1.00  0.00     0.042 A 
ATOM     79  C   UNL A   1      34.347  18.266  24.727  1.00  0.00     0.026 A 
ATOM     80  C   UNL A   1      32.311  19.355  24.000  1.00  0.00     0.026 A 
ATOM     81  C   UNL A   1      34.267  17.397  23.640  1.00  0.00     0.002 A 
ATOM     82  C   UNL A   1      32.243  18.496  22.903  1.00  0.00     0.002 A 
ATOM     83  C   UNL A   1      33.203  17.497  22.743  1.00  0.00     0.000 A 
ENDBRANCH  76  78
ENDBRANCH  72  74
ENDBRANCH  65  68
ENDBRANCH  63  64
ENDBRANCH   1  63
TORSDOF 12
ENDMDL
MODEL 3
REMARK VINA RESULT:     -12.3      4.625      8.447
REMARK SMILES O=C(NCCCNC(=O)[C@@H]1CCCN(C(=O)Nc2ccccc2)C1)c1ccc(-c2c3nc(c(-c4c(F)cccc4F)c4ccc([nH]4)c(-c4c(F)cccc4F)c4nc(c(-c5c(F)cccc5F)c5ccc2[nH]5)C=C4)C=C3)cc1
REMARK SMILES IDX 5 1 4 2 3 3 1 4 2 5 25 7 26 8 78 9 27 10 77 11 28 12 29 13
REMARK SMILES IDX 30 14 71 15 31 16 76 17 70 18 72 19 32 20 75 21 69 22 68 23
REMARK SMILES IDX 33 25 59 26 42 27 58 28 43 29 46 30 57 31 73 32 44 33 45 34
REMARK SMILES IDX 56 36 74 37 47 38 34 39 35 40 40 41 36 42 37 43 39 44 41 45
REMARK SMILES IDX 38 46 60 47 61 48 66 49 62 50 63 51 65 52 67 53 64 54 48 55
REMARK SMILES IDX 49 56 54 57 50 58 51 59 53 60 55 61 52 62 6 63 7 64 8 65
REMARK SMILES IDX 9 67 10 68 11 69 24 70 12 71 14 72 13 73 15 74 16 75 17 76
REMARK SMILES IDX 18 78 19 79 23 80 20 81 22 82 21 83
REMARK H PARENT 3 6 72 24 46 35 7 66 17 77
REMARK Flexibility Score: inf
ROOT
ATOM      1  C   UNL A   1      38.302  19.350  25.178  1.00  0.00     0.042 C 
ENDROOT
BRANCH   1   2
ATOM      2  C   UNL A   1      39.416  19.971  26.015  1.00  0.00     0.118 C 
BRANCH   2   3
ATOM      3  N   UNL A   1      40.634  19.170  26.003  1.00  0.00    -0.352 N 
ATOM      4  O   UNL A   1      42.846  18.766  25.868  1.00  0.00    -0.269 OA
ATOM      5  C   UNL A   1      41.946  19.555  26.126  1.00  0.00     0.251 C 
ATOM      6  H   UNL A   1      40.493  18.203  25.888  1.00  0.00     0.163 HD
BRANCH   5   7
ATOM      7  C   UNL A   1      42.267  20.928  26.564  1.00  0.00     0.039 A 
ATOM      8  C   UNL A   1      42.287  21.248  27.922  1.00  0.00     0.014 A 
ATOM      9  C   UNL A   1      42.580  21.898  25.608  1.00  0.00     0.014 A 
ATOM     10  C   UNL A   1      42.464  22.565  28.317  1.00  0.00     0.010 A 
ATOM     11  C   UNL A   1      42.866  23.204  26.015  1.00  0.00     0.010 A 
ATOM     12  C   UNL A   1      42.787  23.552  27.372  1.00  0.00    -0.014 A 
BRANCH  12  13
ATOM     13  C   UNL A   1      43.126  24.915  27.851  1.00  0.00     0.031 A 
ATOM     14  C   UNL A   1      44.552  25.360  28.001  1.00  0.00     0.074 A 
ATOM     15  C   UNL A   1      42.115  25.764  28.119  1.00  0.00     0.049 A 
ATOM     16  N   UNL A   1      45.012  26.524  28.384  1.00  0.00    -0.248 NA
ATOM     17  C   UNL A   1      45.599  24.375  27.690  1.00  0.00     0.031 C 
ATOM     18  C   UNL A   1      40.690  25.432  28.019  1.00  0.00     0.029 A 
ATOM     19  N   UNL A   1      42.122  27.077  28.507  1.00  0.00    -0.354 N 
ATOM     20  C   UNL A   1      46.396  26.411  28.374  1.00  0.00     0.074 A 
ATOM     21  C   UNL A   1      46.703  25.053  27.975  1.00  0.00     0.031 C 
ATOM     22  C   UNL A   1      39.964  26.525  28.288  1.00  0.00     0.029 A 
ATOM     23  C   UNL A   1      40.864  27.611  28.650  1.00  0.00     0.049 A 
ATOM     24  H   UNL A   1      42.948  27.588  28.668  1.00  0.00     0.167 HD
ATOM     25  C   UNL A   1      47.321  27.357  28.664  1.00  0.00     0.037 A 
ATOM     26  C   UNL A   1      40.475  28.834  29.053  1.00  0.00     0.037 A 
ATOM     27  C   UNL A   1      47.003  28.707  29.056  1.00  0.00     0.049 A 
ATOM     28  C   UNL A   1      41.523  29.846  29.405  1.00  0.00     0.074 A 
ATOM     29  C   UNL A   1      47.868  29.749  29.340  1.00  0.00     0.029 A 
ATOM     30  N   UNL A   1      45.717  29.201  29.227  1.00  0.00    -0.354 N 
ATOM     31  N   UNL A   1      42.829  29.736  29.353  1.00  0.00    -0.248 NA
ATOM     32  C   UNL A   1      41.047  31.152  29.876  1.00  0.00     0.031 C 
ATOM     33  C   UNL A   1      47.109  30.856  29.736  1.00  0.00     0.029 A 
ATOM     34  C   UNL A   1      45.769  30.524  29.641  1.00  0.00     0.049 A 
ATOM     35  H   UNL A   1      44.890  28.688  29.076  1.00  0.00     0.167 HD
ATOM     36  C   UNL A   1      43.329  30.963  29.766  1.00  0.00     0.074 A 
ATOM     37  C   UNL A   1      42.185  31.808  30.039  1.00  0.00     0.031 C 
ATOM     38  C   UNL A   1      44.620  31.352  29.910  1.00  0.00     0.037 A 
BRANCH  25  39
ATOM     39  C   UNL A   1      48.769  26.967  28.588  1.00  0.00     0.057 A 
ATOM     40  C   UNL A   1      49.525  27.136  27.421  1.00  0.00     0.134 A 
ATOM     41  C   UNL A   1      49.434  26.468  29.717  1.00  0.00     0.134 A 
ATOM     42  F   UNL A   1      48.950  27.598  26.300  1.00  0.00    -0.206 F 
ATOM     43  C   UNL A   1      50.882  26.808  27.373  1.00  0.00     0.040 A 
ATOM     44  C   UNL A   1      50.796  26.162  29.690  1.00  0.00     0.040 A 
ATOM     45  F   UNL A   1      48.775  26.289  30.871  1.00  0.00    -0.206 F 
ATOM     46  C   UNL A   1      51.523  26.328  28.514  1.00  0.00     0.006 A 
ENDBRANCH  25  39
BRANCH  26  47
ATOM     47  C   UNL A   1      39.030  29.155  29.160  1.00  0.00     0.057 A 
ATOM     48  C   UNL A   1      38.351  29.051  30.379  1.00  0.00     0.134 A 
ATOM     49  C   UNL A   1      38.293  29.572  28.044  1.00  0.00     0.134 A 
ATOM     50  F   UNL A   1      38.999  28.643  31.480  1.00  0.00    -0.206 F 
ATOM     51  C   UNL A   1      36.987  29.328  30.480  1.00  0.00     0.040 A 
ATOM     52  C   UNL A   1      36.936  29.884  28.138  1.00  0.00     0.040 A 
ATOM     53  F   UNL A   1      38.887  29.703  26.850  1.00  0.00    -0.206 F 
ATOM     54  C   UNL A   1      36.278  29.752  29.359  1.00  0.00     0.006 A 
ENDBRANCH  26  47
BRANCH  38  55
ATOM     55  C   UNL A   1      44.855  32.766  30.354  1.00  0.00     0.057 A 
ATOM     56  C   UNL A   1      45.009  33.101  31.706  1.00  0.00     0.134 A 
ATOM     57  C   UNL A   1      44.944  33.802  29.416  1.00  0.00     0.134 A 
ATOM     58  F   UNL A   1      44.919  32.158  32.656  1.00  0.00    -0.206 F 
ATOM     59  C   UNL A   1      45.212  34.422  32.110  1.00  0.00     0.040 A 
ATOM     60  C   UNL A   1      45.177  35.121  29.806  1.00  0.00     0.040 A 
ATOM     61  F   UNL A   1      44.813  33.547  28.105  1.00  0.00    -0.206 F 
ATOM     62  C   UNL A   1      45.303  35.435  31.158  1.00  0.00     0.006 A 
ENDBRANCH  38  55
ENDBRANCH  12  13
ENDBRANCH   5   7
ENDBRANCH   2   3
ENDBRANCH   1   2
BRANCH   1  63
ATOM     63  C   UNL A   1      37.325  20.381  24.626  1.00  0.00     0.117 C 
BRANCH  63  64
ATOM     64  N   UNL A   1      37.291  21.555  25.472  1.00  0.00    -0.356 N 
ATOM     65  C   UNL A   1      36.724  22.772  25.265  1.00  0.00     0.224 C 
ATOM     66  H   UNL A   1      37.750  21.455  26.338  1.00  0.00     0.163 HD
ATOM     67  O   UNL A   1      37.096  23.688  26.001  1.00  0.00    -0.275 OA
BRANCH  65  68
ATOM     68  C   UNL A   1      35.676  22.951  24.171  1.00  0.00     0.098 C 
ATOM     69  C   UNL A   1      35.073  24.355  24.187  1.00  0.00     0.017 C 
ATOM     70  C   UNL A   1      34.594  21.876  24.319  1.00  0.00     0.134 C 
ATOM     71  C   UNL A   1      34.152  24.575  25.373  1.00  0.00     0.022 C 
ATOM     72  N   UNL A   1      33.741  22.092  25.488  1.00  0.00    -0.324 N 
ATOM     73  C   UNL A   1      33.156  23.437  25.571  1.00  0.00     0.121 C 
BRANCH  72  74
ATOM     74  C   UNL A   1      33.683  21.078  26.426  1.00  0.00     0.321 C 
ATOM     75  O   UNL A   1      33.899  21.285  27.626  1.00  0.00    -0.248 OA
ATOM     76  N   UNL A   1      33.278  19.822  26.098  1.00  0.00    -0.308 N 
ATOM     77  H   UNL A   1      32.878  19.320  26.845  1.00  0.00     0.171 HD
BRANCH  76  78
ATOM     78  C   UNL A   1      33.324  19.113  24.895  1.00  0.00     0.042 A 
ATOM     79  C   UNL A   1      34.373  18.209  24.722  1.00  0.00     0.026 A 
ATOM     80  C   UNL A   1      32.321  19.219  23.928  1.00  0.00     0.026 A 
ATOM     81  C   UNL A   1      34.331  17.300  23.665  1.00  0.00     0.002 A 
ATOM     82  C   UNL A   1      32.290  18.320  22.862  1.00  0.00     0.002 A 
ATOM     83  C   UNL A   1      33.278  17.341  22.751  1.00  0.00     0.000 A 
ENDBRANCH  76  78
ENDBRANCH  72  74
ENDBRANCH  65  68
ENDBRANCH  63  64
ENDBRANCH   1  63
TORSDOF 12
ENDMDL
