MODEL 1
REMARK VINA RESULT:     -11.5      0.000      0.000
REMARK SMILES C[C@H]1[C@H](C(=O)NCCCNC(=O)c2ccc(-c3c4nc(c(-c5c(F)cccc5F)c5ccc([nH]5)c(-c5c(F)cccc5F)c5nc(c(-c6c(F)cccc6F)c6ccc3[nH]6)C=C5)C=C4)cc2)CCN1C(=O)Cc1csc(N)n1
REMARK SMILES IDX 7 1 6 2 4 3 5 4 3 6 1 7 2 8 69 9 67 10 68 11 70 12 71 13
REMARK SMILES IDX 72 14 73 15 74 16 78 17 75 18 76 19 77 20 8 23 9 24 10 25
REMARK SMILES IDX 11 26 12 28 13 29 14 30 66 31 15 32 65 33 16 34 17 35 18 36
REMARK SMILES IDX 59 37 19 38 64 39 58 40 60 41 20 42 63 43 57 44 56 45 21 47
REMARK SMILES IDX 47 48 30 49 46 50 31 51 34 52 45 53 61 54 32 55 33 56 44 58
REMARK SMILES IDX 62 59 35 60 22 61 23 62 28 63 24 64 25 65 27 66 29 67 26 68
REMARK SMILES IDX 48 69 49 70 54 71 50 72 51 73 53 74 55 75 52 76 36 77 37 78
REMARK SMILES IDX 42 79 38 80 39 81 41 82 43 83 40 84
REMARK H PARENT 6 5 77 21 77 22 10 27 60 46 34 57
REMARK Flexibility Score: inf
ROOT
ATOM      1  C   UNL A   1      31.456  30.477  25.878  1.00  0.00     0.117 C 
ENDROOT
BRANCH   1   2
ATOM      2  N   UNL A   1      31.467  29.617  27.048  1.00  0.00    -0.356 N 
ATOM      3  C   UNL A   1      31.644  28.281  27.189  1.00  0.00     0.225 C 
ATOM      4  O   UNL A   1      31.554  27.828  28.333  1.00  0.00    -0.275 OA
ATOM      5  H   UNL A   1      31.318  30.094  27.896  1.00  0.00     0.163 HD
BRANCH   3   6
ATOM      6  C   UNL A   1      31.899  27.340  26.024  1.00  0.00     0.102 C 
ATOM      7  C   UNL A   1      30.337  25.625  25.087  1.00  0.00     0.032 C 
ATOM      8  C   UNL A   1      30.652  27.125  25.153  1.00  0.00     0.094 C 
ATOM      9  N   UNL A   1      31.028  27.629  23.835  1.00  0.00    -0.339 N 
ATOM     10  C   UNL A   1      33.038  27.734  25.080  1.00  0.00     0.037 C 
ATOM     11  C   UNL A   1      32.470  27.607  23.674  1.00  0.00     0.120 C 
BRANCH   9  12
ATOM     12  C   UNL A   1      30.210  28.001  22.780  1.00  0.00     0.228 C 
ATOM     13  O   UNL A   1      30.653  28.020  21.627  1.00  0.00    -0.274 OA
BRANCH  12  14
ATOM     14  C   UNL A   1      28.831  28.578  23.066  1.00  0.00     0.157 C 
BRANCH  14  15
ATOM     15  C   UNL A   1      28.583  29.967  22.589  1.00  0.00     0.063 A 
ATOM     16  C   UNL A   1      28.796  31.128  23.313  1.00  0.00     0.093 A 
ATOM     17  N   UNL A   1      28.166  30.181  21.284  1.00  0.00    -0.225 NA
ATOM     18  S   UNL A   1      28.412  32.497  22.359  1.00  0.00    -0.106 S 
ATOM     19  C   UNL A   1      28.040  31.463  21.042  1.00  0.00     0.180 A 
BRANCH  19  20
ATOM     20  N   UNL A   1      27.653  31.954  19.863  1.00  0.00    -0.375 N 
ATOM     21  H   UNL A   1      27.437  32.910  19.774  1.00  0.00     0.159 HD
ATOM     22  H   UNL A   1      27.585  31.359  19.081  1.00  0.00     0.159 HD
ENDBRANCH  19  20
ENDBRANCH  14  15
ENDBRANCH  12  14
ENDBRANCH   9  12
ENDBRANCH   3   6
ENDBRANCH   1   2
BRANCH   1  23
ATOM     23  C   UNL A   1      31.392  31.950  26.253  1.00  0.00     0.042 C 
BRANCH  23  24
ATOM     24  C   UNL A   1      32.540  32.431  27.133  1.00  0.00     0.118 C 
BRANCH  24  25
ATOM     25  N   UNL A   1      32.414  33.828  27.518  1.00  0.00    -0.352 N 
ATOM     26  C   UNL A   1      33.085  34.552  28.470  1.00  0.00     0.251 C 
ATOM     27  H   UNL A   1      31.737  34.336  27.015  1.00  0.00     0.163 HD
ATOM     28  O   UNL A   1      32.699  35.687  28.748  1.00  0.00    -0.269 OA
BRANCH  26  29
ATOM     29  C   UNL A   1      34.251  33.983  29.178  1.00  0.00     0.039 A 
ATOM     30  C   UNL A   1      34.029  33.048  30.193  1.00  0.00     0.014 A 
ATOM     31  C   UNL A   1      35.555  34.385  28.878  1.00  0.00     0.014 A 
ATOM     32  C   UNL A   1      35.113  32.470  30.859  1.00  0.00     0.010 A 
ATOM     33  C   UNL A   1      36.637  33.750  29.482  1.00  0.00     0.010 A 
ATOM     34  C   UNL A   1      36.427  32.791  30.483  1.00  0.00    -0.014 A 
BRANCH  34  35
ATOM     35  C   UNL A   1      37.590  32.128  31.128  1.00  0.00     0.031 A 
ATOM     36  C   UNL A   1      38.329  31.027  30.419  1.00  0.00     0.074 A 
ATOM     37  C   UNL A   1      37.944  32.481  32.379  1.00  0.00     0.049 A 
ATOM     38  N   UNL A   1      39.333  30.300  30.842  1.00  0.00    -0.248 NA
ATOM     39  C   UNL A   1      37.862  30.676  29.069  1.00  0.00     0.031 C 
ATOM     40  C   UNL A   1      37.272  33.492  33.197  1.00  0.00     0.029 A 
ATOM     41  N   UNL A   1      38.953  32.020  33.186  1.00  0.00    -0.354 N 
ATOM     42  C   UNL A   1      39.608  29.403  29.818  1.00  0.00     0.074 A 
ATOM     43  C   UNL A   1      38.630  29.637  28.778  1.00  0.00     0.031 C 
ATOM     44  C   UNL A   1      37.901  33.592  34.378  1.00  0.00     0.029 A 
ATOM     45  C   UNL A   1      38.999  32.632  34.415  1.00  0.00     0.049 A 
ATOM     46  H   UNL A   1      39.587  31.318  32.910  1.00  0.00     0.167 HD
ATOM     47  C   UNL A   1      40.601  28.484  29.739  1.00  0.00     0.037 A 
ATOM     48  C   UNL A   1      39.830  32.439  35.455  1.00  0.00     0.037 A 
ATOM     49  C   UNL A   1      41.587  28.267  30.764  1.00  0.00     0.049 A 
ATOM     50  C   UNL A   1      40.932  31.426  35.339  1.00  0.00     0.074 A 
ATOM     51  C   UNL A   1      42.665  27.398  30.755  1.00  0.00     0.029 A 
ATOM     52  N   UNL A   1      41.617  28.927  31.983  1.00  0.00    -0.354 N 
ATOM     53  N   UNL A   1      41.219  30.629  34.337  1.00  0.00    -0.248 NA
ATOM     54  C   UNL A   1      41.833  31.291  36.492  1.00  0.00     0.031 C 
ATOM     55  C   UNL A   1      43.325  27.507  31.985  1.00  0.00     0.029 A 
ATOM     56  C   UNL A   1      42.684  28.474  32.741  1.00  0.00     0.049 A 
ATOM     57  H   UNL A   1      40.973  29.617  32.268  1.00  0.00     0.167 HD
ATOM     58  C   UNL A   1      42.343  29.914  34.731  1.00  0.00     0.074 A 
ATOM     59  C   UNL A   1      42.697  30.387  36.053  1.00  0.00     0.031 C 
ATOM     60  C   UNL A   1      43.021  28.952  34.058  1.00  0.00     0.037 A 
BRANCH  47  61
ATOM     61  C   UNL A   1      40.670  27.652  28.491  1.00  0.00     0.057 A 
ATOM     62  C   UNL A   1      39.990  26.432  28.381  1.00  0.00     0.134 A 
ATOM     63  C   UNL A   1      41.403  28.084  27.379  1.00  0.00     0.134 A 
ATOM     64  F   UNL A   1      39.280  25.954  29.414  1.00  0.00    -0.206 F 
ATOM     65  C   UNL A   1      40.059  25.658  27.221  1.00  0.00     0.040 A 
ATOM     66  C   UNL A   1      41.458  27.331  26.204  1.00  0.00     0.040 A 
ATOM     67  F   UNL A   1      42.074  29.244  27.415  1.00  0.00    -0.206 F 
ATOM     68  C   UNL A   1      40.791  26.111  26.126  1.00  0.00     0.006 A 
ENDBRANCH  47  61
BRANCH  48  69
ATOM     69  C   UNL A   1      39.666  33.246  36.691  1.00  0.00     0.057 A 
ATOM     70  C   UNL A   1      40.381  34.434  36.877  1.00  0.00     0.134 A 
ATOM     71  C   UNL A   1      38.791  32.852  37.710  1.00  0.00     0.134 A 
ATOM     72  F   UNL A   1      41.247  34.854  35.943  1.00  0.00    -0.206 F 
ATOM     73  C   UNL A   1      40.245  35.194  38.040  1.00  0.00     0.040 A 
ATOM     74  C   UNL A   1      38.628  33.614  38.867  1.00  0.00     0.040 A 
ATOM     75  F   UNL A   1      38.071  31.727  37.587  1.00  0.00    -0.206 F 
ATOM     76  C   UNL A   1      39.362  34.787  39.037  1.00  0.00     0.006 A 
ENDBRANCH  48  69
BRANCH  60  77
ATOM     77  C   UNL A   1      44.224  28.365  34.736  1.00  0.00     0.057 A 
ATOM     78  C   UNL A   1      44.135  27.213  35.526  1.00  0.00     0.134 A 
ATOM     79  C   UNL A   1      45.487  28.947  34.576  1.00  0.00     0.134 A 
ATOM     80  F   UNL A   1      42.951  26.616  35.730  1.00  0.00    -0.206 F 
ATOM     81  C   UNL A   1      45.258  26.675  36.158  1.00  0.00     0.040 A 
ATOM     82  C   UNL A   1      46.621  28.404  35.181  1.00  0.00     0.040 A 
ATOM     83  F   UNL A   1      45.641  30.047  33.825  1.00  0.00    -0.206 F 
ATOM     84  C   UNL A   1      46.507  27.268  35.981  1.00  0.00     0.006 A 
ENDBRANCH  60  77
ENDBRANCH  34  35
ENDBRANCH  26  29
ENDBRANCH  24  25
ENDBRANCH  23  24
ENDBRANCH   1  23
TORSDOF 14
ENDMDL
MODEL 2
REMARK VINA RESULT:     -11.5      0.566      6.304
REMARK SMILES C[C@H]1[C@H](C(=O)NCCCNC(=O)c2ccc(-c3c4nc(c(-c5c(F)cccc5F)c5ccc([nH]5)c(-c5c(F)cccc5F)c5nc(c(-c6c(F)cccc6F)c6ccc3[nH]6)C=C5)C=C4)cc2)CCN1C(=O)Cc1csc(N)n1
REMARK SMILES IDX 7 1 6 2 4 3 5 4 3 6 1 7 2 8 69 9 67 10 68 11 70 12 71 13
REMARK SMILES IDX 72 14 73 15 74 16 78 17 75 18 76 19 77 20 8 23 9 24 10 25
REMARK SMILES IDX 11 26 12 28 13 29 14 30 66 31 15 32 65 33 16 34 17 35 18 36
REMARK SMILES IDX 59 37 19 38 64 39 58 40 60 41 20 42 63 43 57 44 56 45 21 47
REMARK SMILES IDX 47 48 30 49 46 50 31 51 34 52 45 53 61 54 32 55 33 56 44 58
REMARK SMILES IDX 62 59 35 60 22 61 23 62 28 63 24 64 25 65 27 66 29 67 26 68
REMARK SMILES IDX 48 69 49 70 54 71 50 72 51 73 53 74 55 75 52 76 36 77 37 78
REMARK SMILES IDX 42 79 38 80 39 81 41 82 43 83 40 84
REMARK H PARENT 6 5 77 21 77 22 10 27 60 46 34 57
REMARK Flexibility Score: inf
ROOT
ATOM      1  C   UNL A   1      31.476  30.481  25.954  1.00  0.00     0.117 C 
ENDROOT
BRANCH   1   2
ATOM      2  N   UNL A   1      31.478  29.574  27.087  1.00  0.00    -0.356 N 
ATOM      3  C   UNL A   1      31.678  28.237  27.177  1.00  0.00     0.225 C 
ATOM      4  O   UNL A   1      31.572  27.735  28.300  1.00  0.00    -0.275 OA
ATOM      5  H   UNL A   1      31.300  30.012  27.950  1.00  0.00     0.163 HD
BRANCH   3   6
ATOM      6  C   UNL A   1      31.979  27.350  25.981  1.00  0.00     0.102 C 
ATOM      7  C   UNL A   1      30.502  25.596  24.981  1.00  0.00     0.032 C 
ATOM      8  C   UNL A   1      30.745  27.107  25.100  1.00  0.00     0.094 C 
ATOM      9  N   UNL A   1      31.098  27.673  23.801  1.00  0.00    -0.339 N 
ATOM     10  C   UNL A   1      33.099  27.831  25.055  1.00  0.00     0.037 C 
ATOM     11  C   UNL A   1      32.539  27.726  23.643  1.00  0.00     0.120 C 
BRANCH   9  12
ATOM     12  C   UNL A   1      30.264  28.043  22.758  1.00  0.00     0.228 C 
ATOM     13  O   UNL A   1      30.683  28.038  21.595  1.00  0.00    -0.274 OA
BRANCH  12  14
ATOM     14  C   UNL A   1      28.899  28.644  23.063  1.00  0.00     0.157 C 
BRANCH  14  15
ATOM     15  C   UNL A   1      28.680  30.048  22.618  1.00  0.00     0.063 A 
ATOM     16  C   UNL A   1      28.954  31.189  23.353  1.00  0.00     0.093 A 
ATOM     17  N   UNL A   1      28.228  30.298  21.332  1.00  0.00    -0.225 NA
ATOM     18  S   UNL A   1      28.584  32.587  22.437  1.00  0.00    -0.106 S 
ATOM     19  C   UNL A   1      28.136  31.588  21.116  1.00  0.00     0.180 A 
BRANCH  19  20
ATOM     20  N   UNL A   1      27.727  32.112  19.958  1.00  0.00    -0.375 N 
ATOM     21  H   UNL A   1      26.804  32.441  19.865  1.00  0.00     0.159 HD
ATOM     22  H   UNL A   1      28.349  32.169  19.196  1.00  0.00     0.159 HD
ENDBRANCH  19  20
ENDBRANCH  14  15
ENDBRANCH  12  14
ENDBRANCH   9  12
ENDBRANCH   3   6
ENDBRANCH   1   2
BRANCH   1  23
ATOM     23  C   UNL A   1      31.373  31.936  26.387  1.00  0.00     0.042 C 
BRANCH  23  24
ATOM     24  C   UNL A   1      32.667  32.528  26.934  1.00  0.00     0.118 C 
BRANCH  24  25
ATOM     25  N   UNL A   1      32.487  33.851  27.511  1.00  0.00    -0.352 N 
ATOM     26  C   UNL A   1      33.140  34.465  28.549  1.00  0.00     0.251 C 
ATOM     27  H   UNL A   1      31.782  34.394  27.088  1.00  0.00     0.163 HD
ATOM     28  O   UNL A   1      32.709  35.532  28.986  1.00  0.00    -0.269 OA
BRANCH  26  29
ATOM     29  C   UNL A   1      34.339  33.855  29.162  1.00  0.00     0.039 A 
ATOM     30  C   UNL A   1      34.166  32.906  30.173  1.00  0.00     0.014 A 
ATOM     31  C   UNL A   1      35.628  34.233  28.777  1.00  0.00     0.014 A 
ATOM     32  C   UNL A   1      35.279  32.290  30.749  1.00  0.00     0.010 A 
ATOM     33  C   UNL A   1      36.734  33.560  29.291  1.00  0.00     0.010 A 
ATOM     34  C   UNL A   1      36.571  32.587  30.287  1.00  0.00    -0.014 A 
BRANCH  34  35
ATOM     35  C   UNL A   1      37.760  31.884  30.835  1.00  0.00     0.031 A 
ATOM     36  C   UNL A   1      38.320  32.267  32.177  1.00  0.00     0.074 A 
ATOM     37  C   UNL A   1      38.371  30.938  30.095  1.00  0.00     0.049 A 
ATOM     38  N   UNL A   1      39.377  31.802  32.794  1.00  0.00    -0.248 NA
ATOM     39  C   UNL A   1      37.617  33.332  32.910  1.00  0.00     0.031 C 
ATOM     40  C   UNL A   1      37.962  30.516  28.754  1.00  0.00     0.029 A 
ATOM     41  N   UNL A   1      39.472  30.166  30.364  1.00  0.00    -0.354 N 
ATOM     42  C   UNL A   1      39.471  32.524  33.979  1.00  0.00     0.074 A 
ATOM     43  C   UNL A   1      38.399  33.495  33.967  1.00  0.00     0.031 C 
ATOM     44  C   UNL A   1      38.786  29.547  28.327  1.00  0.00     0.029 A 
ATOM     45  C   UNL A   1      39.799  29.300  29.348  1.00  0.00     0.049 A 
ATOM     46  H   UNL A   1      39.981  30.225  31.205  1.00  0.00     0.167 HD
ATOM     47  C   UNL A   1      40.354  32.374  34.995  1.00  0.00     0.037 A 
ATOM     48  C   UNL A   1      40.802  28.410  29.250  1.00  0.00     0.037 A 
ATOM     49  C   UNL A   1      41.406  31.392  35.017  1.00  0.00     0.049 A 
ATOM     50  C   UNL A   1      41.760  28.251  30.396  1.00  0.00     0.074 A 
ATOM     51  C   UNL A   1      42.317  31.125  36.023  1.00  0.00     0.029 A 
ATOM     52  N   UNL A   1      41.687  30.513  33.981  1.00  0.00    -0.354 N 
ATOM     53  N   UNL A   1      41.797  28.896  31.537  1.00  0.00    -0.248 NA
ATOM     54  C   UNL A   1      42.809  27.233  30.247  1.00  0.00     0.031 C 
ATOM     55  C   UNL A   1      43.173  30.109  35.581  1.00  0.00     0.029 A 
ATOM     56  C   UNL A   1      42.767  29.714  34.318  1.00  0.00     0.049 A 
ATOM     57  H   UNL A   1      41.191  30.465  33.131  1.00  0.00     0.167 HD
ATOM     58  C   UNL A   1      42.857  28.350  32.248  1.00  0.00     0.074 A 
ATOM     59  C   UNL A   1      43.424  27.306  31.419  1.00  0.00     0.031 C 
ATOM     60  C   UNL A   1      43.321  28.682  33.478  1.00  0.00     0.037 A 
BRANCH  47  61
ATOM     61  C   UNL A   1      40.208  33.292  36.174  1.00  0.00     0.057 A 
ATOM     62  C   UNL A   1      40.934  34.487  36.271  1.00  0.00     0.134 A 
ATOM     63  C   UNL A   1      39.316  32.993  37.211  1.00  0.00     0.134 A 
ATOM     64  F   UNL A   1      41.815  34.826  35.318  1.00  0.00    -0.206 F 
ATOM     65  C   UNL A   1      40.799  35.337  37.370  1.00  0.00     0.040 A 
ATOM     66  C   UNL A   1      39.153  33.849  38.303  1.00  0.00     0.040 A 
ATOM     67  F   UNL A   1      38.586  31.868  37.179  1.00  0.00    -0.206 F 
ATOM     68  C   UNL A   1      39.901  35.021  38.388  1.00  0.00     0.006 A 
ENDBRANCH  47  61
BRANCH  48  69
ATOM     69  C   UNL A   1      40.936  27.579  28.027  1.00  0.00     0.057 A 
ATOM     70  C   UNL A   1      41.713  28.008  26.945  1.00  0.00     0.134 A 
ATOM     71  C   UNL A   1      40.296  26.339  27.913  1.00  0.00     0.134 A 
ATOM     72  F   UNL A   1      42.335  29.195  26.990  1.00  0.00    -0.206 F 
ATOM     73  C   UNL A   1      41.835  27.242  25.784  1.00  0.00     0.040 A 
ATOM     74  C   UNL A   1      40.429  25.553  26.767  1.00  0.00     0.040 A 
ATOM     75  F   UNL A   1      39.545  25.870  28.919  1.00  0.00    -0.206 F 
ATOM     76  C   UNL A   1      41.197  26.007  25.696  1.00  0.00     0.006 A 
ENDBRANCH  48  69
BRANCH  60  77
ATOM     77  C   UNL A   1      44.485  27.895  34.004  1.00  0.00     0.057 A 
ATOM     78  C   UNL A   1      44.308  26.693  34.699  1.00  0.00     0.134 A 
ATOM     79  C   UNL A   1      45.797  28.333  33.791  1.00  0.00     0.134 A 
ATOM     80  F   UNL A   1      43.074  26.226  34.948  1.00  0.00    -0.206 F 
ATOM     81  C   UNL A   1      45.395  25.967  35.190  1.00  0.00     0.040 A 
ATOM     82  C   UNL A   1      46.893  27.604  34.254  1.00  0.00     0.040 A 
ATOM     83  F   UNL A   1      46.036  29.473  33.125  1.00  0.00    -0.206 F 
ATOM     84  C   UNL A   1      46.693  26.421  34.962  1.00  0.00     0.006 A 
ENDBRANCH  60  77
ENDBRANCH  34  35
ENDBRANCH  26  29
ENDBRANCH  24  25
ENDBRANCH  23  24
ENDBRANCH   1  23
TORSDOF 14
ENDMDL
MODEL 3
REMARK VINA RESULT:     -11.5      5.522     10.194
REMARK SMILES C[C@H]1[C@H](C(=O)NCCCNC(=O)c2ccc(-c3c4nc(c(-c5c(F)cccc5F)c5ccc([nH]5)c(-c5c(F)cccc5F)c5nc(c(-c6c(F)cccc6F)c6ccc3[nH]6)C=C5)C=C4)cc2)CCN1C(=O)Cc1csc(N)n1
REMARK SMILES IDX 7 1 6 2 4 3 5 4 3 6 1 7 2 8 69 9 67 10 68 11 70 12 71 13
REMARK SMILES IDX 72 14 73 15 74 16 78 17 75 18 76 19 77 20 8 23 9 24 10 25
REMARK SMILES IDX 11 26 12 28 13 29 14 30 66 31 15 32 65 33 16 34 17 35 18 36
REMARK SMILES IDX 59 37 19 38 64 39 58 40 60 41 20 42 63 43 57 44 56 45 21 47
REMARK SMILES IDX 47 48 30 49 46 50 31 51 34 52 45 53 61 54 32 55 33 56 44 58
REMARK SMILES IDX 62 59 35 60 22 61 23 62 28 63 24 64 25 65 27 66 29 67 26 68
REMARK SMILES IDX 48 69 49 70 54 71 50 72 51 73 53 74 55 75 52 76 36 77 37 78
REMARK SMILES IDX 42 79 38 80 39 81 41 82 43 83 40 84
REMARK H PARENT 6 5 77 21 77 22 10 27 60 46 34 57
REMARK Flexibility Score: inf
ROOT
ATOM      1  C   UNL A   1      36.564  20.598  24.950  1.00  0.00     0.117 C 
ENDROOT
BRANCH   1   2
ATOM      2  N   UNL A   1      36.935  21.654  24.027  1.00  0.00    -0.356 N 
ATOM      3  C   UNL A   1      36.268  22.749  23.587  1.00  0.00     0.225 C 
ATOM      4  O   UNL A   1      36.845  23.451  22.751  1.00  0.00    -0.275 OA
ATOM      5  H   UNL A   1      37.839  21.557  23.649  1.00  0.00     0.163 HD
BRANCH   3   6
ATOM      6  C   UNL A   1      34.864  23.115  24.037  1.00  0.00     0.102 C 
ATOM      7  C   UNL A   1      34.196  24.984  25.559  1.00  0.00     0.032 C 
ATOM      8  C   UNL A   1      34.652  24.633  24.137  1.00  0.00     0.094 C 
ATOM      9  N   UNL A   1      33.595  24.925  23.172  1.00  0.00    -0.339 N 
ATOM     10  C   UNL A   1      33.721  22.561  23.182  1.00  0.00     0.037 C 
ATOM     11  C   UNL A   1      32.795  23.741  22.919  1.00  0.00     0.120 C 
BRANCH   9  12
ATOM     12  C   UNL A   1      33.251  26.139  22.599  1.00  0.00     0.228 C 
ATOM     13  O   UNL A   1      33.521  26.366  21.415  1.00  0.00    -0.274 OA
BRANCH  12  14
ATOM     14  C   UNL A   1      32.724  27.263  23.479  1.00  0.00     0.157 C 
BRANCH  14  15
ATOM     15  C   UNL A   1      31.269  27.560  23.373  1.00  0.00     0.063 A 
ATOM     16  C   UNL A   1      30.707  28.699  22.823  1.00  0.00     0.093 A 
ATOM     17  N   UNL A   1      30.344  26.613  23.783  1.00  0.00    -0.225 NA
ATOM     18  S   UNL A   1      28.999  28.601  22.875  1.00  0.00    -0.106 S 
ATOM     19  C   UNL A   1      29.122  27.039  23.575  1.00  0.00     0.180 A 
BRANCH  19  20
ATOM     20  N   UNL A   1      28.033  26.327  23.877  1.00  0.00    -0.375 N 
ATOM     21  H   UNL A   1      27.689  25.660  23.240  1.00  0.00     0.159 HD
ATOM     22  H   UNL A   1      27.574  26.470  24.736  1.00  0.00     0.159 HD
ENDBRANCH  19  20
ENDBRANCH  14  15
ENDBRANCH  12  14
ENDBRANCH   9  12
ENDBRANCH   3   6
ENDBRANCH   1   2
BRANCH   1  23
ATOM     23  C   UNL A   1      37.672  19.568  25.115  1.00  0.00     0.042 C 
BRANCH  23  24
ATOM     24  C   UNL A   1      38.947  20.106  25.754  1.00  0.00     0.118 C 
BRANCH  24  25
ATOM     25  N   UNL A   1      40.002  19.108  25.844  1.00  0.00    -0.352 N 
ATOM     26  C   UNL A   1      41.350  19.254  26.050  1.00  0.00     0.251 C 
ATOM     27  H   UNL A   1      39.699  18.176  25.741  1.00  0.00     0.163 HD
ATOM     28  O   UNL A   1      42.089  18.278  25.921  1.00  0.00    -0.269 OA
BRANCH  26  29
ATOM     29  C   UNL A   1      41.929  20.567  26.404  1.00  0.00     0.039 A 
ATOM     30  C   UNL A   1      42.229  21.467  25.376  1.00  0.00     0.014 A 
ATOM     31  C   UNL A   1      42.209  20.908  27.730  1.00  0.00     0.014 A 
ATOM     32  C   UNL A   1      42.748  22.726  25.683  1.00  0.00     0.010 A 
ATOM     33  C   UNL A   1      42.648  22.193  28.041  1.00  0.00     0.010 A 
ATOM     34  C   UNL A   1      42.928  23.113  27.020  1.00  0.00    -0.014 A 
BRANCH  34  35
ATOM     35  C   UNL A   1      43.405  24.477  27.365  1.00  0.00     0.031 A 
ATOM     36  C   UNL A   1      42.431  25.541  27.790  1.00  0.00     0.074 A 
ATOM     37  C   UNL A   1      44.714  24.772  27.240  1.00  0.00     0.049 A 
ATOM     38  N   UNL A   1      42.656  26.798  28.081  1.00  0.00    -0.248 NA
ATOM     39  C   UNL A   1      41.015  25.149  27.872  1.00  0.00     0.031 C 
ATOM     40  C   UNL A   1      45.751  23.847  26.781  1.00  0.00     0.029 A 
ATOM     41  N   UNL A   1      45.393  25.940  27.478  1.00  0.00    -0.354 N 
ATOM     42  C   UNL A   1      41.412  27.347  28.368  1.00  0.00     0.074 A 
ATOM     43  C   UNL A   1      40.432  26.303  28.160  1.00  0.00     0.031 C 
ATOM     44  C   UNL A   1      46.938  24.474  26.794  1.00  0.00     0.029 A 
ATOM     45  C   UNL A   1      46.742  25.853  27.230  1.00  0.00     0.049 A 
ATOM     46  H   UNL A   1      44.957  26.763  27.798  1.00  0.00     0.167 HD
ATOM     47  C   UNL A   1      41.115  28.599  28.791  1.00  0.00     0.037 A 
ATOM     48  C   UNL A   1      47.711  26.780  27.340  1.00  0.00     0.037 A 
ATOM     49  C   UNL A   1      42.092  29.630  29.019  1.00  0.00     0.049 A 
ATOM     50  C   UNL A   1      47.359  28.157  27.825  1.00  0.00     0.074 A 
ATOM     51  C   UNL A   1      41.898  30.914  29.498  1.00  0.00     0.029 A 
ATOM     52  N   UNL A   1      43.453  29.495  28.784  1.00  0.00    -0.354 N 
ATOM     53  N   UNL A   1      46.187  28.643  28.154  1.00  0.00    -0.248 NA
ATOM     54  C   UNL A   1      48.467  29.113  27.964  1.00  0.00     0.031 C 
ATOM     55  C   UNL A   1      43.136  31.567  29.518  1.00  0.00     0.029 A 
ATOM     56  C   UNL A   1      44.107  30.676  29.093  1.00  0.00     0.049 A 
ATOM     57  H   UNL A   1      43.889  28.678  28.446  1.00  0.00     0.167 HD
ATOM     58  C   UNL A   1      46.418  29.952  28.558  1.00  0.00     0.074 A 
ATOM     59  C   UNL A   1      47.845  30.176  28.452  1.00  0.00     0.031 C 
ATOM     60  C   UNL A   1      45.528  30.884  28.978  1.00  0.00     0.037 A 
BRANCH  47  61
ATOM     61  C   UNL A   1      39.669  28.916  29.043  1.00  0.00     0.057 A 
ATOM     62  C   UNL A   1      38.823  29.362  28.018  1.00  0.00     0.134 A 
ATOM     63  C   UNL A   1      39.109  28.750  30.315  1.00  0.00     0.134 A 
ATOM     64  F   UNL A   1      39.300  29.554  26.779  1.00  0.00    -0.206 F 
ATOM     65  C   UNL A   1      37.480  29.659  28.256  1.00  0.00     0.040 A 
ATOM     66  C   UNL A   1      37.760  29.019  30.559  1.00  0.00     0.040 A 
ATOM     67  F   UNL A   1      39.860  28.321  31.340  1.00  0.00    -0.206 F 
ATOM     68  C   UNL A   1      36.944  29.482  29.530  1.00  0.00     0.006 A 
ENDBRANCH  47  61
BRANCH  48  69
ATOM     69  C   UNL A   1      49.114  26.425  27.007  1.00  0.00     0.057 A 
ATOM     70  C   UNL A   1      49.990  25.953  27.991  1.00  0.00     0.134 A 
ATOM     71  C   UNL A   1      49.608  26.544  25.704  1.00  0.00     0.134 A 
ATOM     72  F   UNL A   1      49.579  25.835  29.262  1.00  0.00    -0.206 F 
ATOM     73  C   UNL A   1      51.316  25.629  27.694  1.00  0.00     0.040 A 
ATOM     74  C   UNL A   1      50.923  26.201  25.388  1.00  0.00     0.040 A 
ATOM     75  F   UNL A   1      48.813  26.982  24.716  1.00  0.00    -0.206 F 
ATOM     76  C   UNL A   1      51.783  25.748  26.387  1.00  0.00     0.006 A 
ENDBRANCH  48  69
BRANCH  60  77
ATOM     77  C   UNL A   1      46.079  32.223  29.372  1.00  0.00     0.057 A 
ATOM     78  C   UNL A   1      46.541  32.477  30.669  1.00  0.00     0.134 A 
ATOM     79  C   UNL A   1      46.167  33.261  28.437  1.00  0.00     0.134 A 
ATOM     80  F   UNL A   1      46.471  31.528  31.615  1.00  0.00    -0.206 F 
ATOM     81  C   UNL A   1      47.048  33.726  31.030  1.00  0.00     0.040 A 
ATOM     82  C   UNL A   1      46.695  34.506  28.779  1.00  0.00     0.040 A 
ATOM     83  F   UNL A   1      45.748  33.081  27.176  1.00  0.00    -0.206 F 
ATOM     84  C   UNL A   1      47.131  34.744  30.081  1.00  0.00     0.006 A 
ENDBRANCH  60  77
ENDBRANCH  34  35
ENDBRANCH  26  29
ENDBRANCH  24  25
ENDBRANCH  23  24
ENDBRANCH   1  23
TORSDOF 14
ENDMDL
