MODEL 1
REMARK VINA RESULT:     -10.7      0.000      0.000
REMARK SMILES C[C@H]1CN([C@@H](C(=O)NCCCNC(=O)c2ccc(-c3c4nc(c(-c5c(F)cccc5F)c5ccc([nH]5)c(-c5c(F)cccc5F)c5nc(c(-c6c(F)cccc6F)c6ccc3[nH]6)C=C5)C=C4)cc2)C(C)(C)C)S(=O)(=O)C1
REMARK SMILES IDX 10 1 9 2 8 3 6 4 7 5 5 7 4 8 1 9 2 10 3 11 76 12 73 13 74 14
REMARK SMILES IDX 75 15 69 16 70 17 71 18 72 19 11 20 12 21 13 22 14 24 15 25
REMARK SMILES IDX 16 26 68 27 17 28 67 29 18 30 19 31 20 32 61 33 21 34 66 35
REMARK SMILES IDX 60 36 62 37 22 38 65 39 59 40 58 41 23 43 49 44 32 45 48 46
REMARK SMILES IDX 33 47 36 48 47 49 63 50 34 51 35 52 46 54 64 55 37 56 24 57
REMARK SMILES IDX 25 58 30 59 26 60 27 61 29 62 31 63 28 64 50 65 51 66 56 67
REMARK SMILES IDX 52 68 53 69 55 70 57 71 54 72 38 73 39 74 44 75 40 76 41 77
REMARK SMILES IDX 43 78 45 79 42 80
REMARK H PARENT 8 6 12 23 62 42 36 53
REMARK Flexibility Score: inf
ROOT
ATOM      1  C   UNL A   1      33.809  28.090  25.742  1.00  0.00     0.042 C 
ENDROOT
BRANCH   1   2
ATOM      2  C   UNL A   1      33.094  26.837  25.206  1.00  0.00     0.117 C 
BRANCH   2   3
ATOM      3  N   UNL A   1      33.597  26.348  23.924  1.00  0.00    -0.355 N 
ATOM      4  C   UNL A   1      33.634  25.126  23.302  1.00  0.00     0.238 C 
ATOM      5  O   UNL A   1      33.960  25.170  22.112  1.00  0.00    -0.273 OA
ATOM      6  H   UNL A   1      34.005  27.061  23.382  1.00  0.00     0.163 HD
BRANCH   4   7
ATOM      7  C   UNL A   1      33.302  23.800  24.029  1.00  0.00     0.167 C 
BRANCH   7   8
ATOM      8  N   UNL A   1      34.379  22.757  23.911  1.00  0.00    -0.189 NA
ATOM      9  C   UNL A   1      35.072  21.742  26.817  1.00  0.00     0.010 C 
ATOM     10  C   UNL A   1      35.189  21.057  25.452  1.00  0.00     0.017 C 
ATOM     11  C   UNL A   1      34.088  21.410  24.437  1.00  0.00     0.107 C 
ATOM     12  C   UNL A   1      36.465  21.498  24.749  1.00  0.00     0.159 C 
ATOM     13  S   UNL A   1      36.046  23.075  24.023  1.00  0.00     0.215 S 
ATOM     14  O   UNL A   1      36.594  23.113  22.691  1.00  0.00    -0.212 OA
ATOM     15  O   UNL A   1      36.292  24.096  25.013  1.00  0.00    -0.212 OA
ENDBRANCH   7   8
BRANCH   7  16
ATOM     16  C   UNL A   1      31.841  23.250  23.745  1.00  0.00    -0.013 C 
ATOM     17  C   UNL A   1      31.212  22.745  25.066  1.00  0.00     0.013 C 
ATOM     18  C   UNL A   1      30.937  24.403  23.237  1.00  0.00     0.013 C 
ATOM     19  C   UNL A   1      31.721  22.120  22.702  1.00  0.00     0.013 C 
ENDBRANCH   7  16
ENDBRANCH   4   7
ENDBRANCH   2   3
ENDBRANCH   1   2
BRANCH   1  20
ATOM     20  C   UNL A   1      33.677  28.355  27.242  1.00  0.00     0.118 C 
BRANCH  20  21
ATOM     21  N   UNL A   1      33.616  29.769  27.548  1.00  0.00    -0.352 N 
ATOM     22  C   UNL A   1      34.560  30.568  28.147  1.00  0.00     0.251 C 
ATOM     23  H   UNL A   1      32.779  30.221  27.292  1.00  0.00     0.163 HD
ATOM     24  O   UNL A   1      34.234  31.683  28.548  1.00  0.00    -0.269 OA
BRANCH  22  25
ATOM     25  C   UNL A   1      35.962  30.110  28.333  1.00  0.00     0.039 A 
ATOM     26  C   UNL A   1      36.343  29.623  29.588  1.00  0.00     0.014 A 
ATOM     27  C   UNL A   1      36.923  30.225  27.322  1.00  0.00     0.014 A 
ATOM     28  C   UNL A   1      37.666  29.231  29.821  1.00  0.00     0.010 A 
ATOM     29  C   UNL A   1      38.230  29.774  27.536  1.00  0.00     0.010 A 
ATOM     30  C   UNL A   1      38.621  29.287  28.794  1.00  0.00    -0.014 A 
BRANCH  30  31
ATOM     31  C   UNL A   1      40.031  28.863  29.037  1.00  0.00     0.031 A 
ATOM     32  C   UNL A   1      41.007  29.798  29.701  1.00  0.00     0.074 A 
ATOM     33  C   UNL A   1      40.444  27.642  28.642  1.00  0.00     0.049 A 
ATOM     34  N   UNL A   1      42.278  29.616  29.968  1.00  0.00    -0.248 NA
ATOM     35  C   UNL A   1      40.494  31.116  30.106  1.00  0.00     0.031 C 
ATOM     36  C   UNL A   1      39.611  26.644  27.972  1.00  0.00     0.029 A 
ATOM     37  N   UNL A   1      41.672  27.034  28.744  1.00  0.00    -0.354 N 
ATOM     38  C   UNL A   1      42.715  30.795  30.562  1.00  0.00     0.074 A 
ATOM     39  C   UNL A   1      41.587  31.703  30.570  1.00  0.00     0.031 C 
ATOM     40  C   UNL A   1      40.344  25.543  27.740  1.00  0.00     0.029 A 
ATOM     41  C   UNL A   1      41.709  25.770  28.205  1.00  0.00     0.049 A 
ATOM     42  H   UNL A   1      42.453  27.463  29.162  1.00  0.00     0.167 HD
ATOM     43  C   UNL A   1      43.935  31.089  31.072  1.00  0.00     0.037 A 
ATOM     44  C   UNL A   1      42.728  24.895  28.084  1.00  0.00     0.037 A 
ATOM     45  C   UNL A   1      45.055  30.184  31.075  1.00  0.00     0.049 A 
ATOM     46  C   UNL A   1      44.087  25.263  28.618  1.00  0.00     0.074 A 
ATOM     47  C   UNL A   1      46.317  30.377  31.612  1.00  0.00     0.029 A 
ATOM     48  N   UNL A   1      45.053  28.919  30.507  1.00  0.00    -0.354 N 
ATOM     49  N   UNL A   1      44.466  26.358  29.232  1.00  0.00    -0.248 NA
ATOM     50  C   UNL A   1      45.160  24.272  28.445  1.00  0.00     0.031 C 
ATOM     51  C   UNL A   1      47.096  29.254  31.314  1.00  0.00     0.029 A 
ATOM     52  C   UNL A   1      46.302  28.334  30.650  1.00  0.00     0.049 A 
ATOM     53  H   UNL A   1      44.280  28.499  30.066  1.00  0.00     0.167 HD
ATOM     54  C   UNL A   1      45.806  26.174  29.546  1.00  0.00     0.074 A 
ATOM     55  C   UNL A   1      46.173  24.858  29.067  1.00  0.00     0.031 C 
ATOM     56  C   UNL A   1      46.656  27.020  30.179  1.00  0.00     0.037 A 
BRANCH  43  57
ATOM     57  C   UNL A   1      44.131  32.457  31.666  1.00  0.00     0.057 A 
ATOM     58  C   UNL A   1      43.903  32.716  33.025  1.00  0.00     0.134 A 
ATOM     59  C   UNL A   1      44.602  33.517  30.880  1.00  0.00     0.134 A 
ATOM     60  F   UNL A   1      43.447  31.749  33.834  1.00  0.00    -0.206 F 
ATOM     61  C   UNL A   1      44.106  33.985  33.571  1.00  0.00     0.040 A 
ATOM     62  C   UNL A   1      44.837  34.783  31.421  1.00  0.00     0.040 A 
ATOM     63  F   UNL A   1      44.854  33.338  29.574  1.00  0.00    -0.206 F 
ATOM     64  C   UNL A   1      44.581  35.021  32.770  1.00  0.00     0.006 A 
ENDBRANCH  43  57
BRANCH  44  65
ATOM     65  C   UNL A   1      42.506  23.578  27.432  1.00  0.00     0.057 A 
ATOM     66  C   UNL A   1      42.163  22.446  28.180  1.00  0.00     0.134 A 
ATOM     67  C   UNL A   1      42.647  23.416  26.048  1.00  0.00     0.134 A 
ATOM     68  F   UNL A   1      42.032  22.531  29.513  1.00  0.00    -0.206 F 
ATOM     69  C   UNL A   1      41.991  21.197  27.581  1.00  0.00     0.040 A 
ATOM     70  C   UNL A   1      42.449  22.179  25.432  1.00  0.00     0.040 A 
ATOM     71  F   UNL A   1      42.966  24.462  25.272  1.00  0.00    -0.206 F 
ATOM     72  C   UNL A   1      42.129  21.062  26.201  1.00  0.00     0.006 A 
ENDBRANCH  44  65
BRANCH  56  73
ATOM     73  C   UNL A   1      48.057  26.539  30.431  1.00  0.00     0.057 A 
ATOM     74  C   UNL A   1      49.104  26.792  29.536  1.00  0.00     0.134 A 
ATOM     75  C   UNL A   1      48.373  25.861  31.617  1.00  0.00     0.134 A 
ATOM     76  F   UNL A   1      48.869  27.426  28.376  1.00  0.00    -0.206 F 
ATOM     77  C   UNL A   1      50.409  26.373  29.802  1.00  0.00     0.040 A 
ATOM     78  C   UNL A   1      49.678  25.463  31.906  1.00  0.00     0.040 A 
ATOM     79  F   UNL A   1      47.420  25.593  32.523  1.00  0.00    -0.206 F 
ATOM     80  C   UNL A   1      50.700  25.715  30.995  1.00  0.00     0.006 A 
ENDBRANCH  56  73
ENDBRANCH  30  31
ENDBRANCH  22  25
ENDBRANCH  20  21
ENDBRANCH   1  20
TORSDOF 12
ENDMDL
MODEL 2
REMARK VINA RESULT:     -10.6      3.838      5.520
REMARK SMILES C[C@H]1CN([C@@H](C(=O)NCCCNC(=O)c2ccc(-c3c4nc(c(-c5c(F)cccc5F)c5ccc([nH]5)c(-c5c(F)cccc5F)c5nc(c(-c6c(F)cccc6F)c6ccc3[nH]6)C=C5)C=C4)cc2)C(C)(C)C)S(=O)(=O)C1
REMARK SMILES IDX 10 1 9 2 8 3 6 4 7 5 5 7 4 8 1 9 2 10 3 11 76 12 73 13 74 14
REMARK SMILES IDX 75 15 69 16 70 17 71 18 72 19 11 20 12 21 13 22 14 24 15 25
REMARK SMILES IDX 16 26 68 27 17 28 67 29 18 30 19 31 20 32 61 33 21 34 66 35
REMARK SMILES IDX 60 36 62 37 22 38 65 39 59 40 58 41 23 43 49 44 32 45 48 46
REMARK SMILES IDX 33 47 36 48 47 49 63 50 34 51 35 52 46 54 64 55 37 56 24 57
REMARK SMILES IDX 25 58 30 59 26 60 27 61 29 62 31 63 28 64 50 65 51 66 56 67
REMARK SMILES IDX 52 68 53 69 55 70 57 71 54 72 38 73 39 74 44 75 40 76 41 77
REMARK SMILES IDX 43 78 45 79 42 80
REMARK H PARENT 8 6 12 23 62 42 36 53
REMARK Flexibility Score: inf
ROOT
ATOM      1  C   UNL A   1      31.186  32.059  26.492  1.00  0.00     0.042 C 
ENDROOT
BRANCH   1   2
ATOM      2  C   UNL A   1      31.141  30.648  25.879  1.00  0.00     0.117 C 
BRANCH   2   3
ATOM      3  N   UNL A   1      32.213  30.361  24.929  1.00  0.00    -0.355 N 
ATOM      4  C   UNL A   1      32.705  29.225  24.338  1.00  0.00     0.238 C 
ATOM      5  O   UNL A   1      33.496  29.432  23.414  1.00  0.00    -0.273 OA
ATOM      6  H   UNL A   1      32.695  31.172  24.647  1.00  0.00     0.163 HD
BRANCH   4   7
ATOM      7  C   UNL A   1      32.307  27.799  24.795  1.00  0.00     0.167 C 
BRANCH   7   8
ATOM      8  N   UNL A   1      30.837  27.508  24.666  1.00  0.00    -0.189 NA
ATOM      9  C   UNL A   1      30.523  24.631  23.412  1.00  0.00     0.010 C 
ATOM     10  C   UNL A   1      29.600  25.441  24.327  1.00  0.00     0.017 C 
ATOM     11  C   UNL A   1      30.310  26.324  25.369  1.00  0.00     0.107 C 
ATOM     12  C   UNL A   1      28.795  26.442  23.511  1.00  0.00     0.159 C 
ATOM     13  S   UNL A   1      29.913  27.814  23.272  1.00  0.00     0.215 S 
ATOM     14  O   UNL A   1      29.172  29.035  23.474  1.00  0.00    -0.212 OA
ATOM     15  O   UNL A   1      30.694  27.546  22.088  1.00  0.00    -0.212 OA
ENDBRANCH   7   8
BRANCH   7  16
ATOM     16  C   UNL A   1      32.928  27.366  26.190  1.00  0.00    -0.013 C 
ATOM     17  C   UNL A   1      33.345  25.878  26.131  1.00  0.00     0.013 C 
ATOM     18  C   UNL A   1      34.221  28.178  26.463  1.00  0.00     0.013 C 
ATOM     19  C   UNL A   1      32.032  27.557  27.432  1.00  0.00     0.013 C 
ENDBRANCH   7  16
ENDBRANCH   4   7
ENDBRANCH   2   3
ENDBRANCH   1   2
BRANCH   1  20
ATOM     20  C   UNL A   1      32.568  32.585  26.879  1.00  0.00     0.118 C 
BRANCH  20  21
ATOM     21  N   UNL A   1      32.518  33.936  27.400  1.00  0.00    -0.352 N 
ATOM     22  C   UNL A   1      33.200  34.482  28.461  1.00  0.00     0.251 C 
ATOM     23  H   UNL A   1      31.909  34.549  26.927  1.00  0.00     0.163 HD
ATOM     24  O   UNL A   1      32.843  35.570  28.906  1.00  0.00    -0.269 OA
BRANCH  22  25
ATOM     25  C   UNL A   1      34.349  33.780  29.090  1.00  0.00     0.039 A 
ATOM     26  C   UNL A   1      35.645  34.162  28.725  1.00  0.00     0.014 A 
ATOM     27  C   UNL A   1      34.174  32.705  29.969  1.00  0.00     0.014 A 
ATOM     28  C   UNL A   1      36.754  33.492  29.253  1.00  0.00     0.010 A 
ATOM     29  C   UNL A   1      35.284  32.076  30.545  1.00  0.00     0.010 A 
ATOM     30  C   UNL A   1      36.587  32.452  30.181  1.00  0.00    -0.014 A 
BRANCH  30  31
ATOM     31  C   UNL A   1      37.767  31.740  30.752  1.00  0.00     0.031 A 
ATOM     32  C   UNL A   1      38.275  32.081  32.129  1.00  0.00     0.074 A 
ATOM     33  C   UNL A   1      38.400  30.797  30.026  1.00  0.00     0.049 A 
ATOM     34  N   UNL A   1      39.302  31.592  32.778  1.00  0.00    -0.248 NA
ATOM     35  C   UNL A   1      37.540  33.121  32.868  1.00  0.00     0.031 C 
ATOM     36  C   UNL A   1      38.028  30.379  28.675  1.00  0.00     0.029 A 
ATOM     37  N   UNL A   1      39.495  30.021  30.323  1.00  0.00    -0.354 N 
ATOM     38  C   UNL A   1      39.342  32.267  33.993  1.00  0.00     0.074 A 
ATOM     39  C   UNL A   1      38.266  33.235  33.970  1.00  0.00     0.031 C 
ATOM     40  C   UNL A   1      38.865  29.412  28.267  1.00  0.00     0.029 A 
ATOM     41  C   UNL A   1      39.859  29.169  29.308  1.00  0.00     0.049 A 
ATOM     42  H   UNL A   1      39.974  30.070  31.182  1.00  0.00     0.167 HD
ATOM     43  C   UNL A   1      40.182  32.084  35.041  1.00  0.00     0.037 A 
ATOM     44  C   UNL A   1      40.886  28.299  29.216  1.00  0.00     0.037 A 
ATOM     45  C   UNL A   1      41.246  31.114  35.071  1.00  0.00     0.049 A 
ATOM     46  C   UNL A   1      41.834  28.147  30.375  1.00  0.00     0.074 A 
ATOM     47  C   UNL A   1      42.119  30.825  36.106  1.00  0.00     0.029 A 
ATOM     48  N   UNL A   1      41.589  30.281  34.016  1.00  0.00    -0.354 N 
ATOM     49  N   UNL A   1      41.819  28.749  31.541  1.00  0.00    -0.248 NA
ATOM     50  C   UNL A   1      42.940  27.193  30.209  1.00  0.00     0.031 C 
ATOM     51  C   UNL A   1      43.028  29.862  35.657  1.00  0.00     0.029 A 
ATOM     52  C   UNL A   1      42.682  29.503  34.365  1.00  0.00     0.049 A 
ATOM     53  H   UNL A   1      41.126  30.249  33.148  1.00  0.00     0.167 HD
ATOM     54  C   UNL A   1      42.888  28.224  32.255  1.00  0.00     0.074 A 
ATOM     55  C   UNL A   1      43.525  27.246  31.398  1.00  0.00     0.031 C 
ATOM     56  C   UNL A   1      43.303  28.524  33.510  1.00  0.00     0.037 A 
BRANCH  43  57
ATOM     57  C   UNL A   1      39.994  32.963  36.247  1.00  0.00     0.057 A 
ATOM     58  C   UNL A   1      40.713  34.153  36.419  1.00  0.00     0.134 A 
ATOM     59  C   UNL A   1      39.045  32.638  37.226  1.00  0.00     0.134 A 
ATOM     60  F   UNL A   1      41.640  34.522  35.523  1.00  0.00    -0.206 F 
ATOM     61  C   UNL A   1      40.518  34.972  37.533  1.00  0.00     0.040 A 
ATOM     62  C   UNL A   1      38.819  33.463  38.330  1.00  0.00     0.040 A 
ATOM     63  F   UNL A   1      38.312  31.519  37.121  1.00  0.00    -0.206 F 
ATOM     64  C   UNL A   1      39.563  34.631  38.489  1.00  0.00     0.006 A 
ENDBRANCH  43  57
BRANCH  44  65
ATOM     65  C   UNL A   1      41.074  27.497  27.979  1.00  0.00     0.057 A 
ATOM     66  C   UNL A   1      41.819  27.988  26.902  1.00  0.00     0.134 A 
ATOM     67  C   UNL A   1      40.498  26.227  27.837  1.00  0.00     0.134 A 
ATOM     68  F   UNL A   1      42.380  29.205  26.967  1.00  0.00    -0.206 F 
ATOM     69  C   UNL A   1      41.969  27.258  25.721  1.00  0.00     0.040 A 
ATOM     70  C   UNL A   1      40.664  25.474  26.674  1.00  0.00     0.040 A 
ATOM     71  F   UNL A   1      39.778  25.695  28.836  1.00  0.00    -0.206 F 
ATOM     72  C   UNL A   1      41.394  25.993  25.607  1.00  0.00     0.006 A 
ENDBRANCH  44  65
BRANCH  56  73
ATOM     73  C   UNL A   1      44.476  27.760  34.056  1.00  0.00     0.057 A 
ATOM     74  C   UNL A   1      45.785  28.250  33.980  1.00  0.00     0.134 A 
ATOM     75  C   UNL A   1      44.282  26.541  34.721  1.00  0.00     0.134 A 
ATOM     76  F   UNL A   1      46.043  29.405  33.347  1.00  0.00    -0.206 F 
ATOM     77  C   UNL A   1      46.861  27.547  34.526  1.00  0.00     0.040 A 
ATOM     78  C   UNL A   1      45.345  25.844  35.296  1.00  0.00     0.040 A 
ATOM     79  F   UNL A   1      43.052  26.017  34.839  1.00  0.00    -0.206 F 
ATOM     80  C   UNL A   1      46.640  26.345  35.195  1.00  0.00     0.006 A 
ENDBRANCH  56  73
ENDBRANCH  30  31
ENDBRANCH  22  25
ENDBRANCH  20  21
ENDBRANCH   1  20
TORSDOF 12
ENDMDL
MODEL 3
REMARK VINA RESULT:     -10.5      3.051      7.986
REMARK SMILES C[C@H]1CN([C@@H](C(=O)NCCCNC(=O)c2ccc(-c3c4nc(c(-c5c(F)cccc5F)c5ccc([nH]5)c(-c5c(F)cccc5F)c5nc(c(-c6c(F)cccc6F)c6ccc3[nH]6)C=C5)C=C4)cc2)C(C)(C)C)S(=O)(=O)C1
REMARK SMILES IDX 10 1 9 2 8 3 6 4 7 5 5 7 4 8 1 9 2 10 3 11 76 12 73 13 74 14
REMARK SMILES IDX 75 15 69 16 70 17 71 18 72 19 11 20 12 21 13 22 14 24 15 25
REMARK SMILES IDX 16 26 68 27 17 28 67 29 18 30 19 31 20 32 61 33 21 34 66 35
REMARK SMILES IDX 60 36 62 37 22 38 65 39 59 40 58 41 23 43 49 44 32 45 48 46
REMARK SMILES IDX 33 47 36 48 47 49 63 50 34 51 35 52 46 54 64 55 37 56 24 57
REMARK SMILES IDX 25 58 30 59 26 60 27 61 29 62 31 63 28 64 50 65 51 66 56 67
REMARK SMILES IDX 52 68 53 69 55 70 57 71 54 72 38 73 39 74 44 75 40 76 41 77
REMARK SMILES IDX 43 78 45 79 42 80
REMARK H PARENT 8 6 12 23 62 42 36 53
REMARK Flexibility Score: inf
ROOT
ATOM      1  C   UNL A   1      35.250  23.196  26.262  1.00  0.00     0.042 C 
ENDROOT
BRANCH   1   2
ATOM      2  C   UNL A   1      34.053  23.722  25.449  1.00  0.00     0.117 C 
BRANCH   2   3
ATOM      3  N   UNL A   1      32.850  23.985  26.235  1.00  0.00    -0.355 N 
ATOM      4  C   UNL A   1      31.743  24.779  26.073  1.00  0.00     0.238 C 
ATOM      5  O   UNL A   1      30.834  24.556  26.877  1.00  0.00    -0.273 OA
ATOM      6  H   UNL A   1      32.830  23.475  27.077  1.00  0.00     0.163 HD
BRANCH   4   7
ATOM      7  C   UNL A   1      31.641  25.869  24.977  1.00  0.00     0.167 C 
BRANCH   7   8
ATOM      8  N   UNL A   1      31.390  27.250  25.517  1.00  0.00    -0.189 NA
ATOM      9  C   UNL A   1      33.378  29.232  24.078  1.00  0.00     0.010 C 
ATOM     10  C   UNL A   1      32.001  29.462  24.707  1.00  0.00     0.017 C 
ATOM     11  C   UNL A   1      31.003  28.300  24.557  1.00  0.00     0.107 C 
ATOM     12  C   UNL A   1      32.130  29.618  26.215  1.00  0.00     0.159 C 
ATOM     13  S   UNL A   1      32.229  27.942  26.824  1.00  0.00     0.215 S 
ATOM     14  O   UNL A   1      31.403  27.844  28.001  1.00  0.00    -0.212 OA
ATOM     15  O   UNL A   1      33.616  27.542  26.793  1.00  0.00    -0.212 OA
ENDBRANCH   7   8
BRANCH   7  16
ATOM     16  C   UNL A   1      30.710  25.477  23.754  1.00  0.00    -0.013 C 
ATOM     17  C   UNL A   1      31.322  26.021  22.442  1.00  0.00     0.013 C 
ATOM     18  C   UNL A   1      30.654  23.934  23.610  1.00  0.00     0.013 C 
ATOM     19  C   UNL A   1      29.244  25.955  23.825  1.00  0.00     0.013 C 
ENDBRANCH   7  16
ENDBRANCH   4   7
ENDBRANCH   2   3
ENDBRANCH   1   2
BRANCH   1  20
ATOM     20  C   UNL A   1      36.638  23.534  25.718  1.00  0.00     0.118 C 
BRANCH  20  21
ATOM     21  N   UNL A   1      37.628  22.540  26.078  1.00  0.00    -0.352 N 
ATOM     22  C   UNL A   1      38.923  22.720  26.501  1.00  0.00     0.251 C 
ATOM     23  H   UNL A   1      37.331  21.603  26.011  1.00  0.00     0.163 HD
ATOM     24  O   UNL A   1      39.687  21.757  26.520  1.00  0.00    -0.269 OA
BRANCH  22  25
ATOM     25  C   UNL A   1      39.426  24.055  26.921  1.00  0.00     0.039 A 
ATOM     26  C   UNL A   1      39.242  24.447  28.251  1.00  0.00     0.014 A 
ATOM     27  C   UNL A   1      39.999  24.953  26.014  1.00  0.00     0.014 A 
ATOM     28  C   UNL A   1      39.652  25.717  28.675  1.00  0.00     0.010 A 
ATOM     29  C   UNL A   1      40.465  26.197  26.452  1.00  0.00     0.010 A 
ATOM     30  C   UNL A   1      40.282  26.600  27.785  1.00  0.00    -0.014 A 
BRANCH  30  31
ATOM     31  C   UNL A   1      40.727  27.951  28.235  1.00  0.00     0.031 A 
ATOM     32  C   UNL A   1      42.190  28.312  28.244  1.00  0.00     0.074 A 
ATOM     33  C   UNL A   1      39.819  28.853  28.658  1.00  0.00     0.049 A 
ATOM     34  N   UNL A   1      42.767  29.424  28.629  1.00  0.00    -0.248 NA
ATOM     35  C   UNL A   1      43.130  27.282  27.773  1.00  0.00     0.031 C 
ATOM     36  C   UNL A   1      38.374  28.632  28.719  1.00  0.00     0.029 A 
ATOM     37  N   UNL A   1      39.977  30.137  29.121  1.00  0.00    -0.354 N 
ATOM     38  C   UNL A   1      44.132  29.225  28.454  1.00  0.00     0.074 A 
ATOM     39  C   UNL A   1      44.300  27.869  27.977  1.00  0.00     0.031 C 
ATOM     40  C   UNL A   1      37.778  29.745  29.173  1.00  0.00     0.029 A 
ATOM     41  C   UNL A   1      38.797  30.746  29.476  1.00  0.00     0.049 A 
ATOM     42  H   UNL A   1      40.853  30.579  29.193  1.00  0.00     0.167 HD
ATOM     43  C   UNL A   1      45.151  30.097  28.653  1.00  0.00     0.037 A 
ATOM     44  C   UNL A   1      38.559  31.965  30.000  1.00  0.00     0.037 A 
ATOM     45  C   UNL A   1      44.985  31.450  29.117  1.00  0.00     0.049 A 
ATOM     46  C   UNL A   1      39.713  32.899  30.254  1.00  0.00     0.074 A 
ATOM     47  C   UNL A   1      45.954  32.421  29.303  1.00  0.00     0.029 A 
ATOM     48  N   UNL A   1      43.774  32.021  29.478  1.00  0.00    -0.354 N 
ATOM     49  N   UNL A   1      40.991  32.717  30.025  1.00  0.00    -0.248 NA
ATOM     50  C   UNL A   1      39.390  34.210  30.838  1.00  0.00     0.031 C 
ATOM     51  C   UNL A   1      45.338  33.558  29.835  1.00  0.00     0.029 A 
ATOM     52  C   UNL A   1      43.977  33.320  29.918  1.00  0.00     0.049 A 
ATOM     53  H   UNL A   1      42.901  31.570  29.430  1.00  0.00     0.167 HD
ATOM     54  C   UNL A   1      41.618  33.897  30.404  1.00  0.00     0.074 A 
ATOM     55  C   UNL A   1      40.580  34.794  30.867  1.00  0.00     0.031 C 
ATOM     56  C   UNL A   1      42.936  34.210  30.367  1.00  0.00     0.037 A 
BRANCH  43  57
ATOM     57  C   UNL A   1      46.548  29.611  28.377  1.00  0.00     0.057 A 
ATOM     58  C   UNL A   1      47.148  29.755  27.119  1.00  0.00     0.134 A 
ATOM     59  C   UNL A   1      47.319  29.036  29.396  1.00  0.00     0.134 A 
ATOM     60  F   UNL A   1      46.466  30.291  26.097  1.00  0.00    -0.206 F 
ATOM     61  C   UNL A   1      48.452  29.317  26.877  1.00  0.00     0.040 A 
ATOM     62  C   UNL A   1      48.634  28.622  29.175  1.00  0.00     0.040 A 
ATOM     63  F   UNL A   1      46.811  28.878  30.628  1.00  0.00    -0.206 F 
ATOM     64  C   UNL A   1      49.202  28.755  27.909  1.00  0.00     0.006 A 
ENDBRANCH  43  57
BRANCH  44  65
ATOM     65  C   UNL A   1      37.168  32.382  30.318  1.00  0.00     0.057 A 
ATOM     66  C   UNL A   1      36.401  33.108  29.401  1.00  0.00     0.134 A 
ATOM     67  C   UNL A   1      36.580  32.078  31.552  1.00  0.00     0.134 A 
ATOM     68  F   UNL A   1      36.914  33.447  28.208  1.00  0.00    -0.206 F 
ATOM     69  C   UNL A   1      35.108  33.537  29.705  1.00  0.00     0.040 A 
ATOM     70  C   UNL A   1      35.277  32.476  31.859  1.00  0.00     0.040 A 
ATOM     71  F   UNL A   1      37.259  31.378  32.472  1.00  0.00    -0.206 F 
ATOM     72  C   UNL A   1      34.540  33.215  30.937  1.00  0.00     0.006 A 
ENDBRANCH  44  65
BRANCH  56  73
ATOM     73  C   UNL A   1      43.336  35.592  30.800  1.00  0.00     0.057 A 
ATOM     74  C   UNL A   1      43.442  36.654  29.894  1.00  0.00     0.134 A 
ATOM     75  C   UNL A   1      43.562  35.876  32.154  1.00  0.00     0.134 A 
ATOM     76  F   UNL A   1      43.250  36.451  28.581  1.00  0.00    -0.206 F 
ATOM     77  C   UNL A   1      43.777  37.943  30.315  1.00  0.00     0.040 A 
ATOM     78  C   UNL A   1      43.868  37.164  32.591  1.00  0.00     0.040 A 
ATOM     79  F   UNL A   1      43.468  34.906  33.078  1.00  0.00    -0.206 F 
ATOM     80  C   UNL A   1      43.981  38.202  31.669  1.00  0.00     0.006 A 
ENDBRANCH  56  73
ENDBRANCH  30  31
ENDBRANCH  22  25
ENDBRANCH  20  21
ENDBRANCH   1  20
TORSDOF 12
ENDMDL
