MODEL 1
REMARK VINA RESULT:     -11.9      0.000      0.000
REMARK SMILES O=C(NCCCNC(=O)c1cccc(N[C@H]2CCCC[C@@H]2O)c1)c1ccc(-c2c3nc(c(-c4c(F)cccc4F)c4ccc([nH]4)c(-c4c(F)cccc4F)c4nc(c(-c5c(F)cccc5F)c5ccc2[nH]5)C=C4)C=C3)cc1
REMARK SMILES IDX 5 1 4 2 3 3 1 4 2 5 24 7 25 8 77 9 26 10 76 11 27 12 28 13
REMARK SMILES IDX 29 14 70 15 30 16 75 17 69 18 71 19 31 20 74 21 68 22 67 23
REMARK SMILES IDX 32 25 58 26 41 27 57 28 42 29 45 30 56 31 72 32 43 33 44 34
REMARK SMILES IDX 55 36 73 37 46 38 33 39 34 40 39 41 35 42 36 43 38 44 40 45
REMARK SMILES IDX 37 46 59 47 60 48 65 49 61 50 62 51 64 52 66 53 63 54 47 55
REMARK SMILES IDX 48 56 53 57 49 58 50 59 52 60 54 61 51 62 6 63 7 64 8 65
REMARK SMILES IDX 9 67 10 68 11 69 23 70 12 71 14 72 13 73 15 74 16 76 17 77
REMARK SMILES IDX 21 78 18 79 20 80 19 81 22 82
REMARK H PARENT 3 6 71 24 45 35 7 66 15 75 22 83
REMARK Flexibility Score: inf
ROOT
ATOM      1  C   UNL A   1      38.189  19.189  25.005  1.00  0.00     0.042 C 
ENDROOT
BRANCH   1   2
ATOM      2  C   UNL A   1      39.335  19.735  25.841  1.00  0.00     0.118 C 
BRANCH   2   3
ATOM      3  N   UNL A   1      40.474  18.828  25.904  1.00  0.00    -0.352 N 
ATOM      4  O   UNL A   1      42.636  18.194  25.913  1.00  0.00    -0.269 OA
ATOM      5  C   UNL A   1      41.812  19.092  26.066  1.00  0.00     0.251 C 
ATOM      6  H   UNL A   1      40.248  17.874  25.814  1.00  0.00     0.163 HD
BRANCH   5   7
ATOM      7  C   UNL A   1      42.264  20.457  26.404  1.00  0.00     0.039 A 
ATOM      8  C   UNL A   1      42.349  20.871  27.734  1.00  0.00     0.014 A 
ATOM      9  C   UNL A   1      42.628  21.333  25.376  1.00  0.00     0.014 A 
ATOM     10  C   UNL A   1      42.624  22.198  28.029  1.00  0.00     0.010 A 
ATOM     11  C   UNL A   1      43.017  22.640  25.682  1.00  0.00     0.010 A 
ATOM     12  C   UNL A   1      42.986  23.093  27.009  1.00  0.00    -0.014 A 
BRANCH  12  13
ATOM     13  C   UNL A   1      43.403  24.469  27.376  1.00  0.00     0.031 A 
ATOM     14  C   UNL A   1      44.836  24.905  27.277  1.00  0.00     0.074 A 
ATOM     15  C   UNL A   1      42.455  25.339  27.777  1.00  0.00     0.049 A 
ATOM     16  N   UNL A   1      45.360  26.076  27.547  1.00  0.00    -0.248 NA
ATOM     17  C   UNL A   1      45.813  23.902  26.827  1.00  0.00     0.031 C 
ATOM     18  C   UNL A   1      41.031  25.023  27.925  1.00  0.00     0.029 A 
ATOM     19  N   UNL A   1      42.536  26.664  28.117  1.00  0.00    -0.354 N 
ATOM     20  C   UNL A   1      46.723  25.946  27.321  1.00  0.00     0.074 A 
ATOM     21  C   UNL A   1      46.953  24.575  26.915  1.00  0.00     0.031 C 
ATOM     22  C   UNL A   1      40.367  26.132  28.277  1.00  0.00     0.029 A 
ATOM     23  C   UNL A   1      41.324  27.217  28.450  1.00  0.00     0.049 A 
ATOM     24  H   UNL A   1      43.381  27.169  28.121  1.00  0.00     0.167 HD
ATOM     25  C   UNL A   1      47.691  26.887  27.437  1.00  0.00     0.037 A 
ATOM     26  C   UNL A   1      41.015  28.457  28.871  1.00  0.00     0.037 A 
ATOM     27  C   UNL A   1      47.450  28.254  27.829  1.00  0.00     0.049 A 
ATOM     28  C   UNL A   1      42.109  29.471  29.012  1.00  0.00     0.074 A 
ATOM     29  C   UNL A   1      48.359  29.293  27.932  1.00  0.00     0.029 A 
ATOM     30  N   UNL A   1      46.213  28.770  28.185  1.00  0.00    -0.354 N 
ATOM     31  N   UNL A   1      43.390  29.343  28.759  1.00  0.00    -0.248 NA
ATOM     32  C   UNL A   1      41.720  30.799  29.500  1.00  0.00     0.031 C 
ATOM     33  C   UNL A   1      47.681  30.423  28.403  1.00  0.00     0.029 A 
ATOM     34  C   UNL A   1      46.340  30.105  28.538  1.00  0.00     0.049 A 
ATOM     35  H   UNL A   1      45.369  28.262  28.188  1.00  0.00     0.167 HD
ATOM     36  C   UNL A   1      43.957  30.577  29.041  1.00  0.00     0.074 A 
ATOM     37  C   UNL A   1      42.877  31.446  29.464  1.00  0.00     0.031 C 
ATOM     38  C   UNL A   1      45.255  30.955  28.960  1.00  0.00     0.037 A 
BRANCH  25  39
ATOM     39  C   UNL A   1      49.108  26.472  27.159  1.00  0.00     0.057 A 
ATOM     40  C   UNL A   1      49.684  26.593  25.888  1.00  0.00     0.134 A 
ATOM     41  C   UNL A   1      49.925  25.995  28.194  1.00  0.00     0.134 A 
ATOM     42  F   UNL A   1      48.956  27.034  24.851  1.00  0.00    -0.206 F 
ATOM     43  C   UNL A   1      51.013  26.237  25.651  1.00  0.00     0.040 A 
ATOM     44  C   UNL A   1      51.262  25.660  27.975  1.00  0.00     0.040 A 
ATOM     45  F   UNL A   1      49.442  25.862  29.438  1.00  0.00    -0.206 F 
ATOM     46  C   UNL A   1      51.809  25.775  26.698  1.00  0.00     0.006 A 
ENDBRANCH  25  39
BRANCH  26  47
ATOM     47  C   UNL A   1      39.607  28.791  29.200  1.00  0.00     0.057 A 
ATOM     48  C   UNL A   1      39.100  28.609  30.490  1.00  0.00     0.134 A 
ATOM     49  C   UNL A   1      38.741  29.318  28.233  1.00  0.00     0.134 A 
ATOM     50  F   UNL A   1      39.876  28.094  31.455  1.00  0.00    -0.206 F 
ATOM     51  C   UNL A   1      37.779  28.928  30.807  1.00  0.00     0.040 A 
ATOM     52  C   UNL A   1      37.427  29.668  28.542  1.00  0.00     0.040 A 
ATOM     53  F   UNL A   1      39.170  29.526  26.980  1.00  0.00    -0.206 F 
ATOM     54  C   UNL A   1      36.941  29.467  29.832  1.00  0.00     0.006 A 
ENDBRANCH  26  47
BRANCH  38  55
ATOM     55  C   UNL A   1      45.572  32.379  29.311  1.00  0.00     0.057 A 
ATOM     56  C   UNL A   1      45.510  33.406  28.361  1.00  0.00     0.134 A 
ATOM     57  C   UNL A   1      45.923  32.728  30.621  1.00  0.00     0.134 A 
ATOM     58  F   UNL A   1      45.196  33.136  27.085  1.00  0.00    -0.206 F 
ATOM     59  C   UNL A   1      45.809  34.728  28.697  1.00  0.00     0.040 A 
ATOM     60  C   UNL A   1      46.198  34.050  30.975  1.00  0.00     0.040 A 
ATOM     61  F   UNL A   1      45.996  31.793  31.580  1.00  0.00    -0.206 F 
ATOM     62  C   UNL A   1      46.148  35.053  30.009  1.00  0.00     0.006 A 
ENDBRANCH  38  55
ENDBRANCH  12  13
ENDBRANCH   5   7
ENDBRANCH   2   3
ENDBRANCH   1   2
BRANCH   1  63
ATOM     63  C   UNL A   1      37.179  20.244  24.587  1.00  0.00     0.118 C 
BRANCH  63  64
ATOM     64  N   UNL A   1      37.379  21.507  25.286  1.00  0.00    -0.352 N 
ATOM     65  C   UNL A   1      36.669  22.679  25.217  1.00  0.00     0.251 C 
ATOM     66  H   UNL A   1      38.145  21.521  25.904  1.00  0.00     0.163 HD
ATOM     67  O   UNL A   1      37.138  23.703  25.704  1.00  0.00    -0.269 OA
BRANCH  65  68
ATOM     68  C   UNL A   1      35.353  22.716  24.550  1.00  0.00     0.041 A 
ATOM     69  C   UNL A   1      35.126  23.661  23.554  1.00  0.00     0.014 A 
ATOM     70  C   UNL A   1      34.332  21.838  24.936  1.00  0.00     0.039 A 
ATOM     71  C   UNL A   1      33.893  23.685  22.916  1.00  0.00     0.003 A 
ATOM     72  C   UNL A   1      33.114  21.788  24.254  1.00  0.00     0.035 A 
ATOM     73  C   UNL A   1      32.905  22.753  23.261  1.00  0.00     0.026 A 
BRANCH  72  74
ATOM     74  N   UNL A   1      32.202  20.823  24.635  1.00  0.00    -0.380 N 
ATOM     75  H   UNL A   1      31.487  21.126  25.241  1.00  0.00     0.160 HD
BRANCH  74  76
ATOM     76  C   UNL A   1      32.160  19.409  24.258  1.00  0.00     0.107 C 
ATOM     77  C   UNL A   1      32.378  19.254  22.748  1.00  0.00     0.027 C 
ATOM     78  C   UNL A   1      33.052  18.519  25.166  1.00  0.00     0.136 C 
ATOM     79  C   UNL A   1      32.528  17.801  22.319  1.00  0.00     0.002 C 
ATOM     80  C   UNL A   1      33.183  17.094  24.631  1.00  0.00     0.034 C 
ATOM     81  C   UNL A   1      33.575  17.080  23.159  1.00  0.00     0.003 C 
BRANCH  78  82
ATOM     82  O   UNL A   1      32.530  18.453  26.502  1.00  0.00    -0.391 OA
ATOM     83  H   UNL A   1      33.249  18.591  27.138  1.00  0.00     0.211 HD
ENDBRANCH  78  82
ENDBRANCH  74  76
ENDBRANCH  72  74
ENDBRANCH  65  68
ENDBRANCH  63  64
ENDBRANCH   1  63
TORSDOF 13
ENDMDL
MODEL 2
REMARK VINA RESULT:     -11.8      1.541      6.504
REMARK SMILES O=C(NCCCNC(=O)c1cccc(N[C@H]2CCCC[C@@H]2O)c1)c1ccc(-c2c3nc(c(-c4c(F)cccc4F)c4ccc([nH]4)c(-c4c(F)cccc4F)c4nc(c(-c5c(F)cccc5F)c5ccc2[nH]5)C=C4)C=C3)cc1
REMARK SMILES IDX 5 1 4 2 3 3 1 4 2 5 24 7 25 8 77 9 26 10 76 11 27 12 28 13
REMARK SMILES IDX 29 14 70 15 30 16 75 17 69 18 71 19 31 20 74 21 68 22 67 23
REMARK SMILES IDX 32 25 58 26 41 27 57 28 42 29 45 30 56 31 72 32 43 33 44 34
REMARK SMILES IDX 55 36 73 37 46 38 33 39 34 40 39 41 35 42 36 43 38 44 40 45
REMARK SMILES IDX 37 46 59 47 60 48 65 49 61 50 62 51 64 52 66 53 63 54 47 55
REMARK SMILES IDX 48 56 53 57 49 58 50 59 52 60 54 61 51 62 6 63 7 64 8 65
REMARK SMILES IDX 9 67 10 68 11 69 23 70 12 71 14 72 13 73 15 74 16 76 17 77
REMARK SMILES IDX 21 78 18 79 20 80 19 81 22 82
REMARK H PARENT 3 6 71 24 45 35 7 66 15 75 22 83
REMARK Flexibility Score: inf
ROOT
ATOM      1  C   UNL A   1      38.703  20.455  25.132  1.00  0.00     0.042 C 
ENDROOT
BRANCH   1   2
ATOM      2  C   UNL A   1      39.361  19.713  26.283  1.00  0.00     0.118 C 
BRANCH   2   3
ATOM      3  N   UNL A   1      40.634  19.105  25.913  1.00  0.00    -0.352 N 
ATOM      4  O   UNL A   1      42.816  19.010  25.363  1.00  0.00    -0.269 OA
ATOM      5  C   UNL A   1      41.897  19.642  25.877  1.00  0.00     0.251 C 
ATOM      6  H   UNL A   1      40.578  18.160  25.644  1.00  0.00     0.163 HD
BRANCH   5   7
ATOM      7  C   UNL A   1      42.149  20.986  26.437  1.00  0.00     0.039 A 
ATOM      8  C   UNL A   1      42.339  22.084  25.597  1.00  0.00     0.014 A 
ATOM      9  C   UNL A   1      42.179  21.156  27.826  1.00  0.00     0.014 A 
ATOM     10  C   UNL A   1      42.728  23.303  26.131  1.00  0.00     0.010 A 
ATOM     11  C   UNL A   1      42.459  22.414  28.365  1.00  0.00     0.010 A 
ATOM     12  C   UNL A   1      42.769  23.490  27.522  1.00  0.00    -0.014 A 
BRANCH  12  13
ATOM     13  C   UNL A   1      43.058  24.844  28.057  1.00  0.00     0.031 A 
ATOM     14  C   UNL A   1      41.961  25.837  28.311  1.00  0.00     0.074 A 
ATOM     15  C   UNL A   1      44.338  25.159  28.339  1.00  0.00     0.049 A 
ATOM     16  N   UNL A   1      42.049  27.055  28.788  1.00  0.00    -0.248 NA
ATOM     17  C   UNL A   1      40.590  25.420  27.983  1.00  0.00     0.031 C 
ATOM     18  C   UNL A   1      45.490  24.279  28.119  1.00  0.00     0.029 A 
ATOM     19  N   UNL A   1      44.886  26.291  28.885  1.00  0.00    -0.354 N 
ATOM     20  C   UNL A   1      40.754  27.555  28.798  1.00  0.00     0.074 A 
ATOM     21  C   UNL A   1      39.899  26.519  28.257  1.00  0.00     0.031 C 
ATOM     22  C   UNL A   1      46.598  24.882  28.569  1.00  0.00     0.029 A 
ATOM     23  C   UNL A   1      46.248  26.216  29.043  1.00  0.00     0.049 A 
ATOM     24  H   UNL A   1      44.355  27.079  29.139  1.00  0.00     0.167 HD
ATOM     25  C   UNL A   1      40.321  28.766  29.226  1.00  0.00     0.037 A 
ATOM     26  C   UNL A   1      47.127  27.127  29.496  1.00  0.00     0.037 A 
ATOM     27  C   UNL A   1      41.178  29.785  29.777  1.00  0.00     0.049 A 
ATOM     28  C   UNL A   1      46.622  28.466  29.942  1.00  0.00     0.074 A 
ATOM     29  C   UNL A   1      40.828  31.027  30.279  1.00  0.00     0.029 A 
ATOM     30  N   UNL A   1      42.557  29.683  29.895  1.00  0.00    -0.354 N 
ATOM     31  N   UNL A   1      45.389  28.911  29.979  1.00  0.00    -0.248 NA
ATOM     32  C   UNL A   1      47.627  29.431  30.403  1.00  0.00     0.031 C 
ATOM     33  C   UNL A   1      41.999  31.696  30.650  1.00  0.00     0.029 A 
ATOM     34  C   UNL A   1      43.074  30.851  30.434  1.00  0.00     0.049 A 
ATOM     35  H   UNL A   1      43.089  28.897  29.634  1.00  0.00     0.167 HD
ATOM     36  C   UNL A   1      45.468  30.201  30.483  1.00  0.00     0.074 A 
ATOM     37  C   UNL A   1      46.867  30.458  30.757  1.00  0.00     0.031 C 
ATOM     38  C   UNL A   1      44.471  31.093  30.697  1.00  0.00     0.037 A 
BRANCH  25  39
ATOM     39  C   UNL A   1      38.855  29.070  29.097  1.00  0.00     0.057 A 
ATOM     40  C   UNL A   1      37.980  28.991  30.188  1.00  0.00     0.134 A 
ATOM     41  C   UNL A   1      38.323  29.502  27.874  1.00  0.00     0.134 A 
ATOM     42  F   UNL A   1      38.420  28.576  31.385  1.00  0.00    -0.206 F 
ATOM     43  C   UNL A   1      36.626  29.311  30.063  1.00  0.00     0.040 A 
ATOM     44  C   UNL A   1      36.978  29.848  27.743  1.00  0.00     0.040 A 
ATOM     45  F   UNL A   1      39.106  29.609  26.790  1.00  0.00    -0.206 F 
ATOM     46  C   UNL A   1      36.123  29.748  28.839  1.00  0.00     0.006 A 
ENDBRANCH  25  39
BRANCH  26  47
ATOM     47  C   UNL A   1      48.574  26.796  29.534  1.00  0.00     0.057 A 
ATOM     48  C   UNL A   1      49.149  26.180  30.650  1.00  0.00     0.134 A 
ATOM     49  C   UNL A   1      49.411  27.073  28.445  1.00  0.00     0.134 A 
ATOM     50  F   UNL A   1      48.402  25.904  31.729  1.00  0.00    -0.206 F 
ATOM     51  C   UNL A   1      50.507  25.861  30.688  1.00  0.00     0.040 A 
ATOM     52  C   UNL A   1      50.763  26.733  28.458  1.00  0.00     0.040 A 
ATOM     53  F   UNL A   1      48.917  27.653  27.341  1.00  0.00    -0.206 F 
ATOM     54  C   UNL A   1      51.316  26.131  29.586  1.00  0.00     0.006 A 
ENDBRANCH  26  47
BRANCH  38  55
ATOM     55  C   UNL A   1      44.859  32.420  31.280  1.00  0.00     0.057 A 
ATOM     56  C   UNL A   1      45.200  33.511  30.471  1.00  0.00     0.134 A 
ATOM     57  C   UNL A   1      44.869  32.613  32.667  1.00  0.00     0.134 A 
ATOM     58  F   UNL A   1      45.226  33.387  29.135  1.00  0.00    -0.206 F 
ATOM     59  C   UNL A   1      45.562  34.741  31.023  1.00  0.00     0.040 A 
ATOM     60  C   UNL A   1      45.203  33.846  33.229  1.00  0.00     0.040 A 
ATOM     61  F   UNL A   1      44.547  31.611  33.498  1.00  0.00    -0.206 F 
ATOM     62  C   UNL A   1      45.557  34.912  32.405  1.00  0.00     0.006 A 
ENDBRANCH  38  55
ENDBRANCH  12  13
ENDBRANCH   5   7
ENDBRANCH   2   3
ENDBRANCH   1   2
BRANCH   1  63
ATOM     63  C   UNL A   1      38.120  21.802  25.526  1.00  0.00     0.118 C 
BRANCH  63  64
ATOM     64  N   UNL A   1      37.578  22.524  24.384  1.00  0.00    -0.352 N 
ATOM     65  C   UNL A   1      36.275  22.771  24.031  1.00  0.00     0.251 C 
ATOM     66  H   UNL A   1      38.251  22.893  23.769  1.00  0.00     0.163 HD
ATOM     67  O   UNL A   1      36.019  23.192  22.907  1.00  0.00    -0.269 OA
BRANCH  65  68
ATOM     68  C   UNL A   1      35.181  22.520  24.990  1.00  0.00     0.041 A 
ATOM     69  C   UNL A   1      34.584  23.602  25.632  1.00  0.00     0.014 A 
ATOM     70  C   UNL A   1      34.771  21.213  25.280  1.00  0.00     0.039 A 
ATOM     71  C   UNL A   1      33.544  23.367  26.521  1.00  0.00     0.003 A 
ATOM     72  C   UNL A   1      33.675  20.957  26.107  1.00  0.00     0.035 A 
ATOM     73  C   UNL A   1      33.095  22.059  26.747  1.00  0.00     0.026 A 
BRANCH  72  74
ATOM     74  N   UNL A   1      33.276  19.644  26.258  1.00  0.00    -0.380 N 
ATOM     75  H   UNL A   1      33.281  19.298  27.180  1.00  0.00     0.160 HD
BRANCH  74  76
ATOM     76  C   UNL A   1      32.847  18.697  25.227  1.00  0.00     0.107 C 
ATOM     77  C   UNL A   1      32.562  19.434  23.913  1.00  0.00     0.027 C 
ATOM     78  C   UNL A   1      33.782  17.461  25.120  1.00  0.00     0.136 C 
ATOM     79  C   UNL A   1      32.288  18.488  22.752  1.00  0.00     0.002 C 
ATOM     80  C   UNL A   1      33.464  16.599  23.900  1.00  0.00     0.034 C 
ATOM     81  C   UNL A   1      33.380  17.433  22.629  1.00  0.00     0.003 C 
BRANCH  78  82
ATOM     82  O   UNL A   1      33.688  16.637  26.292  1.00  0.00    -0.391 OA
ATOM     83  H   UNL A   1      32.756  16.433  26.470  1.00  0.00     0.211 HD
ENDBRANCH  78  82
ENDBRANCH  74  76
ENDBRANCH  72  74
ENDBRANCH  65  68
ENDBRANCH  63  64
ENDBRANCH   1  63
TORSDOF 13
ENDMDL
MODEL 3
REMARK VINA RESULT:     -11.8      6.055     10.865
REMARK SMILES O=C(NCCCNC(=O)c1cccc(N[C@H]2CCCC[C@@H]2O)c1)c1ccc(-c2c3nc(c(-c4c(F)cccc4F)c4ccc([nH]4)c(-c4c(F)cccc4F)c4nc(c(-c5c(F)cccc5F)c5ccc2[nH]5)C=C4)C=C3)cc1
REMARK SMILES IDX 5 1 4 2 3 3 1 4 2 5 24 7 25 8 77 9 26 10 76 11 27 12 28 13
REMARK SMILES IDX 29 14 70 15 30 16 75 17 69 18 71 19 31 20 74 21 68 22 67 23
REMARK SMILES IDX 32 25 58 26 41 27 57 28 42 29 45 30 56 31 72 32 43 33 44 34
REMARK SMILES IDX 55 36 73 37 46 38 33 39 34 40 39 41 35 42 36 43 38 44 40 45
REMARK SMILES IDX 37 46 59 47 60 48 65 49 61 50 62 51 64 52 66 53 63 54 47 55
REMARK SMILES IDX 48 56 53 57 49 58 50 59 52 60 54 61 51 62 6 63 7 64 8 65
REMARK SMILES IDX 9 67 10 68 11 69 23 70 12 71 14 72 13 73 15 74 16 76 17 77
REMARK SMILES IDX 21 78 18 79 20 80 19 81 22 82
REMARK H PARENT 3 6 71 24 45 35 7 66 15 75 22 83
REMARK Flexibility Score: inf
ROOT
ATOM      1  C   UNL A   1      31.351  32.354  26.501  1.00  0.00     0.042 C 
ENDROOT
BRANCH   1   2
ATOM      2  C   UNL A   1      32.662  32.888  27.055  1.00  0.00     0.118 C 
BRANCH   2   3
ATOM      3  N   UNL A   1      32.530  34.215  27.644  1.00  0.00    -0.352 N 
ATOM      4  O   UNL A   1      32.797  35.858  29.163  1.00  0.00    -0.269 OA
ATOM      5  C   UNL A   1      33.182  34.782  28.711  1.00  0.00     0.251 C 
ATOM      6  H   UNL A   1      31.866  34.797  27.208  1.00  0.00     0.163 HD
BRANCH   5   7
ATOM      7  C   UNL A   1      34.332  34.092  29.331  1.00  0.00     0.039 A 
ATOM      8  C   UNL A   1      35.639  34.486  29.041  1.00  0.00     0.014 A 
ATOM      9  C   UNL A   1      34.102  33.047  30.231  1.00  0.00     0.014 A 
ATOM     10  C   UNL A   1      36.707  33.732  29.505  1.00  0.00     0.010 A 
ATOM     11  C   UNL A   1      35.183  32.361  30.790  1.00  0.00     0.010 A 
ATOM     12  C   UNL A   1      36.494  32.676  30.406  1.00  0.00    -0.014 A 
BRANCH  12  13
ATOM     13  C   UNL A   1      37.668  31.979  30.986  1.00  0.00     0.031 A 
ATOM     14  C   UNL A   1      38.144  32.273  32.380  1.00  0.00     0.074 A 
ATOM     15  C   UNL A   1      38.291  31.046  30.239  1.00  0.00     0.049 A 
ATOM     16  N   UNL A   1      39.145  31.740  33.036  1.00  0.00    -0.248 NA
ATOM     17  C   UNL A   1      37.411  33.300  33.136  1.00  0.00     0.031 C 
ATOM     18  C   UNL A   1      37.927  30.687  28.865  1.00  0.00     0.029 A 
ATOM     19  N   UNL A   1      39.345  30.219  30.528  1.00  0.00    -0.354 N 
ATOM     20  C   UNL A   1      39.176  32.378  34.269  1.00  0.00     0.074 A 
ATOM     21  C   UNL A   1      38.109  33.356  34.263  1.00  0.00     0.031 C 
ATOM     22  C   UNL A   1      38.709  29.682  28.450  1.00  0.00     0.029 A 
ATOM     23  C   UNL A   1      39.675  29.375  29.497  1.00  0.00     0.049 A 
ATOM     24  H   UNL A   1      39.818  30.229  31.391  1.00  0.00     0.167 HD
ATOM     25  C   UNL A   1      40.016  32.160  35.310  1.00  0.00     0.037 A 
ATOM     26  C   UNL A   1      40.661  28.466  29.392  1.00  0.00     0.037 A 
ATOM     27  C   UNL A   1      41.067  31.173  35.311  1.00  0.00     0.049 A 
ATOM     28  C   UNL A   1      41.589  28.263  30.551  1.00  0.00     0.074 A 
ATOM     29  C   UNL A   1      41.942  30.848  36.334  1.00  0.00     0.029 A 
ATOM     30  N   UNL A   1      41.389  30.356  34.238  1.00  0.00    -0.354 N 
ATOM     31  N   UNL A   1      41.583  28.849  31.724  1.00  0.00    -0.248 NA
ATOM     32  C   UNL A   1      42.664  27.279  30.373  1.00  0.00     0.031 C 
ATOM     33  C   UNL A   1      42.826  29.873  35.861  1.00  0.00     0.029 A 
ATOM     34  C   UNL A   1      42.468  29.549  34.563  1.00  0.00     0.049 A 
ATOM     35  H   UNL A   1      40.920  30.352  33.371  1.00  0.00     0.167 HD
ATOM     36  C   UNL A   1      42.640  28.294  32.430  1.00  0.00     0.074 A 
ATOM     37  C   UNL A   1      43.252  27.309  31.561  1.00  0.00     0.031 C 
ATOM     38  C   UNL A   1      43.067  28.575  33.684  1.00  0.00     0.037 A 
BRANCH  25  39
ATOM     39  C   UNL A   1      39.852  33.019  36.532  1.00  0.00     0.057 A 
ATOM     40  C   UNL A   1      40.595  34.191  36.723  1.00  0.00     0.134 A 
ATOM     41  C   UNL A   1      38.897  32.696  37.506  1.00  0.00     0.134 A 
ATOM     42  F   UNL A   1      41.532  34.554  35.835  1.00  0.00    -0.206 F 
ATOM     43  C   UNL A   1      40.408  34.999  37.847  1.00  0.00     0.040 A 
ATOM     44  C   UNL A   1      38.683  33.509  38.619  1.00  0.00     0.040 A 
ATOM     45  F   UNL A   1      38.145  31.592  37.382  1.00  0.00    -0.206 F 
ATOM     46  C   UNL A   1      39.444  34.663  38.796  1.00  0.00     0.006 A 
ENDBRANCH  25  39
BRANCH  26  47
ATOM     47  C   UNL A   1      40.820  27.696  28.133  1.00  0.00     0.057 A 
ATOM     48  C   UNL A   1      41.598  28.183  27.078  1.00  0.00     0.134 A 
ATOM     49  C   UNL A   1      40.211  26.446  27.965  1.00  0.00     0.134 A 
ATOM     50  F   UNL A   1      42.193  29.380  27.173  1.00  0.00    -0.206 F 
ATOM     51  C   UNL A   1      41.756  27.460  25.894  1.00  0.00     0.040 A 
ATOM     52  C   UNL A   1      40.384  25.699  26.800  1.00  0.00     0.040 A 
ATOM     53  F   UNL A   1      39.461  25.919  28.945  1.00  0.00    -0.206 F 
ATOM     54  C   UNL A   1      41.154  26.210  25.757  1.00  0.00     0.006 A 
ENDBRANCH  26  47
BRANCH  38  55
ATOM     55  C   UNL A   1      44.236  27.788  34.199  1.00  0.00     0.057 A 
ATOM     56  C   UNL A   1      45.549  28.265  34.102  1.00  0.00     0.134 A 
ATOM     57  C   UNL A   1      44.042  26.546  34.817  1.00  0.00     0.134 A 
ATOM     58  F   UNL A   1      45.804  29.440  33.506  1.00  0.00    -0.206 F 
ATOM     59  C   UNL A   1      46.630  27.524  34.581  1.00  0.00     0.040 A 
ATOM     60  C   UNL A   1      45.113  25.809  35.324  1.00  0.00     0.040 A 
ATOM     61  F   UNL A   1      42.809  26.034  34.947  1.00  0.00    -0.206 F 
ATOM     62  C   UNL A   1      46.412  26.295  35.200  1.00  0.00     0.006 A 
ENDBRANCH  38  55
ENDBRANCH  12  13
ENDBRANCH   5   7
ENDBRANCH   2   3
ENDBRANCH   1   2
BRANCH   1  63
ATOM     63  C   UNL A   1      31.398  30.880  26.134  1.00  0.00     0.118 C 
BRANCH  63  64
ATOM     64  N   UNL A   1      32.634  30.243  26.567  1.00  0.00    -0.352 N 
ATOM     65  C   UNL A   1      32.970  28.914  26.631  1.00  0.00     0.251 C 
ATOM     66  H   UNL A   1      33.339  30.863  26.860  1.00  0.00     0.163 HD
ATOM     67  O   UNL A   1      33.973  28.568  27.247  1.00  0.00    -0.269 OA
BRANCH  65  68
ATOM     68  C   UNL A   1      32.124  27.898  25.973  1.00  0.00     0.041 A 
ATOM     69  C   UNL A   1      31.819  26.726  26.658  1.00  0.00     0.014 A 
ATOM     70  C   UNL A   1      31.664  28.091  24.664  1.00  0.00     0.039 A 
ATOM     71  C   UNL A   1      31.010  25.778  26.046  1.00  0.00     0.003 A 
ATOM     72  C   UNL A   1      30.783  27.191  24.059  1.00  0.00     0.035 A 
ATOM     73  C   UNL A   1      30.496  26.017  24.764  1.00  0.00     0.026 A 
BRANCH  72  74
ATOM     74  N   UNL A   1      30.298  27.511  22.806  1.00  0.00    -0.380 N 
ATOM     75  H   UNL A   1      30.690  27.009  22.055  1.00  0.00     0.160 HD
BRANCH  74  76
ATOM     76  C   UNL A   1      29.277  28.498  22.447  1.00  0.00     0.107 C 
ATOM     77  C   UNL A   1      28.033  28.320  23.325  1.00  0.00     0.027 C 
ATOM     78  C   UNL A   1      29.844  29.941  22.360  1.00  0.00     0.136 C 
ATOM     79  C   UNL A   1      27.008  29.428  23.129  1.00  0.00     0.002 C 
ATOM     80  C   UNL A   1      28.740  30.987  22.212  1.00  0.00     0.034 C 
ATOM     81  C   UNL A   1      27.648  30.804  23.258  1.00  0.00     0.003 C 
BRANCH  78  82
ATOM     82  O   UNL A   1      30.746  30.079  21.251  1.00  0.00    -0.391 OA
ATOM     83  H   UNL A   1      31.433  30.728  21.471  1.00  0.00     0.211 HD
ENDBRANCH  78  82
ENDBRANCH  74  76
ENDBRANCH  72  74
ENDBRANCH  65  68
ENDBRANCH  63  64
ENDBRANCH   1  63
TORSDOF 13
ENDMDL
