MODEL 1
REMARK VINA RESULT:      -9.0      0.000      0.000
REMARK SMILES CCCCCCNC(=O)Oc1cccc(-c2ccc([C@@H](C)C(=O)NCCCNC(=O)c3ccc(-c4c5nc(c(-c6c(F)cccc6F)c6ccc([nH]6)c(-c6c(F)cccc6F)c6nc(c(-c7c(F)cccc7F)c7ccc4[nH]7)C=C6)C=C5)cc3)cc2F)c1
REMARK SMILES IDX 16 1 17 2 18 3 19 4 85 5 86 6 87 7 15 8 11 9 12 10 88 11
REMARK SMILES IDX 13 12 14 13 10 14 8 15 7 16 9 18 6 19 5 20 4 21 3 22 2 23
REMARK SMILES IDX 1 24 20 25 21 26 22 27 23 28 24 29 25 31 26 32 27 33 28 34
REMARK SMILES IDX 29 35 30 37 31 38 32 39 84 40 33 41 83 42 34 43 35 44 36 45
REMARK SMILES IDX 77 46 37 47 82 48 76 49 78 50 38 51 81 52 75 53 74 54 39 56
REMARK SMILES IDX 65 57 48 58 64 59 49 60 52 61 63 62 79 63 50 64 51 65 62 67
REMARK SMILES IDX 80 68 53 69 40 70 41 71 46 72 42 73 43 74 45 75 47 76 44 77
REMARK SMILES IDX 66 78 67 79 72 80 68 81 69 82 71 83 73 84 70 85 54 86 55 87
REMARK SMILES IDX 60 88 56 89 57 90 59 91 61 92 58 93
REMARK H PARENT 7 17 24 30 28 36 78 55 52 66
REMARK Flexibility Score: inf
ROOT
ATOM      1  C   UNL A   1      44.914  27.172  25.873  1.00  0.00     0.018 A 
ATOM      2  C   UNL A   1      46.240  26.708  25.833  1.00  0.00     0.012 A 
ATOM      3  C   UNL A   1      46.559  25.425  25.367  1.00  0.00     0.005 A 
ATOM      4  C   UNL A   1      45.559  24.528  24.981  1.00  0.00    -0.033 A 
ATOM      5  C   UNL A   1      44.237  24.993  24.983  1.00  0.00     0.044 A 
ATOM      6  C   UNL A   1      43.931  26.291  25.400  1.00  0.00     0.131 A 
ATOM      7  F   UNL A   1      42.644  26.671  25.337  1.00  0.00    -0.206 F 
ENDROOT
BRANCH   1   8
ATOM      8  C   UNL A   1      44.591  28.510  26.420  1.00  0.00    -0.012 A 
ATOM      9  C   UNL A   1      45.284  30.692  27.251  1.00  0.00     0.133 A 
ATOM     10  C   UNL A   1      43.962  31.090  27.418  1.00  0.00     0.047 A 
ATOM     11  C   UNL A   1      45.603  29.423  26.766  1.00  0.00     0.056 A 
ATOM     12  C   UNL A   1      42.944  30.207  27.079  1.00  0.00     0.004 A 
ATOM     13  C   UNL A   1      43.256  28.932  26.592  1.00  0.00     0.009 A 
BRANCH   9  14
ATOM     14  O   UNL A   1      46.277  31.571  27.713  1.00  0.00    -0.410 OA
BRANCH  14  15
ATOM     15  C   UNL A   1      47.311  31.908  26.851  1.00  0.00     0.412 C 
ATOM     16  N   UNL A   1      47.159  33.153  26.302  1.00  0.00    -0.321 N 
ATOM     17  H   UNL A   1      47.852  33.441  25.665  1.00  0.00     0.167 HD
ATOM     18  O   UNL A   1      48.272  31.206  26.566  1.00  0.00    -0.224 OA
BRANCH  16  19
ATOM     19  C   UNL A   1      46.084  34.090  26.562  1.00  0.00     0.119 C 
BRANCH  19  20
ATOM     20  C   UNL A   1      44.891  33.864  25.635  1.00  0.00     0.021 C 
BRANCH  20  21
ATOM     21  C   UNL A   1      43.754  34.882  25.788  1.00  0.00     0.002 C 
BRANCH  21  22
ATOM     22  C   UNL A   1      43.163  35.005  27.197  1.00  0.00    -0.000 C 
BRANCH  22  23
ATOM     23  C   UNL A   1      41.929  35.900  27.317  1.00  0.00    -0.003 C 
ATOM     24  C   UNL A   1      42.186  37.182  28.095  1.00  0.00     0.004 C 
ENDBRANCH  22  23
ENDBRANCH  21  22
ENDBRANCH  20  21
ENDBRANCH  19  20
ENDBRANCH  16  19
ENDBRANCH  14  15
ENDBRANCH   9  14
ENDBRANCH   1   8
BRANCH   4  25
ATOM     25  C   UNL A   1      45.838  23.080  24.614  1.00  0.00     0.105 C 
ATOM     26  C   UNL A   1      47.062  22.837  23.734  1.00  0.00     0.023 C 
BRANCH  25  27
ATOM     27  C   UNL A   1      45.701  22.117  25.805  1.00  0.00     0.227 C 
ATOM     28  O   UNL A   1      46.136  22.447  26.915  1.00  0.00    -0.274 OA
ATOM     29  N   UNL A   1      45.123  20.889  25.730  1.00  0.00    -0.356 N 
ATOM     30  H   UNL A   1      45.069  20.418  26.594  1.00  0.00     0.163 HD
BRANCH  29  31
ATOM     31  C   UNL A   1      44.570  20.142  24.618  1.00  0.00     0.117 C 
BRANCH  31  32
ATOM     32  C   UNL A   1      44.116  18.742  25.024  1.00  0.00     0.042 C 
BRANCH  32  33
ATOM     33  C   UNL A   1      43.204  18.714  26.245  1.00  0.00     0.118 C 
BRANCH  33  34
ATOM     34  N   UNL A   1      41.796  18.799  25.882  1.00  0.00    -0.352 N 
ATOM     35  C   UNL A   1      40.854  19.762  26.147  1.00  0.00     0.251 C 
ATOM     36  H   UNL A   1      41.462  18.036  25.357  1.00  0.00     0.163 HD
ATOM     37  O   UNL A   1      39.673  19.513  25.919  1.00  0.00    -0.269 OA
BRANCH  35  38
ATOM     38  C   UNL A   1      41.227  21.085  26.702  1.00  0.00     0.039 A 
ATOM     39  C   UNL A   1      41.151  21.271  28.088  1.00  0.00     0.014 A 
ATOM     40  C   UNL A   1      41.575  22.161  25.883  1.00  0.00     0.014 A 
ATOM     41  C   UNL A   1      41.464  22.512  28.648  1.00  0.00     0.010 A 
ATOM     42  C   UNL A   1      41.967  23.375  26.448  1.00  0.00     0.010 A 
ATOM     43  C   UNL A   1      41.900  23.569  27.835  1.00  0.00    -0.014 A 
BRANCH  43  44
ATOM     44  C   UNL A   1      42.263  24.887  28.416  1.00  0.00     0.031 A 
ATOM     45  C   UNL A   1      41.220  25.960  28.578  1.00  0.00     0.074 A 
ATOM     46  C   UNL A   1      43.544  25.139  28.751  1.00  0.00     0.049 A 
ATOM     47  N   UNL A   1      41.354  27.188  29.013  1.00  0.00    -0.248 NA
ATOM     48  C   UNL A   1      39.847  25.616  28.175  1.00  0.00     0.031 C 
ATOM     49  C   UNL A   1      44.658  24.202  28.595  1.00  0.00     0.029 A 
ATOM     50  N   UNL A   1      44.125  26.263  29.281  1.00  0.00    -0.354 N 
ATOM     51  C   UNL A   1      40.095  27.765  28.916  1.00  0.00     0.074 A 
ATOM     52  C   UNL A   1      39.218  26.772  28.336  1.00  0.00     0.031 C 
ATOM     53  C   UNL A   1      45.784  24.782  29.041  1.00  0.00     0.029 A 
ATOM     54  C   UNL A   1      45.479  26.139  29.482  1.00  0.00     0.049 A 
ATOM     55  H   UNL A   1      43.621  27.080  29.497  1.00  0.00     0.167 HD
ATOM     56  C   UNL A   1      39.698  29.004  29.293  1.00  0.00     0.037 A 
ATOM     57  C   UNL A   1      46.374  27.023  29.961  1.00  0.00     0.037 A 
ATOM     58  C   UNL A   1      40.564  29.981  29.899  1.00  0.00     0.049 A 
ATOM     59  C   UNL A   1      45.907  28.386  30.387  1.00  0.00     0.074 A 
ATOM     60  C   UNL A   1      40.243  31.241  30.378  1.00  0.00     0.029 A 
ATOM     61  N   UNL A   1      41.923  29.809  30.109  1.00  0.00    -0.354 N 
ATOM     62  N   UNL A   1      44.699  28.894  30.352  1.00  0.00    -0.248 NA
ATOM     63  C   UNL A   1      46.926  29.297  30.927  1.00  0.00     0.031 C 
ATOM     64  C   UNL A   1      41.416  31.843  30.844  1.00  0.00     0.029 A 
ATOM     65  C   UNL A   1      42.459  30.944  30.695  1.00  0.00     0.049 A 
ATOM     66  H   UNL A   1      42.432  28.999  29.877  1.00  0.00     0.167 HD
ATOM     67  C   UNL A   1      44.807  30.171  30.887  1.00  0.00     0.074 A 
ATOM     68  C   UNL A   1      46.197  30.354  31.253  1.00  0.00     0.031 C 
ATOM     69  C   UNL A   1      43.843  31.108  31.059  1.00  0.00     0.037 A 
BRANCH  56  70
ATOM     70  C   UNL A   1      38.259  29.370  29.069  1.00  0.00     0.057 A 
ATOM     71  C   UNL A   1      37.319  29.342  30.107  1.00  0.00     0.134 A 
ATOM     72  C   UNL A   1      37.815  29.786  27.807  1.00  0.00     0.134 A 
ATOM     73  F   UNL A   1      37.676  28.943  31.337  1.00  0.00    -0.206 F 
ATOM     74  C   UNL A   1      35.983  29.689  29.894  1.00  0.00     0.040 A 
ATOM     75  C   UNL A   1      36.487  30.160  27.588  1.00  0.00     0.040 A 
ATOM     76  F   UNL A   1      38.663  29.843  26.769  1.00  0.00    -0.206 F 
ATOM     77  C   UNL A   1      35.566  30.106  28.632  1.00  0.00     0.006 A 
ENDBRANCH  56  70
BRANCH  57  78
ATOM     78  C   UNL A   1      47.801  26.636  30.091  1.00  0.00     0.057 A 
ATOM     79  C   UNL A   1      48.732  26.974  29.101  1.00  0.00     0.134 A 
ATOM     80  C   UNL A   1      48.269  25.924  31.200  1.00  0.00     0.134 A 
ATOM     81  F   UNL A   1      48.339  27.640  28.005  1.00  0.00    -0.206 F 
ATOM     82  C   UNL A   1      50.073  26.599  29.200  1.00  0.00     0.040 A 
ATOM     83  C   UNL A   1      49.613  25.564  31.325  1.00  0.00     0.040 A 
ATOM     84  F   UNL A   1      47.428  25.576  32.186  1.00  0.00    -0.206 F 
ATOM     85  C   UNL A   1      50.517  25.897  30.319  1.00  0.00     0.006 A 
ENDBRANCH  57  78
BRANCH  69  86
ATOM     86  C   UNL A   1      44.252  32.400  31.700  1.00  0.00     0.057 A 
ATOM     87  C   UNL A   1      44.612  33.520  30.940  1.00  0.00     0.134 A 
ATOM     88  C   UNL A   1      44.254  32.536  33.094  1.00  0.00     0.134 A 
ATOM     89  F   UNL A   1      44.643  33.452  29.601  1.00  0.00    -0.206 F 
ATOM     90  C   UNL A   1      44.981  34.723  31.545  1.00  0.00     0.040 A 
ATOM     91  C   UNL A   1      44.596  33.740  33.710  1.00  0.00     0.040 A 
ATOM     92  F   UNL A   1      43.910  31.504  33.879  1.00  0.00    -0.206 F 
ATOM     93  C   UNL A   1      44.967  34.836  32.935  1.00  0.00     0.006 A 
ENDBRANCH  69  86
ENDBRANCH  43  44
ENDBRANCH  35  38
ENDBRANCH  33  34
ENDBRANCH  32  33
ENDBRANCH  31  32
ENDBRANCH  29  31
ENDBRANCH  25  27
ENDBRANCH   4  25
TORSDOF 19
ENDMDL
MODEL 2
REMARK VINA RESULT:      -8.7      4.485      7.776
REMARK SMILES CCCCCCNC(=O)Oc1cccc(-c2ccc([C@@H](C)C(=O)NCCCNC(=O)c3ccc(-c4c5nc(c(-c6c(F)cccc6F)c6ccc([nH]6)c(-c6c(F)cccc6F)c6nc(c(-c7c(F)cccc7F)c7ccc4[nH]7)C=C6)C=C5)cc3)cc2F)c1
REMARK SMILES IDX 16 1 17 2 18 3 19 4 85 5 86 6 87 7 15 8 11 9 12 10 88 11
REMARK SMILES IDX 13 12 14 13 10 14 8 15 7 16 9 18 6 19 5 20 4 21 3 22 2 23
REMARK SMILES IDX 1 24 20 25 21 26 22 27 23 28 24 29 25 31 26 32 27 33 28 34
REMARK SMILES IDX 29 35 30 37 31 38 32 39 84 40 33 41 83 42 34 43 35 44 36 45
REMARK SMILES IDX 77 46 37 47 82 48 76 49 78 50 38 51 81 52 75 53 74 54 39 56
REMARK SMILES IDX 65 57 48 58 64 59 49 60 52 61 63 62 79 63 50 64 51 65 62 67
REMARK SMILES IDX 80 68 53 69 40 70 41 71 46 72 42 73 43 74 45 75 47 76 44 77
REMARK SMILES IDX 66 78 67 79 72 80 68 81 69 82 71 83 73 84 70 85 54 86 55 87
REMARK SMILES IDX 60 88 56 89 57 90 59 91 61 92 58 93
REMARK H PARENT 7 17 24 30 28 36 78 55 52 66
REMARK Flexibility Score: inf
ROOT
ATOM      1  C   UNL A   1      33.463  28.342  26.681  1.00  0.00     0.018 A 
ATOM      2  C   UNL A   1      33.938  27.416  25.737  1.00  0.00     0.012 A 
ATOM      3  C   UNL A   1      33.133  26.373  25.257  1.00  0.00     0.005 A 
ATOM      4  C   UNL A   1      31.841  26.174  25.749  1.00  0.00    -0.033 A 
ATOM      5  C   UNL A   1      31.345  27.112  26.665  1.00  0.00     0.044 A 
ATOM      6  C   UNL A   1      32.135  28.179  27.101  1.00  0.00     0.131 A 
ATOM      7  F   UNL A   1      31.573  29.055  27.950  1.00  0.00    -0.206 F 
ENDROOT
BRANCH   1   8
ATOM      8  C   UNL A   1      34.346  29.403  27.218  1.00  0.00    -0.012 A 
ATOM      9  C   UNL A   1      34.787  31.742  27.734  1.00  0.00     0.133 A 
ATOM     10  C   UNL A   1      36.019  31.425  28.296  1.00  0.00     0.047 A 
ATOM     11  C   UNL A   1      33.960  30.756  27.196  1.00  0.00     0.056 A 
ATOM     12  C   UNL A   1      36.420  30.095  28.334  1.00  0.00     0.004 A 
ATOM     13  C   UNL A   1      35.596  29.099  27.796  1.00  0.00     0.009 A 
BRANCH   9  14
ATOM     14  O   UNL A   1      34.475  33.106  27.614  1.00  0.00    -0.410 OA
BRANCH  14  15
ATOM     15  C   UNL A   1      33.278  33.557  28.153  1.00  0.00     0.412 C 
ATOM     16  N   UNL A   1      33.430  34.110  29.396  1.00  0.00    -0.321 N 
ATOM     17  H   UNL A   1      32.611  34.430  29.838  1.00  0.00     0.167 HD
ATOM     18  O   UNL A   1      32.175  33.483  27.626  1.00  0.00    -0.224 OA
BRANCH  16  19
ATOM     19  C   UNL A   1      34.670  34.274  30.126  1.00  0.00     0.119 C 
BRANCH  19  20
ATOM     20  C   UNL A   1      34.534  33.851  31.588  1.00  0.00     0.021 C 
BRANCH  20  21
ATOM     21  C   UNL A   1      35.040  34.879  32.607  1.00  0.00     0.002 C 
BRANCH  21  22
ATOM     22  C   UNL A   1      33.973  35.816  33.185  1.00  0.00    -0.000 C 
BRANCH  22  23
ATOM     23  C   UNL A   1      34.031  37.263  32.693  1.00  0.00    -0.003 C 
ATOM     24  C   UNL A   1      33.279  37.486  31.389  1.00  0.00     0.004 C 
ENDBRANCH  22  23
ENDBRANCH  21  22
ENDBRANCH  20  21
ENDBRANCH  19  20
ENDBRANCH  16  19
ENDBRANCH  14  15
ENDBRANCH   9  14
ENDBRANCH   1   8
BRANCH   4  25
ATOM     25  C   UNL A   1      30.985  24.974  25.377  1.00  0.00     0.105 C 
ATOM     26  C   UNL A   1      31.086  24.505  23.927  1.00  0.00     0.023 C 
BRANCH  25  27
ATOM     27  C   UNL A   1      31.035  23.848  26.422  1.00  0.00     0.227 C 
ATOM     28  O   UNL A   1      30.124  23.738  27.251  1.00  0.00    -0.274 OA
ATOM     29  N   UNL A   1      32.039  22.934  26.511  1.00  0.00    -0.356 N 
ATOM     30  H   UNL A   1      31.895  22.248  27.202  1.00  0.00     0.163 HD
BRANCH  29  31
ATOM     31  C   UNL A   1      33.279  22.780  25.778  1.00  0.00     0.117 C 
BRANCH  31  32
ATOM     32  C   UNL A   1      34.464  22.480  26.693  1.00  0.00     0.042 C 
BRANCH  32  33
ATOM     33  C   UNL A   1      35.813  22.905  26.125  1.00  0.00     0.118 C 
BRANCH  33  34
ATOM     34  N   UNL A   1      36.683  21.767  25.863  1.00  0.00    -0.352 N 
ATOM     35  C   UNL A   1      38.051  21.667  25.836  1.00  0.00     0.251 C 
ATOM     36  H   UNL A   1      36.208  20.925  25.673  1.00  0.00     0.163 HD
ATOM     37  O   UNL A   1      38.561  20.646  25.380  1.00  0.00    -0.269 OA
BRANCH  35  38
ATOM     38  C   UNL A   1      38.923  22.756  26.337  1.00  0.00     0.039 A 
ATOM     39  C   UNL A   1      38.660  24.066  25.918  1.00  0.00     0.014 A 
ATOM     40  C   UNL A   1      40.033  22.504  27.147  1.00  0.00     0.014 A 
ATOM     41  C   UNL A   1      39.476  25.117  26.343  1.00  0.00     0.010 A 
ATOM     42  C   UNL A   1      40.798  23.562  27.637  1.00  0.00     0.010 A 
ATOM     43  C   UNL A   1      40.539  24.878  27.228  1.00  0.00    -0.014 A 
BRANCH  43  44
ATOM     44  C   UNL A   1      41.401  25.987  27.712  1.00  0.00     0.031 A 
ATOM     45  C   UNL A   1      40.857  27.009  28.673  1.00  0.00     0.074 A 
ATOM     46  C   UNL A   1      42.661  26.104  27.247  1.00  0.00     0.049 A 
ATOM     47  N   UNL A   1      41.437  28.075  29.165  1.00  0.00    -0.248 NA
ATOM     48  C   UNL A   1      39.468  26.823  29.122  1.00  0.00     0.031 C 
ATOM     49  C   UNL A   1      43.290  25.209  26.275  1.00  0.00     0.029 A 
ATOM     50  N   UNL A   1      43.633  27.031  27.524  1.00  0.00    -0.354 N 
ATOM     51  C   UNL A   1      40.481  28.694  29.961  1.00  0.00     0.074 A 
ATOM     52  C   UNL A   1      39.269  27.914  29.849  1.00  0.00     0.031 C 
ATOM     53  C   UNL A   1      44.550  25.618  26.053  1.00  0.00     0.029 A 
ATOM     54  C   UNL A   1      44.806  26.820  26.839  1.00  0.00     0.049 A 
ATOM     55  H   UNL A   1      43.503  27.778  28.153  1.00  0.00     0.167 HD
ATOM     56  C   UNL A   1      40.606  29.801  30.730  1.00  0.00     0.037 A 
ATOM     57  C   UNL A   1      45.955  27.520  26.841  1.00  0.00     0.037 A 
ATOM     58  C   UNL A   1      41.822  30.560  30.865  1.00  0.00     0.049 A 
ATOM     59  C   UNL A   1      46.074  28.737  27.714  1.00  0.00     0.074 A 
ATOM     60  C   UNL A   1      42.070  31.658  31.672  1.00  0.00     0.029 A 
ATOM     61  N   UNL A   1      42.996  30.298  30.175  1.00  0.00    -0.354 N 
ATOM     62  N   UNL A   1      45.183  29.271  28.514  1.00  0.00    -0.248 NA
ATOM     63  C   UNL A   1      47.363  29.444  27.693  1.00  0.00     0.031 C 
ATOM     64  C   UNL A   1      43.383  32.083  31.442  1.00  0.00     0.029 A 
ATOM     65  C   UNL A   1      43.966  31.224  30.524  1.00  0.00     0.049 A 
ATOM     66  H   UNL A   1      43.121  29.563  29.532  1.00  0.00     0.167 HD
ATOM     67  C   UNL A   1      45.809  30.359  29.108  1.00  0.00     0.074 A 
ATOM     68  C   UNL A   1      47.160  30.399  28.589  1.00  0.00     0.031 C 
ATOM     69  C   UNL A   1      45.309  31.246  30.003  1.00  0.00     0.037 A 
BRANCH  56  70
ATOM     70  C   UNL A   1      39.396  30.255  31.494  1.00  0.00     0.057 A 
ATOM     71  C   UNL A   1      39.051  29.696  32.732  1.00  0.00     0.134 A 
ATOM     72  C   UNL A   1      38.585  31.285  31.003  1.00  0.00     0.134 A 
ATOM     73  F   UNL A   1      39.780  28.698  33.254  1.00  0.00    -0.206 F 
ATOM     74  C   UNL A   1      37.928  30.126  33.441  1.00  0.00     0.040 A 
ATOM     75  C   UNL A   1      37.473  31.742  31.716  1.00  0.00     0.040 A 
ATOM     76  F   UNL A   1      38.861  31.871  29.828  1.00  0.00    -0.206 F 
ATOM     77  C   UNL A   1      37.139  31.157  32.935  1.00  0.00     0.006 A 
ENDBRANCH  56  70
BRANCH  57  78
ATOM     78  C   UNL A   1      47.098  27.072  26.006  1.00  0.00     0.057 A 
ATOM     79  C   UNL A   1      48.102  26.254  26.539  1.00  0.00     0.134 A 
ATOM     80  C   UNL A   1      47.216  27.447  24.663  1.00  0.00     0.134 A 
ATOM     81  F   UNL A   1      48.053  25.878  27.825  1.00  0.00    -0.206 F 
ATOM     82  C   UNL A   1      49.193  25.842  25.772  1.00  0.00     0.040 A 
ATOM     83  C   UNL A   1      48.289  27.021  23.877  1.00  0.00     0.040 A 
ATOM     84  F   UNL A   1      46.283  28.223  24.093  1.00  0.00    -0.206 F 
ATOM     85  C   UNL A   1      49.284  26.221  24.434  1.00  0.00     0.006 A 
ENDBRANCH  57  78
BRANCH  69  86
ATOM     86  C   UNL A   1      46.238  32.312  30.502  1.00  0.00     0.057 A 
ATOM     87  C   UNL A   1      47.058  32.114  31.619  1.00  0.00     0.134 A 
ATOM     88  C   UNL A   1      46.335  33.541  29.836  1.00  0.00     0.134 A 
ATOM     89  F   UNL A   1      47.003  30.965  32.309  1.00  0.00    -0.206 F 
ATOM     90  C   UNL A   1      47.927  33.109  32.071  1.00  0.00     0.040 A 
ATOM     91  C   UNL A   1      47.218  34.533  30.262  1.00  0.00     0.040 A 
ATOM     92  F   UNL A   1      45.583  33.791  28.754  1.00  0.00    -0.206 F 
ATOM     93  C   UNL A   1      48.013  34.321  31.387  1.00  0.00     0.006 A 
ENDBRANCH  69  86
ENDBRANCH  43  44
ENDBRANCH  35  38
ENDBRANCH  33  34
ENDBRANCH  32  33
ENDBRANCH  31  32
ENDBRANCH  29  31
ENDBRANCH  25  27
ENDBRANCH   4  25
TORSDOF 19
ENDMDL
MODEL 3
REMARK VINA RESULT:      -8.3      3.935      7.435
REMARK SMILES CCCCCCNC(=O)Oc1cccc(-c2ccc([C@@H](C)C(=O)NCCCNC(=O)c3ccc(-c4c5nc(c(-c6c(F)cccc6F)c6ccc([nH]6)c(-c6c(F)cccc6F)c6nc(c(-c7c(F)cccc7F)c7ccc4[nH]7)C=C6)C=C5)cc3)cc2F)c1
REMARK SMILES IDX 16 1 17 2 18 3 19 4 85 5 86 6 87 7 15 8 11 9 12 10 88 11
REMARK SMILES IDX 13 12 14 13 10 14 8 15 7 16 9 18 6 19 5 20 4 21 3 22 2 23
REMARK SMILES IDX 1 24 20 25 21 26 22 27 23 28 24 29 25 31 26 32 27 33 28 34
REMARK SMILES IDX 29 35 30 37 31 38 32 39 84 40 33 41 83 42 34 43 35 44 36 45
REMARK SMILES IDX 77 46 37 47 82 48 76 49 78 50 38 51 81 52 75 53 74 54 39 56
REMARK SMILES IDX 65 57 48 58 64 59 49 60 52 61 63 62 79 63 50 64 51 65 62 67
REMARK SMILES IDX 80 68 53 69 40 70 41 71 46 72 42 73 43 74 45 75 47 76 44 77
REMARK SMILES IDX 66 78 67 79 72 80 68 81 69 82 71 83 73 84 70 85 54 86 55 87
REMARK SMILES IDX 60 88 56 89 57 90 59 91 61 92 58 93
REMARK H PARENT 7 17 24 30 28 36 78 55 52 66
REMARK Flexibility Score: inf
ROOT
ATOM      1  C   UNL A   1      39.348  28.674  28.767  1.00  0.00     0.018 A 
ATOM      2  C   UNL A   1      39.071  27.655  29.694  1.00  0.00     0.012 A 
ATOM      3  C   UNL A   1      39.389  26.315  29.436  1.00  0.00     0.005 A 
ATOM      4  C   UNL A   1      39.939  25.928  28.211  1.00  0.00    -0.033 A 
ATOM      5  C   UNL A   1      40.252  26.940  27.292  1.00  0.00     0.044 A 
ATOM      6  C   UNL A   1      39.980  28.280  27.578  1.00  0.00     0.131 A 
ATOM      7  F   UNL A   1      40.344  29.192  26.663  1.00  0.00    -0.206 F 
ENDROOT
BRANCH   1   8
ATOM      8  C   UNL A   1      38.955  30.077  29.035  1.00  0.00    -0.012 A 
ATOM      9  C   UNL A   1      37.403  31.936  28.776  1.00  0.00     0.133 A 
ATOM     10  C   UNL A   1      38.181  32.748  29.595  1.00  0.00     0.047 A 
ATOM     11  C   UNL A   1      37.779  30.623  28.490  1.00  0.00     0.056 A 
ATOM     12  C   UNL A   1      39.345  32.229  30.148  1.00  0.00     0.004 A 
ATOM     13  C   UNL A   1      39.729  30.913  29.866  1.00  0.00     0.009 A 
BRANCH   9  14
ATOM     14  O   UNL A   1      36.299  32.537  28.149  1.00  0.00    -0.410 OA
BRANCH  14  15
ATOM     15  C   UNL A   1      35.039  32.005  28.385  1.00  0.00     0.412 C 
ATOM     16  N   UNL A   1      34.276  32.794  29.204  1.00  0.00    -0.321 N 
ATOM     17  H   UNL A   1      33.377  32.459  29.425  1.00  0.00     0.167 HD
ATOM     18  O   UNL A   1      34.607  30.948  27.947  1.00  0.00    -0.224 OA
BRANCH  16  19
ATOM     19  C   UNL A   1      34.655  34.069  29.779  1.00  0.00     0.119 C 
BRANCH  19  20
ATOM     20  C   UNL A   1      35.245  33.914  31.179  1.00  0.00     0.021 C 
BRANCH  20  21
ATOM     21  C   UNL A   1      34.834  32.632  31.914  1.00  0.00     0.002 C 
BRANCH  21  22
ATOM     22  C   UNL A   1      35.984  31.818  32.517  1.00  0.00    -0.000 C 
BRANCH  22  23
ATOM     23  C   UNL A   1      36.279  30.485  31.828  1.00  0.00    -0.003 C 
ATOM     24  C   UNL A   1      37.404  29.701  32.487  1.00  0.00     0.004 C 
ENDBRANCH  22  23
ENDBRANCH  21  22
ENDBRANCH  20  21
ENDBRANCH  19  20
ENDBRANCH  16  19
ENDBRANCH  14  15
ENDBRANCH   9  14
ENDBRANCH   1   8
BRANCH   4  25
ATOM     25  C   UNL A   1      40.160  24.475  27.821  1.00  0.00     0.105 C 
ATOM     26  C   UNL A   1      39.539  24.037  26.496  1.00  0.00     0.023 C 
BRANCH  25  27
ATOM     27  C   UNL A   1      41.607  24.005  28.040  1.00  0.00     0.227 C 
ATOM     28  O   UNL A   1      41.955  23.583  29.149  1.00  0.00    -0.274 OA
ATOM     29  N   UNL A   1      42.567  24.019  27.076  1.00  0.00    -0.356 N 
ATOM     30  H   UNL A   1      43.429  23.636  27.364  1.00  0.00     0.163 HD
BRANCH  29  31
ATOM     31  C   UNL A   1      42.562  24.490  25.706  1.00  0.00     0.117 C 
BRANCH  31  32
ATOM     32  C   UNL A   1      43.725  23.929  24.892  1.00  0.00     0.042 C 
BRANCH  32  33
ATOM     33  C   UNL A   1      45.085  24.081  25.563  1.00  0.00     0.118 C 
BRANCH  33  34
ATOM     34  N   UNL A   1      45.948  25.014  24.852  1.00  0.00    -0.352 N 
ATOM     35  C   UNL A   1      46.132  26.366  25.005  1.00  0.00     0.251 C 
ATOM     36  H   UNL A   1      46.493  24.606  24.141  1.00  0.00     0.163 HD
ATOM     37  O   UNL A   1      46.758  26.979  24.143  1.00  0.00    -0.269 OA
BRANCH  35  38
ATOM     38  C   UNL A   1      45.592  27.099  26.174  1.00  0.00     0.039 A 
ATOM     39  C   UNL A   1      44.226  27.407  26.194  1.00  0.00     0.014 A 
ATOM     40  C   UNL A   1      46.413  27.552  27.209  1.00  0.00     0.014 A 
ATOM     41  C   UNL A   1      43.683  28.124  27.264  1.00  0.00     0.010 A 
ATOM     42  C   UNL A   1      45.858  28.194  28.315  1.00  0.00     0.010 A 
ATOM     43  C   UNL A   1      44.490  28.503  28.348  1.00  0.00    -0.014 A 
BRANCH  43  44
ATOM     44  C   UNL A   1      43.925  29.242  29.506  1.00  0.00     0.031 A 
ATOM     45  C   UNL A   1      43.664  30.721  29.410  1.00  0.00     0.074 A 
ATOM     46  C   UNL A   1      43.695  28.592  30.664  1.00  0.00     0.049 A 
ATOM     47  N   UNL A   1      43.226  31.546  30.328  1.00  0.00    -0.248 NA
ATOM     48  C   UNL A   1      43.956  31.363  28.119  1.00  0.00     0.031 C 
ATOM     49  C   UNL A   1      43.954  27.171  30.902  1.00  0.00     0.029 A 
ATOM     50  N   UNL A   1      43.201  29.045  31.861  1.00  0.00    -0.354 N 
ATOM     51  C   UNL A   1      43.212  32.802  29.734  1.00  0.00     0.074 A 
ATOM     52  C   UNL A   1      43.728  32.640  28.392  1.00  0.00     0.031 C 
ATOM     53  C   UNL A   1      43.596  26.864  32.159  1.00  0.00     0.029 A 
ATOM     54  C   UNL A   1      43.115  28.070  32.825  1.00  0.00     0.049 A 
ATOM     55  H   UNL A   1      42.933  29.980  32.015  1.00  0.00     0.167 HD
ATOM     56  C   UNL A   1      42.788  33.980  30.250  1.00  0.00     0.037 A 
ATOM     57  C   UNL A   1      42.701  28.142  34.103  1.00  0.00     0.037 A 
ATOM     58  C   UNL A   1      42.244  34.134  31.573  1.00  0.00     0.049 A 
ATOM     59  C   UNL A   1      42.221  29.457  34.649  1.00  0.00     0.074 A 
ATOM     60  C   UNL A   1      41.725  35.273  32.166  1.00  0.00     0.029 A 
ATOM     61  N   UNL A   1      42.149  33.117  32.511  1.00  0.00    -0.354 N 
ATOM     62  N   UNL A   1      42.149  30.623  34.053  1.00  0.00    -0.248 NA
ATOM     63  C   UNL A   1      41.756  29.466  36.044  1.00  0.00     0.031 C 
ATOM     64  C   UNL A   1      41.350  34.952  33.475  1.00  0.00     0.029 A 
ATOM     65  C   UNL A   1      41.596  33.605  33.683  1.00  0.00     0.049 A 
ATOM     66  H   UNL A   1      42.433  32.186  32.365  1.00  0.00     0.167 HD
ATOM     67  C   UNL A   1      41.609  31.496  34.988  1.00  0.00     0.074 A 
ATOM     68  C   UNL A   1      41.358  30.722  36.186  1.00  0.00     0.031 C 
ATOM     69  C   UNL A   1      41.346  32.820  34.865  1.00  0.00     0.037 A 
BRANCH  56  70
ATOM     70  C   UNL A   1      42.887  35.196  29.375  1.00  0.00     0.057 A 
ATOM     71  C   UNL A   1      41.798  35.657  28.624  1.00  0.00     0.134 A 
ATOM     72  C   UNL A   1      44.076  35.934  29.309  1.00  0.00     0.134 A 
ATOM     73  F   UNL A   1      40.634  34.991  28.635  1.00  0.00    -0.206 F 
ATOM     74  C   UNL A   1      41.895  36.793  27.816  1.00  0.00     0.040 A 
ATOM     75  C   UNL A   1      44.177  37.086  28.525  1.00  0.00     0.040 A 
ATOM     76  F   UNL A   1      45.156  35.554  30.008  1.00  0.00    -0.206 F 
ATOM     77  C   UNL A   1      43.086  37.514  27.772  1.00  0.00     0.006 A 
ENDBRANCH  56  70
BRANCH  57  78
ATOM     78  C   UNL A   1      42.695  26.923  34.951  1.00  0.00     0.057 A 
ATOM     79  C   UNL A   1      41.550  26.123  35.054  1.00  0.00     0.134 A 
ATOM     80  C   UNL A   1      43.825  26.529  35.675  1.00  0.00     0.134 A 
ATOM     81  F   UNL A   1      40.430  26.461  34.399  1.00  0.00    -0.206 F 
ATOM     82  C   UNL A   1      41.523  24.986  35.863  1.00  0.00     0.040 A 
ATOM     83  C   UNL A   1      43.820  25.380  36.469  1.00  0.00     0.040 A 
ATOM     84  F   UNL A   1      44.954  27.249  35.613  1.00  0.00    -0.206 F 
ATOM     85  C   UNL A   1      42.664  24.608  36.568  1.00  0.00     0.006 A 
ENDBRANCH  57  78
BRANCH  69  86
ATOM     86  C   UNL A   1      40.725  33.506  36.045  1.00  0.00     0.057 A 
ATOM     87  C   UNL A   1      39.337  33.556  36.225  1.00  0.00     0.134 A 
ATOM     88  C   UNL A   1      41.528  34.096  37.030  1.00  0.00     0.134 A 
ATOM     89  F   UNL A   1      38.513  33.022  35.311  1.00  0.00    -0.206 F 
ATOM     90  C   UNL A   1      38.768  34.189  37.332  1.00  0.00     0.040 A 
ATOM     91  C   UNL A   1      40.972  34.709  38.154  1.00  0.00     0.040 A 
ATOM     92  F   UNL A   1      42.864  34.075  36.922  1.00  0.00    -0.206 F 
ATOM     93  C   UNL A   1      39.588  34.762  38.303  1.00  0.00     0.006 A 
ENDBRANCH  69  86
ENDBRANCH  43  44
ENDBRANCH  35  38
ENDBRANCH  33  34
ENDBRANCH  32  33
ENDBRANCH  31  32
ENDBRANCH  29  31
ENDBRANCH  25  27
ENDBRANCH   4  25
TORSDOF 19
ENDMDL
