MODEL 1
REMARK VINA RESULT:     -12.7      0.000      0.000
REMARK SMILES O=C(NCCCNC(=O)[C@@H](Cc1cccc(F)c1)[C@H]1CCOC2(CCC2)C1)c1ccc(-c2c3nc(c(-c4c(F)cccc4F)c4ccc([nH]4)c(-c4c(F)cccc4F)c4nc(c(-c5c(F)cccc5F)c5ccc2[nH]5)C=C4)C=C3)cc1
REMARK SMILES IDX 5 1 4 2 3 3 1 4 2 5 28 7 29 8 81 9 30 10 80 11 31 12 32 13
REMARK SMILES IDX 33 14 74 15 34 16 79 17 73 18 75 19 35 20 78 21 72 22 71 23
REMARK SMILES IDX 36 25 62 26 45 27 61 28 46 29 49 30 60 31 76 32 47 33 48 34
REMARK SMILES IDX 59 36 77 37 50 38 37 39 38 40 43 41 39 42 40 43 42 44 44 45
REMARK SMILES IDX 41 46 63 47 64 48 69 49 65 50 66 51 68 52 70 53 67 54 51 55
REMARK SMILES IDX 52 56 57 57 53 58 54 59 56 60 58 61 55 62 6 63 7 64 8 65
REMARK SMILES IDX 9 67 10 68 11 69 12 70 13 71 18 72 14 73 16 74 15 75 17 76
REMARK SMILES IDX 19 77 20 78 27 79 21 80 23 81 22 82 24 83 26 84 25 85
REMARK H PARENT 3 6 75 24 49 35 7 66
REMARK Flexibility Score: inf
ROOT
ATOM      1  C   UNL A   1      37.539  20.151  24.962  1.00  0.00     0.042 C 
ENDROOT
BRANCH   1   2
ATOM      2  C   UNL A   1      38.782  20.618  25.701  1.00  0.00     0.118 C 
BRANCH   2   3
ATOM      3  N   UNL A   1      39.770  19.562  25.810  1.00  0.00    -0.352 N 
ATOM      4  O   UNL A   1      41.754  18.547  25.831  1.00  0.00    -0.269 OA
ATOM      5  C   UNL A   1      41.124  19.590  26.032  1.00  0.00     0.251 C 
ATOM      6  H   UNL A   1      39.400  18.656  25.706  1.00  0.00     0.163 HD
BRANCH   5   7
ATOM      7  C   UNL A   1      41.868  20.794  26.499  1.00  0.00     0.039 A 
ATOM      8  C   UNL A   1      42.337  21.788  25.641  1.00  0.00     0.014 A 
ATOM      9  C   UNL A   1      41.949  21.019  27.884  1.00  0.00     0.014 A 
ATOM     10  C   UNL A   1      42.914  22.957  26.145  1.00  0.00     0.010 A 
ATOM     11  C   UNL A   1      42.433  22.232  28.392  1.00  0.00     0.010 A 
ATOM     12  C   UNL A   1      42.899  23.225  27.523  1.00  0.00    -0.014 A 
BRANCH  12  13
ATOM     13  C   UNL A   1      43.178  24.608  27.998  1.00  0.00     0.031 A 
ATOM     14  C   UNL A   1      42.081  25.602  28.242  1.00  0.00     0.074 A 
ATOM     15  C   UNL A   1      44.466  24.965  28.196  1.00  0.00     0.049 A 
ATOM     16  N   UNL A   1      42.181  26.846  28.640  1.00  0.00    -0.248 NA
ATOM     17  C   UNL A   1      40.701  25.156  28.006  1.00  0.00     0.031 C 
ATOM     18  C   UNL A   1      45.624  24.099  27.956  1.00  0.00     0.029 A 
ATOM     19  N   UNL A   1      45.022  26.135  28.649  1.00  0.00    -0.354 N 
ATOM     20  C   UNL A   1      40.883  27.338  28.687  1.00  0.00     0.074 A 
ATOM     21  C   UNL A   1      40.012  26.262  28.265  1.00  0.00     0.031 C 
ATOM     22  C   UNL A   1      46.743  24.748  28.306  1.00  0.00     0.029 A 
ATOM     23  C   UNL A   1      46.395  26.099  28.726  1.00  0.00     0.049 A 
ATOM     24  H   UNL A   1      44.489  26.926  28.895  1.00  0.00     0.167 HD
ATOM     25  C   UNL A   1      40.467  28.571  29.055  1.00  0.00     0.037 A 
ATOM     26  C   UNL A   1      47.285  27.050  29.069  1.00  0.00     0.037 A 
ATOM     27  C   UNL A   1      41.336  29.630  29.501  1.00  0.00     0.049 A 
ATOM     28  C   UNL A   1      46.791  28.412  29.446  1.00  0.00     0.074 A 
ATOM     29  C   UNL A   1      40.987  30.885  29.969  1.00  0.00     0.029 A 
ATOM     30  N   UNL A   1      42.719  29.563  29.526  1.00  0.00    -0.354 N 
ATOM     31  N   UNL A   1      45.556  28.840  29.537  1.00  0.00    -0.248 NA
ATOM     32  C   UNL A   1      47.805  29.432  29.749  1.00  0.00     0.031 C 
ATOM     33  C   UNL A   1      42.160  31.596  30.236  1.00  0.00     0.029 A 
ATOM     34  C   UNL A   1      43.239  30.770  29.968  1.00  0.00     0.049 A 
ATOM     35  H   UNL A   1      43.254  28.778  29.269  1.00  0.00     0.167 HD
ATOM     36  C   UNL A   1      45.643  30.175  29.900  1.00  0.00     0.074 A 
ATOM     37  C   UNL A   1      47.051  30.483  30.040  1.00  0.00     0.031 C 
ATOM     38  C   UNL A   1      44.643  31.066  30.089  1.00  0.00     0.037 A 
BRANCH  25  39
ATOM     39  C   UNL A   1      38.998  28.872  29.002  1.00  0.00     0.057 A 
ATOM     40  C   UNL A   1      38.427  29.418  27.846  1.00  0.00     0.134 A 
ATOM     41  C   UNL A   1      38.183  28.745  30.133  1.00  0.00     0.134 A 
ATOM     42  F   UNL A   1      39.160  29.576  26.733  1.00  0.00    -0.206 F 
ATOM     43  C   UNL A   1      37.100  29.849  27.823  1.00  0.00     0.040 A 
ATOM     44  C   UNL A   1      36.850  29.158  30.117  1.00  0.00     0.040 A 
ATOM     45  F   UNL A   1      38.673  28.227  31.268  1.00  0.00    -0.206 F 
ATOM     46  C   UNL A   1      36.308  29.723  28.963  1.00  0.00     0.006 A 
ENDBRANCH  25  39
BRANCH  26  47
ATOM     47  C   UNL A   1      48.737  26.743  29.030  1.00  0.00     0.057 A 
ATOM     48  C   UNL A   1      49.409  26.269  30.165  1.00  0.00     0.134 A 
ATOM     49  C   UNL A   1      49.492  26.944  27.870  1.00  0.00     0.134 A 
ATOM     50  F   UNL A   1      48.741  26.062  31.309  1.00  0.00    -0.206 F 
ATOM     51  C   UNL A   1      50.782  26.030  30.155  1.00  0.00     0.040 A 
ATOM     52  C   UNL A   1      50.863  26.684  27.839  1.00  0.00     0.040 A 
ATOM     53  F   UNL A   1      48.902  27.378  26.747  1.00  0.00    -0.206 F 
ATOM     54  C   UNL A   1      51.514  26.234  28.987  1.00  0.00     0.006 A 
ENDBRANCH  26  47
BRANCH  38  55
ATOM     55  C   UNL A   1      45.026  32.467  30.453  1.00  0.00     0.057 A 
ATOM     56  C   UNL A   1      45.228  33.438  29.464  1.00  0.00     0.134 A 
ATOM     57  C   UNL A   1      45.271  32.830  31.783  1.00  0.00     0.134 A 
ATOM     58  F   UNL A   1      45.016  33.147  28.172  1.00  0.00    -0.206 F 
ATOM     59  C   UNL A   1      45.680  34.718  29.785  1.00  0.00     0.040 A 
ATOM     60  C   UNL A   1      45.705  34.113  32.118  1.00  0.00     0.040 A 
ATOM     61  F   UNL A   1      45.083  31.946  32.774  1.00  0.00    -0.206 F 
ATOM     62  C   UNL A   1      45.920  35.058  31.115  1.00  0.00     0.006 A 
ENDBRANCH  38  55
ENDBRANCH  12  13
ENDBRANCH   5   7
ENDBRANCH   2   3
ENDBRANCH   1   2
BRANCH   1  63
ATOM     63  C   UNL A   1      36.444  21.208  24.917  1.00  0.00     0.117 C 
BRANCH  63  64
ATOM     64  N   UNL A   1      35.602  21.119  26.093  1.00  0.00    -0.356 N 
ATOM     65  C   UNL A   1      34.268  21.289  26.248  1.00  0.00     0.223 C 
ATOM     66  H   UNL A   1      36.083  20.894  26.922  1.00  0.00     0.163 HD
ATOM     67  O   UNL A   1      33.854  21.288  27.414  1.00  0.00    -0.275 OA
BRANCH  65  68
ATOM     68  C   UNL A   1      33.276  21.475  25.091  1.00  0.00     0.086 C 
BRANCH  68  69
ATOM     69  C   UNL A   1      32.287  20.282  24.920  1.00  0.00     0.049 C 
BRANCH  69  70
ATOM     70  C   UNL A   1      32.766  18.852  24.771  1.00  0.00    -0.044 A 
ATOM     71  C   UNL A   1      32.598  17.926  25.812  1.00  0.00     0.004 A 
ATOM     72  C   UNL A   1      33.466  18.423  23.636  1.00  0.00     0.043 A 
ATOM     73  C   UNL A   1      33.031  16.596  25.677  1.00  0.00     0.003 A 
ATOM     74  C   UNL A   1      33.859  17.096  23.491  1.00  0.00     0.123 A 
ATOM     75  C   UNL A   1      33.634  16.172  24.497  1.00  0.00     0.039 A 
ATOM     76  F   UNL A   1      34.466  16.711  22.361  1.00  0.00    -0.207 F 
ENDBRANCH  69  70
ENDBRANCH  68  69
BRANCH  68  77
ATOM     77  C   UNL A   1      32.825  22.932  24.702  1.00  0.00     0.007 C 
ATOM     78  C   UNL A   1      31.310  23.144  24.582  1.00  0.00     0.033 C 
ATOM     79  C   UNL A   1      33.508  24.053  25.519  1.00  0.00     0.040 C 
ATOM     80  C   UNL A   1      30.897  24.576  24.290  1.00  0.00     0.161 C 
ATOM     81  C   UNL A   1      33.016  25.433  25.077  1.00  0.00     0.069 C 
ATOM     82  O   UNL A   1      31.570  25.464  25.165  1.00  0.00    -0.375 OA
ATOM     83  C   UNL A   1      33.700  26.628  25.813  1.00  0.00     0.035 C 
ATOM     84  C   UNL A   1      33.634  26.031  23.772  1.00  0.00     0.035 C 
ATOM     85  C   UNL A   1      33.608  27.400  24.481  1.00  0.00     0.006 C 
ENDBRANCH  68  77
ENDBRANCH  65  68
ENDBRANCH  63  64
ENDBRANCH   1  63
TORSDOF 13
ENDMDL
MODEL 2
REMARK VINA RESULT:     -12.5      4.665      9.878
REMARK SMILES O=C(NCCCNC(=O)[C@@H](Cc1cccc(F)c1)[C@H]1CCOC2(CCC2)C1)c1ccc(-c2c3nc(c(-c4c(F)cccc4F)c4ccc([nH]4)c(-c4c(F)cccc4F)c4nc(c(-c5c(F)cccc5F)c5ccc2[nH]5)C=C4)C=C3)cc1
REMARK SMILES IDX 5 1 4 2 3 3 1 4 2 5 28 7 29 8 81 9 30 10 80 11 31 12 32 13
REMARK SMILES IDX 33 14 74 15 34 16 79 17 73 18 75 19 35 20 78 21 72 22 71 23
REMARK SMILES IDX 36 25 62 26 45 27 61 28 46 29 49 30 60 31 76 32 47 33 48 34
REMARK SMILES IDX 59 36 77 37 50 38 37 39 38 40 43 41 39 42 40 43 42 44 44 45
REMARK SMILES IDX 41 46 63 47 64 48 69 49 65 50 66 51 68 52 70 53 67 54 51 55
REMARK SMILES IDX 52 56 57 57 53 58 54 59 56 60 58 61 55 62 6 63 7 64 8 65
REMARK SMILES IDX 9 67 10 68 11 69 12 70 13 71 18 72 14 73 16 74 15 75 17 76
REMARK SMILES IDX 19 77 20 78 27 79 21 80 23 81 22 82 24 83 26 84 25 85
REMARK H PARENT 3 6 75 24 49 35 7 66
REMARK Flexibility Score: inf
ROOT
ATOM      1  C   UNL A   1      31.600  31.352  26.492  1.00  0.00     0.042 C 
ENDROOT
BRANCH   1   2
ATOM      2  C   UNL A   1      32.803  32.006  27.153  1.00  0.00     0.118 C 
BRANCH   2   3
ATOM      3  N   UNL A   1      32.548  33.396  27.476  1.00  0.00    -0.352 N 
ATOM      4  O   UNL A   1      32.527  35.308  28.621  1.00  0.00    -0.269 OA
ATOM      5  C   UNL A   1      33.112  34.244  28.396  1.00  0.00     0.251 C 
ATOM      6  H   UNL A   1      31.837  33.809  26.934  1.00  0.00     0.163 HD
BRANCH   5   7
ATOM      7  C   UNL A   1      34.377  33.956  29.130  1.00  0.00     0.039 A 
ATOM      8  C   UNL A   1      34.431  33.205  30.303  1.00  0.00     0.014 A 
ATOM      9  C   UNL A   1      35.588  34.315  28.514  1.00  0.00     0.014 A 
ATOM     10  C   UNL A   1      35.658  32.859  30.877  1.00  0.00     0.010 A 
ATOM     11  C   UNL A   1      36.817  33.883  29.030  1.00  0.00     0.010 A 
ATOM     12  C   UNL A   1      36.861  33.127  30.207  1.00  0.00    -0.014 A 
BRANCH  12  13
ATOM     13  C   UNL A   1      38.107  32.439  30.645  1.00  0.00     0.031 A 
ATOM     14  C   UNL A   1      38.583  31.170  30.001  1.00  0.00     0.074 A 
ATOM     15  C   UNL A   1      38.809  32.981  31.664  1.00  0.00     0.049 A 
ATOM     16  N   UNL A   1      39.641  30.454  30.292  1.00  0.00    -0.248 NA
ATOM     17  C   UNL A   1      37.776  30.628  28.900  1.00  0.00     0.031 C 
ATOM     18  C   UNL A   1      38.427  34.192  32.397  1.00  0.00     0.029 A 
ATOM     19  N   UNL A   1      39.987  32.599  32.256  1.00  0.00    -0.354 N 
ATOM     20  C   UNL A   1      39.619  29.370  29.425  1.00  0.00     0.074 A 
ATOM     21  C   UNL A   1      38.436  29.514  28.603  1.00  0.00     0.031 C 
ATOM     22  C   UNL A   1      39.371  34.478  33.303  1.00  0.00     0.029 A 
ATOM     23  C   UNL A   1      40.389  33.436  33.271  1.00  0.00     0.049 A 
ATOM     24  H   UNL A   1      40.495  31.802  31.981  1.00  0.00     0.167 HD
ATOM     25  C   UNL A   1      40.511  28.357  29.327  1.00  0.00     0.037 A 
ATOM     26  C   UNL A   1      41.443  33.366  34.107  1.00  0.00     0.037 A 
ATOM     27  C   UNL A   1      41.702  28.234  30.129  1.00  0.00     0.049 A 
ATOM     28  C   UNL A   1      42.396  32.217  33.987  1.00  0.00     0.074 A 
ATOM     29  C   UNL A   1      42.701  27.279  30.038  1.00  0.00     0.029 A 
ATOM     30  N   UNL A   1      42.049  29.080  31.169  1.00  0.00    -0.354 N 
ATOM     31  N   UNL A   1      42.387  31.232  33.124  1.00  0.00    -0.248 NA
ATOM     32  C   UNL A   1      43.492  32.153  34.965  1.00  0.00     0.031 C 
ATOM     33  C   UNL A   1      43.631  27.520  31.052  1.00  0.00     0.029 A 
ATOM     34  C   UNL A   1      43.230  28.646  31.752  1.00  0.00     0.049 A 
ATOM     35  H   UNL A   1      41.535  29.870  31.453  1.00  0.00     0.167 HD
ATOM     36  C   UNL A   1      43.468  30.429  33.456  1.00  0.00     0.074 A 
ATOM     37  C   UNL A   1      44.129  31.054  34.582  1.00  0.00     0.031 C 
ATOM     38  C   UNL A   1      43.868  29.271  32.881  1.00  0.00     0.037 A 
BRANCH  25  39
ATOM     39  C   UNL A   1      40.256  27.280  28.315  1.00  0.00     0.057 A 
ATOM     40  C   UNL A   1      39.517  26.142  28.661  1.00  0.00     0.134 A 
ATOM     41  C   UNL A   1      40.851  27.309  27.049  1.00  0.00     0.134 A 
ATOM     42  F   UNL A   1      38.931  26.050  29.865  1.00  0.00    -0.206 F 
ATOM     43  C   UNL A   1      39.396  25.060  27.789  1.00  0.00     0.040 A 
ATOM     44  C   UNL A   1      40.725  26.239  26.163  1.00  0.00     0.040 A 
ATOM     45  F   UNL A   1      41.570  28.373  26.660  1.00  0.00    -0.206 F 
ATOM     46  C   UNL A   1      40.005  25.104  26.536  1.00  0.00     0.006 A 
ENDBRANCH  25  39
BRANCH  26  47
ATOM     47  C   UNL A   1      41.620  34.405  35.152  1.00  0.00     0.057 A 
ATOM     48  C   UNL A   1      42.392  35.550  34.915  1.00  0.00     0.134 A 
ATOM     49  C   UNL A   1      41.048  34.265  36.421  1.00  0.00     0.134 A 
ATOM     50  F   UNL A   1      42.972  35.739  33.720  1.00  0.00    -0.206 F 
ATOM     51  C   UNL A   1      42.609  36.505  35.907  1.00  0.00     0.040 A 
ATOM     52  C   UNL A   1      41.235  35.226  37.415  1.00  0.00     0.040 A 
ATOM     53  F   UNL A   1      40.282  33.200  36.702  1.00  0.00    -0.206 F 
ATOM     54  C   UNL A   1      42.026  36.346  37.163  1.00  0.00     0.006 A 
ENDBRANCH  26  47
BRANCH  38  55
ATOM     55  C   UNL A   1      45.066  28.589  33.465  1.00  0.00     0.057 A 
ATOM     56  C   UNL A   1      44.927  27.633  34.478  1.00  0.00     0.134 A 
ATOM     57  C   UNL A   1      46.364  28.940  33.073  1.00  0.00     0.134 A 
ATOM     58  F   UNL A   1      43.709  27.260  34.900  1.00  0.00    -0.206 F 
ATOM     59  C   UNL A   1      46.040  27.063  35.096  1.00  0.00     0.040 A 
ATOM     60  C   UNL A   1      47.484  28.363  33.671  1.00  0.00     0.040 A 
ATOM     61  F   UNL A   1      46.559  29.840  32.098  1.00  0.00    -0.206 F 
ATOM     62  C   UNL A   1      47.323  27.428  34.693  1.00  0.00     0.006 A 
ENDBRANCH  38  55
ENDBRANCH  12  13
ENDBRANCH   5   7
ENDBRANCH   2   3
ENDBRANCH   1   2
BRANCH   1  63
ATOM     63  C   UNL A   1      31.839  29.890  26.140  1.00  0.00     0.117 C 
BRANCH  63  64
ATOM     64  N   UNL A   1      32.260  29.761  24.759  1.00  0.00    -0.356 N 
ATOM     65  C   UNL A   1      31.818  28.956  23.765  1.00  0.00     0.223 C 
ATOM     66  H   UNL A   1      32.993  30.365  24.499  1.00  0.00     0.163 HD
ATOM     67  O   UNL A   1      32.478  28.975  22.719  1.00  0.00    -0.275 OA
BRANCH  65  68
ATOM     68  C   UNL A   1      30.582  28.052  23.865  1.00  0.00     0.086 C 
BRANCH  68  69
ATOM     69  C   UNL A   1      29.430  28.461  22.897  1.00  0.00     0.049 C 
BRANCH  69  70
ATOM     70  C   UNL A   1      29.061  29.910  22.649  1.00  0.00    -0.044 A 
ATOM     71  C   UNL A   1      29.045  30.837  23.701  1.00  0.00     0.004 A 
ATOM     72  C   UNL A   1      28.639  30.358  21.390  1.00  0.00     0.043 A 
ATOM     73  C   UNL A   1      28.712  32.184  23.477  1.00  0.00     0.003 A 
ATOM     74  C   UNL A   1      28.348  31.701  21.164  1.00  0.00     0.123 A 
ATOM     75  C   UNL A   1      28.395  32.623  22.195  1.00  0.00     0.039 A 
ATOM     76  F   UNL A   1      28.014  32.100  19.931  1.00  0.00    -0.207 F 
ENDBRANCH  69  70
ENDBRANCH  68  69
BRANCH  68  77
ATOM     77  C   UNL A   1      30.773  26.541  24.263  1.00  0.00     0.007 C 
ATOM     78  C   UNL A   1      30.471  25.523  23.157  1.00  0.00     0.033 C 
ATOM     79  C   UNL A   1      32.102  26.235  24.991  1.00  0.00     0.040 C 
ATOM     80  C   UNL A   1      30.745  24.079  23.539  1.00  0.00     0.161 C 
ATOM     81  C   UNL A   1      32.207  24.749  25.344  1.00  0.00     0.069 C 
ATOM     82  O   UNL A   1      32.025  23.969  24.137  1.00  0.00    -0.375 OA
ATOM     83  C   UNL A   1      33.496  24.364  26.135  1.00  0.00     0.035 C 
ATOM     84  C   UNL A   1      31.424  24.254  26.602  1.00  0.00     0.035 C 
ATOM     85  C   UNL A   1      32.630  23.338  26.895  1.00  0.00     0.006 C 
ENDBRANCH  68  77
ENDBRANCH  65  68
ENDBRANCH  63  64
ENDBRANCH   1  63
TORSDOF 13
ENDMDL
MODEL 3
REMARK VINA RESULT:     -12.5      4.777      9.686
REMARK SMILES O=C(NCCCNC(=O)[C@@H](Cc1cccc(F)c1)[C@H]1CCOC2(CCC2)C1)c1ccc(-c2c3nc(c(-c4c(F)cccc4F)c4ccc([nH]4)c(-c4c(F)cccc4F)c4nc(c(-c5c(F)cccc5F)c5ccc2[nH]5)C=C4)C=C3)cc1
REMARK SMILES IDX 5 1 4 2 3 3 1 4 2 5 28 7 29 8 81 9 30 10 80 11 31 12 32 13
REMARK SMILES IDX 33 14 74 15 34 16 79 17 73 18 75 19 35 20 78 21 72 22 71 23
REMARK SMILES IDX 36 25 62 26 45 27 61 28 46 29 49 30 60 31 76 32 47 33 48 34
REMARK SMILES IDX 59 36 77 37 50 38 37 39 38 40 43 41 39 42 40 43 42 44 44 45
REMARK SMILES IDX 41 46 63 47 64 48 69 49 65 50 66 51 68 52 70 53 67 54 51 55
REMARK SMILES IDX 52 56 57 57 53 58 54 59 56 60 58 61 55 62 6 63 7 64 8 65
REMARK SMILES IDX 9 67 10 68 11 69 12 70 13 71 18 72 14 73 16 74 15 75 17 76
REMARK SMILES IDX 19 77 20 78 27 79 21 80 23 81 22 82 24 83 26 84 25 85
REMARK H PARENT 3 6 75 24 49 35 7 66
REMARK Flexibility Score: inf
ROOT
ATOM      1  C   UNL A   1      31.786  30.774  25.651  1.00  0.00     0.042 C 
ENDROOT
BRANCH   1   2
ATOM      2  C   UNL A   1      31.597  31.262  27.078  1.00  0.00     0.118 C 
BRANCH   2   3
ATOM      3  N   UNL A   1      31.875  32.680  27.201  1.00  0.00    -0.352 N 
ATOM      4  O   UNL A   1      32.823  34.574  27.896  1.00  0.00    -0.269 OA
ATOM      5  C   UNL A   1      32.962  33.365  27.685  1.00  0.00     0.251 C 
ATOM      6  H   UNL A   1      31.149  33.260  26.876  1.00  0.00     0.163 HD
BRANCH   5   7
ATOM      7  C   UNL A   1      34.285  32.739  27.967  1.00  0.00     0.039 A 
ATOM      8  C   UNL A   1      35.462  33.468  28.128  1.00  0.00     0.014 A 
ATOM      9  C   UNL A   1      34.311  31.363  28.251  1.00  0.00     0.014 A 
ATOM     10  C   UNL A   1      36.648  32.839  28.517  1.00  0.00     0.010 A 
ATOM     11  C   UNL A   1      35.472  30.748  28.740  1.00  0.00     0.010 A 
ATOM     12  C   UNL A   1      36.648  31.489  28.901  1.00  0.00    -0.014 A 
BRANCH  12  13
ATOM     13  C   UNL A   1      37.816  30.946  29.647  1.00  0.00     0.031 A 
ATOM     14  C   UNL A   1      38.793  29.999  29.016  1.00  0.00     0.074 A 
ATOM     15  C   UNL A   1      37.976  31.316  30.937  1.00  0.00     0.049 A 
ATOM     16  N   UNL A   1      39.846  29.433  29.552  1.00  0.00    -0.248 NA
ATOM     17  C   UNL A   1      38.564  29.631  27.611  1.00  0.00     0.031 C 
ATOM     18  C   UNL A   1      37.070  32.201  31.675  1.00  0.00     0.029 A 
ATOM     19  N   UNL A   1      38.951  31.009  31.853  1.00  0.00    -0.354 N 
ATOM     20  C   UNL A   1      40.396  28.631  28.562  1.00  0.00     0.074 A 
ATOM     21  C   UNL A   1      39.554  28.772  27.392  1.00  0.00     0.031 C 
ATOM     22  C   UNL A   1      37.554  32.402  32.908  1.00  0.00     0.029 A 
ATOM     23  C   UNL A   1      38.762  31.606  33.078  1.00  0.00     0.049 A 
ATOM     24  H   UNL A   1      39.712  30.418  31.653  1.00  0.00     0.167 HD
ATOM     25  C   UNL A   1      41.503  27.857  28.629  1.00  0.00     0.037 A 
ATOM     26  C   UNL A   1      39.462  31.508  34.224  1.00  0.00     0.037 A 
ATOM     27  C   UNL A   1      42.354  27.742  29.786  1.00  0.00     0.049 A 
ATOM     28  C   UNL A   1      40.670  30.622  34.271  1.00  0.00     0.074 A 
ATOM     29  C   UNL A   1      43.541  27.041  29.911  1.00  0.00     0.029 A 
ATOM     30  N   UNL A   1      42.105  28.331  31.015  1.00  0.00    -0.354 N 
ATOM     31  N   UNL A   1      41.204  29.915  33.306  1.00  0.00    -0.248 NA
ATOM     32  C   UNL A   1      41.360  30.500  35.562  1.00  0.00     0.031 C 
ATOM     33  C   UNL A   1      43.989  27.168  31.228  1.00  0.00     0.029 A 
ATOM     34  C   UNL A   1      43.099  27.978  31.914  1.00  0.00     0.049 A 
ATOM     35  H   UNL A   1      41.337  28.912  31.220  1.00  0.00     0.167 HD
ATOM     36  C   UNL A   1      42.287  29.260  33.873  1.00  0.00     0.074 A 
ATOM     37  C   UNL A   1      42.353  29.674  35.259  1.00  0.00     0.031 C 
ATOM     38  C   UNL A   1      43.143  28.387  33.294  1.00  0.00     0.037 A 
BRANCH  25  39
ATOM     39  C   UNL A   1      41.888  27.058  27.419  1.00  0.00     0.057 A 
ATOM     40  C   UNL A   1      41.563  25.699  27.334  1.00  0.00     0.134 A 
ATOM     41  C   UNL A   1      42.689  27.600  26.407  1.00  0.00     0.134 A 
ATOM     42  F   UNL A   1      40.808  25.118  28.279  1.00  0.00    -0.206 F 
ATOM     43  C   UNL A   1      42.041  24.899  26.294  1.00  0.00     0.040 A 
ATOM     44  C   UNL A   1      43.159  26.814  25.354  1.00  0.00     0.040 A 
ATOM     45  F   UNL A   1      43.031  28.897  26.433  1.00  0.00    -0.206 F 
ATOM     46  C   UNL A   1      42.846  25.456  25.302  1.00  0.00     0.006 A 
ENDBRANCH  25  39
BRANCH  26  47
ATOM     47  C   UNL A   1      39.007  32.248  35.428  1.00  0.00     0.057 A 
ATOM     48  C   UNL A   1      39.349  33.592  35.626  1.00  0.00     0.134 A 
ATOM     49  C   UNL A   1      38.245  31.623  36.420  1.00  0.00     0.134 A 
ATOM     50  F   UNL A   1      40.083  34.245  34.713  1.00  0.00    -0.206 F 
ATOM     51  C   UNL A   1      38.972  34.280  36.778  1.00  0.00     0.040 A 
ATOM     52  C   UNL A   1      37.839  32.307  37.566  1.00  0.00     0.040 A 
ATOM     53  F   UNL A   1      37.870  30.343  36.278  1.00  0.00    -0.206 F 
ATOM     54  C   UNL A   1      38.210  33.638  37.753  1.00  0.00     0.006 A 
ENDBRANCH  26  47
BRANCH  38  55
ATOM     55  C   UNL A   1      44.219  27.801  34.156  1.00  0.00     0.057 A 
ATOM     56  C   UNL A   1      45.456  28.440  34.297  1.00  0.00     0.134 A 
ATOM     57  C   UNL A   1      44.050  26.559  34.781  1.00  0.00     0.134 A 
ATOM     58  F   UNL A   1      45.679  29.629  33.716  1.00  0.00    -0.206 F 
ATOM     59  C   UNL A   1      46.497  27.855  35.018  1.00  0.00     0.040 A 
ATOM     60  C   UNL A   1      45.078  25.974  35.521  1.00  0.00     0.040 A 
ATOM     61  F   UNL A   1      42.882  25.906  34.692  1.00  0.00    -0.206 F 
ATOM     62  C   UNL A   1      46.310  26.619  35.631  1.00  0.00     0.006 A 
ENDBRANCH  38  55
ENDBRANCH  12  13
ENDBRANCH   5   7
ENDBRANCH   2   3
ENDBRANCH   1   2
BRANCH   1  63
ATOM     63  C   UNL A   1      32.714  29.570  25.555  1.00  0.00     0.117 C 
BRANCH  63  64
ATOM     64  N   UNL A   1      33.286  29.474  24.227  1.00  0.00    -0.356 N 
ATOM     65  C   UNL A   1      33.113  28.556  23.247  1.00  0.00     0.223 C 
ATOM     66  H   UNL A   1      33.906  30.204  23.997  1.00  0.00     0.163 HD
ATOM     67  O   UNL A   1      33.856  28.666  22.265  1.00  0.00    -0.275 OA
BRANCH  65  68
ATOM     68  C   UNL A   1      32.078  27.423  23.292  1.00  0.00     0.086 C 
BRANCH  68  69
ATOM     69  C   UNL A   1      30.907  27.610  22.280  1.00  0.00     0.049 C 
BRANCH  69  70
ATOM     70  C   UNL A   1      29.721  28.506  22.575  1.00  0.00    -0.044 A 
ATOM     71  C   UNL A   1      29.823  29.899  22.446  1.00  0.00     0.004 A 
ATOM     72  C   UNL A   1      28.514  27.993  23.068  1.00  0.00     0.043 A 
ATOM     73  C   UNL A   1      28.725  30.736  22.708  1.00  0.00     0.003 A 
ATOM     74  C   UNL A   1      27.417  28.822  23.291  1.00  0.00     0.123 A 
ATOM     75  C   UNL A   1      27.507  30.190  23.100  1.00  0.00     0.039 A 
ATOM     76  F   UNL A   1      26.261  28.283  23.698  1.00  0.00    -0.207 F 
ENDBRANCH  69  70
ENDBRANCH  68  69
BRANCH  68  77
ATOM     77  C   UNL A   1      32.550  25.975  23.689  1.00  0.00     0.007 C 
ATOM     78  C   UNL A   1      32.393  24.907  22.599  1.00  0.00     0.033 C 
ATOM     79  C   UNL A   1      33.939  25.918  24.365  1.00  0.00     0.040 C 
ATOM     80  C   UNL A   1      32.934  23.539  22.976  1.00  0.00     0.161 C 
ATOM     81  C   UNL A   1      34.320  24.478  24.721  1.00  0.00     0.069 C 
ATOM     82  O   UNL A   1      34.234  23.665  23.525  1.00  0.00    -0.375 OA
ATOM     83  C   UNL A   1      35.685  24.336  25.462  1.00  0.00     0.035 C 
ATOM     84  C   UNL A   1      33.685  23.866  26.010  1.00  0.00     0.035 C 
ATOM     85  C   UNL A   1      35.045  23.182  26.259  1.00  0.00     0.006 C 
ENDBRANCH  68  77
ENDBRANCH  65  68
ENDBRANCH  63  64
ENDBRANCH   1  63
TORSDOF 13
ENDMDL
