MODEL 1
REMARK VINA RESULT:      -9.6      0.000      0.000
REMARK SMILES O=C(COc1ccc2c(c1)O/C(=C\c1cccs1)C2=O)NCCCNC(=O)c1ccc(-c2c3nc(c(-c4c(F)cccc4F)c4ccc([nH]4)c(-c4c(F)cccc4F)c4nc(c(-c5c(F)cccc5F)c5ccc2[nH]5)C=C4)C=C3)cc1
REMARK SMILES IDX 22 1 21 2 1 3 2 4 3 6 4 7 5 8 6 9 10 10 7 11 9 12 8 13 11 14
REMARK SMILES IDX 19 15 12 16 20 17 13 18 14 19 15 20 18 21 16 22 17 23 23 24
REMARK SMILES IDX 24 25 25 26 26 27 27 29 28 30 29 31 81 32 30 33 80 34 31 35
REMARK SMILES IDX 32 36 33 37 74 38 34 39 79 40 73 41 75 42 35 43 78 44 72 45
REMARK SMILES IDX 71 46 36 48 62 49 45 50 61 51 46 52 49 53 60 54 76 55 47 56
REMARK SMILES IDX 48 57 59 59 77 60 50 61 37 62 38 63 43 64 39 65 40 66 42 67
REMARK SMILES IDX 44 68 41 69 63 70 64 71 69 72 65 73 66 74 68 75 70 76 67 77
REMARK SMILES IDX 51 78 52 79 57 80 53 81 54 82 56 83 58 84 55 85
REMARK H PARENT 21 5 25 28 75 47 49 58
REMARK Flexibility Score: inf
ROOT
ATOM      1  C   UNL A   1      45.727  19.783  25.369  1.00  0.00     0.117 C 
ENDROOT
BRANCH   1   2
ATOM      2  N   UNL A   1      45.457  21.182  25.628  1.00  0.00    -0.353 N 
ATOM      3  O   UNL A   1      46.823  22.011  23.973  1.00  0.00    -0.271 OA
ATOM      4  C   UNL A   1      45.932  22.181  24.800  1.00  0.00     0.257 C 
ATOM      5  H   UNL A   1      44.920  21.429  26.415  1.00  0.00     0.163 HD
BRANCH   4   6
ATOM      6  C   UNL A   1      45.209  23.520  24.967  1.00  0.00     0.329 C 
BRANCH   6   7
ATOM      7  O   UNL A   1      45.961  24.685  24.629  1.00  0.00    -0.484 OA
BRANCH   7   8
ATOM      8  C   UNL A   1      45.434  25.883  25.044  1.00  0.00     0.123 A 
ATOM      9  C   UNL A   1      44.053  26.091  25.258  1.00  0.00     0.047 A 
ATOM     10  C   UNL A   1      46.361  26.869  25.404  1.00  0.00     0.094 A 
ATOM     11  C   UNL A   1      43.577  27.259  25.856  1.00  0.00     0.020 A 
ATOM     12  C   UNL A   1      45.873  28.030  25.970  1.00  0.00     0.142 A 
ATOM     13  C   UNL A   1      44.513  28.201  26.209  1.00  0.00     0.069 A 
ATOM     14  O   UNL A   1      46.627  29.100  26.391  1.00  0.00    -0.452 OA
ATOM     15  C   UNL A   1      44.340  29.474  26.891  1.00  0.00     0.232 C 
ATOM     16  C   UNL A   1      45.726  29.992  26.971  1.00  0.00     0.176 C 
ATOM     17  O   UNL A   1      43.309  29.967  27.293  1.00  0.00    -0.285 OA
ATOM     18  C   UNL A   1      46.035  31.152  27.561  1.00  0.00     0.070 C 
BRANCH  18  19
ATOM     19  C   UNL A   1      47.370  31.627  27.580  1.00  0.00     0.031 A 
ATOM     20  C   UNL A   1      48.480  31.079  28.199  1.00  0.00     0.020 A 
ATOM     21  S   UNL A   1      47.786  33.069  26.745  1.00  0.00    -0.144 S 
ATOM     22  C   UNL A   1      49.655  31.861  28.021  1.00  0.00     0.012 A 
ATOM     23  C   UNL A   1      49.412  32.984  27.267  1.00  0.00     0.065 A 
ENDBRANCH  18  19
ENDBRANCH   7   8
ENDBRANCH   6   7
ENDBRANCH   4   6
ENDBRANCH   1   2
BRANCH   1  24
ATOM     24  C   UNL A   1      44.483  18.982  25.033  1.00  0.00     0.042 C 
BRANCH  24  25
ATOM     25  C   UNL A   1      43.580  18.711  26.228  1.00  0.00     0.118 C 
BRANCH  25  26
ATOM     26  N   UNL A   1      42.170  18.608  25.874  1.00  0.00    -0.352 N 
ATOM     27  C   UNL A   1      41.141  19.499  26.062  1.00  0.00     0.251 C 
ATOM     28  H   UNL A   1      41.914  17.768  25.430  1.00  0.00     0.163 HD
ATOM     29  O   UNL A   1      39.991  19.154  25.805  1.00  0.00    -0.269 OA
BRANCH  27  30
ATOM     30  C   UNL A   1      41.398  20.855  26.597  1.00  0.00     0.039 A 
ATOM     31  C   UNL A   1      41.304  21.058  27.976  1.00  0.00     0.014 A 
ATOM     32  C   UNL A   1      41.713  21.927  25.757  1.00  0.00     0.014 A 
ATOM     33  C   UNL A   1      41.589  22.314  28.515  1.00  0.00     0.010 A 
ATOM     34  C   UNL A   1      42.086  23.153  26.302  1.00  0.00     0.010 A 
ATOM     35  C   UNL A   1      42.021  23.364  27.688  1.00  0.00    -0.014 A 
BRANCH  35  36
ATOM     36  C   UNL A   1      42.411  24.679  28.262  1.00  0.00     0.031 A 
ATOM     37  C   UNL A   1      41.391  25.772  28.433  1.00  0.00     0.074 A 
ATOM     38  C   UNL A   1      43.697  24.905  28.592  1.00  0.00     0.049 A 
ATOM     39  N   UNL A   1      41.549  26.986  28.897  1.00  0.00    -0.248 NA
ATOM     40  C   UNL A   1      40.016  25.472  28.003  1.00  0.00     0.031 C 
ATOM     41  C   UNL A   1      44.794  23.947  28.428  1.00  0.00     0.029 A 
ATOM     42  N   UNL A   1      44.303  26.011  29.135  1.00  0.00    -0.354 N 
ATOM     43  C   UNL A   1      40.302  27.592  28.810  1.00  0.00     0.074 A 
ATOM     44  C   UNL A   1      39.412  26.636  28.190  1.00  0.00     0.031 C 
ATOM     45  C   UNL A   1      45.928  24.494  28.892  1.00  0.00     0.029 A 
ATOM     46  C   UNL A   1      45.652  25.853  29.345  1.00  0.00     0.049 A 
ATOM     47  H   UNL A   1      43.817  26.839  29.352  1.00  0.00     0.167 HD
ATOM     48  C   UNL A   1      39.926  28.823  29.232  1.00  0.00     0.037 A 
ATOM     49  C   UNL A   1      46.565  26.708  29.843  1.00  0.00     0.037 A 
ATOM     50  C   UNL A   1      40.812  29.769  29.861  1.00  0.00     0.049 A 
ATOM     51  C   UNL A   1      46.125  28.077  30.286  1.00  0.00     0.074 A 
ATOM     52  C   UNL A   1      40.513  31.021  30.371  1.00  0.00     0.029 A 
ATOM     53  N   UNL A   1      42.170  29.572  30.058  1.00  0.00    -0.354 N 
ATOM     54  N   UNL A   1      44.927  28.609  30.267  1.00  0.00    -0.248 NA
ATOM     55  C   UNL A   1      47.165  28.962  30.828  1.00  0.00     0.031 C 
ATOM     56  C   UNL A   1      41.701  31.604  30.822  1.00  0.00     0.029 A 
ATOM     57  C   UNL A   1      42.729  30.691  30.655  1.00  0.00     0.049 A 
ATOM     58  H   UNL A   1      42.664  28.757  29.809  1.00  0.00     0.167 HD
ATOM     59  C   UNL A   1      45.063  29.875  30.822  1.00  0.00     0.074 A 
ATOM     60  C   UNL A   1      46.457  30.024  31.184  1.00  0.00     0.031 C 
ATOM     61  C   UNL A   1      44.118  30.828  31.015  1.00  0.00     0.037 A 
BRANCH  48  62
ATOM     62  C   UNL A   1      38.491  29.219  29.027  1.00  0.00     0.057 A 
ATOM     63  C   UNL A   1      37.558  29.199  30.074  1.00  0.00     0.134 A 
ATOM     64  C   UNL A   1      38.042  29.663  27.777  1.00  0.00     0.134 A 
ATOM     65  F   UNL A   1      37.918  28.776  31.296  1.00  0.00    -0.206 F 
ATOM     66  C   UNL A   1      36.229  29.576  29.879  1.00  0.00     0.040 A 
ATOM     67  C   UNL A   1      36.722  30.073  27.577  1.00  0.00     0.040 A 
ATOM     68  F   UNL A   1      38.879  29.716  26.731  1.00  0.00    -0.206 F 
ATOM     69  C   UNL A   1      35.810  30.023  28.628  1.00  0.00     0.006 A 
ENDBRANCH  48  62
BRANCH  49  70
ATOM     70  C   UNL A   1      47.986  26.292  29.971  1.00  0.00     0.057 A 
ATOM     71  C   UNL A   1      48.891  26.468  28.916  1.00  0.00     0.134 A 
ATOM     72  C   UNL A   1      48.471  25.693  31.139  1.00  0.00     0.134 A 
ATOM     73  F   UNL A   1      48.483  27.020  27.763  1.00  0.00    -0.206 F 
ATOM     74  C   UNL A   1      50.216  26.041  29.008  1.00  0.00     0.040 A 
ATOM     75  C   UNL A   1      49.802  25.288  31.257  1.00  0.00     0.040 A 
ATOM     76  F   UNL A   1      47.660  25.501  32.189  1.00  0.00    -0.206 F 
ATOM     77  C   UNL A   1      50.676  25.454  30.185  1.00  0.00     0.006 A 
ENDBRANCH  49  70
BRANCH  61  78
ATOM     78  C   UNL A   1      44.551  32.101  31.686  1.00  0.00     0.057 A 
ATOM     79  C   UNL A   1      44.915  33.240  30.957  1.00  0.00     0.134 A 
ATOM     80  C   UNL A   1      44.579  32.193  33.084  1.00  0.00     0.134 A 
ATOM     81  F   UNL A   1      44.923  33.217  29.616  1.00  0.00    -0.206 F 
ATOM     82  C   UNL A   1      45.323  34.415  31.594  1.00  0.00     0.040 A 
ATOM     83  C   UNL A   1      44.952  33.372  33.731  1.00  0.00     0.040 A 
ATOM     84  F   UNL A   1      44.231  31.145  33.844  1.00  0.00    -0.206 F 
ATOM     85  C   UNL A   1      45.335  34.485  32.985  1.00  0.00     0.006 A 
ENDBRANCH  61  78
ENDBRANCH  35  36
ENDBRANCH  27  30
ENDBRANCH  25  26
ENDBRANCH  24  25
ENDBRANCH   1  24
TORSDOF 13
ENDMDL
MODEL 2
REMARK VINA RESULT:      -9.3      0.872      6.236
REMARK SMILES O=C(COc1ccc2c(c1)O/C(=C\c1cccs1)C2=O)NCCCNC(=O)c1ccc(-c2c3nc(c(-c4c(F)cccc4F)c4ccc([nH]4)c(-c4c(F)cccc4F)c4nc(c(-c5c(F)cccc5F)c5ccc2[nH]5)C=C4)C=C3)cc1
REMARK SMILES IDX 22 1 21 2 1 3 2 4 3 6 4 7 5 8 6 9 10 10 7 11 9 12 8 13 11 14
REMARK SMILES IDX 19 15 12 16 20 17 13 18 14 19 15 20 18 21 16 22 17 23 23 24
REMARK SMILES IDX 24 25 25 26 26 27 27 29 28 30 29 31 81 32 30 33 80 34 31 35
REMARK SMILES IDX 32 36 33 37 74 38 34 39 79 40 73 41 75 42 35 43 78 44 72 45
REMARK SMILES IDX 71 46 36 48 62 49 45 50 61 51 46 52 49 53 60 54 76 55 47 56
REMARK SMILES IDX 48 57 59 59 77 60 50 61 37 62 38 63 43 64 39 65 40 66 42 67
REMARK SMILES IDX 44 68 41 69 63 70 64 71 69 72 65 73 66 74 68 75 70 76 67 77
REMARK SMILES IDX 51 78 52 79 57 80 53 81 54 82 56 83 58 84 55 85
REMARK H PARENT 21 5 25 28 75 47 49 58
REMARK Flexibility Score: inf
ROOT
ATOM      1  C   UNL A   1      46.307  20.318  24.331  1.00  0.00     0.117 C 
ENDROOT
BRANCH   1   2
ATOM      2  N   UNL A   1      46.169  21.756  24.230  1.00  0.00    -0.353 N 
ATOM      3  O   UNL A   1      45.917  22.143  26.483  1.00  0.00    -0.271 OA
ATOM      4  C   UNL A   1      46.125  22.565  25.349  1.00  0.00     0.257 C 
ATOM      5  H   UNL A   1      46.105  22.169  23.339  1.00  0.00     0.163 HD
BRANCH   4   6
ATOM      6  C   UNL A   1      46.412  24.040  25.059  1.00  0.00     0.329 C 
BRANCH   6   7
ATOM      7  O   UNL A   1      45.313  24.808  24.568  1.00  0.00    -0.484 OA
BRANCH   7   8
ATOM      8  C   UNL A   1      45.176  26.067  25.096  1.00  0.00     0.123 A 
ATOM      9  C   UNL A   1      43.930  26.625  25.458  1.00  0.00     0.047 A 
ATOM     10  C   UNL A   1      46.367  26.732  25.413  1.00  0.00     0.094 A 
ATOM     11  C   UNL A   1      43.847  27.829  26.162  1.00  0.00     0.020 A 
ATOM     12  C   UNL A   1      46.268  27.934  26.086  1.00  0.00     0.142 A 
ATOM     13  C   UNL A   1      45.034  28.450  26.468  1.00  0.00     0.069 A 
ATOM     14  O   UNL A   1      47.322  28.722  26.486  1.00  0.00    -0.452 OA
ATOM     15  C   UNL A   1      45.279  29.664  27.231  1.00  0.00     0.232 C 
ATOM     16  C   UNL A   1      46.756  29.777  27.199  1.00  0.00     0.176 C 
ATOM     17  O   UNL A   1      44.461  30.386  27.759  1.00  0.00    -0.285 OA
ATOM     18  C   UNL A   1      47.422  30.760  27.816  1.00  0.00     0.070 C 
BRANCH  18  19
ATOM     19  C   UNL A   1      48.833  30.851  27.727  1.00  0.00     0.031 A 
ATOM     20  C   UNL A   1      49.604  31.708  26.960  1.00  0.00     0.020 A 
ATOM     21  S   UNL A   1      49.826  29.809  28.664  1.00  0.00    -0.144 S 
ATOM     22  C   UNL A   1      51.000  31.480  27.111  1.00  0.00     0.012 A 
ATOM     23  C   UNL A   1      51.259  30.459  27.995  1.00  0.00     0.065 A 
ENDBRANCH  18  19
ENDBRANCH   7   8
ENDBRANCH   6   7
ENDBRANCH   4   6
ENDBRANCH   1   2
BRANCH   1  24
ATOM     24  C   UNL A   1      44.991  19.575  24.198  1.00  0.00     0.042 C 
BRANCH  24  25
ATOM     25  C   UNL A   1      44.362  19.188  25.529  1.00  0.00     0.118 C 
BRANCH  25  26
ATOM     26  N   UNL A   1      42.946  18.859  25.426  1.00  0.00    -0.352 N 
ATOM     27  C   UNL A   1      41.840  19.552  25.856  1.00  0.00     0.251 C 
ATOM     28  H   UNL A   1      42.751  18.006  24.975  1.00  0.00     0.163 HD
ATOM     29  O   UNL A   1      40.733  19.026  25.784  1.00  0.00    -0.269 OA
BRANCH  27  30
ATOM     30  C   UNL A   1      41.971  20.909  26.432  1.00  0.00     0.039 A 
ATOM     31  C   UNL A   1      41.748  21.079  27.801  1.00  0.00     0.014 A 
ATOM     32  C   UNL A   1      42.293  22.014  25.639  1.00  0.00     0.014 A 
ATOM     33  C   UNL A   1      41.911  22.338  28.382  1.00  0.00     0.010 A 
ATOM     34  C   UNL A   1      42.546  23.248  26.233  1.00  0.00     0.010 A 
ATOM     35  C   UNL A   1      42.350  23.427  27.611  1.00  0.00    -0.014 A 
BRANCH  35  36
ATOM     36  C   UNL A   1      42.612  24.750  28.237  1.00  0.00     0.031 A 
ATOM     37  C   UNL A   1      43.978  25.088  28.769  1.00  0.00     0.074 A 
ATOM     38  C   UNL A   1      41.605  25.636  28.364  1.00  0.00     0.049 A 
ATOM     39  N   UNL A   1      44.388  26.182  29.362  1.00  0.00    -0.248 NA
ATOM     40  C   UNL A   1      45.017  24.053  28.642  1.00  0.00     0.031 C 
ATOM     41  C   UNL A   1      40.221  25.412  27.936  1.00  0.00     0.029 A 
ATOM     42  N   UNL A   1      41.586  26.904  28.890  1.00  0.00    -0.354 N 
ATOM     43  C   UNL A   1      45.722  25.964  29.682  1.00  0.00     0.074 A 
ATOM     44  C   UNL A   1      46.037  24.612  29.276  1.00  0.00     0.031 C 
ATOM     45  C   UNL A   1      39.500  26.516  28.185  1.00  0.00     0.029 A 
ATOM     46  C   UNL A   1      40.354  27.509  28.828  1.00  0.00     0.049 A 
ATOM     47  H   UNL A   1      42.381  27.338  29.276  1.00  0.00     0.167 HD
ATOM     48  C   UNL A   1      46.611  26.820  30.238  1.00  0.00     0.037 A 
ATOM     49  C   UNL A   1      39.955  28.725  29.246  1.00  0.00     0.037 A 
ATOM     50  C   UNL A   1      46.299  28.171  30.631  1.00  0.00     0.049 A 
ATOM     51  C   UNL A   1      40.958  29.649  29.880  1.00  0.00     0.074 A 
ATOM     52  C   UNL A   1      47.145  29.133  31.155  1.00  0.00     0.029 A 
ATOM     53  N   UNL A   1      45.040  28.747  30.551  1.00  0.00    -0.354 N 
ATOM     54  N   UNL A   1      42.234  29.457  30.107  1.00  0.00    -0.248 NA
ATOM     55  C   UNL A   1      40.464  30.966  30.309  1.00  0.00     0.031 C 
ATOM     56  C   UNL A   1      46.386  30.270  31.447  1.00  0.00     0.029 A 
ATOM     57  C   UNL A   1      45.081  30.042  31.043  1.00  0.00     0.049 A 
ATOM     58  H   UNL A   1      44.236  28.302  30.197  1.00  0.00     0.167 HD
ATOM     59  C   UNL A   1      42.703  30.636  30.673  1.00  0.00     0.074 A 
ATOM     60  C   UNL A   1      41.577  31.544  30.739  1.00  0.00     0.031 C 
ATOM     61  C   UNL A   1      43.954  30.939  31.100  1.00  0.00     0.037 A 
BRANCH  48  62
ATOM     62  C   UNL A   1      48.012  26.322  30.457  1.00  0.00     0.057 A 
ATOM     63  C   UNL A   1      48.963  26.303  29.427  1.00  0.00     0.134 A 
ATOM     64  C   UNL A   1      48.429  25.890  31.723  1.00  0.00     0.134 A 
ATOM     65  F   UNL A   1      48.629  26.694  28.187  1.00  0.00    -0.206 F 
ATOM     66  C   UNL A   1      50.265  25.846  29.640  1.00  0.00     0.040 A 
ATOM     67  C   UNL A   1      49.738  25.461  31.955  1.00  0.00     0.040 A 
ATOM     68  F   UNL A   1      47.576  25.887  32.758  1.00  0.00    -0.206 F 
ATOM     69  C   UNL A   1      50.658  25.432  30.910  1.00  0.00     0.006 A 
ENDBRANCH  48  62
BRANCH  49  70
ATOM     70  C   UNL A   1      38.543  29.151  29.062  1.00  0.00     0.057 A 
ATOM     71  C   UNL A   1      38.081  29.619  27.825  1.00  0.00     0.134 A 
ATOM     72  C   UNL A   1      37.626  29.117  30.119  1.00  0.00     0.134 A 
ATOM     73  F   UNL A   1      38.916  29.692  26.778  1.00  0.00    -0.206 F 
ATOM     74  C   UNL A   1      36.769  30.062  27.653  1.00  0.00     0.040 A 
ATOM     75  C   UNL A   1      36.302  29.529  29.953  1.00  0.00     0.040 A 
ATOM     76  F   UNL A   1      38.000  28.673  31.327  1.00  0.00    -0.206 F 
ATOM     77  C   UNL A   1      35.874  30.012  28.718  1.00  0.00     0.006 A 
ENDBRANCH  49  70
BRANCH  61  78
ATOM     78  C   UNL A   1      44.181  32.324  31.637  1.00  0.00     0.057 A 
ATOM     79  C   UNL A   1      44.565  33.389  30.812  1.00  0.00     0.134 A 
ATOM     80  C   UNL A   1      43.988  32.599  32.998  1.00  0.00     0.134 A 
ATOM     81  F   UNL A   1      44.778  33.194  29.503  1.00  0.00    -0.206 F 
ATOM     82  C   UNL A   1      44.780  34.670  31.327  1.00  0.00     0.040 A 
ATOM     83  C   UNL A   1      44.167  33.882  33.517  1.00  0.00     0.040 A 
ATOM     84  F   UNL A   1      43.610  31.629  33.843  1.00  0.00    -0.206 F 
ATOM     85  C   UNL A   1      44.574  34.920  32.682  1.00  0.00     0.006 A 
ENDBRANCH  61  78
ENDBRANCH  35  36
ENDBRANCH  27  30
ENDBRANCH  25  26
ENDBRANCH  24  25
ENDBRANCH   1  24
TORSDOF 13
ENDMDL
MODEL 3
REMARK VINA RESULT:      -9.0      4.842      9.854
REMARK SMILES O=C(COc1ccc2c(c1)O/C(=C\c1cccs1)C2=O)NCCCNC(=O)c1ccc(-c2c3nc(c(-c4c(F)cccc4F)c4ccc([nH]4)c(-c4c(F)cccc4F)c4nc(c(-c5c(F)cccc5F)c5ccc2[nH]5)C=C4)C=C3)cc1
REMARK SMILES IDX 22 1 21 2 1 3 2 4 3 6 4 7 5 8 6 9 10 10 7 11 9 12 8 13 11 14
REMARK SMILES IDX 19 15 12 16 20 17 13 18 14 19 15 20 18 21 16 22 17 23 23 24
REMARK SMILES IDX 24 25 25 26 26 27 27 29 28 30 29 31 81 32 30 33 80 34 31 35
REMARK SMILES IDX 32 36 33 37 74 38 34 39 79 40 73 41 75 42 35 43 78 44 72 45
REMARK SMILES IDX 71 46 36 48 62 49 45 50 61 51 46 52 49 53 60 54 76 55 47 56
REMARK SMILES IDX 48 57 59 59 77 60 50 61 37 62 38 63 43 64 39 65 40 66 42 67
REMARK SMILES IDX 44 68 41 69 63 70 64 71 69 72 65 73 66 74 68 75 70 76 67 77
REMARK SMILES IDX 51 78 52 79 57 80 53 81 54 82 56 83 58 84 55 85
REMARK H PARENT 21 5 25 28 75 47 49 58
REMARK Flexibility Score: inf
ROOT
ATOM      1  C   UNL A   1      41.952  21.322  26.923  1.00  0.00     0.117 C 
ENDROOT
BRANCH   1   2
ATOM      2  N   UNL A   1      40.587  21.048  26.522  1.00  0.00    -0.353 N 
ATOM      3  O   UNL A   1      39.710  23.051  27.235  1.00  0.00    -0.271 OA
ATOM      4  C   UNL A   1      39.600  22.012  26.591  1.00  0.00     0.257 C 
ATOM      5  H   UNL A   1      40.357  20.150  26.191  1.00  0.00     0.163 HD
BRANCH   4   6
ATOM      6  C   UNL A   1      38.365  21.694  25.744  1.00  0.00     0.329 C 
BRANCH   6   7
ATOM      7  O   UNL A   1      37.670  22.818  25.203  1.00  0.00    -0.484 OA
BRANCH   7   8
ATOM      8  C   UNL A   1      36.333  22.900  25.503  1.00  0.00     0.123 A 
ATOM      9  C   UNL A   1      35.609  21.852  26.113  1.00  0.00     0.047 A 
ATOM     10  C   UNL A   1      35.739  24.154  25.316  1.00  0.00     0.094 A 
ATOM     11  C   UNL A   1      34.303  22.039  26.571  1.00  0.00     0.020 A 
ATOM     12  C   UNL A   1      34.438  24.316  25.750  1.00  0.00     0.142 A 
ATOM     13  C   UNL A   1      33.753  23.284  26.383  1.00  0.00     0.069 A 
ATOM     14  O   UNL A   1      33.697  25.471  25.658  1.00  0.00    -0.452 OA
ATOM     15  C   UNL A   1      32.457  23.801  26.796  1.00  0.00     0.232 C 
ATOM     16  C   UNL A   1      32.489  25.197  26.299  1.00  0.00     0.176 C 
ATOM     17  O   UNL A   1      31.584  23.218  27.401  1.00  0.00    -0.285 OA
ATOM     18  C   UNL A   1      31.484  26.059  26.491  1.00  0.00     0.070 C 
BRANCH  18  19
ATOM     19  C   UNL A   1      31.542  27.373  25.964  1.00  0.00     0.031 A 
ATOM     20  C   UNL A   1      31.801  28.564  26.621  1.00  0.00     0.020 A 
ATOM     21  S   UNL A   1      31.281  27.645  24.289  1.00  0.00    -0.144 S 
ATOM     22  C   UNL A   1      31.744  29.695  25.760  1.00  0.00     0.012 A 
ATOM     23  C   UNL A   1      31.448  29.337  24.466  1.00  0.00     0.065 A 
ENDBRANCH  18  19
ENDBRANCH   7   8
ENDBRANCH   6   7
ENDBRANCH   4   6
ENDBRANCH   1   2
BRANCH   1  24
ATOM     24  C   UNL A   1      42.899  21.506  25.752  1.00  0.00     0.042 C 
BRANCH  24  25
ATOM     25  C   UNL A   1      42.750  22.843  25.040  1.00  0.00     0.118 C 
BRANCH  25  26
ATOM     26  N   UNL A   1      44.025  23.467  24.710  1.00  0.00    -0.352 N 
ATOM     27  C   UNL A   1      44.569  24.654  25.136  1.00  0.00     0.251 C 
ATOM     28  H   UNL A   1      44.585  22.957  24.081  1.00  0.00     0.163 HD
ATOM     29  O   UNL A   1      45.610  25.058  24.626  1.00  0.00    -0.269 OA
BRANCH  27  30
ATOM     30  C   UNL A   1      43.902  25.463  26.181  1.00  0.00     0.039 A 
ATOM     31  C   UNL A   1      43.062  24.817  27.091  1.00  0.00     0.014 A 
ATOM     32  C   UNL A   1      44.079  26.847  26.262  1.00  0.00     0.014 A 
ATOM     33  C   UNL A   1      42.456  25.544  28.117  1.00  0.00     0.010 A 
ATOM     34  C   UNL A   1      43.551  27.555  27.338  1.00  0.00     0.010 A 
ATOM     35  C   UNL A   1      42.726  26.914  28.274  1.00  0.00    -0.014 A 
BRANCH  35  36
ATOM     36  C   UNL A   1      42.156  27.679  29.415  1.00  0.00     0.031 A 
ATOM     37  C   UNL A   1      42.796  27.615  30.776  1.00  0.00     0.074 A 
ATOM     38  C   UNL A   1      41.034  28.402  29.236  1.00  0.00     0.049 A 
ATOM     39  N   UNL A   1      42.431  28.198  31.890  1.00  0.00    -0.248 NA
ATOM     40  C   UNL A   1      43.990  26.765  30.910  1.00  0.00     0.031 C 
ATOM     41  C   UNL A   1      40.286  28.507  27.980  1.00  0.00     0.029 A 
ATOM     42  N   UNL A   1      40.323  29.187  30.110  1.00  0.00    -0.354 N 
ATOM     43  C   UNL A   1      43.341  27.782  32.853  1.00  0.00     0.074 A 
ATOM     44  C   UNL A   1      44.238  26.848  32.208  1.00  0.00     0.031 C 
ATOM     45  C   UNL A   1      39.245  29.335  28.157  1.00  0.00     0.029 A 
ATOM     46  C   UNL A   1      39.223  29.786  29.544  1.00  0.00     0.049 A 
ATOM     47  H   UNL A   1      40.577  29.308  31.053  1.00  0.00     0.167 HD
ATOM     48  C   UNL A   1      43.439  28.162  34.149  1.00  0.00     0.037 A 
ATOM     49  C   UNL A   1      38.298  30.602  30.082  1.00  0.00     0.037 A 
ATOM     50  C   UNL A   1      42.552  29.102  34.786  1.00  0.00     0.049 A 
ATOM     51  C   UNL A   1      38.417  30.993  31.530  1.00  0.00     0.074 A 
ATOM     52  C   UNL A   1      42.601  29.591  36.080  1.00  0.00     0.029 A 
ATOM     53  N   UNL A   1      41.451  29.687  34.180  1.00  0.00    -0.354 N 
ATOM     54  N   UNL A   1      39.328  30.652  32.408  1.00  0.00    -0.248 NA
ATOM     55  C   UNL A   1      37.382  31.893  32.059  1.00  0.00     0.031 C 
ATOM     56  C   UNL A   1      41.496  30.426  36.274  1.00  0.00     0.029 A 
ATOM     57  C   UNL A   1      40.796  30.511  35.081  1.00  0.00     0.049 A 
ATOM     58  H   UNL A   1      41.176  29.540  33.245  1.00  0.00     0.167 HD
ATOM     59  C   UNL A   1      38.996  31.318  33.582  1.00  0.00     0.074 A 
ATOM     60  C   UNL A   1      37.810  32.098  33.296  1.00  0.00     0.031 C 
ATOM     61  C   UNL A   1      39.617  31.286  34.786  1.00  0.00     0.037 A 
BRANCH  48  62
ATOM     62  C   UNL A   1      44.546  27.561  34.968  1.00  0.00     0.057 A 
ATOM     63  C   UNL A   1      45.784  28.201  35.128  1.00  0.00     0.134 A 
ATOM     64  C   UNL A   1      44.362  26.345  35.639  1.00  0.00     0.134 A 
ATOM     65  F   UNL A   1      46.032  29.364  34.506  1.00  0.00    -0.206 F 
ATOM     66  C   UNL A   1      46.804  27.640  35.897  1.00  0.00     0.040 A 
ATOM     67  C   UNL A   1      45.364  25.790  36.437  1.00  0.00     0.040 A 
ATOM     68  F   UNL A   1      43.201  25.680  35.539  1.00  0.00    -0.206 F 
ATOM     69  C   UNL A   1      46.593  26.435  36.562  1.00  0.00     0.006 A 
ENDBRANCH  48  62
BRANCH  49  70
ATOM     70  C   UNL A   1      37.185  31.124  29.246  1.00  0.00     0.057 A 
ATOM     71  C   UNL A   1      37.203  32.435  28.752  1.00  0.00     0.134 A 
ATOM     72  C   UNL A   1      36.072  30.334  28.935  1.00  0.00     0.134 A 
ATOM     73  F   UNL A   1      38.233  33.247  29.030  1.00  0.00    -0.206 F 
ATOM     74  C   UNL A   1      36.143  32.948  28.002  1.00  0.00     0.040 A 
ATOM     75  C   UNL A   1      35.020  30.825  28.160  1.00  0.00     0.040 A 
ATOM     76  F   UNL A   1      35.996  29.069  29.370  1.00  0.00    -0.206 F 
ATOM     77  C   UNL A   1      35.050  32.140  27.701  1.00  0.00     0.006 A 
ENDBRANCH  49  70
BRANCH  61  78
ATOM     78  C   UNL A   1      39.051  32.153  35.876  1.00  0.00     0.057 A 
ATOM     79  C   UNL A   1      38.159  31.656  36.835  1.00  0.00     0.134 A 
ATOM     80  C   UNL A   1      39.426  33.499  35.979  1.00  0.00     0.134 A 
ATOM     81  F   UNL A   1      37.750  30.380  36.787  1.00  0.00    -0.206 F 
ATOM     82  C   UNL A   1      37.636  32.475  37.838  1.00  0.00     0.040 A 
ATOM     83  C   UNL A   1      38.936  34.318  36.997  1.00  0.00     0.040 A 
ATOM     84  F   UNL A   1      40.285  34.038  35.101  1.00  0.00    -0.206 F 
ATOM     85  C   UNL A   1      38.030  33.809  37.925  1.00  0.00     0.006 A 
ENDBRANCH  61  78
ENDBRANCH  35  36
ENDBRANCH  27  30
ENDBRANCH  25  26
ENDBRANCH  24  25
ENDBRANCH   1  24
TORSDOF 13
ENDMDL
