MODEL 1
REMARK VINA RESULT:     -10.9      0.000      0.000
REMARK SMILES CC[C@H](NC(=O)c1ccc(C)nc1)C(=O)NCCCNC(=O)c1ccc(-c2c3nc(c(-c4c(F)cccc4F)c4ccc([nH]4)c(-c4c(F)cccc4F)c4nc(c(-c5c(F)cccc5F)c5ccc2[nH]5)C=C4)C=C3)cc1
REMARK SMILES IDX 18 1 17 2 16 3 14 4 15 5 3 7 2 8 1 9 4 10 5 11 6 13 7 14
REMARK SMILES IDX 8 15 13 16 9 17 12 18 10 19 11 20 19 21 20 22 21 23 22 25
REMARK SMILES IDX 23 26 24 27 76 28 25 29 75 30 26 31 27 32 28 33 69 34 29 35
REMARK SMILES IDX 74 36 68 37 70 38 30 39 73 40 67 41 66 42 31 44 57 45 40 46
REMARK SMILES IDX 56 47 41 48 44 49 55 50 71 51 42 52 43 53 54 55 72 56 45 57
REMARK SMILES IDX 32 58 33 59 38 60 34 61 35 62 37 63 39 64 36 65 58 66 59 67
REMARK SMILES IDX 64 68 60 69 61 70 63 71 65 72 62 73 46 74 47 75 52 76 48 77
REMARK SMILES IDX 49 78 51 79 53 80 50 81
REMARK H PARENT 16 6 4 12 20 24 70 43 44 54
REMARK Flexibility Score: inf
ROOT
ATOM      1  C   UNL A   1      31.287  31.743  26.602  1.00  0.00     0.042 C 
ENDROOT
BRANCH   1   2
ATOM      2  C   UNL A   1      31.324  30.810  25.397  1.00  0.00     0.117 C 
BRANCH   2   3
ATOM      3  N   UNL A   1      32.581  30.101  25.243  1.00  0.00    -0.354 N 
ATOM      4  C   UNL A   1      32.840  28.760  25.218  1.00  0.00     0.242 C 
ATOM      5  O   UNL A   1      33.978  28.409  24.897  1.00  0.00    -0.273 OA
ATOM      6  H   UNL A   1      33.372  30.678  25.139  1.00  0.00     0.163 HD
BRANCH   4   7
ATOM      7  C   UNL A   1      31.721  27.722  25.441  1.00  0.00     0.171 C 
BRANCH   7   8
ATOM      8  C   UNL A   1      31.862  27.204  26.897  1.00  0.00     0.032 C 
ATOM      9  C   UNL A   1      31.539  28.171  28.026  1.00  0.00     0.006 C 
ENDBRANCH   7   8
BRANCH   7  10
ATOM     10  N   UNL A   1      31.673  26.675  24.413  1.00  0.00    -0.340 N 
ATOM     11  C   UNL A   1      30.777  26.533  23.377  1.00  0.00     0.253 C 
ATOM     12  H   UNL A   1      32.374  25.987  24.470  1.00  0.00     0.164 HD
ATOM     13  O   UNL A   1      30.657  25.438  22.834  1.00  0.00    -0.269 OA
BRANCH  11  14
ATOM     14  C   UNL A   1      29.981  27.665  22.881  1.00  0.00     0.058 A 
ATOM     15  C   UNL A   1      28.658  27.859  23.265  1.00  0.00     0.017 A 
ATOM     16  C   UNL A   1      30.587  28.662  22.133  1.00  0.00     0.125 A 
ATOM     17  C   UNL A   1      27.964  28.979  22.817  1.00  0.00     0.024 A 
ATOM     18  N   UNL A   1      29.935  29.766  21.683  1.00  0.00    -0.261 NA
ATOM     19  C   UNL A   1      28.627  29.900  22.014  1.00  0.00     0.037 A 
ATOM     20  C   UNL A   1      27.912  31.130  21.539  1.00  0.00     0.066 C 
ENDBRANCH  11  14
ENDBRANCH   7  10
ENDBRANCH   4   7
ENDBRANCH   2   3
ENDBRANCH   1   2
BRANCH   1  21
ATOM     21  C   UNL A   1      32.606  32.440  26.913  1.00  0.00     0.118 C 
BRANCH  21  22
ATOM     22  N   UNL A   1      32.431  33.791  27.420  1.00  0.00    -0.352 N 
ATOM     23  C   UNL A   1      33.074  34.463  28.428  1.00  0.00     0.251 C 
ATOM     24  H   UNL A   1      31.731  34.312  26.963  1.00  0.00     0.163 HD
ATOM     25  O   UNL A   1      32.635  35.550  28.795  1.00  0.00    -0.269 OA
BRANCH  23  26
ATOM     26  C   UNL A   1      34.268  33.894  29.092  1.00  0.00     0.039 A 
ATOM     27  C   UNL A   1      34.077  32.946  30.103  1.00  0.00     0.014 A 
ATOM     28  C   UNL A   1      35.562  34.314  28.772  1.00  0.00     0.014 A 
ATOM     29  C   UNL A   1      35.178  32.378  30.746  1.00  0.00     0.010 A 
ATOM     30  C   UNL A   1      36.663  33.693  29.361  1.00  0.00     0.010 A 
ATOM     31  C   UNL A   1      36.483  32.722  30.357  1.00  0.00    -0.014 A 
BRANCH  31  32
ATOM     32  C   UNL A   1      37.666  32.078  30.982  1.00  0.00     0.031 A 
ATOM     33  C   UNL A   1      38.411  30.992  30.259  1.00  0.00     0.074 A 
ATOM     34  C   UNL A   1      38.034  32.432  32.229  1.00  0.00     0.049 A 
ATOM     35  N   UNL A   1      39.417  30.262  30.672  1.00  0.00    -0.248 NA
ATOM     36  C   UNL A   1      37.954  30.667  28.898  1.00  0.00     0.031 C 
ATOM     37  C   UNL A   1      37.372  33.445  33.054  1.00  0.00     0.029 A 
ATOM     38  N   UNL A   1      39.053  31.971  33.025  1.00  0.00    -0.354 N 
ATOM     39  C   UNL A   1      39.698  29.382  29.635  1.00  0.00     0.074 A 
ATOM     40  C   UNL A   1      38.732  29.639  28.590  1.00  0.00     0.031 C 
ATOM     41  C   UNL A   1      38.014  33.544  34.229  1.00  0.00     0.029 A 
ATOM     42  C   UNL A   1      39.108  32.579  34.256  1.00  0.00     0.049 A 
ATOM     43  H   UNL A   1      39.686  31.272  32.740  1.00  0.00     0.167 HD
ATOM     44  C   UNL A   1      40.686  28.458  29.552  1.00  0.00     0.037 A 
ATOM     45  C   UNL A   1      39.941  32.374  35.294  1.00  0.00     0.037 A 
ATOM     46  C   UNL A   1      41.666  28.223  30.579  1.00  0.00     0.049 A 
ATOM     47  C   UNL A   1      41.024  31.339  35.178  1.00  0.00     0.074 A 
ATOM     48  C   UNL A   1      42.739  27.348  30.563  1.00  0.00     0.029 A 
ATOM     49  N   UNL A   1      41.695  28.868  31.807  1.00  0.00    -0.354 N 
ATOM     50  N   UNL A   1      41.311  30.552  34.170  1.00  0.00    -0.248 NA
ATOM     51  C   UNL A   1      41.901  31.166  36.344  1.00  0.00     0.031 C 
ATOM     52  C   UNL A   1      43.396  27.438  31.795  1.00  0.00     0.029 A 
ATOM     53  C   UNL A   1      42.757  28.399  32.561  1.00  0.00     0.049 A 
ATOM     54  H   UNL A   1      41.055  29.557  32.097  1.00  0.00     0.167 HD
ATOM     55  C   UNL A   1      42.415  29.810  34.569  1.00  0.00     0.074 A 
ATOM     56  C   UNL A   1      42.754  30.251  35.907  1.00  0.00     0.031 C 
ATOM     57  C   UNL A   1      43.089  28.852  33.887  1.00  0.00     0.037 A 
BRANCH  44  58
ATOM     58  C   UNL A   1      40.757  27.633  28.301  1.00  0.00     0.057 A 
ATOM     59  C   UNL A   1      40.069  26.418  28.180  1.00  0.00     0.134 A 
ATOM     60  C   UNL A   1      41.488  28.074  27.192  1.00  0.00     0.134 A 
ATOM     61  F   UNL A   1      39.359  25.933  29.210  1.00  0.00    -0.206 F 
ATOM     62  C   UNL A   1      40.125  25.662  27.008  1.00  0.00     0.040 A 
ATOM     63  C   UNL A   1      41.531  27.338  26.007  1.00  0.00     0.040 A 
ATOM     64  F   UNL A   1      42.166  29.231  27.239  1.00  0.00    -0.206 F 
ATOM     65  C   UNL A   1      40.852  26.125  25.915  1.00  0.00     0.006 A 
ENDBRANCH  44  58
BRANCH  45  66
ATOM     66  C   UNL A   1      39.799  33.184  36.529  1.00  0.00     0.057 A 
ATOM     67  C   UNL A   1      38.931  32.785  37.553  1.00  0.00     0.134 A 
ATOM     68  C   UNL A   1      40.516  34.370  36.715  1.00  0.00     0.134 A 
ATOM     69  F   UNL A   1      38.203  31.667  37.423  1.00  0.00    -0.206 F 
ATOM     70  C   UNL A   1      38.769  33.548  38.710  1.00  0.00     0.040 A 
ATOM     71  C   UNL A   1      40.381  35.131  37.877  1.00  0.00     0.040 A 
ATOM     72  F   UNL A   1      41.368  34.801  35.772  1.00  0.00    -0.206 F 
ATOM     73  C   UNL A   1      39.499  34.723  38.876  1.00  0.00     0.006 A 
ENDBRANCH  45  66
BRANCH  57  74
ATOM     74  C   UNL A   1      44.280  28.242  34.562  1.00  0.00     0.057 A 
ATOM     75  C   UNL A   1      44.179  27.071  35.323  1.00  0.00     0.134 A 
ATOM     76  C   UNL A   1      45.551  28.812  34.415  1.00  0.00     0.134 A 
ATOM     77  F   UNL A   1      42.987  26.484  35.512  1.00  0.00    -0.206 F 
ATOM     78  C   UNL A   1      45.296  26.500  35.933  1.00  0.00     0.040 A 
ATOM     79  C   UNL A   1      46.680  28.237  35.000  1.00  0.00     0.040 A 
ATOM     80  F   UNL A   1      45.717  29.930  33.692  1.00  0.00    -0.206 F 
ATOM     81  C   UNL A   1      46.553  27.081  35.766  1.00  0.00     0.006 A 
ENDBRANCH  57  74
ENDBRANCH  31  32
ENDBRANCH  23  26
ENDBRANCH  21  22
ENDBRANCH   1  21
TORSDOF 13
ENDMDL
MODEL 2
REMARK VINA RESULT:     -10.9      5.785     10.533
REMARK SMILES CC[C@H](NC(=O)c1ccc(C)nc1)C(=O)NCCCNC(=O)c1ccc(-c2c3nc(c(-c4c(F)cccc4F)c4ccc([nH]4)c(-c4c(F)cccc4F)c4nc(c(-c5c(F)cccc5F)c5ccc2[nH]5)C=C4)C=C3)cc1
REMARK SMILES IDX 18 1 17 2 16 3 14 4 15 5 3 7 2 8 1 9 4 10 5 11 6 13 7 14
REMARK SMILES IDX 8 15 13 16 9 17 12 18 10 19 11 20 19 21 20 22 21 23 22 25
REMARK SMILES IDX 23 26 24 27 76 28 25 29 75 30 26 31 27 32 28 33 69 34 29 35
REMARK SMILES IDX 74 36 68 37 70 38 30 39 73 40 67 41 66 42 31 44 57 45 40 46
REMARK SMILES IDX 56 47 41 48 44 49 55 50 71 51 42 52 43 53 54 55 72 56 45 57
REMARK SMILES IDX 32 58 33 59 38 60 34 61 35 62 37 63 39 64 36 65 58 66 59 67
REMARK SMILES IDX 64 68 60 69 61 70 63 71 65 72 62 73 46 74 47 75 52 76 48 77
REMARK SMILES IDX 49 78 51 79 53 80 50 81
REMARK H PARENT 16 6 4 12 20 24 70 43 44 54
REMARK Flexibility Score: inf
ROOT
ATOM      1  C   UNL A   1      37.614  19.585  24.821  1.00  0.00     0.042 C 
ENDROOT
BRANCH   1   2
ATOM      2  C   UNL A   1      36.316  20.365  24.995  1.00  0.00     0.117 C 
BRANCH   2   3
ATOM      3  N   UNL A   1      36.503  21.700  25.534  1.00  0.00    -0.354 N 
ATOM      4  C   UNL A   1      35.722  22.815  25.419  1.00  0.00     0.242 C 
ATOM      5  O   UNL A   1      36.013  23.786  26.122  1.00  0.00    -0.273 OA
ATOM      6  H   UNL A   1      37.321  21.821  26.068  1.00  0.00     0.163 HD
BRANCH   4   7
ATOM      7  C   UNL A   1      34.442  22.814  24.556  1.00  0.00     0.171 C 
BRANCH   7   8
ATOM      8  C   UNL A   1      34.566  23.993  23.556  1.00  0.00     0.032 C 
ATOM      9  C   UNL A   1      33.445  24.182  22.544  1.00  0.00     0.006 C 
ENDBRANCH   7   8
BRANCH   7  10
ATOM     10  N   UNL A   1      33.202  22.793  25.341  1.00  0.00    -0.340 N 
ATOM     11  C   UNL A   1      32.199  21.850  25.333  1.00  0.00     0.253 C 
ATOM     12  H   UNL A   1      33.070  23.553  25.953  1.00  0.00     0.164 HD
ATOM     13  O   UNL A   1      31.090  22.149  25.764  1.00  0.00    -0.269 OA
BRANCH  11  14
ATOM     14  C   UNL A   1      32.429  20.480  24.849  1.00  0.00     0.058 A 
ATOM     15  C   UNL A   1      32.302  20.143  23.505  1.00  0.00     0.017 A 
ATOM     16  C   UNL A   1      32.935  19.518  25.708  1.00  0.00     0.125 A 
ATOM     17  C   UNL A   1      32.589  18.847  23.085  1.00  0.00     0.024 A 
ATOM     18  N   UNL A   1      33.225  18.247  25.327  1.00  0.00    -0.261 NA
ATOM     19  C   UNL A   1      33.029  17.922  24.025  1.00  0.00     0.037 A 
ATOM     20  C   UNL A   1      33.372  16.526  23.597  1.00  0.00     0.066 C 
ENDBRANCH  11  14
ENDBRANCH   7  10
ENDBRANCH   4   7
ENDBRANCH   2   3
ENDBRANCH   1   2
BRANCH   1  21
ATOM     21  C   UNL A   1      38.788  20.100  25.646  1.00  0.00     0.118 C 
BRANCH  21  22
ATOM     22  N   UNL A   1      39.857  19.126  25.787  1.00  0.00    -0.352 N 
ATOM     23  C   UNL A   1      41.186  19.287  26.083  1.00  0.00     0.251 C 
ATOM     24  H   UNL A   1      39.580  18.192  25.643  1.00  0.00     0.163 HD
ATOM     25  O   UNL A   1      41.941  18.325  25.978  1.00  0.00    -0.269 OA
BRANCH  23  26
ATOM     26  C   UNL A   1      41.727  20.599  26.504  1.00  0.00     0.039 A 
ATOM     27  C   UNL A   1      42.117  21.505  25.511  1.00  0.00     0.014 A 
ATOM     28  C   UNL A   1      41.902  20.928  27.850  1.00  0.00     0.014 A 
ATOM     29  C   UNL A   1      42.621  22.758  25.868  1.00  0.00     0.010 A 
ATOM     30  C   UNL A   1      42.335  22.205  28.205  1.00  0.00     0.010 A 
ATOM     31  C   UNL A   1      42.703  23.132  27.218  1.00  0.00    -0.014 A 
BRANCH  31  32
ATOM     32  C   UNL A   1      43.174  24.483  27.614  1.00  0.00     0.031 A 
ATOM     33  C   UNL A   1      42.189  25.539  28.031  1.00  0.00     0.074 A 
ATOM     34  C   UNL A   1      44.486  24.779  27.540  1.00  0.00     0.049 A 
ATOM     35  N   UNL A   1      42.401  26.795  28.336  1.00  0.00    -0.248 NA
ATOM     36  C   UNL A   1      40.774  25.138  28.094  1.00  0.00     0.031 C 
ATOM     37  C   UNL A   1      45.541  23.856  27.115  1.00  0.00     0.029 A 
ATOM     38  N   UNL A   1      45.157  25.945  27.815  1.00  0.00    -0.354 N 
ATOM     39  C   UNL A   1      41.151  27.336  28.606  1.00  0.00     0.074 A 
ATOM     40  C   UNL A   1      40.181  26.286  28.389  1.00  0.00     0.031 C 
ATOM     41  C   UNL A   1      46.726  24.484  27.177  1.00  0.00     0.029 A 
ATOM     42  C   UNL A   1      46.513  25.861  27.611  1.00  0.00     0.049 A 
ATOM     43  H   UNL A   1      44.709  26.764  28.129  1.00  0.00     0.167 HD
ATOM     44  C   UNL A   1      40.841  28.589  29.019  1.00  0.00     0.037 A 
ATOM     45  C   UNL A   1      47.476  26.793  27.748  1.00  0.00     0.037 A 
ATOM     46  C   UNL A   1      41.809  29.625  29.266  1.00  0.00     0.049 A 
ATOM     47  C   UNL A   1      47.104  28.176  28.202  1.00  0.00     0.074 A 
ATOM     48  C   UNL A   1      41.596  30.908  29.739  1.00  0.00     0.029 A 
ATOM     49  N   UNL A   1      43.174  29.497  29.059  1.00  0.00    -0.354 N 
ATOM     50  N   UNL A   1      45.923  28.658  28.505  1.00  0.00    -0.248 NA
ATOM     51  C   UNL A   1      48.201  29.145  28.335  1.00  0.00     0.031 C 
ATOM     52  C   UNL A   1      42.829  31.568  29.786  1.00  0.00     0.029 A 
ATOM     53  C   UNL A   1      43.814  30.682  29.381  1.00  0.00     0.049 A 
ATOM     54  H   UNL A   1      43.621  28.683  28.732  1.00  0.00     0.167 HD
ATOM     55  C   UNL A   1      46.137  29.975  28.889  1.00  0.00     0.074 A 
ATOM     56  C   UNL A   1      47.563  30.213  28.793  1.00  0.00     0.031 C 
ATOM     57  C   UNL A   1      45.234  30.903  29.289  1.00  0.00     0.037 A 
BRANCH  44  58
ATOM     58  C   UNL A   1      39.391  28.906  29.236  1.00  0.00     0.057 A 
ATOM     59  C   UNL A   1      38.579  29.387  28.200  1.00  0.00     0.134 A 
ATOM     60  C   UNL A   1      38.789  28.692  30.482  1.00  0.00     0.134 A 
ATOM     61  F   UNL A   1      39.097  29.625  26.985  1.00  0.00    -0.206 F 
ATOM     62  C   UNL A   1      37.227  29.666  28.402  1.00  0.00     0.040 A 
ATOM     63  C   UNL A   1      37.432  28.944  30.689  1.00  0.00     0.040 A 
ATOM     64  F   UNL A   1      39.508  28.228  31.515  1.00  0.00    -0.206 F 
ATOM     65  C   UNL A   1      36.648  29.437  29.648  1.00  0.00     0.006 A 
ENDBRANCH  44  58
BRANCH  45  66
ATOM     66  C   UNL A   1      48.890  26.442  27.475  1.00  0.00     0.057 A 
ATOM     67  C   UNL A   1      49.428  26.576  26.189  1.00  0.00     0.134 A 
ATOM     68  C   UNL A   1      49.735  25.961  28.481  1.00  0.00     0.134 A 
ATOM     69  F   UNL A   1      48.662  27.014  25.179  1.00  0.00    -0.206 F 
ATOM     70  C   UNL A   1      50.751  26.229  25.910  1.00  0.00     0.040 A 
ATOM     71  C   UNL A   1      51.066  25.632  28.223  1.00  0.00     0.040 A 
ATOM     72  F   UNL A   1      49.280  25.817  29.735  1.00  0.00    -0.206 F 
ATOM     73  C   UNL A   1      51.575  25.758  26.931  1.00  0.00     0.006 A 
ENDBRANCH  45  66
BRANCH  57  74
ATOM     74  C   UNL A   1      45.763  32.248  29.685  1.00  0.00     0.057 A 
ATOM     75  C   UNL A   1      45.878  33.297  28.764  1.00  0.00     0.134 A 
ATOM     76  C   UNL A   1      46.127  32.507  31.012  1.00  0.00     0.134 A 
ATOM     77  F   UNL A   1      45.558  33.108  27.475  1.00  0.00    -0.206 F 
ATOM     78  C   UNL A   1      46.355  34.551  29.145  1.00  0.00     0.040 A 
ATOM     79  C   UNL A   1      46.583  33.764  31.411  1.00  0.00     0.040 A 
ATOM     80  F   UNL A   1      46.034  31.546  31.944  1.00  0.00    -0.206 F 
ATOM     81  C   UNL A   1      46.703  34.788  30.475  1.00  0.00     0.006 A 
ENDBRANCH  57  74
ENDBRANCH  31  32
ENDBRANCH  23  26
ENDBRANCH  21  22
ENDBRANCH   1  21
TORSDOF 13
ENDMDL
MODEL 3
REMARK VINA RESULT:     -10.9      0.433      6.440
REMARK SMILES CC[C@H](NC(=O)c1ccc(C)nc1)C(=O)NCCCNC(=O)c1ccc(-c2c3nc(c(-c4c(F)cccc4F)c4ccc([nH]4)c(-c4c(F)cccc4F)c4nc(c(-c5c(F)cccc5F)c5ccc2[nH]5)C=C4)C=C3)cc1
REMARK SMILES IDX 18 1 17 2 16 3 14 4 15 5 3 7 2 8 1 9 4 10 5 11 6 13 7 14
REMARK SMILES IDX 8 15 13 16 9 17 12 18 10 19 11 20 19 21 20 22 21 23 22 25
REMARK SMILES IDX 23 26 24 27 76 28 25 29 75 30 26 31 27 32 28 33 69 34 29 35
REMARK SMILES IDX 74 36 68 37 70 38 30 39 73 40 67 41 66 42 31 44 57 45 40 46
REMARK SMILES IDX 56 47 41 48 44 49 55 50 71 51 42 52 43 53 54 55 72 56 45 57
REMARK SMILES IDX 32 58 33 59 38 60 34 61 35 62 37 63 39 64 36 65 58 66 59 67
REMARK SMILES IDX 64 68 60 69 61 70 63 71 65 72 62 73 46 74 47 75 52 76 48 77
REMARK SMILES IDX 49 78 51 79 53 80 50 81
REMARK H PARENT 16 6 4 12 20 24 70 43 44 54
REMARK Flexibility Score: inf
ROOT
ATOM      1  C   UNL A   1      31.166  32.263  26.212  1.00  0.00     0.042 C 
ENDROOT
BRANCH   1   2
ATOM      2  C   UNL A   1      31.191  30.871  25.591  1.00  0.00     0.117 C 
BRANCH   2   3
ATOM      3  N   UNL A   1      32.516  30.283  25.525  1.00  0.00    -0.354 N 
ATOM      4  C   UNL A   1      32.896  28.976  25.408  1.00  0.00     0.242 C 
ATOM      5  O   UNL A   1      34.090  28.749  25.195  1.00  0.00    -0.273 OA
ATOM      6  H   UNL A   1      33.259  30.927  25.571  1.00  0.00     0.163 HD
BRANCH   4   7
ATOM      7  C   UNL A   1      31.857  27.835  25.397  1.00  0.00     0.171 C 
BRANCH   7   8
ATOM      8  C   UNL A   1      31.900  27.164  26.796  1.00  0.00     0.032 C 
ATOM      9  C   UNL A   1      31.642  28.044  28.010  1.00  0.00     0.006 C 
ENDBRANCH   7   8
BRANCH   7  10
ATOM     10  N   UNL A   1      32.003  26.914  24.263  1.00  0.00    -0.340 N 
ATOM     11  C   UNL A   1      31.186  26.772  23.165  1.00  0.00     0.253 C 
ATOM     12  H   UNL A   1      32.789  26.322  24.292  1.00  0.00     0.164 HD
ATOM     13  O   UNL A   1      31.243  25.740  22.503  1.00  0.00    -0.269 OA
BRANCH  11  14
ATOM     14  C   UNL A   1      30.265  27.838  22.742  1.00  0.00     0.058 A 
ATOM     15  C   UNL A   1      28.944  27.885  23.177  1.00  0.00     0.017 A 
ATOM     16  C   UNL A   1      30.742  28.917  22.017  1.00  0.00     0.125 A 
ATOM     17  C   UNL A   1      28.127  28.947  22.799  1.00  0.00     0.024 A 
ATOM     18  N   UNL A   1      29.970  29.967  21.634  1.00  0.00    -0.261 NA
ATOM     19  C   UNL A   1      28.668  29.959  22.013  1.00  0.00     0.037 A 
ATOM     20  C   UNL A   1      27.819  31.129  21.613  1.00  0.00     0.066 C 
ENDBRANCH  11  14
ENDBRANCH   7  10
ENDBRANCH   4   7
ENDBRANCH   2   3
ENDBRANCH   1   2
BRANCH   1  21
ATOM     21  C   UNL A   1      32.352  32.584  27.114  1.00  0.00     0.118 C 
BRANCH  21  22
ATOM     22  N   UNL A   1      32.377  33.970  27.550  1.00  0.00    -0.352 N 
ATOM     23  C   UNL A   1      33.167  34.607  28.473  1.00  0.00     0.251 C 
ATOM     24  H   UNL A   1      31.713  34.549  27.111  1.00  0.00     0.163 HD
ATOM     25  O   UNL A   1      32.890  35.757  28.803  1.00  0.00    -0.269 OA
BRANCH  23  26
ATOM     26  C   UNL A   1      34.330  33.929  29.090  1.00  0.00     0.039 A 
ATOM     27  C   UNL A   1      34.088  32.935  30.044  1.00  0.00     0.014 A 
ATOM     28  C   UNL A   1      35.644  34.291  28.783  1.00  0.00     0.014 A 
ATOM     29  C   UNL A   1      35.158  32.265  30.641  1.00  0.00     0.010 A 
ATOM     30  C   UNL A   1      36.709  33.570  29.322  1.00  0.00     0.010 A 
ATOM     31  C   UNL A   1      36.478  32.553  30.260  1.00  0.00    -0.014 A 
BRANCH  31  32
ATOM     32  C   UNL A   1      37.624  31.804  30.834  1.00  0.00     0.031 A 
ATOM     33  C   UNL A   1      38.108  32.103  32.225  1.00  0.00     0.074 A 
ATOM     34  C   UNL A   1      38.269  30.893  30.079  1.00  0.00     0.049 A 
ATOM     35  N   UNL A   1      39.137  31.610  32.867  1.00  0.00    -0.248 NA
ATOM     36  C   UNL A   1      37.348  33.105  32.990  1.00  0.00     0.031 C 
ATOM     37  C   UNL A   1      37.923  30.536  28.701  1.00  0.00     0.029 A 
ATOM     38  N   UNL A   1      39.356  30.105  30.363  1.00  0.00    -0.354 N 
ATOM     39  C   UNL A   1      39.159  32.253  34.099  1.00  0.00     0.074 A 
ATOM     40  C   UNL A   1      38.068  33.202  34.098  1.00  0.00     0.031 C 
ATOM     41  C   UNL A   1      38.768  29.587  28.268  1.00  0.00     0.029 A 
ATOM     42  C   UNL A   1      39.734  29.293  29.321  1.00  0.00     0.049 A 
ATOM     43  H   UNL A   1      39.821  30.120  31.231  1.00  0.00     0.167 HD
ATOM     44  C   UNL A   1      40.000  32.056  35.143  1.00  0.00     0.037 A 
ATOM     45  C   UNL A   1      40.753  28.418  29.221  1.00  0.00     0.037 A 
ATOM     46  C   UNL A   1      41.067  31.090  35.154  1.00  0.00     0.049 A 
ATOM     47  C   UNL A   1      41.674  28.222  30.392  1.00  0.00     0.074 A 
ATOM     48  C   UNL A   1      41.936  30.778  36.186  1.00  0.00     0.029 A 
ATOM     49  N   UNL A   1      41.410  30.278  34.084  1.00  0.00    -0.354 N 
ATOM     50  N   UNL A   1      41.650  28.799  31.569  1.00  0.00    -0.248 NA
ATOM     51  C   UNL A   1      42.764  27.250  30.221  1.00  0.00     0.031 C 
ATOM     52  C   UNL A   1      42.828  29.802  35.728  1.00  0.00     0.029 A 
ATOM     53  C   UNL A   1      42.487  29.477  34.425  1.00  0.00     0.049 A 
ATOM     54  H   UNL A   1      40.954  30.273  33.211  1.00  0.00     0.167 HD
ATOM     55  C   UNL A   1      42.701  28.243  32.286  1.00  0.00     0.074 A 
ATOM     56  C   UNL A   1      43.335  27.274  31.417  1.00  0.00     0.031 C 
ATOM     57  C   UNL A   1      43.103  28.511  33.553  1.00  0.00     0.037 A 
BRANCH  44  58
ATOM     58  C   UNL A   1      39.795  32.902  36.365  1.00  0.00     0.057 A 
ATOM     59  C   UNL A   1      38.886  32.539  37.367  1.00  0.00     0.134 A 
ATOM     60  C   UNL A   1      40.541  34.070  36.561  1.00  0.00     0.134 A 
ATOM     61  F   UNL A   1      38.132  31.437  37.235  1.00  0.00    -0.206 F 
ATOM     62  C   UNL A   1      38.710  33.321  38.510  1.00  0.00     0.040 A 
ATOM     63  C   UNL A   1      40.391  34.847  37.711  1.00  0.00     0.040 A 
ATOM     64  F   UNL A   1      41.432  34.472  35.642  1.00  0.00    -0.206 F 
ATOM     65  C   UNL A   1      39.470  34.475  38.687  1.00  0.00     0.006 A 
ENDBRANCH  44  58
BRANCH  45  66
ATOM     66  C   UNL A   1      40.942  27.640  27.973  1.00  0.00     0.057 A 
ATOM     67  C   UNL A   1      41.717  28.146  26.922  1.00  0.00     0.134 A 
ATOM     68  C   UNL A   1      40.355  26.383  27.795  1.00  0.00     0.134 A 
ATOM     69  F   UNL A   1      42.289  29.355  27.027  1.00  0.00    -0.206 F 
ATOM     70  C   UNL A   1      41.886  27.437  25.732  1.00  0.00     0.040 A 
ATOM     71  C   UNL A   1      40.534  25.652  26.619  1.00  0.00     0.040 A 
ATOM     72  F   UNL A   1      39.606  25.842  28.768  1.00  0.00    -0.206 F 
ATOM     73  C   UNL A   1      41.296  26.184  25.581  1.00  0.00     0.006 A 
ENDBRANCH  45  66
BRANCH  57  74
ATOM     74  C   UNL A   1      44.259  27.719  34.086  1.00  0.00     0.057 A 
ATOM     75  C   UNL A   1      45.571  28.207  34.041  1.00  0.00     0.134 A 
ATOM     76  C   UNL A   1      44.051  26.471  34.686  1.00  0.00     0.134 A 
ATOM     77  F   UNL A   1      45.837  29.390  33.466  1.00  0.00    -0.206 F 
ATOM     78  C   UNL A   1      46.639  27.471  34.554  1.00  0.00     0.040 A 
ATOM     79  C   UNL A   1      45.108  25.737  35.225  1.00  0.00     0.040 A 
ATOM     80  F   UNL A   1      42.817  25.952  34.768  1.00  0.00    -0.206 F 
ATOM     81  C   UNL A   1      46.407  26.235  35.155  1.00  0.00     0.006 A 
ENDBRANCH  57  74
ENDBRANCH  31  32
ENDBRANCH  23  26
ENDBRANCH  21  22
ENDBRANCH   1  21
TORSDOF 13
ENDMDL
