MODEL 1
REMARK VINA RESULT:     -11.6      0.000      0.000
REMARK SMILES C[C@H](CCc1ccco1)NC(=O)c1cccn1CC(=O)NCCCNC(=O)c1ccc(-c2c3nc(c(-c4c(F)cccc4F)c4ccc([nH]4)c(-c4c(F)cccc4F)c4nc(c(-c5c(F)cccc5F)c5ccc2[nH]5)C=C4)C=C3)cc1
REMARK SMILES IDX 19 1 20 2 21 3 18 5 17 6 13 7 14 8 15 9 16 10 11 11 10 12
REMARK SMILES IDX 12 14 2 15 1 16 3 17 4 18 5 19 6 20 9 21 7 22 8 23 22 24
REMARK SMILES IDX 23 25 24 26 25 27 26 28 27 30 28 31 29 32 81 33 30 34 80 35
REMARK SMILES IDX 31 36 32 37 33 38 74 39 34 40 79 41 73 42 75 43 35 44 78 45
REMARK SMILES IDX 72 46 71 47 36 49 62 50 45 51 61 52 46 53 49 54 60 55 76 56
REMARK SMILES IDX 47 57 48 58 59 60 77 61 50 62 37 63 38 64 43 65 39 66 40 67
REMARK SMILES IDX 42 68 44 69 41 70 63 71 64 72 69 73 65 74 66 75 68 76 70 77
REMARK SMILES IDX 67 78 51 79 52 80 57 81 53 82 54 83 56 84 58 85 55 86
REMARK H PARENT 21 4 10 13 25 29 75 48 49 59
REMARK Flexibility Score: inf
ROOT
ATOM      1  C   UNL A   1      34.428  21.330  26.048  1.00  0.00     0.239 C 
ATOM      2  O   UNL A   1      33.585  20.764  26.747  1.00  0.00    -0.273 OA
ATOM      3  N   UNL A   1      35.530  20.615  25.667  1.00  0.00    -0.354 N 
ATOM      4  H   UNL A   1      35.523  19.657  25.891  1.00  0.00     0.163 HD
ENDROOT
BRANCH   1   5
ATOM      5  C   UNL A   1      34.238  22.754  25.560  1.00  0.00     0.222 C 
BRANCH   5   6
ATOM      6  N   UNL A   1      33.037  22.940  24.752  1.00  0.00    -0.334 N 
ATOM      7  C   UNL A   1      31.861  23.574  25.139  1.00  0.00     0.107 A 
ATOM      8  C   UNL A   1      31.030  23.544  24.026  1.00  0.00     0.033 A 
ATOM      9  C   UNL A   1      31.682  22.843  22.987  1.00  0.00     0.020 A 
ATOM     10  C   UNL A   1      32.922  22.490  23.457  1.00  0.00     0.087 A 
BRANCH   7  11
ATOM     11  C   UNL A   1      31.644  24.188  26.438  1.00  0.00     0.268 C 
ATOM     12  N   UNL A   1      31.796  25.545  26.602  1.00  0.00    -0.348 N 
ATOM     13  H   UNL A   1      31.572  25.875  27.502  1.00  0.00     0.164 HD
ATOM     14  O   UNL A   1      31.245  23.549  27.410  1.00  0.00    -0.268 OA
BRANCH  12  15
ATOM     15  C   UNL A   1      32.235  26.578  25.672  1.00  0.00     0.079 C 
ATOM     16  C   UNL A   1      33.463  27.288  26.224  1.00  0.00     0.031 C 
BRANCH  15  17
ATOM     17  C   UNL A   1      31.091  27.524  25.235  1.00  0.00     0.032 C 
BRANCH  17  18
ATOM     18  C   UNL A   1      30.240  27.178  24.015  1.00  0.00     0.077 C 
BRANCH  18  19
ATOM     19  C   UNL A   1      29.781  28.316  23.186  1.00  0.00     0.103 A 
ATOM     20  C   UNL A   1      30.390  29.308  22.446  1.00  0.00     0.045 A 
ATOM     21  O   UNL A   1      28.426  28.423  23.066  1.00  0.00    -0.469 OA
ATOM     22  C   UNL A   1      29.351  30.102  21.904  1.00  0.00     0.042 A 
ATOM     23  C   UNL A   1      28.175  29.501  22.283  1.00  0.00     0.195 A 
ENDBRANCH  18  19
ENDBRANCH  17  18
ENDBRANCH  15  17
ENDBRANCH  12  15
ENDBRANCH   7  11
ENDBRANCH   5   6
ENDBRANCH   1   5
BRANCH   3  24
ATOM     24  C   UNL A   1      36.707  21.100  24.977  1.00  0.00     0.117 C 
BRANCH  24  25
ATOM     25  C   UNL A   1      37.813  20.041  24.976  1.00  0.00     0.042 C 
BRANCH  25  26
ATOM     26  C   UNL A   1      39.040  20.519  25.733  1.00  0.00     0.118 C 
BRANCH  26  27
ATOM     27  N   UNL A   1      40.003  19.439  25.913  1.00  0.00    -0.352 N 
ATOM     28  C   UNL A   1      41.359  19.474  26.114  1.00  0.00     0.251 C 
ATOM     29  H   UNL A   1      39.616  18.535  25.886  1.00  0.00     0.163 HD
ATOM     30  O   UNL A   1      42.007  18.447  26.004  1.00  0.00    -0.269 OA
BRANCH  28  31
ATOM     31  C   UNL A   1      42.036  20.748  26.421  1.00  0.00     0.039 A 
ATOM     32  C   UNL A   1      42.594  21.467  25.355  1.00  0.00     0.014 A 
ATOM     33  C   UNL A   1      42.158  21.213  27.732  1.00  0.00     0.014 A 
ATOM     34  C   UNL A   1      43.193  22.696  25.595  1.00  0.00     0.010 A 
ATOM     35  C   UNL A   1      42.701  22.460  27.972  1.00  0.00     0.010 A 
ATOM     36  C   UNL A   1      43.201  23.203  26.899  1.00  0.00    -0.014 A 
BRANCH  36  37
ATOM     37  C   UNL A   1      43.631  24.587  27.149  1.00  0.00     0.031 A 
ATOM     38  C   UNL A   1      42.431  25.543  27.323  1.00  0.00     0.074 A 
ATOM     39  C   UNL A   1      44.983  24.751  27.256  1.00  0.00     0.049 A 
ATOM     40  N   UNL A   1      42.377  26.840  27.306  1.00  0.00    -0.248 NA
ATOM     41  C   UNL A   1      41.070  24.964  27.523  1.00  0.00     0.031 C 
ATOM     42  C   UNL A   1      45.971  23.660  27.086  1.00  0.00     0.029 A 
ATOM     43  N   UNL A   1      45.807  25.818  27.538  1.00  0.00    -0.354 N 
ATOM     44  C   UNL A   1      41.076  27.220  27.719  1.00  0.00     0.074 A 
ATOM     45  C   UNL A   1      40.288  26.026  27.724  1.00  0.00     0.031 C 
ATOM     46  C   UNL A   1      47.231  24.128  27.191  1.00  0.00     0.029 A 
ATOM     47  C   UNL A   1      47.200  25.551  27.451  1.00  0.00     0.049 A 
ATOM     48  H   UNL A   1      45.456  26.705  27.782  1.00  0.00     0.167 HD
ATOM     49  C   UNL A   1      40.770  28.473  28.173  1.00  0.00     0.037 A 
ATOM     50  C   UNL A   1      48.251  26.422  27.542  1.00  0.00     0.037 A 
ATOM     51  C   UNL A   1      41.911  29.315  28.066  1.00  0.00     0.049 A 
ATOM     52  C   UNL A   1      47.654  27.688  27.989  1.00  0.00     0.074 A 
ATOM     53  C   UNL A   1      42.535  29.889  26.993  1.00  0.00     0.029 A 
ATOM     54  N   UNL A   1      42.745  29.367  29.156  1.00  0.00    -0.354 N 
ATOM     55  N   UNL A   1      47.195  27.898  29.186  1.00  0.00    -0.248 NA
ATOM     56  C   UNL A   1      47.443  28.759  27.011  1.00  0.00     0.031 C 
ATOM     57  C   UNL A   1      43.900  29.838  27.344  1.00  0.00     0.029 A 
ATOM     58  C   UNL A   1      44.030  29.433  28.678  1.00  0.00     0.049 A 
ATOM     59  H   UNL A   1      42.472  29.359  30.101  1.00  0.00     0.167 HD
ATOM     60  C   UNL A   1      46.345  28.960  28.993  1.00  0.00     0.074 A 
ATOM     61  C   UNL A   1      46.772  29.615  27.777  1.00  0.00     0.031 C 
ATOM     62  C   UNL A   1      45.090  28.918  29.511  1.00  0.00     0.037 A 
BRANCH  49  63
ATOM     63  C   UNL A   1      39.602  29.021  28.951  1.00  0.00     0.057 A 
ATOM     64  C   UNL A   1      39.467  28.639  30.308  1.00  0.00     0.134 A 
ATOM     65  C   UNL A   1      38.456  29.564  28.360  1.00  0.00     0.134 A 
ATOM     66  F   UNL A   1      40.516  28.166  31.001  1.00  0.00    -0.206 F 
ATOM     67  C   UNL A   1      38.241  28.645  30.978  1.00  0.00     0.040 A 
ATOM     68  C   UNL A   1      37.230  29.620  29.041  1.00  0.00     0.040 A 
ATOM     69  F   UNL A   1      38.455  29.970  27.084  1.00  0.00    -0.206 F 
ATOM     70  C   UNL A   1      37.109  29.115  30.333  1.00  0.00     0.006 A 
ENDBRANCH  49  63
BRANCH  50  71
ATOM     71  C   UNL A   1      49.728  26.437  27.227  1.00  0.00     0.057 A 
ATOM     72  C   UNL A   1      50.767  26.680  28.129  1.00  0.00     0.134 A 
ATOM     73  C   UNL A   1      50.177  26.046  25.935  1.00  0.00     0.134 A 
ATOM     74  F   UNL A   1      50.539  27.181  29.347  1.00  0.00    -0.206 F 
ATOM     75  C   UNL A   1      52.118  26.421  27.819  1.00  0.00     0.040 A 
ATOM     76  C   UNL A   1      51.506  25.740  25.626  1.00  0.00     0.040 A 
ATOM     77  F   UNL A   1      49.334  25.920  24.901  1.00  0.00    -0.206 F 
ATOM     78  C   UNL A   1      52.486  25.903  26.584  1.00  0.00     0.006 A 
ENDBRANCH  50  71
BRANCH  62  79
ATOM     79  C   UNL A   1      44.934  27.973  30.693  1.00  0.00     0.057 A 
ATOM     80  C   UNL A   1      45.591  28.243  31.902  1.00  0.00     0.134 A 
ATOM     81  C   UNL A   1      44.257  26.744  30.644  1.00  0.00     0.134 A 
ATOM     82  F   UNL A   1      46.245  29.403  32.068  1.00  0.00    -0.206 F 
ATOM     83  C   UNL A   1      45.605  27.333  32.970  1.00  0.00     0.040 A 
ATOM     84  C   UNL A   1      44.251  25.827  31.704  1.00  0.00     0.040 A 
ATOM     85  F   UNL A   1      43.570  26.383  29.564  1.00  0.00    -0.206 F 
ATOM     86  C   UNL A   1      44.940  26.116  32.871  1.00  0.00     0.006 A 
ENDBRANCH  62  79
ENDBRANCH  36  37
ENDBRANCH  28  31
ENDBRANCH  26  27
ENDBRANCH  25  26
ENDBRANCH  24  25
ENDBRANCH   3  24
TORSDOF 16
ENDMDL
MODEL 2
REMARK VINA RESULT:     -11.4      5.266     10.131
REMARK SMILES C[C@H](CCc1ccco1)NC(=O)c1cccn1CC(=O)NCCCNC(=O)c1ccc(-c2c3nc(c(-c4c(F)cccc4F)c4ccc([nH]4)c(-c4c(F)cccc4F)c4nc(c(-c5c(F)cccc5F)c5ccc2[nH]5)C=C4)C=C3)cc1
REMARK SMILES IDX 19 1 20 2 21 3 18 5 17 6 13 7 14 8 15 9 16 10 11 11 10 12
REMARK SMILES IDX 12 14 2 15 1 16 3 17 4 18 5 19 6 20 9 21 7 22 8 23 22 24
REMARK SMILES IDX 23 25 24 26 25 27 26 28 27 30 28 31 29 32 81 33 30 34 80 35
REMARK SMILES IDX 31 36 32 37 33 38 74 39 34 40 79 41 73 42 75 43 35 44 78 45
REMARK SMILES IDX 72 46 71 47 36 49 62 50 45 51 61 52 46 53 49 54 60 55 76 56
REMARK SMILES IDX 47 57 48 58 59 60 77 61 50 62 37 63 38 64 43 65 39 66 40 67
REMARK SMILES IDX 42 68 44 69 41 70 63 71 64 72 69 73 65 74 66 75 68 76 70 77
REMARK SMILES IDX 67 78 51 79 52 80 57 81 53 82 54 83 56 84 58 85 55 86
REMARK H PARENT 21 4 10 13 25 29 75 48 49 59
REMARK Flexibility Score: inf
ROOT
ATOM      1  C   UNL A   1      33.533  28.792  26.651  1.00  0.00     0.239 C 
ATOM      2  O   UNL A   1      34.662  28.598  27.107  1.00  0.00    -0.273 OA
ATOM      3  N   UNL A   1      33.136  30.084  26.447  1.00  0.00    -0.354 N 
ATOM      4  H   UNL A   1      33.826  30.775  26.579  1.00  0.00     0.163 HD
ENDROOT
BRANCH   1   5
ATOM      5  C   UNL A   1      32.620  27.644  26.260  1.00  0.00     0.222 C 
BRANCH   5   6
ATOM      6  N   UNL A   1      33.304  26.568  25.551  1.00  0.00    -0.334 N 
ATOM      7  C   UNL A   1      33.762  26.594  24.238  1.00  0.00     0.107 A 
ATOM      8  C   UNL A   1      34.381  25.368  24.028  1.00  0.00     0.033 A 
ATOM      9  C   UNL A   1      34.247  24.582  25.194  1.00  0.00     0.020 A 
ATOM     10  C   UNL A   1      33.588  25.349  26.121  1.00  0.00     0.087 A 
BRANCH   7  11
ATOM     11  C   UNL A   1      33.647  27.736  23.347  1.00  0.00     0.268 C 
ATOM     12  N   UNL A   1      32.500  27.935  22.614  1.00  0.00    -0.348 N 
ATOM     13  H   UNL A   1      32.493  28.764  22.083  1.00  0.00     0.164 HD
ATOM     14  O   UNL A   1      34.518  28.600  23.267  1.00  0.00    -0.268 OA
BRANCH  12  15
ATOM     15  C   UNL A   1      31.293  27.127  22.487  1.00  0.00     0.079 C 
ATOM     16  C   UNL A   1      31.463  26.109  21.368  1.00  0.00     0.031 C 
BRANCH  15  17
ATOM     17  C   UNL A   1      30.004  27.977  22.388  1.00  0.00     0.032 C 
BRANCH  17  18
ATOM     18  C   UNL A   1      29.829  29.202  23.285  1.00  0.00     0.077 C 
BRANCH  18  19
ATOM     19  C   UNL A   1      29.159  30.374  22.677  1.00  0.00     0.103 A 
ATOM     20  C   UNL A   1      28.782  31.630  23.106  1.00  0.00     0.045 A 
ATOM     21  O   UNL A   1      28.858  30.235  21.353  1.00  0.00    -0.469 OA
ATOM     22  C   UNL A   1      28.156  32.262  22.005  1.00  0.00     0.042 A 
ATOM     23  C   UNL A   1      28.258  31.383  20.953  1.00  0.00     0.195 A 
ENDBRANCH  18  19
ENDBRANCH  17  18
ENDBRANCH  15  17
ENDBRANCH  12  15
ENDBRANCH   7  11
ENDBRANCH   5   6
ENDBRANCH   1   5
BRANCH   3  24
ATOM     24  C   UNL A   1      31.824  30.560  26.062  1.00  0.00     0.117 C 
BRANCH  24  25
ATOM     25  C   UNL A   1      31.526  31.918  26.703  1.00  0.00     0.042 C 
BRANCH  25  26
ATOM     26  C   UNL A   1      32.787  32.561  27.252  1.00  0.00     0.118 C 
BRANCH  26  27
ATOM     27  N   UNL A   1      32.567  33.967  27.572  1.00  0.00    -0.352 N 
ATOM     28  C   UNL A   1      33.111  34.757  28.551  1.00  0.00     0.251 C 
ATOM     29  H   UNL A   1      31.920  34.424  26.988  1.00  0.00     0.163 HD
ATOM     30  O   UNL A   1      32.612  35.844  28.788  1.00  0.00    -0.269 OA
BRANCH  28  31
ATOM     31  C   UNL A   1      34.266  34.285  29.337  1.00  0.00     0.039 A 
ATOM     32  C   UNL A   1      34.020  33.766  30.615  1.00  0.00     0.014 A 
ATOM     33  C   UNL A   1      35.571  34.381  28.849  1.00  0.00     0.014 A 
ATOM     34  C   UNL A   1      35.073  33.262  31.366  1.00  0.00     0.010 A 
ATOM     35  C   UNL A   1      36.615  33.830  29.565  1.00  0.00     0.010 A 
ATOM     36  C   UNL A   1      36.357  33.258  30.814  1.00  0.00    -0.014 A 
BRANCH  36  37
ATOM     37  C   UNL A   1      37.449  32.539  31.491  1.00  0.00     0.031 A 
ATOM     38  C   UNL A   1      37.795  31.213  30.780  1.00  0.00     0.074 A 
ATOM     39  C   UNL A   1      37.993  33.203  32.553  1.00  0.00     0.049 A 
ATOM     40  N   UNL A   1      38.496  30.198  31.185  1.00  0.00    -0.248 NA
ATOM     41  C   UNL A   1      37.255  30.965  29.411  1.00  0.00     0.031 C 
ATOM     42  C   UNL A   1      37.515  34.516  33.049  1.00  0.00     0.029 A 
ATOM     43  N   UNL A   1      39.037  32.954  33.415  1.00  0.00    -0.354 N 
ATOM     44  C   UNL A   1      38.678  29.334  30.076  1.00  0.00     0.074 A 
ATOM     45  C   UNL A   1      37.797  29.800  29.052  1.00  0.00     0.031 C 
ATOM     46  C   UNL A   1      38.203  34.898  34.143  1.00  0.00     0.029 A 
ATOM     47  C   UNL A   1      39.198  33.898  34.465  1.00  0.00     0.049 A 
ATOM     48  H   UNL A   1      39.630  32.175  33.313  1.00  0.00     0.167 HD
ATOM     49  C   UNL A   1      39.654  28.378  30.024  1.00  0.00     0.037 A 
ATOM     50  C   UNL A   1      40.045  33.855  35.539  1.00  0.00     0.037 A 
ATOM     51  C   UNL A   1      40.355  28.338  31.261  1.00  0.00     0.049 A 
ATOM     52  C   UNL A   1      40.944  32.726  35.266  1.00  0.00     0.074 A 
ATOM     53  C   UNL A   1      40.010  27.875  32.502  1.00  0.00     0.029 A 
ATOM     54  N   UNL A   1      41.462  29.142  31.370  1.00  0.00    -0.354 N 
ATOM     55  N   UNL A   1      41.871  32.731  34.356  1.00  0.00    -0.248 NA
ATOM     56  C   UNL A   1      40.725  31.457  35.968  1.00  0.00     0.031 C 
ATOM     57  C   UNL A   1      40.627  28.793  33.375  1.00  0.00     0.029 A 
ATOM     58  C   UNL A   1      41.476  29.639  32.650  1.00  0.00     0.049 A 
ATOM     59  H   UNL A   1      42.122  29.329  30.664  1.00  0.00     0.167 HD
ATOM     60  C   UNL A   1      42.086  31.391  34.147  1.00  0.00     0.074 A 
ATOM     61  C   UNL A   1      41.621  30.707  35.334  1.00  0.00     0.031 C 
ATOM     62  C   UNL A   1      42.125  30.907  32.878  1.00  0.00     0.037 A 
BRANCH  49  63
ATOM     63  C   UNL A   1      40.252  27.588  28.889  1.00  0.00     0.057 A 
ATOM     64  C   UNL A   1      41.033  28.282  27.933  1.00  0.00     0.134 A 
ATOM     65  C   UNL A   1      39.803  26.323  28.497  1.00  0.00     0.134 A 
ATOM     66  F   UNL A   1      41.574  29.478  28.219  1.00  0.00    -0.206 F 
ATOM     67  C   UNL A   1      41.217  27.823  26.627  1.00  0.00     0.040 A 
ATOM     68  C   UNL A   1      40.024  25.829  27.202  1.00  0.00     0.040 A 
ATOM     69  F   UNL A   1      39.061  25.562  29.311  1.00  0.00    -0.206 F 
ATOM     70  C   UNL A   1      40.688  26.598  26.250  1.00  0.00     0.006 A 
ENDBRANCH  49  63
BRANCH  50  71
ATOM     71  C   UNL A   1      40.210  34.554  36.868  1.00  0.00     0.057 A 
ATOM     72  C   UNL A   1      41.164  35.525  37.183  1.00  0.00     0.134 A 
ATOM     73  C   UNL A   1      39.253  34.342  37.899  1.00  0.00     0.134 A 
ATOM     74  F   UNL A   1      42.214  35.762  36.392  1.00  0.00    -0.206 F 
ATOM     75  C   UNL A   1      41.089  36.311  38.351  1.00  0.00     0.040 A 
ATOM     76  C   UNL A   1      39.137  35.143  39.038  1.00  0.00     0.040 A 
ATOM     77  F   UNL A   1      38.357  33.346  37.840  1.00  0.00    -0.206 F 
ATOM     78  C   UNL A   1      40.048  36.157  39.257  1.00  0.00     0.006 A 
ENDBRANCH  50  71
BRANCH  62  79
ATOM     79  C   UNL A   1      42.474  31.947  31.824  1.00  0.00     0.057 A 
ATOM     80  C   UNL A   1      43.747  32.538  31.811  1.00  0.00     0.134 A 
ATOM     81  C   UNL A   1      41.563  32.476  30.897  1.00  0.00     0.134 A 
ATOM     82  F   UNL A   1      44.704  32.089  32.637  1.00  0.00    -0.206 F 
ATOM     83  C   UNL A   1      44.071  33.606  30.962  1.00  0.00     0.040 A 
ATOM     84  C   UNL A   1      41.872  33.536  30.034  1.00  0.00     0.040 A 
ATOM     85  F   UNL A   1      40.332  31.984  30.789  1.00  0.00    -0.206 F 
ATOM     86  C   UNL A   1      43.130  34.115  30.074  1.00  0.00     0.006 A 
ENDBRANCH  62  79
ENDBRANCH  36  37
ENDBRANCH  28  31
ENDBRANCH  26  27
ENDBRANCH  25  26
ENDBRANCH  24  25
ENDBRANCH   3  24
TORSDOF 16
ENDMDL
MODEL 3
REMARK VINA RESULT:     -11.4      4.904     10.412
REMARK SMILES C[C@H](CCc1ccco1)NC(=O)c1cccn1CC(=O)NCCCNC(=O)c1ccc(-c2c3nc(c(-c4c(F)cccc4F)c4ccc([nH]4)c(-c4c(F)cccc4F)c4nc(c(-c5c(F)cccc5F)c5ccc2[nH]5)C=C4)C=C3)cc1
REMARK SMILES IDX 19 1 20 2 21 3 18 5 17 6 13 7 14 8 15 9 16 10 11 11 10 12
REMARK SMILES IDX 12 14 2 15 1 16 3 17 4 18 5 19 6 20 9 21 7 22 8 23 22 24
REMARK SMILES IDX 23 25 24 26 25 27 26 28 27 30 28 31 29 32 81 33 30 34 80 35
REMARK SMILES IDX 31 36 32 37 33 38 74 39 34 40 79 41 73 42 75 43 35 44 78 45
REMARK SMILES IDX 72 46 71 47 36 49 62 50 45 51 61 52 46 53 49 54 60 55 76 56
REMARK SMILES IDX 47 57 48 58 59 60 77 61 50 62 37 63 38 64 43 65 39 66 40 67
REMARK SMILES IDX 42 68 44 69 41 70 63 71 64 72 69 73 65 74 66 75 68 76 70 77
REMARK SMILES IDX 67 78 51 79 52 80 57 81 53 82 54 83 56 84 58 85 55 86
REMARK H PARENT 21 4 10 13 25 29 75 48 49 59
REMARK Flexibility Score: inf
ROOT
ATOM      1  C   UNL A   1      31.740  28.457  27.028  1.00  0.00     0.239 C 
ATOM      2  O   UNL A   1      31.496  27.741  28.001  1.00  0.00    -0.273 OA
ATOM      3  N   UNL A   1      31.624  29.811  27.183  1.00  0.00    -0.354 N 
ATOM      4  H   UNL A   1      31.454  30.129  28.099  1.00  0.00     0.163 HD
ENDROOT
BRANCH   1   5
ATOM      5  C   UNL A   1      32.221  27.880  25.709  1.00  0.00     0.222 C 
BRANCH   5   6
ATOM      6  N   UNL A   1      31.144  27.358  24.873  1.00  0.00    -0.334 N 
ATOM      7  C   UNL A   1      30.685  26.046  24.827  1.00  0.00     0.107 A 
ATOM      8  C   UNL A   1      29.629  26.046  23.925  1.00  0.00     0.033 A 
ATOM      9  C   UNL A   1      29.487  27.344  23.385  1.00  0.00     0.020 A 
ATOM     10  C   UNL A   1      30.428  28.136  23.993  1.00  0.00     0.087 A 
BRANCH   7  11
ATOM     11  C   UNL A   1      31.205  24.961  25.642  1.00  0.00     0.268 C 
ATOM     12  N   UNL A   1      32.309  24.250  25.234  1.00  0.00    -0.348 N 
ATOM     13  H   UNL A   1      32.621  23.574  25.878  1.00  0.00     0.164 HD
ATOM     14  O   UNL A   1      30.740  24.686  26.746  1.00  0.00    -0.268 OA
BRANCH  12  15
ATOM     15  C   UNL A   1      33.097  24.326  24.010  1.00  0.00     0.079 C 
ATOM     16  C   UNL A   1      32.648  23.249  23.033  1.00  0.00     0.031 C 
BRANCH  15  17
ATOM     17  C   UNL A   1      34.622  24.355  24.273  1.00  0.00     0.032 C 
BRANCH  17  18
ATOM     18  C   UNL A   1      35.155  24.130  25.686  1.00  0.00     0.077 C 
BRANCH  18  19
ATOM     19  C   UNL A   1      36.487  23.493  25.796  1.00  0.00     0.103 A 
ATOM     20  C   UNL A   1      37.737  23.884  26.228  1.00  0.00     0.045 A 
ATOM     21  O   UNL A   1      36.523  22.180  25.423  1.00  0.00    -0.469 OA
ATOM     22  C   UNL A   1      38.594  22.772  26.043  1.00  0.00     0.042 A 
ATOM     23  C   UNL A   1      37.799  21.751  25.582  1.00  0.00     0.195 A 
ENDBRANCH  18  19
ENDBRANCH  17  18
ENDBRANCH  15  17
ENDBRANCH  12  15
ENDBRANCH   7  11
ENDBRANCH   5   6
ENDBRANCH   1   5
BRANCH   3  24
ATOM     24  C   UNL A   1      31.718  30.832  26.161  1.00  0.00     0.117 C 
BRANCH  24  25
ATOM     25  C   UNL A   1      31.459  32.221  26.753  1.00  0.00     0.042 C 
BRANCH  25  26
ATOM     26  C   UNL A   1      32.752  32.895  27.174  1.00  0.00     0.118 C 
BRANCH  26  27
ATOM     27  N   UNL A   1      32.513  34.264  27.619  1.00  0.00    -0.352 N 
ATOM     28  C   UNL A   1      33.046  34.969  28.667  1.00  0.00     0.251 C 
ATOM     29  H   UNL A   1      31.863  34.764  27.076  1.00  0.00     0.163 HD
ATOM     30  O   UNL A   1      32.532  36.024  29.000  1.00  0.00    -0.269 OA
BRANCH  28  31
ATOM     31  C   UNL A   1      34.203  34.440  29.412  1.00  0.00     0.039 A 
ATOM     32  C   UNL A   1      33.970  33.883  30.676  1.00  0.00     0.014 A 
ATOM     33  C   UNL A   1      35.500  34.522  28.901  1.00  0.00     0.014 A 
ATOM     34  C   UNL A   1      35.025  33.327  31.387  1.00  0.00     0.010 A 
ATOM     35  C   UNL A   1      36.545  33.921  29.575  1.00  0.00     0.010 A 
ATOM     36  C   UNL A   1      36.298  33.311  30.808  1.00  0.00    -0.014 A 
BRANCH  36  37
ATOM     37  C   UNL A   1      37.384  32.542  31.436  1.00  0.00     0.031 A 
ATOM     38  C   UNL A   1      37.659  31.217  30.693  1.00  0.00     0.074 A 
ATOM     39  C   UNL A   1      37.986  33.168  32.491  1.00  0.00     0.049 A 
ATOM     40  N   UNL A   1      38.336  30.172  31.057  1.00  0.00    -0.248 NA
ATOM     41  C   UNL A   1      37.067  31.013  29.338  1.00  0.00     0.031 C 
ATOM     42  C   UNL A   1      37.572  34.487  33.025  1.00  0.00     0.029 A 
ATOM     43  N   UNL A   1      39.048  32.866  33.314  1.00  0.00    -0.354 N 
ATOM     44  C   UNL A   1      38.451  29.322  29.929  1.00  0.00     0.074 A 
ATOM     45  C   UNL A   1      37.555  29.836  28.941  1.00  0.00     0.031 C 
ATOM     46  C   UNL A   1      38.308  34.825  34.102  1.00  0.00     0.029 A 
ATOM     47  C   UNL A   1      39.277  33.786  34.373  1.00  0.00     0.049 A 
ATOM     48  H   UNL A   1      39.609  32.069  33.179  1.00  0.00     0.167 HD
ATOM     49  C   UNL A   1      39.391  28.333  29.828  1.00  0.00     0.037 A 
ATOM     50  C   UNL A   1      40.156  33.693  35.418  1.00  0.00     0.037 A 
ATOM     51  C   UNL A   1      40.129  28.246  31.040  1.00  0.00     0.049 A 
ATOM     52  C   UNL A   1      41.004  32.538  35.097  1.00  0.00     0.074 A 
ATOM     53  C   UNL A   1      39.808  27.774  32.284  1.00  0.00     0.029 A 
ATOM     54  N   UNL A   1      41.267  29.009  31.127  1.00  0.00    -0.354 N 
ATOM     55  N   UNL A   1      41.901  32.527  34.157  1.00  0.00    -0.248 NA
ATOM     56  C   UNL A   1      40.763  31.266  35.784  1.00  0.00     0.031 C 
ATOM     57  C   UNL A   1      40.486  28.654  33.152  1.00  0.00     0.029 A 
ATOM     58  C   UNL A   1      41.340  29.481  32.413  1.00  0.00     0.049 A 
ATOM     59  H   UNL A   1      41.910  29.184  30.402  1.00  0.00     0.167 HD
ATOM     60  C   UNL A   1      42.061  31.184  33.918  1.00  0.00     0.074 A 
ATOM     61  C   UNL A   1      41.611  30.496  35.108  1.00  0.00     0.031 C 
ATOM     62  C   UNL A   1      42.042  30.723  32.641  1.00  0.00     0.037 A 
BRANCH  49  63
ATOM     63  C   UNL A   1      39.922  27.543  28.661  1.00  0.00     0.057 A 
ATOM     64  C   UNL A   1      39.779  26.134  28.689  1.00  0.00     0.134 A 
ATOM     65  C   UNL A   1      40.860  28.036  27.747  1.00  0.00     0.134 A 
ATOM     66  F   UNL A   1      38.864  25.548  29.480  1.00  0.00    -0.206 F 
ATOM     67  C   UNL A   1      40.619  25.273  27.980  1.00  0.00     0.040 A 
ATOM     68  C   UNL A   1      41.676  27.179  26.992  1.00  0.00     0.040 A 
ATOM     69  F   UNL A   1      41.085  29.349  27.618  1.00  0.00    -0.206 F 
ATOM     70  C   UNL A   1      41.592  25.797  27.144  1.00  0.00     0.006 A 
ENDBRANCH  49  63
BRANCH  50  71
ATOM     71  C   UNL A   1      40.389  34.362  36.752  1.00  0.00     0.057 A 
ATOM     72  C   UNL A   1      41.562  34.995  37.170  1.00  0.00     0.134 A 
ATOM     73  C   UNL A   1      39.307  34.508  37.665  1.00  0.00     0.134 A 
ATOM     74  F   UNL A   1      42.713  34.855  36.506  1.00  0.00    -0.206 F 
ATOM     75  C   UNL A   1      41.614  35.815  38.316  1.00  0.00     0.040 A 
ATOM     76  C   UNL A   1      39.330  35.354  38.778  1.00  0.00     0.040 A 
ATOM     77  F   UNL A   1      38.154  33.844  37.508  1.00  0.00    -0.206 F 
ATOM     78  C   UNL A   1      40.486  36.037  39.095  1.00  0.00     0.006 A 
ENDBRANCH  50  71
BRANCH  62  79
ATOM     79  C   UNL A   1      42.394  31.768  31.594  1.00  0.00     0.057 A 
ATOM     80  C   UNL A   1      43.693  32.292  31.530  1.00  0.00     0.134 A 
ATOM     81  C   UNL A   1      41.467  32.366  30.725  1.00  0.00     0.134 A 
ATOM     82  F   UNL A   1      44.665  31.774  32.297  1.00  0.00    -0.206 F 
ATOM     83  C   UNL A   1      44.032  33.362  30.689  1.00  0.00     0.040 A 
ATOM     84  C   UNL A   1      41.789  33.429  29.870  1.00  0.00     0.040 A 
ATOM     85  F   UNL A   1      40.208  31.940  30.668  1.00  0.00    -0.206 F 
ATOM     86  C   UNL A   1      43.077  33.941  29.859  1.00  0.00     0.006 A 
ENDBRANCH  62  79
ENDBRANCH  36  37
ENDBRANCH  28  31
ENDBRANCH  26  27
ENDBRANCH  25  26
ENDBRANCH  24  25
ENDBRANCH   3  24
TORSDOF 16
ENDMDL
