MODEL 1
REMARK VINA RESULT:     -13.2      0.000      0.000
REMARK SMILES NC(=O)c1c(-c2ccc(Cl)cc2)csc1NC(=O)[C@H]1[C@@H](C(=O)NCCCNC(=O)c2ccc(-c3c4nc(c(-c5c(F)cccc5F)c5ccc([nH]5)c(-c5c(F)cccc5F)c5nc(c(-c6c(F)cccc6F)c6ccc3[nH]6)C=C5)C=C4)cc2)[C@@H]2CC[C@H]1O2
REMARK SMILES IDX 24 1 23 2 21 3 22 4 20 6 19 7 87 8 84 9 86 10 88 11 85 12
REMARK SMILES IDX 17 13 16 14 18 16 15 17 4 18 5 19 13 20 14 21 2 22 1 23 3 26
REMARK SMILES IDX 6 27 7 28 12 29 8 30 11 31 9 32 10 33 25 34 26 35 27 36
REMARK SMILES IDX 28 37 29 39 30 40 31 41 83 42 32 43 82 44 33 45 34 46 35 47
REMARK SMILES IDX 76 48 36 49 81 50 75 51 77 52 37 53 80 54 74 55 73 56 38 58
REMARK SMILES IDX 64 59 47 60 63 61 48 62 51 63 62 64 78 65 49 66 50 67 61 69
REMARK SMILES IDX 79 70 52 71 39 72 40 73 45 74 41 75 42 76 44 77 46 78 43 79
REMARK SMILES IDX 65 80 66 81 71 82 67 83 68 84 70 85 72 86 69 87 53 88 54 89
REMARK SMILES IDX 59 90 55 91 56 92 58 93 60 94 57 95
REMARK H PARENT 23 5 16 15 1 24 1 25 27 38 77 57 51 68
REMARK Flexibility Score: inf
ROOT
ATOM      1  C   UNL A   1      37.582  20.956  24.599  1.00  0.00     0.117 C 
ENDROOT
BRANCH   1   2
ATOM      2  N   UNL A   1      36.719  21.426  25.663  1.00  0.00    -0.356 N 
ATOM      3  C   UNL A   1      35.392  21.672  25.727  1.00  0.00     0.226 C 
ATOM      4  O   UNL A   1      35.017  22.305  26.723  1.00  0.00    -0.275 OA
ATOM      5  H   UNL A   1      37.194  21.601  26.508  1.00  0.00     0.163 HD
BRANCH   3   6
ATOM      6  C   UNL A   1      34.353  21.238  24.701  1.00  0.00     0.122 C 
ATOM      7  C   UNL A   1      34.174  22.077  23.404  1.00  0.00     0.123 C 
ATOM      8  C   UNL A   1      32.671  21.969  23.234  1.00  0.00     0.132 C 
ATOM      9  C   UNL A   1      32.908  21.039  25.165  1.00  0.00     0.132 C 
ATOM     10  C   UNL A   1      32.190  20.529  22.986  1.00  0.00     0.035 C 
ATOM     11  O   UNL A   1      32.220  22.176  24.586  1.00  0.00    -0.373 OA
ATOM     12  C   UNL A   1      32.251  19.912  24.376  1.00  0.00     0.035 C 
BRANCH   7  13
ATOM     13  C   UNL A   1      34.985  23.383  23.402  1.00  0.00     0.231 C 
ATOM     14  N   UNL A   1      34.759  24.615  23.909  1.00  0.00    -0.317 N 
ATOM     15  H   UNL A   1      35.604  25.114  23.980  1.00  0.00     0.170 HD
ATOM     16  O   UNL A   1      36.114  23.290  22.875  1.00  0.00    -0.274 OA
BRANCH  14  17
ATOM     17  C   UNL A   1      33.707  25.392  24.359  1.00  0.00     0.108 A 
ATOM     18  C   UNL A   1      32.804  26.114  23.563  1.00  0.00     0.082 A 
ATOM     19  C   UNL A   1      31.866  26.844  24.398  1.00  0.00     0.007 A 
ATOM     20  C   UNL A   1      32.040  26.557  25.735  1.00  0.00     0.076 A 
ATOM     21  S   UNL A   1      33.243  25.408  25.972  1.00  0.00    -0.125 S 
BRANCH  18  22
ATOM     22  C   UNL A   1      32.877  26.063  22.099  1.00  0.00     0.252 C 
ATOM     23  N   UNL A   1      31.874  25.422  21.432  1.00  0.00    -0.365 N 
ATOM     24  H   UNL A   1      31.891  25.369  20.449  1.00  0.00     0.159 HD
ATOM     25  H   UNL A   1      31.132  25.014  21.934  1.00  0.00     0.159 HD
ATOM     26  O   UNL A   1      33.790  26.578  21.464  1.00  0.00    -0.269 OA
ENDBRANCH  18  22
BRANCH  19  27
ATOM     27  C   UNL A   1      30.754  27.720  24.068  1.00  0.00    -0.017 A 
ATOM     28  C   UNL A   1      29.552  27.170  23.600  1.00  0.00     0.010 A 
ATOM     29  C   UNL A   1      30.930  29.108  24.078  1.00  0.00     0.010 A 
ATOM     30  C   UNL A   1      28.542  28.005  23.122  1.00  0.00     0.021 A 
ATOM     31  C   UNL A   1      29.918  29.940  23.599  1.00  0.00     0.021 A 
ATOM     32  C   UNL A   1      28.733  29.386  23.114  1.00  0.00     0.041 A 
ATOM     33  Cl  UNL A   1      27.509  30.412  22.476  1.00  0.00    -0.084 Cl
ENDBRANCH  19  27
ENDBRANCH  14  17
ENDBRANCH   7  13
ENDBRANCH   3   6
ENDBRANCH   1   2
BRANCH   1  34
ATOM     34  C   UNL A   1      38.296  19.655  24.981  1.00  0.00     0.042 C 
BRANCH  34  35
ATOM     35  C   UNL A   1      39.263  19.778  26.154  1.00  0.00     0.118 C 
BRANCH  35  36
ATOM     36  N   UNL A   1      40.527  19.108  25.904  1.00  0.00    -0.352 N 
ATOM     37  C   UNL A   1      41.809  19.597  25.902  1.00  0.00     0.251 C 
ATOM     38  H   UNL A   1      40.452  18.147  25.703  1.00  0.00     0.163 HD
ATOM     39  O   UNL A   1      42.713  18.899  25.447  1.00  0.00    -0.269 OA
BRANCH  37  40
ATOM     40  C   UNL A   1      42.128  20.946  26.431  1.00  0.00     0.039 A 
ATOM     41  C   UNL A   1      42.044  21.158  27.812  1.00  0.00     0.014 A 
ATOM     42  C   UNL A   1      42.425  22.018  25.587  1.00  0.00     0.014 A 
ATOM     43  C   UNL A   1      42.287  22.428  28.345  1.00  0.00     0.010 A 
ATOM     44  C   UNL A   1      42.745  23.266  26.124  1.00  0.00     0.010 A 
ATOM     45  C   UNL A   1      42.657  23.490  27.506  1.00  0.00    -0.014 A 
BRANCH  45  46
ATOM     46  C   UNL A   1      42.905  24.852  28.049  1.00  0.00     0.031 A 
ATOM     47  C   UNL A   1      44.296  25.256  28.462  1.00  0.00     0.074 A 
ATOM     48  C   UNL A   1      41.879  25.708  28.218  1.00  0.00     0.049 A 
ATOM     49  N   UNL A   1      44.706  26.367  29.022  1.00  0.00    -0.248 NA
ATOM     50  C   UNL A   1      45.363  24.266  28.244  1.00  0.00     0.031 C 
ATOM     51  C   UNL A   1      40.480  25.426  27.897  1.00  0.00     0.029 A 
ATOM     52  N   UNL A   1      41.856  26.987  28.715  1.00  0.00    -0.354 N 
ATOM     53  C   UNL A   1      46.068  26.199  29.245  1.00  0.00     0.074 A 
ATOM     54  C   UNL A   1      46.405  24.862  28.806  1.00  0.00     0.031 C 
ATOM     55  C   UNL A   1      39.737  26.507  28.185  1.00  0.00     0.029 A 
ATOM     56  C   UNL A   1      40.601  27.545  28.742  1.00  0.00     0.049 A 
ATOM     57  H   UNL A   1      42.663  27.461  29.023  1.00  0.00     0.167 HD
ATOM     58  C   UNL A   1      46.962  27.084  29.748  1.00  0.00     0.037 A 
ATOM     59  C   UNL A   1      40.191  28.754  29.168  1.00  0.00     0.037 A 
ATOM     60  C   UNL A   1      46.632  28.425  30.151  1.00  0.00     0.049 A 
ATOM     61  C   UNL A   1      41.205  29.728  29.703  1.00  0.00     0.074 A 
ATOM     62  C   UNL A   1      47.475  29.417  30.622  1.00  0.00     0.029 A 
ATOM     63  N   UNL A   1      45.355  28.964  30.127  1.00  0.00    -0.354 N 
ATOM     64  N   UNL A   1      42.498  29.575  29.855  1.00  0.00    -0.248 NA
ATOM     65  C   UNL A   1      40.704  31.046  30.115  1.00  0.00     0.031 C 
ATOM     66  C   UNL A   1      46.701  30.546  30.914  1.00  0.00     0.029 A 
ATOM     67  C   UNL A   1      45.384  30.271  30.583  1.00  0.00     0.049 A 
ATOM     68  H   UNL A   1      44.546  28.487  29.829  1.00  0.00     0.167 HD
ATOM     69  C   UNL A   1      42.969  30.785  30.348  1.00  0.00     0.074 A 
ATOM     70  C   UNL A   1      41.823  31.665  30.459  1.00  0.00     0.031 C 
ATOM     71  C   UNL A   1      44.237  31.138  30.674  1.00  0.00     0.037 A 
BRANCH  58  72
ATOM     72  C   UNL A   1      48.385  26.624  29.886  1.00  0.00     0.057 A 
ATOM     73  C   UNL A   1      48.833  25.936  31.023  1.00  0.00     0.134 A 
ATOM     74  C   UNL A   1      49.315  26.856  28.865  1.00  0.00     0.134 A 
ATOM     75  F   UNL A   1      47.998  25.692  32.043  1.00  0.00    -0.206 F 
ATOM     76  C   UNL A   1      50.162  25.527  31.153  1.00  0.00     0.040 A 
ATOM     77  C   UNL A   1      50.640  26.425  28.971  1.00  0.00     0.040 A 
ATOM     78  F   UNL A   1      48.953  27.501  27.747  1.00  0.00    -0.206 F 
ATOM     79  C   UNL A   1      51.068  25.766  30.122  1.00  0.00     0.006 A 
ENDBRANCH  58  72
BRANCH  59  80
ATOM     80  C   UNL A   1      38.758  29.128  29.073  1.00  0.00     0.057 A 
ATOM     81  C   UNL A   1      38.206  29.561  27.862  1.00  0.00     0.134 A 
ATOM     82  C   UNL A   1      37.908  29.060  30.183  1.00  0.00     0.134 A 
ATOM     83  F   UNL A   1      38.977  29.664  26.769  1.00  0.00    -0.206 F 
ATOM     84  C   UNL A   1      36.865  29.933  27.760  1.00  0.00     0.040 A 
ATOM     85  C   UNL A   1      36.558  29.405  30.090  1.00  0.00     0.040 A 
ATOM     86  F   UNL A   1      38.373  28.644  31.369  1.00  0.00    -0.206 F 
ATOM     87  C   UNL A   1      36.035  29.849  28.876  1.00  0.00     0.006 A 
ENDBRANCH  59  80
BRANCH  71  88
ATOM     88  C   UNL A   1      44.460  32.549  31.134  1.00  0.00     0.057 A 
ATOM     89  C   UNL A   1      44.423  32.901  32.488  1.00  0.00     0.134 A 
ATOM     90  C   UNL A   1      44.751  33.559  30.208  1.00  0.00     0.134 A 
ATOM     91  F   UNL A   1      44.138  31.984  33.424  1.00  0.00    -0.206 F 
ATOM     92  C   UNL A   1      44.644  34.216  32.904  1.00  0.00     0.040 A 
ATOM     93  C   UNL A   1      44.998  34.871  30.613  1.00  0.00     0.040 A 
ATOM     94  F   UNL A   1      44.809  33.284  28.896  1.00  0.00    -0.206 F 
ATOM     95  C   UNL A   1      44.939  35.203  31.965  1.00  0.00     0.006 A 
ENDBRANCH  71  88
ENDBRANCH  45  46
ENDBRANCH  37  40
ENDBRANCH  35  36
ENDBRANCH  34  35
ENDBRANCH   1  34
TORSDOF 14
ENDMDL
MODEL 2
REMARK VINA RESULT:     -13.1      4.401      9.429
REMARK SMILES NC(=O)c1c(-c2ccc(Cl)cc2)csc1NC(=O)[C@H]1[C@@H](C(=O)NCCCNC(=O)c2ccc(-c3c4nc(c(-c5c(F)cccc5F)c5ccc([nH]5)c(-c5c(F)cccc5F)c5nc(c(-c6c(F)cccc6F)c6ccc3[nH]6)C=C5)C=C4)cc2)[C@@H]2CC[C@H]1O2
REMARK SMILES IDX 24 1 23 2 21 3 22 4 20 6 19 7 87 8 84 9 86 10 88 11 85 12
REMARK SMILES IDX 17 13 16 14 18 16 15 17 4 18 5 19 13 20 14 21 2 22 1 23 3 26
REMARK SMILES IDX 6 27 7 28 12 29 8 30 11 31 9 32 10 33 25 34 26 35 27 36
REMARK SMILES IDX 28 37 29 39 30 40 31 41 83 42 32 43 82 44 33 45 34 46 35 47
REMARK SMILES IDX 76 48 36 49 81 50 75 51 77 52 37 53 80 54 74 55 73 56 38 58
REMARK SMILES IDX 64 59 47 60 63 61 48 62 51 63 62 64 78 65 49 66 50 67 61 69
REMARK SMILES IDX 79 70 52 71 39 72 40 73 45 74 41 75 42 76 44 77 46 78 43 79
REMARK SMILES IDX 65 80 66 81 71 82 67 83 68 84 70 85 72 86 69 87 53 88 54 89
REMARK SMILES IDX 59 90 55 91 56 92 58 93 60 94 57 95
REMARK H PARENT 23 5 16 15 1 24 1 25 27 38 77 57 51 68
REMARK Flexibility Score: inf
ROOT
ATOM      1  C   UNL A   1      31.751  30.620  26.875  1.00  0.00     0.117 C 
ENDROOT
BRANCH   1   2
ATOM      2  N   UNL A   1      32.511  30.210  25.713  1.00  0.00    -0.356 N 
ATOM      3  C   UNL A   1      32.331  29.235  24.794  1.00  0.00     0.226 C 
ATOM      4  O   UNL A   1      33.307  28.999  24.071  1.00  0.00    -0.275 OA
ATOM      5  H   UNL A   1      33.322  30.749  25.562  1.00  0.00     0.163 HD
BRANCH   3   6
ATOM      6  C   UNL A   1      31.054  28.432  24.585  1.00  0.00     0.122 C 
ATOM      7  C   UNL A   1      30.822  27.144  25.425  1.00  0.00     0.123 C 
ATOM      8  C   UNL A   1      30.143  26.276  24.384  1.00  0.00     0.132 C 
ATOM      9  C   UNL A   1      30.708  27.966  23.168  1.00  0.00     0.132 C 
ATOM     10  C   UNL A   1      28.788  26.836  23.918  1.00  0.00     0.035 C 
ATOM     11  O   UNL A   1      30.958  26.538  23.225  1.00  0.00    -0.373 OA
ATOM     12  C   UNL A   1      29.197  27.954  22.970  1.00  0.00     0.035 C 
BRANCH   7  13
ATOM     13  C   UNL A   1      32.039  26.739  26.274  1.00  0.00     0.231 C 
ATOM     14  N   UNL A   1      33.039  25.847  26.094  1.00  0.00    -0.317 N 
ATOM     15  H   UNL A   1      33.795  26.060  26.687  1.00  0.00     0.170 HD
ATOM     16  O   UNL A   1      32.181  27.401  27.323  1.00  0.00    -0.274 OA
BRANCH  14  17
ATOM     17  C   UNL A   1      33.327  24.727  25.336  1.00  0.00     0.108 A 
ATOM     18  C   UNL A   1      33.021  23.397  25.664  1.00  0.00     0.082 A 
ATOM     19  C   UNL A   1      33.523  22.496  24.641  1.00  0.00     0.007 A 
ATOM     20  C   UNL A   1      34.070  23.182  23.578  1.00  0.00     0.076 A 
ATOM     21  S   UNL A   1      33.928  24.845  23.774  1.00  0.00    -0.125 S 
BRANCH  18  22
ATOM     22  C   UNL A   1      32.284  23.070  26.890  1.00  0.00     0.252 C 
ATOM     23  N   UNL A   1      32.810  22.118  27.714  1.00  0.00    -0.365 N 
ATOM     24  H   UNL A   1      32.341  21.874  28.545  1.00  0.00     0.159 HD
ATOM     25  H   UNL A   1      33.657  21.676  27.479  1.00  0.00     0.159 HD
ATOM     26  O   UNL A   1      31.235  23.622  27.198  1.00  0.00    -0.269 OA
ENDBRANCH  18  22
BRANCH  19  27
ATOM     27  C   UNL A   1      33.464  21.050  24.511  1.00  0.00    -0.017 A 
ATOM     28  C   UNL A   1      34.539  20.268  24.954  1.00  0.00     0.010 A 
ATOM     29  C   UNL A   1      32.405  20.454  23.817  1.00  0.00     0.010 A 
ATOM     30  C   UNL A   1      34.566  18.899  24.682  1.00  0.00     0.021 A 
ATOM     31  C   UNL A   1      32.435  19.085  23.546  1.00  0.00     0.021 A 
ATOM     32  C   UNL A   1      33.519  18.316  23.970  1.00  0.00     0.041 A 
ATOM     33  Cl  UNL A   1      33.577  16.639  23.589  1.00  0.00    -0.084 Cl
ENDBRANCH  19  27
ENDBRANCH  14  17
ENDBRANCH   7  13
ENDBRANCH   3   6
ENDBRANCH   1   2
BRANCH   1  34
ATOM     34  C   UNL A   1      31.435  32.119  26.846  1.00  0.00     0.042 C 
BRANCH  34  35
ATOM     35  C   UNL A   1      32.656  33.027  26.744  1.00  0.00     0.118 C 
BRANCH  35  36
ATOM     36  N   UNL A   1      32.534  34.216  27.570  1.00  0.00    -0.352 N 
ATOM     37  C   UNL A   1      33.181  34.566  28.728  1.00  0.00     0.251 C 
ATOM     38  H   UNL A   1      31.880  34.878  27.246  1.00  0.00     0.163 HD
ATOM     39  O   UNL A   1      32.762  35.521  29.380  1.00  0.00    -0.269 OA
BRANCH  37  40
ATOM     40  C   UNL A   1      34.367  33.819  29.212  1.00  0.00     0.039 A 
ATOM     41  C   UNL A   1      34.165  32.706  30.035  1.00  0.00     0.014 A 
ATOM     42  C   UNL A   1      35.670  34.244  28.938  1.00  0.00     0.014 A 
ATOM     43  C   UNL A   1      35.259  32.004  30.553  1.00  0.00     0.010 A 
ATOM     44  C   UNL A   1      36.760  33.500  29.388  1.00  0.00     0.010 A 
ATOM     45  C   UNL A   1      36.568  32.386  30.220  1.00  0.00    -0.014 A 
BRANCH  45  46
ATOM     46  C   UNL A   1      37.745  31.665  30.771  1.00  0.00     0.031 A 
ATOM     47  C   UNL A   1      38.233  31.972  32.163  1.00  0.00     0.074 A 
ATOM     48  C   UNL A   1      38.407  30.772  30.009  1.00  0.00     0.049 A 
ATOM     49  N   UNL A   1      39.280  31.507  32.797  1.00  0.00    -0.248 NA
ATOM     50  C   UNL A   1      37.456  32.957  32.932  1.00  0.00     0.031 C 
ATOM     51  C   UNL A   1      38.062  30.414  28.633  1.00  0.00     0.029 A 
ATOM     52  N   UNL A   1      39.516  30.013  30.284  1.00  0.00    -0.354 N 
ATOM     53  C   UNL A   1      39.301  32.159  34.024  1.00  0.00     0.074 A 
ATOM     54  C   UNL A   1      38.191  33.088  34.026  1.00  0.00     0.031 C 
ATOM     55  C   UNL A   1      38.930  29.490  28.190  1.00  0.00     0.029 A 
ATOM     56  C   UNL A   1      39.910  29.215  29.237  1.00  0.00     0.049 A 
ATOM     57  H   UNL A   1      39.986  30.037  31.149  1.00  0.00     0.167 HD
ATOM     58  C   UNL A   1      40.152  31.985  35.064  1.00  0.00     0.037 A 
ATOM     59  C   UNL A   1      40.944  28.359  29.132  1.00  0.00     0.037 A 
ATOM     60  C   UNL A   1      41.233  31.037  35.074  1.00  0.00     0.049 A 
ATOM     61  C   UNL A   1      41.863  28.167  30.307  1.00  0.00     0.074 A 
ATOM     62  C   UNL A   1      42.118  30.746  36.098  1.00  0.00     0.029 A 
ATOM     63  N   UNL A   1      41.575  30.220  34.007  1.00  0.00    -0.354 N 
ATOM     64  N   UNL A   1      41.836  28.750  31.480  1.00  0.00    -0.248 NA
ATOM     65  C   UNL A   1      42.949  27.191  30.146  1.00  0.00     0.031 C 
ATOM     66  C   UNL A   1      43.016  29.777  35.638  1.00  0.00     0.029 A 
ATOM     67  C   UNL A   1      42.663  29.431  34.343  1.00  0.00     0.049 A 
ATOM     68  H   UNL A   1      41.112  30.203  33.137  1.00  0.00     0.167 HD
ATOM     69  C   UNL A   1      42.877  28.188  32.209  1.00  0.00     0.074 A 
ATOM     70  C   UNL A   1      43.510  27.211  31.346  1.00  0.00     0.031 C 
ATOM     71  C   UNL A   1      43.271  28.454  33.478  1.00  0.00     0.037 A 
BRANCH  58  72
ATOM     72  C   UNL A   1      39.940  32.843  36.279  1.00  0.00     0.057 A 
ATOM     73  C   UNL A   1      40.694  34.003  36.506  1.00  0.00     0.134 A 
ATOM     74  C   UNL A   1      38.961  32.515  37.225  1.00  0.00     0.134 A 
ATOM     75  F   UNL A   1      41.657  34.368  35.646  1.00  0.00    -0.206 F 
ATOM     76  C   UNL A   1      40.505  34.787  37.646  1.00  0.00     0.040 A 
ATOM     77  C   UNL A   1      38.742  33.307  38.355  1.00  0.00     0.040 A 
ATOM     78  F   UNL A   1      38.199  31.423  37.067  1.00  0.00    -0.206 F 
ATOM     79  C   UNL A   1      39.522  34.442  38.572  1.00  0.00     0.006 A 
ENDBRANCH  58  72
BRANCH  59  80
ATOM     80  C   UNL A   1      41.146  27.590  27.878  1.00  0.00     0.057 A 
ATOM     81  C   UNL A   1      40.536  26.344  27.693  1.00  0.00     0.134 A 
ATOM     82  C   UNL A   1      41.946  28.078  26.839  1.00  0.00     0.134 A 
ATOM     83  F   UNL A   1      39.772  25.817  28.661  1.00  0.00    -0.206 F 
ATOM     84  C   UNL A   1      40.729  25.601  26.527  1.00  0.00     0.040 A 
ATOM     85  C   UNL A   1      42.130  27.358  25.658  1.00  0.00     0.040 A 
ATOM     86  F   UNL A   1      42.551  29.270  26.953  1.00  0.00    -0.206 F 
ATOM     87  C   UNL A   1      41.524  26.111  25.503  1.00  0.00     0.006 A 
ENDBRANCH  59  80
BRANCH  71  88
ATOM     88  C   UNL A   1      44.407  27.642  34.028  1.00  0.00     0.057 A 
ATOM     89  C   UNL A   1      45.736  28.072  33.940  1.00  0.00     0.134 A 
ATOM     90  C   UNL A   1      44.160  26.431  34.686  1.00  0.00     0.134 A 
ATOM     91  F   UNL A   1      46.042  29.218  33.312  1.00  0.00    -0.206 F 
ATOM     92  C   UNL A   1      46.783  27.313  34.466  1.00  0.00     0.040 A 
ATOM     93  C   UNL A   1      45.195  25.676  35.238  1.00  0.00     0.040 A 
ATOM     94  F   UNL A   1      42.907  25.967  34.812  1.00  0.00    -0.206 F 
ATOM     95  C   UNL A   1      46.512  26.113  35.124  1.00  0.00     0.006 A 
ENDBRANCH  71  88
ENDBRANCH  45  46
ENDBRANCH  37  40
ENDBRANCH  35  36
ENDBRANCH  34  35
ENDBRANCH   1  34
TORSDOF 14
ENDMDL
MODEL 3
REMARK VINA RESULT:     -13.0      4.541      9.338
REMARK SMILES NC(=O)c1c(-c2ccc(Cl)cc2)csc1NC(=O)[C@H]1[C@@H](C(=O)NCCCNC(=O)c2ccc(-c3c4nc(c(-c5c(F)cccc5F)c5ccc([nH]5)c(-c5c(F)cccc5F)c5nc(c(-c6c(F)cccc6F)c6ccc3[nH]6)C=C5)C=C4)cc2)[C@@H]2CC[C@H]1O2
REMARK SMILES IDX 24 1 23 2 21 3 22 4 20 6 19 7 87 8 84 9 86 10 88 11 85 12
REMARK SMILES IDX 17 13 16 14 18 16 15 17 4 18 5 19 13 20 14 21 2 22 1 23 3 26
REMARK SMILES IDX 6 27 7 28 12 29 8 30 11 31 9 32 10 33 25 34 26 35 27 36
REMARK SMILES IDX 28 37 29 39 30 40 31 41 83 42 32 43 82 44 33 45 34 46 35 47
REMARK SMILES IDX 76 48 36 49 81 50 75 51 77 52 37 53 80 54 74 55 73 56 38 58
REMARK SMILES IDX 64 59 47 60 63 61 48 62 51 63 62 64 78 65 49 66 50 67 61 69
REMARK SMILES IDX 79 70 52 71 39 72 40 73 45 74 41 75 42 76 44 77 46 78 43 79
REMARK SMILES IDX 65 80 66 81 71 82 67 83 68 84 70 85 72 86 69 87 53 88 54 89
REMARK SMILES IDX 59 90 55 91 56 92 58 93 60 94 57 95
REMARK H PARENT 23 5 16 15 1 24 1 25 27 38 77 57 51 68
REMARK Flexibility Score: inf
ROOT
ATOM      1  C   UNL A   1      31.433  30.743  26.576  1.00  0.00     0.117 C 
ENDROOT
BRANCH   1   2
ATOM      2  N   UNL A   1      32.238  30.229  25.486  1.00  0.00    -0.356 N 
ATOM      3  C   UNL A   1      32.095  29.169  24.660  1.00  0.00     0.226 C 
ATOM      4  O   UNL A   1      33.098  28.873  23.997  1.00  0.00    -0.275 OA
ATOM      5  H   UNL A   1      33.050  30.758  25.313  1.00  0.00     0.163 HD
BRANCH   3   6
ATOM      6  C   UNL A   1      30.831  28.339  24.483  1.00  0.00     0.122 C 
ATOM      7  C   UNL A   1      30.631  27.067  25.355  1.00  0.00     0.123 C 
ATOM      8  C   UNL A   1      29.956  26.164  24.341  1.00  0.00     0.132 C 
ATOM      9  C   UNL A   1      30.478  27.835  23.081  1.00  0.00     0.132 C 
ATOM     10  C   UNL A   1      28.586  26.689  23.878  1.00  0.00     0.035 C 
ATOM     11  O   UNL A   1      30.753  26.414  23.167  1.00  0.00    -0.373 OA
ATOM     12  C   UNL A   1      28.965  27.793  22.901  1.00  0.00     0.035 C 
BRANCH   7  13
ATOM     13  C   UNL A   1      31.865  26.703  26.198  1.00  0.00     0.231 C 
ATOM     14  N   UNL A   1      32.885  25.835  26.021  1.00  0.00    -0.317 N 
ATOM     15  H   UNL A   1      33.640  26.074  26.606  1.00  0.00     0.170 HD
ATOM     16  O   UNL A   1      31.997  27.380  27.240  1.00  0.00    -0.274 OA
BRANCH  14  17
ATOM     17  C   UNL A   1      33.197  24.714  25.273  1.00  0.00     0.108 A 
ATOM     18  C   UNL A   1      32.969  23.378  25.638  1.00  0.00     0.082 A 
ATOM     19  C   UNL A   1      33.473  22.481  24.612  1.00  0.00     0.007 A 
ATOM     20  C   UNL A   1      33.942  23.170  23.515  1.00  0.00     0.076 A 
ATOM     21  S   UNL A   1      33.728  24.828  23.685  1.00  0.00    -0.125 S 
BRANCH  18  22
ATOM     22  C   UNL A   1      32.298  23.042  26.899  1.00  0.00     0.252 C 
ATOM     23  N   UNL A   1      32.926  22.173  27.743  1.00  0.00    -0.365 N 
ATOM     24  H   UNL A   1      32.504  21.926  28.598  1.00  0.00     0.159 HD
ATOM     25  H   UNL A   1      33.801  21.795  27.498  1.00  0.00     0.159 HD
ATOM     26  O   UNL A   1      31.215  23.517  27.218  1.00  0.00    -0.269 OA
ENDBRANCH  18  22
BRANCH  19  27
ATOM     27  C   UNL A   1      33.478  21.031  24.512  1.00  0.00    -0.017 A 
ATOM     28  C   UNL A   1      34.595  20.309  24.953  1.00  0.00     0.010 A 
ATOM     29  C   UNL A   1      32.437  20.373  23.847  1.00  0.00     0.010 A 
ATOM     30  C   UNL A   1      34.680  18.938  24.708  1.00  0.00     0.021 A 
ATOM     31  C   UNL A   1      32.525  19.002  23.604  1.00  0.00     0.021 A 
ATOM     32  C   UNL A   1      33.650  18.292  24.025  1.00  0.00     0.041 A 
ATOM     33  Cl  UNL A   1      33.780  16.613  23.677  1.00  0.00    -0.084 Cl
ENDBRANCH  19  27
ENDBRANCH  14  17
ENDBRANCH   7  13
ENDBRANCH   3   6
ENDBRANCH   1   2
BRANCH   1  34
ATOM     34  C   UNL A   1      31.423  32.275  26.600  1.00  0.00     0.042 C 
BRANCH  34  35
ATOM     35  C   UNL A   1      32.728  32.914  27.064  1.00  0.00     0.118 C 
BRANCH  35  36
ATOM     36  N   UNL A   1      32.528  34.239  27.625  1.00  0.00    -0.352 N 
ATOM     37  C   UNL A   1      33.090  34.835  28.726  1.00  0.00     0.251 C 
ATOM     38  H   UNL A   1      31.884  34.801  27.136  1.00  0.00     0.163 HD
ATOM     39  O   UNL A   1      32.610  35.886  29.146  1.00  0.00    -0.269 OA
BRANCH  37  40
ATOM     40  C   UNL A   1      34.257  34.238  29.422  1.00  0.00     0.039 A 
ATOM     41  C   UNL A   1      35.536  34.489  28.914  1.00  0.00     0.014 A 
ATOM     42  C   UNL A   1      34.105  33.376  30.510  1.00  0.00     0.014 A 
ATOM     43  C   UNL A   1      36.658  33.904  29.511  1.00  0.00     0.010 A 
ATOM     44  C   UNL A   1      35.228  32.856  31.155  1.00  0.00     0.010 A 
ATOM     45  C   UNL A   1      36.515  33.095  30.648  1.00  0.00    -0.014 A 
BRANCH  45  46
ATOM     46  C   UNL A   1      37.691  32.451  31.290  1.00  0.00     0.031 A 
ATOM     47  C   UNL A   1      38.374  31.289  30.618  1.00  0.00     0.074 A 
ATOM     48  C   UNL A   1      38.117  32.874  32.496  1.00  0.00     0.049 A 
ATOM     49  N   UNL A   1      39.366  30.549  31.046  1.00  0.00    -0.248 NA
ATOM     50  C   UNL A   1      37.852  30.889  29.302  1.00  0.00     0.031 C 
ATOM     51  C   UNL A   1      37.518  33.961  33.272  1.00  0.00     0.029 A 
ATOM     52  N   UNL A   1      39.147  32.429  33.286  1.00  0.00    -0.354 N 
ATOM     53  C   UNL A   1      39.567  29.583  30.067  1.00  0.00     0.074 A 
ATOM     54  C   UNL A   1      38.564  29.801  29.047  1.00  0.00     0.031 C 
ATOM     55  C   UNL A   1      38.204  34.112  34.416  1.00  0.00     0.029 A 
ATOM     56  C   UNL A   1      39.268  33.113  34.471  1.00  0.00     0.049 A 
ATOM     57  H   UNL A   1      39.743  31.689  33.028  1.00  0.00     0.167 HD
ATOM     58  C   UNL A   1      40.515  28.616  30.009  1.00  0.00     0.037 A 
ATOM     59  C   UNL A   1      40.136  32.953  35.488  1.00  0.00     0.037 A 
ATOM     60  C   UNL A   1      41.534  28.423  31.006  1.00  0.00     0.049 A 
ATOM     61  C   UNL A   1      41.192  31.887  35.392  1.00  0.00     0.074 A 
ATOM     62  C   UNL A   1      42.573  27.508  31.014  1.00  0.00     0.029 A 
ATOM     63  N   UNL A   1      41.644  29.163  32.174  1.00  0.00    -0.354 N 
ATOM     64  N   UNL A   1      41.406  31.018  34.435  1.00  0.00    -0.248 NA
ATOM     65  C   UNL A   1      42.136  31.788  36.514  1.00  0.00     0.031 C 
ATOM     66  C   UNL A   1      43.291  27.672  32.203  1.00  0.00     0.029 A 
ATOM     67  C   UNL A   1      42.727  28.719  32.915  1.00  0.00     0.049 A 
ATOM     68  H   UNL A   1      41.041  29.895  32.438  1.00  0.00     0.167 HD
ATOM     69  C   UNL A   1      42.525  30.293  34.821  1.00  0.00     0.074 A 
ATOM     70  C   UNL A   1      42.951  30.830  36.097  1.00  0.00     0.031 C 
ATOM     71  C   UNL A   1      43.146  29.275  34.175  1.00  0.00     0.037 A 
BRANCH  58  72
ATOM     72  C   UNL A   1      40.491  27.696  28.822  1.00  0.00     0.057 A 
ATOM     73  C   UNL A   1      41.281  27.931  27.688  1.00  0.00     0.134 A 
ATOM     74  C   UNL A   1      39.680  26.554  28.818  1.00  0.00     0.134 A 
ATOM     75  F   UNL A   1      42.070  29.013  27.621  1.00  0.00    -0.206 F 
ATOM     76  C   UNL A   1      41.240  27.081  26.580  1.00  0.00     0.040 A 
ATOM     77  C   UNL A   1      39.653  25.681  27.728  1.00  0.00     0.040 A 
ATOM     78  F   UNL A   1      38.905  26.265  29.873  1.00  0.00    -0.206 F 
ATOM     79  C   UNL A   1      40.428  25.949  26.601  1.00  0.00     0.006 A 
ENDBRANCH  58  72
BRANCH  59  80
ATOM     80  C   UNL A   1      40.066  33.848  36.670  1.00  0.00     0.057 A 
ATOM     81  C   UNL A   1      40.811  35.032  36.720  1.00  0.00     0.134 A 
ATOM     82  C   UNL A   1      39.258  33.546  37.772  1.00  0.00     0.134 A 
ATOM     83  F   UNL A   1      41.617  35.366  35.702  1.00  0.00    -0.206 F 
ATOM     84  C   UNL A   1      40.770  35.875  37.832  1.00  0.00     0.040 A 
ATOM     85  C   UNL A   1      39.188  34.391  38.880  1.00  0.00     0.040 A 
ATOM     86  F   UNL A   1      38.514  32.430  37.781  1.00  0.00    -0.206 F 
ATOM     87  C   UNL A   1      39.952  35.558  38.914  1.00  0.00     0.006 A 
ENDBRANCH  59  80
BRANCH  71  88
ATOM     88  C   UNL A   1      44.382  28.711  34.813  1.00  0.00     0.057 A 
ATOM     89  C   UNL A   1      44.333  27.619  35.687  1.00  0.00     0.134 A 
ATOM     90  C   UNL A   1      45.641  29.249  34.518  1.00  0.00     0.134 A 
ATOM     91  F   UNL A   1      43.157  27.065  36.021  1.00  0.00    -0.206 F 
ATOM     92  C   UNL A   1      45.491  27.097  36.265  1.00  0.00     0.040 A 
ATOM     93  C   UNL A   1      46.809  28.720  35.069  1.00  0.00     0.040 A 
ATOM     94  F   UNL A   1      45.757  30.291  33.680  1.00  0.00    -0.206 F 
ATOM     95  C   UNL A   1      46.735  27.644  35.951  1.00  0.00     0.006 A 
ENDBRANCH  71  88
ENDBRANCH  45  46
ENDBRANCH  37  40
ENDBRANCH  35  36
ENDBRANCH  34  35
ENDBRANCH   1  34
TORSDOF 14
ENDMDL
