MODEL 1
REMARK VINA RESULT:     -11.3      0.000      0.000
REMARK SMILES O=C(NCCCNC(=O)[C@H]1CC[C@@H](C[NH2+][C@H]2CCC[C@H](C3CC3)C2)CC1)c1ccc(-c2c3nc(c(-c4c(F)cccc4F)c4ccc([nH]4)c(-c4c(F)cccc4F)c4nc(c(-c5c(F)cccc5F)c5ccc2[nH]5)C=C4)C=C3)cc1
REMARK SMILES IDX 6 1 5 2 4 3 3 4 1 5 2 6 27 8 28 9 80 10 29 11 79 12 30 13
REMARK SMILES IDX 31 14 32 15 73 16 33 17 78 18 72 19 74 20 34 21 77 22 71 23
REMARK SMILES IDX 70 24 35 26 61 27 44 28 60 29 45 30 48 31 59 32 75 33 46 34
REMARK SMILES IDX 47 35 58 37 76 38 49 39 36 40 37 41 42 42 38 43 39 44 41 45
REMARK SMILES IDX 43 46 40 47 62 48 63 49 68 50 64 51 65 52 67 53 69 54 66 55
REMARK SMILES IDX 50 56 51 57 56 58 52 59 53 60 55 61 57 62 54 63 7 64 8 65
REMARK SMILES IDX 9 67 10 68 26 69 11 70 25 71 12 72 13 73 14 74 15 75 16 78
REMARK SMILES IDX 17 79 24 80 18 81 20 82 19 83 21 84 22 85 23 86
REMARK H PARENT 3 7 74 25 48 36 7 66 15 76 15 77
REMARK Flexibility Score: inf
ROOT
ATOM      1  C   UNL A   1      38.127  21.503  25.437  1.00  0.00     0.117 C 
ENDROOT
BRANCH   1   2
ATOM      2  C   UNL A   1      38.612  20.120  25.001  1.00  0.00     0.042 C 
BRANCH   2   3
ATOM      3  C   UNL A   1      39.223  19.307  26.150  1.00  0.00     0.118 C 
BRANCH   3   4
ATOM      4  N   UNL A   1      40.580  18.851  25.851  1.00  0.00    -0.352 N 
ATOM      5  O   UNL A   1      42.766  18.853  25.387  1.00  0.00    -0.269 OA
ATOM      6  C   UNL A   1      41.814  19.460  25.887  1.00  0.00     0.251 C 
ATOM      7  H   UNL A   1      40.618  17.910  25.564  1.00  0.00     0.163 HD
BRANCH   6   8
ATOM      8  C   UNL A   1      42.060  20.810  26.460  1.00  0.00     0.039 A 
ATOM      9  C   UNL A   1      41.970  21.079  27.822  1.00  0.00     0.014 A 
ATOM     10  C   UNL A   1      42.444  21.853  25.601  1.00  0.00     0.014 A 
ATOM     11  C   UNL A   1      42.083  22.399  28.283  1.00  0.00     0.010 A 
ATOM     12  C   UNL A   1      42.682  23.153  26.087  1.00  0.00     0.010 A 
ATOM     13  C   UNL A   1      42.472  23.461  27.437  1.00  0.00    -0.014 A 
BRANCH  13  14
ATOM     14  C   UNL A   1      42.730  24.825  28.020  1.00  0.00     0.031 A 
ATOM     15  C   UNL A   1      41.652  25.877  28.210  1.00  0.00     0.074 A 
ATOM     16  C   UNL A   1      43.985  25.118  28.429  1.00  0.00     0.049 A 
ATOM     17  N   UNL A   1      41.739  27.047  28.805  1.00  0.00    -0.248 NA
ATOM     18  C   UNL A   1      40.311  25.594  27.678  1.00  0.00     0.031 C 
ATOM     19  C   UNL A   1      45.149  24.243  28.264  1.00  0.00     0.029 A 
ATOM     20  N   UNL A   1      44.494  26.215  29.082  1.00  0.00    -0.354 N 
ATOM     21  C   UNL A   1      40.470  27.618  28.742  1.00  0.00     0.074 A 
ATOM     22  C   UNL A   1      39.632  26.680  28.029  1.00  0.00     0.031 C 
ATOM     23  C   UNL A   1      46.210  24.797  28.862  1.00  0.00     0.029 A 
ATOM     24  C   UNL A   1      45.836  26.111  29.368  1.00  0.00     0.049 A 
ATOM     25  H   UNL A   1      43.951  27.001  29.323  1.00  0.00     0.167 HD
ATOM     26  C   UNL A   1      40.036  28.809  29.229  1.00  0.00     0.037 A 
ATOM     27  C   UNL A   1      46.696  26.974  29.940  1.00  0.00     0.037 A 
ATOM     28  C   UNL A   1      40.868  29.787  29.889  1.00  0.00     0.049 A 
ATOM     29  C   UNL A   1      46.202  28.310  30.406  1.00  0.00     0.074 A 
ATOM     30  C   UNL A   1      40.507  31.025  30.398  1.00  0.00     0.029 A 
ATOM     31  N   UNL A   1      42.229  29.653  30.110  1.00  0.00    -0.354 N 
ATOM     32  N   UNL A   1      44.988  28.799  30.376  1.00  0.00    -0.248 NA
ATOM     33  C   UNL A   1      47.204  29.219  30.982  1.00  0.00     0.031 C 
ATOM     34  C   UNL A   1      41.658  31.661  30.876  1.00  0.00     0.029 A 
ATOM     35  C   UNL A   1      42.726  30.795  30.723  1.00  0.00     0.049 A 
ATOM     36  H   UNL A   1      42.766  28.864  29.867  1.00  0.00     0.167 HD
ATOM     37  C   UNL A   1      45.077  30.065  30.939  1.00  0.00     0.074 A 
ATOM     38  C   UNL A   1      46.457  30.255  31.332  1.00  0.00     0.031 C 
ATOM     39  C   UNL A   1      44.100  30.989  31.107  1.00  0.00     0.037 A 
BRANCH  26  40
ATOM     40  C   UNL A   1      38.578  29.151  29.057  1.00  0.00     0.057 A 
ATOM     41  C   UNL A   1      37.678  29.096  30.129  1.00  0.00     0.134 A 
ATOM     42  C   UNL A   1      38.089  29.632  27.834  1.00  0.00     0.134 A 
ATOM     43  F   UNL A   1      38.077  28.645  31.328  1.00  0.00    -0.206 F 
ATOM     44  C   UNL A   1      36.346  29.493  29.990  1.00  0.00     0.040 A 
ATOM     45  C   UNL A   1      36.766  30.054  27.687  1.00  0.00     0.040 A 
ATOM     46  F   UNL A   1      38.898  29.726  26.768  1.00  0.00    -0.206 F 
ATOM     47  C   UNL A   1      35.889  29.983  28.767  1.00  0.00     0.006 A 
ENDBRANCH  26  40
BRANCH  27  48
ATOM     48  C   UNL A   1      48.131  26.611  30.061  1.00  0.00     0.057 A 
ATOM     49  C   UNL A   1      48.616  25.895  31.161  1.00  0.00     0.134 A 
ATOM     50  C   UNL A   1      49.055  26.981  29.075  1.00  0.00     0.134 A 
ATOM     51  F   UNL A   1      47.786  25.530  32.149  1.00  0.00    -0.206 F 
ATOM     52  C   UNL A   1      49.969  25.578  31.286  1.00  0.00     0.040 A 
ATOM     53  C   UNL A   1      50.403  26.638  29.167  1.00  0.00     0.040 A 
ATOM     54  F   UNL A   1      48.653  27.662  27.991  1.00  0.00    -0.206 F 
ATOM     55  C   UNL A   1      50.865  25.942  30.282  1.00  0.00     0.006 A 
ENDBRANCH  27  48
BRANCH  39  56
ATOM     56  C   UNL A   1      44.490  32.279  31.771  1.00  0.00     0.057 A 
ATOM     57  C   UNL A   1      44.440  32.443  33.162  1.00  0.00     0.134 A 
ATOM     58  C   UNL A   1      44.910  33.376  31.007  1.00  0.00     0.134 A 
ATOM     59  F   UNL A   1      44.031  31.438  33.951  1.00  0.00    -0.206 F 
ATOM     60  C   UNL A   1      44.758  33.661  33.765  1.00  0.00     0.040 A 
ATOM     61  C   UNL A   1      45.260  34.588  31.601  1.00  0.00     0.040 A 
ATOM     62  F   UNL A   1      44.987  33.286  29.671  1.00  0.00    -0.206 F 
ATOM     63  C   UNL A   1      45.173  34.737  32.984  1.00  0.00     0.006 A 
ENDBRANCH  39  56
ENDBRANCH  13  14
ENDBRANCH   6   8
ENDBRANCH   3   4
ENDBRANCH   2   3
ENDBRANCH   1   2
BRANCH   1  64
ATOM     64  N   UNL A   1      37.665  22.280  24.294  1.00  0.00    -0.356 N 
ATOM     65  C   UNL A   1      36.460  22.656  23.803  1.00  0.00     0.223 C 
ATOM     66  H   UNL A   1      38.411  22.610  23.742  1.00  0.00     0.163 HD
ATOM     67  O   UNL A   1      36.506  23.153  22.668  1.00  0.00    -0.275 OA
BRANCH  65  68
ATOM     68  C   UNL A   1      35.109  22.611  24.546  1.00  0.00     0.078 C 
ATOM     69  C   UNL A   1      35.161  23.641  25.700  1.00  0.00     0.014 C 
ATOM     70  C   UNL A   1      33.824  22.736  23.732  1.00  0.00     0.014 C 
ATOM     71  C   UNL A   1      33.859  23.728  26.504  1.00  0.00     0.010 C 
ATOM     72  C   UNL A   1      32.556  22.850  24.581  1.00  0.00     0.010 C 
ATOM     73  C   UNL A   1      32.628  23.973  25.613  1.00  0.00     0.044 C 
BRANCH  73  74
ATOM     74  C   UNL A   1      32.715  25.390  25.016  1.00  0.00     0.264 C 
BRANCH  74  75
ATOM     75  N   UNL A   1      32.939  26.476  25.954  1.00  0.00    -0.344 N 
ATOM     76  H   UNL A   1      33.513  27.179  25.488  1.00  0.00     0.346 HD
ATOM     77  H   UNL A   1      33.381  26.050  26.768  1.00  0.00     0.346 HD
BRANCH  75  78
ATOM     78  C   UNL A   1      31.725  27.149  26.466  1.00  0.00     0.182 C 
ATOM     79  C   UNL A   1      31.893  28.244  27.538  1.00  0.00     0.065 C 
ATOM     80  C   UNL A   1      30.828  27.692  25.348  1.00  0.00     0.069 C 
ATOM     81  C   UNL A   1      32.410  29.585  27.018  1.00  0.00     0.006 C 
ATOM     82  C   UNL A   1      31.327  29.006  24.734  1.00  0.00    -0.002 C 
ATOM     83  C   UNL A   1      31.665  30.073  25.787  1.00  0.00     0.004 C 
BRANCH  82  84
ATOM     84  C   UNL A   1      30.304  29.476  23.732  1.00  0.00    -0.008 C 
ATOM     85  C   UNL A   1      30.452  29.391  22.231  1.00  0.00     0.004 C 
ATOM     86  C   UNL A   1      29.530  28.463  22.954  1.00  0.00     0.004 C 
ENDBRANCH  82  84
ENDBRANCH  75  78
ENDBRANCH  74  75
ENDBRANCH  73  74
ENDBRANCH  65  68
ENDBRANCH   1  64
TORSDOF 14
ENDMDL
MODEL 2
REMARK VINA RESULT:     -11.3      3.664      5.307
REMARK SMILES O=C(NCCCNC(=O)[C@H]1CC[C@@H](C[NH2+][C@H]2CCC[C@H](C3CC3)C2)CC1)c1ccc(-c2c3nc(c(-c4c(F)cccc4F)c4ccc([nH]4)c(-c4c(F)cccc4F)c4nc(c(-c5c(F)cccc5F)c5ccc2[nH]5)C=C4)C=C3)cc1
REMARK SMILES IDX 6 1 5 2 4 3 3 4 1 5 2 6 27 8 28 9 80 10 29 11 79 12 30 13
REMARK SMILES IDX 31 14 32 15 73 16 33 17 78 18 72 19 74 20 34 21 77 22 71 23
REMARK SMILES IDX 70 24 35 26 61 27 44 28 60 29 45 30 48 31 59 32 75 33 46 34
REMARK SMILES IDX 47 35 58 37 76 38 49 39 36 40 37 41 42 42 38 43 39 44 41 45
REMARK SMILES IDX 43 46 40 47 62 48 63 49 68 50 64 51 65 52 67 53 69 54 66 55
REMARK SMILES IDX 50 56 51 57 56 58 52 59 53 60 55 61 57 62 54 63 7 64 8 65
REMARK SMILES IDX 9 67 10 68 26 69 11 70 25 71 12 72 13 73 14 74 15 75 16 78
REMARK SMILES IDX 17 79 24 80 18 81 20 82 19 83 21 84 22 85 23 86
REMARK H PARENT 3 7 74 25 48 36 7 66 15 76 15 77
REMARK Flexibility Score: inf
ROOT
ATOM      1  C   UNL A   1      38.037  21.796  25.377  1.00  0.00     0.117 C 
ENDROOT
BRANCH   1   2
ATOM      2  C   UNL A   1      38.577  22.905  26.280  1.00  0.00     0.042 C 
BRANCH   2   3
ATOM      3  C   UNL A   1      39.917  22.548  26.936  1.00  0.00     0.118 C 
BRANCH   3   4
ATOM      4  N   UNL A   1      41.061  23.075  26.195  1.00  0.00    -0.352 N 
ATOM      5  O   UNL A   1      42.561  24.489  25.329  1.00  0.00    -0.269 OA
ATOM      6  C   UNL A   1      41.741  24.272  26.226  1.00  0.00     0.251 C 
ATOM      7  H   UNL A   1      41.420  22.441  25.534  1.00  0.00     0.163 HD
BRANCH   6   8
ATOM      8  C   UNL A   1      41.525  25.325  27.254  1.00  0.00     0.039 A 
ATOM      9  C   UNL A   1      40.537  25.237  28.229  1.00  0.00     0.014 A 
ATOM     10  C   UNL A   1      42.382  26.439  27.276  1.00  0.00     0.014 A 
ATOM     11  C   UNL A   1      40.299  26.323  29.084  1.00  0.00     0.010 A 
ATOM     12  C   UNL A   1      42.220  27.470  28.221  1.00  0.00     0.010 A 
ATOM     13  C   UNL A   1      41.150  27.450  29.124  1.00  0.00    -0.014 A 
BRANCH  13  14
ATOM     14  C   UNL A   1      40.936  28.510  30.171  1.00  0.00     0.031 A 
ATOM     15  C   UNL A   1      39.875  29.592  30.070  1.00  0.00     0.074 A 
ATOM     16  C   UNL A   1      41.710  28.479  31.280  1.00  0.00     0.049 A 
ATOM     17  N   UNL A   1      39.529  30.491  30.965  1.00  0.00    -0.248 NA
ATOM     18  C   UNL A   1      39.102  29.684  28.824  1.00  0.00     0.031 C 
ATOM     19  C   UNL A   1      42.815  27.544  31.508  1.00  0.00     0.029 A 
ATOM     20  N   UNL A   1      41.680  29.232  32.430  1.00  0.00    -0.354 N 
ATOM     21  C   UNL A   1      38.488  31.228  30.403  1.00  0.00     0.074 A 
ATOM     22  C   UNL A   1      38.273  30.689  29.078  1.00  0.00     0.031 C 
ATOM     23  C   UNL A   1      43.304  27.725  32.740  1.00  0.00     0.029 A 
ATOM     24  C   UNL A   1      42.620  28.853  33.359  1.00  0.00     0.049 A 
ATOM     25  H   UNL A   1      41.045  29.971  32.575  1.00  0.00     0.167 HD
ATOM     26  C   UNL A   1      37.775  32.255  30.932  1.00  0.00     0.037 A 
ATOM     27  C   UNL A   1      42.939  29.362  34.564  1.00  0.00     0.037 A 
ATOM     28  C   UNL A   1      38.012  32.847  32.227  1.00  0.00     0.049 A 
ATOM     29  C   UNL A   1      42.179  30.540  35.094  1.00  0.00     0.074 A 
ATOM     30  C   UNL A   1      37.343  33.901  32.830  1.00  0.00     0.029 A 
ATOM     31  N   UNL A   1      39.009  32.459  33.109  1.00  0.00    -0.354 N 
ATOM     32  N   UNL A   1      41.170  31.181  34.559  1.00  0.00    -0.248 NA
ATOM     33  C   UNL A   1      42.609  31.070  36.396  1.00  0.00     0.031 C 
ATOM     34  C   UNL A   1      37.969  34.184  34.049  1.00  0.00     0.029 A 
ATOM     35  C   UNL A   1      38.988  33.268  34.236  1.00  0.00     0.049 A 
ATOM     36  H   UNL A   1      39.640  31.718  32.957  1.00  0.00     0.167 HD
ATOM     37  C   UNL A   1      40.837  32.180  35.464  1.00  0.00     0.074 A 
ATOM     38  C   UNL A   1      41.728  32.039  36.595  1.00  0.00     0.031 C 
ATOM     39  C   UNL A   1      39.879  33.134  35.358  1.00  0.00     0.037 A 
BRANCH  26  40
ATOM     40  C   UNL A   1      36.658  32.837  30.105  1.00  0.00     0.057 A 
ATOM     41  C   UNL A   1      36.913  33.687  29.021  1.00  0.00     0.134 A 
ATOM     42  C   UNL A   1      35.324  32.470  30.331  1.00  0.00     0.134 A 
ATOM     43  F   UNL A   1      38.166  34.081  28.746  1.00  0.00    -0.206 F 
ATOM     44  C   UNL A   1      35.885  34.160  28.202  1.00  0.00     0.040 A 
ATOM     45  C   UNL A   1      34.290  32.917  29.506  1.00  0.00     0.040 A 
ATOM     46  F   UNL A   1      35.007  31.647  31.342  1.00  0.00    -0.206 F 
ATOM     47  C   UNL A   1      34.568  33.767  28.438  1.00  0.00     0.006 A 
ENDBRANCH  26  40
BRANCH  27  48
ATOM     48  C   UNL A   1      44.068  28.779  35.333  1.00  0.00     0.057 A 
ATOM     49  C   UNL A   1      43.859  27.820  36.331  1.00  0.00     0.134 A 
ATOM     50  C   UNL A   1      45.390  29.177  35.090  1.00  0.00     0.134 A 
ATOM     51  F   UNL A   1      42.616  27.412  36.625  1.00  0.00    -0.206 F 
ATOM     52  C   UNL A   1      44.918  27.293  37.070  1.00  0.00     0.040 A 
ATOM     53  C   UNL A   1      46.461  28.631  35.794  1.00  0.00     0.040 A 
ATOM     54  F   UNL A   1      45.659  30.087  34.142  1.00  0.00    -0.206 F 
ATOM     55  C   UNL A   1      46.225  27.693  36.797  1.00  0.00     0.006 A 
ENDBRANCH  27  48
BRANCH  39  56
ATOM     56  C   UNL A   1      39.733  34.081  36.515  1.00  0.00     0.057 A 
ATOM     57  C   UNL A   1      38.986  33.753  37.654  1.00  0.00     0.134 A 
ATOM     58  C   UNL A   1      40.338  35.344  36.484  1.00  0.00     0.134 A 
ATOM     59  F   UNL A   1      38.365  32.565  37.742  1.00  0.00    -0.206 F 
ATOM     60  C   UNL A   1      38.815  34.658  38.702  1.00  0.00     0.040 A 
ATOM     61  C   UNL A   1      40.200  36.246  37.539  1.00  0.00     0.040 A 
ATOM     62  F   UNL A   1      41.074  35.722  35.428  1.00  0.00    -0.206 F 
ATOM     63  C   UNL A   1      39.427  35.908  38.648  1.00  0.00     0.006 A 
ENDBRANCH  39  56
ENDBRANCH  13  14
ENDBRANCH   6   8
ENDBRANCH   3   4
ENDBRANCH   2   3
ENDBRANCH   1   2
BRANCH   1  64
ATOM     64  N   UNL A   1      37.525  22.342  24.127  1.00  0.00    -0.356 N 
ATOM     65  C   UNL A   1      36.313  22.735  23.666  1.00  0.00     0.223 C 
ATOM     66  H   UNL A   1      38.233  22.452  23.451  1.00  0.00     0.163 HD
ATOM     67  O   UNL A   1      36.279  22.954  22.447  1.00  0.00    -0.275 OA
BRANCH  65  68
ATOM     68  C   UNL A   1      35.054  23.014  24.512  1.00  0.00     0.078 C 
ATOM     69  C   UNL A   1      35.121  24.479  25.007  1.00  0.00     0.014 C 
ATOM     70  C   UNL A   1      33.687  22.678  23.920  1.00  0.00     0.014 C 
ATOM     71  C   UNL A   1      33.905  24.905  25.835  1.00  0.00     0.010 C 
ATOM     72  C   UNL A   1      32.506  23.151  24.770  1.00  0.00     0.010 C 
ATOM     73  C   UNL A   1      32.573  24.638  25.111  1.00  0.00     0.044 C 
BRANCH  73  74
ATOM     74  C   UNL A   1      32.464  25.580  23.898  1.00  0.00     0.264 C 
BRANCH  74  75
ATOM     75  N   UNL A   1      33.218  26.820  23.972  1.00  0.00    -0.344 N 
ATOM     76  H   UNL A   1      33.619  26.996  23.050  1.00  0.00     0.346 HD
ATOM     77  H   UNL A   1      33.910  26.677  24.707  1.00  0.00     0.346 HD
BRANCH  75  78
ATOM     78  C   UNL A   1      32.452  28.021  24.370  1.00  0.00     0.182 C 
ATOM     79  C   UNL A   1      31.080  27.822  25.045  1.00  0.00     0.065 C 
ATOM     80  C   UNL A   1      33.275  29.000  25.214  1.00  0.00     0.069 C 
ATOM     81  C   UNL A   1      31.135  27.379  26.506  1.00  0.00     0.006 C 
ATOM     82  C   UNL A   1      33.427  28.581  26.681  1.00  0.00    -0.002 C 
ATOM     83  C   UNL A   1      32.090  28.212  27.345  1.00  0.00     0.004 C 
BRANCH  82  84
ATOM     84  C   UNL A   1      34.161  29.676  27.412  1.00  0.00    -0.008 C 
ATOM     85  C   UNL A   1      35.269  29.463  28.416  1.00  0.00     0.004 C 
ATOM     86  C   UNL A   1      35.578  29.971  27.045  1.00  0.00     0.004 C 
ENDBRANCH  82  84
ENDBRANCH  75  78
ENDBRANCH  74  75
ENDBRANCH  73  74
ENDBRANCH  65  68
ENDBRANCH   1  64
TORSDOF 14
ENDMDL
MODEL 3
REMARK VINA RESULT:     -11.2      4.003      5.796
REMARK SMILES O=C(NCCCNC(=O)[C@H]1CC[C@@H](C[NH2+][C@H]2CCC[C@H](C3CC3)C2)CC1)c1ccc(-c2c3nc(c(-c4c(F)cccc4F)c4ccc([nH]4)c(-c4c(F)cccc4F)c4nc(c(-c5c(F)cccc5F)c5ccc2[nH]5)C=C4)C=C3)cc1
REMARK SMILES IDX 6 1 5 2 4 3 3 4 1 5 2 6 27 8 28 9 80 10 29 11 79 12 30 13
REMARK SMILES IDX 31 14 32 15 73 16 33 17 78 18 72 19 74 20 34 21 77 22 71 23
REMARK SMILES IDX 70 24 35 26 61 27 44 28 60 29 45 30 48 31 59 32 75 33 46 34
REMARK SMILES IDX 47 35 58 37 76 38 49 39 36 40 37 41 42 42 38 43 39 44 41 45
REMARK SMILES IDX 43 46 40 47 62 48 63 49 68 50 64 51 65 52 67 53 69 54 66 55
REMARK SMILES IDX 50 56 51 57 56 58 52 59 53 60 55 61 57 62 54 63 7 64 8 65
REMARK SMILES IDX 9 67 10 68 26 69 11 70 25 71 12 72 13 73 14 74 15 75 16 78
REMARK SMILES IDX 17 79 24 80 18 81 20 82 19 83 21 84 22 85 23 86
REMARK H PARENT 3 7 74 25 48 36 7 66 15 76 15 77
REMARK Flexibility Score: inf
ROOT
ATOM      1  C   UNL A   1      37.724  22.135  25.466  1.00  0.00     0.117 C 
ENDROOT
BRANCH   1   2
ATOM      2  C   UNL A   1      38.323  23.391  26.099  1.00  0.00     0.042 C 
BRANCH   2   3
ATOM      3  C   UNL A   1      39.618  23.115  26.874  1.00  0.00     0.118 C 
BRANCH   3   4
ATOM      4  N   UNL A   1      40.804  23.608  26.175  1.00  0.00    -0.352 N 
ATOM      5  O   UNL A   1      42.385  24.972  25.378  1.00  0.00    -0.269 OA
ATOM      6  C   UNL A   1      41.532  24.773  26.249  1.00  0.00     0.251 C 
ATOM      7  H   UNL A   1      41.155  22.971  25.511  1.00  0.00     0.163 HD
BRANCH   6   8
ATOM      8  C   UNL A   1      41.332  25.815  27.291  1.00  0.00     0.039 A 
ATOM      9  C   UNL A   1      42.085  26.983  27.345  1.00  0.00     0.014 A 
ATOM     10  C   UNL A   1      40.309  25.640  28.238  1.00  0.00     0.014 A 
ATOM     11  C   UNL A   1      41.938  27.862  28.429  1.00  0.00     0.010 A 
ATOM     12  C   UNL A   1      40.079  26.591  29.252  1.00  0.00     0.010 A 
ATOM     13  C   UNL A   1      40.913  27.706  29.389  1.00  0.00    -0.014 A 
BRANCH  13  14
ATOM     14  C   UNL A   1      40.706  28.766  30.438  1.00  0.00     0.031 A 
ATOM     15  C   UNL A   1      39.653  29.855  30.338  1.00  0.00     0.074 A 
ATOM     16  C   UNL A   1      41.477  28.727  31.548  1.00  0.00     0.049 A 
ATOM     17  N   UNL A   1      39.311  30.755  31.233  1.00  0.00    -0.248 NA
ATOM     18  C   UNL A   1      38.881  29.955  29.091  1.00  0.00     0.031 C 
ATOM     19  C   UNL A   1      42.575  27.784  31.775  1.00  0.00     0.029 A 
ATOM     20  N   UNL A   1      41.452  29.478  32.699  1.00  0.00    -0.354 N 
ATOM     21  C   UNL A   1      38.276  31.500  30.672  1.00  0.00     0.074 A 
ATOM     22  C   UNL A   1      38.059  30.966  29.345  1.00  0.00     0.031 C 
ATOM     23  C   UNL A   1      43.064  27.959  33.009  1.00  0.00     0.029 A 
ATOM     24  C   UNL A   1      42.388  29.091  33.629  1.00  0.00     0.049 A 
ATOM     25  H   UNL A   1      40.822  30.221  32.845  1.00  0.00     0.167 HD
ATOM     26  C   UNL A   1      37.570  32.531  31.203  1.00  0.00     0.037 A 
ATOM     27  C   UNL A   1      42.708  29.595  34.835  1.00  0.00     0.037 A 
ATOM     28  C   UNL A   1      37.810  33.119  32.498  1.00  0.00     0.049 A 
ATOM     29  C   UNL A   1      41.956  30.777  35.366  1.00  0.00     0.074 A 
ATOM     30  C   UNL A   1      37.148  34.177  33.103  1.00  0.00     0.029 A 
ATOM     31  N   UNL A   1      38.802  32.722  33.381  1.00  0.00    -0.354 N 
ATOM     32  N   UNL A   1      40.953  31.426  34.832  1.00  0.00    -0.248 NA
ATOM     33  C   UNL A   1      42.388  31.302  36.670  1.00  0.00     0.031 C 
ATOM     34  C   UNL A   1      37.774  34.454  34.323  1.00  0.00     0.029 A 
ATOM     35  C   UNL A   1      38.786  33.529  34.510  1.00  0.00     0.049 A 
ATOM     36  H   UNL A   1      39.428  31.977  33.228  1.00  0.00     0.167 HD
ATOM     37  C   UNL A   1      40.626  32.427  35.737  1.00  0.00     0.074 A 
ATOM     38  C   UNL A   1      41.514  32.277  36.870  1.00  0.00     0.031 C 
ATOM     39  C   UNL A   1      39.675  33.387  35.633  1.00  0.00     0.037 A 
BRANCH  26  40
ATOM     40  C   UNL A   1      36.458  33.123  30.375  1.00  0.00     0.057 A 
ATOM     41  C   UNL A   1      36.716  34.033  29.341  1.00  0.00     0.134 A 
ATOM     42  C   UNL A   1      35.130  32.708  30.547  1.00  0.00     0.134 A 
ATOM     43  F   UNL A   1      37.964  34.474  29.120  1.00  0.00    -0.206 F 
ATOM     44  C   UNL A   1      35.696  34.517  28.519  1.00  0.00     0.040 A 
ATOM     45  C   UNL A   1      34.105  33.167  29.717  1.00  0.00     0.040 A 
ATOM     46  F   UNL A   1      34.811  31.827  31.507  1.00  0.00    -0.206 F 
ATOM     47  C   UNL A   1      34.386  34.077  28.700  1.00  0.00     0.006 A 
ENDBRANCH  26  40
BRANCH  27  48
ATOM     48  C   UNL A   1      43.833  29.002  35.604  1.00  0.00     0.057 A 
ATOM     49  C   UNL A   1      45.154  29.424  35.413  1.00  0.00     0.134 A 
ATOM     50  C   UNL A   1      43.611  27.991  36.548  1.00  0.00     0.134 A 
ATOM     51  F   UNL A   1      45.435  30.374  34.510  1.00  0.00    -0.206 F 
ATOM     52  C   UNL A   1      46.213  28.849  36.117  1.00  0.00     0.040 A 
ATOM     53  C   UNL A   1      44.653  27.433  37.286  1.00  0.00     0.040 A 
ATOM     54  F   UNL A   1      42.366  27.547  36.784  1.00  0.00    -0.206 F 
ATOM     55  C   UNL A   1      45.962  27.856  37.062  1.00  0.00     0.006 A 
ENDBRANCH  27  48
BRANCH  39  56
ATOM     56  C   UNL A   1      39.533  34.333  36.791  1.00  0.00     0.057 A 
ATOM     57  C   UNL A   1      40.114  35.608  36.784  1.00  0.00     0.134 A 
ATOM     58  C   UNL A   1      38.815  33.959  37.934  1.00  0.00     0.134 A 
ATOM     59  F   UNL A   1      40.830  36.024  35.727  1.00  0.00    -0.206 F 
ATOM     60  C   UNL A   1      40.018  36.461  37.884  1.00  0.00     0.040 A 
ATOM     61  C   UNL A   1      38.686  34.815  39.028  1.00  0.00     0.040 A 
ATOM     62  F   UNL A   1      38.227  32.755  38.006  1.00  0.00    -0.206 F 
ATOM     63  C   UNL A   1      39.299  36.066  39.010  1.00  0.00     0.006 A 
ENDBRANCH  39  56
ENDBRANCH  13  14
ENDBRANCH   6   8
ENDBRANCH   3   4
ENDBRANCH   2   3
ENDBRANCH   1   2
BRANCH   1  64
ATOM     64  N   UNL A   1      36.548  21.689  26.202  1.00  0.00    -0.356 N 
ATOM     65  C   UNL A   1      35.217  21.624  25.952  1.00  0.00     0.223 C 
ATOM     66  H   UNL A   1      36.775  21.355  27.100  1.00  0.00     0.163 HD
ATOM     67  O   UNL A   1      34.526  21.363  26.947  1.00  0.00    -0.275 OA
BRANCH  65  68
ATOM     68  C   UNL A   1      34.533  21.746  24.576  1.00  0.00     0.078 C 
ATOM     69  C   UNL A   1      33.161  21.035  24.656  1.00  0.00     0.014 C 
ATOM     70  C   UNL A   1      34.418  23.129  23.937  1.00  0.00     0.014 C 
ATOM     71  C   UNL A   1      32.352  21.113  23.357  1.00  0.00     0.010 C 
ATOM     72  C   UNL A   1      33.576  23.159  22.661  1.00  0.00     0.010 C 
ATOM     73  C   UNL A   1      32.185  22.556  22.849  1.00  0.00     0.044 C 
BRANCH  73  74
ATOM     74  C   UNL A   1      31.277  23.329  23.824  1.00  0.00     0.264 C 
BRANCH  74  75
ATOM     75  N   UNL A   1      30.681  24.554  23.320  1.00  0.00    -0.344 N 
ATOM     76  H   UNL A   1      29.720  24.345  23.047  1.00  0.00     0.346 HD
ATOM     77  H   UNL A   1      31.277  24.854  22.549  1.00  0.00     0.346 HD
BRANCH  75  78
ATOM     78  C   UNL A   1      30.646  25.693  24.264  1.00  0.00     0.182 C 
ATOM     79  C   UNL A   1      30.897  25.410  25.759  1.00  0.00     0.065 C 
ATOM     80  C   UNL A   1      31.542  26.856  23.828  1.00  0.00     0.069 C 
ATOM     81  C   UNL A   1      32.356  25.154  26.133  1.00  0.00     0.006 C 
ATOM     82  C   UNL A   1      33.032  26.635  24.115  1.00  0.00    -0.002 C 
ATOM     83  C   UNL A   1      33.309  26.189  25.559  1.00  0.00     0.004 C 
BRANCH  82  84
ATOM     84  C   UNL A   1      33.777  27.889  23.736  1.00  0.00    -0.008 C 
ATOM     85  C   UNL A   1      34.134  28.300  22.327  1.00  0.00     0.004 C 
ATOM     86  C   UNL A   1      33.038  29.000  23.064  1.00  0.00     0.004 C 
ENDBRANCH  82  84
ENDBRANCH  75  78
ENDBRANCH  74  75
ENDBRANCH  73  74
ENDBRANCH  65  68
ENDBRANCH   1  64
TORSDOF 14
ENDMDL
