MODEL 1
REMARK VINA RESULT:     -12.9      0.000      0.000
REMARK SMILES O=C(NCCCNC(=O)[C@H](c1ccccc1)N1C(=O)/C(=C/c2ccc(-c3nc4ccccc4s3)o2)SC1=S)c1ccc(-c2c3nc(c(-c4c(F)cccc4F)c4ccc([nH]4)c(-c4c(F)cccc4F)c4nc(c(-c5c(F)cccc5F)c5ccc2[nH]5)C=C4)C=C3)cc1
REMARK SMILES IDX 5 1 4 2 3 3 1 4 2 5 39 7 40 8 92 9 41 10 91 11 42 12 43 13
REMARK SMILES IDX 44 14 85 15 45 16 90 17 84 18 86 19 46 20 89 21 83 22 82 23
REMARK SMILES IDX 47 25 73 26 56 27 72 28 57 29 60 30 71 31 87 32 58 33 59 34
REMARK SMILES IDX 70 36 88 37 61 38 48 39 49 40 54 41 50 42 51 43 53 44 55 45
REMARK SMILES IDX 52 46 74 47 75 48 80 49 76 50 77 51 79 52 81 53 78 54 62 55
REMARK SMILES IDX 63 56 68 57 64 58 65 59 67 60 69 61 66 62 6 63 7 64 8 65
REMARK SMILES IDX 9 67 10 68 17 69 18 70 37 71 19 72 20 73 36 74 38 75 21 76
REMARK SMILES IDX 22 77 23 78 35 79 24 80 25 81 26 82 27 83 34 84 28 85 33 86
REMARK SMILES IDX 29 87 32 88 30 89 31 90 11 91 12 92 16 93 13 94 15 95 14 96
REMARK H PARENT 3 6 86 24 60 35 7 66
REMARK Flexibility Score: inf
ROOT
ATOM      1  C   UNL A   1      38.577  20.330  25.156  1.00  0.00     0.042 C 
ENDROOT
BRANCH   1   2
ATOM      2  C   UNL A   1      39.446  19.964  26.346  1.00  0.00     0.118 C 
BRANCH   2   3
ATOM      3  N   UNL A   1      40.653  19.254  25.935  1.00  0.00    -0.352 N 
ATOM      4  O   UNL A   1      42.768  19.059  25.176  1.00  0.00    -0.269 OA
ATOM      5  C   UNL A   1      41.939  19.717  25.796  1.00  0.00     0.251 C 
ATOM      6  H   UNL A   1      40.526  18.299  25.728  1.00  0.00     0.163 HD
BRANCH   5   7
ATOM      7  C   UNL A   1      42.312  21.010  26.400  1.00  0.00     0.039 A 
ATOM      8  C   UNL A   1      42.490  22.124  25.582  1.00  0.00     0.014 A 
ATOM      9  C   UNL A   1      42.470  21.124  27.784  1.00  0.00     0.014 A 
ATOM     10  C   UNL A   1      43.011  23.289  26.111  1.00  0.00     0.010 A 
ATOM     11  C   UNL A   1      42.848  22.352  28.337  1.00  0.00     0.010 A 
ATOM     12  C   UNL A   1      43.142  23.438  27.500  1.00  0.00    -0.014 A 
BRANCH  12  13
ATOM     13  C   UNL A   1      43.477  24.788  28.015  1.00  0.00     0.031 A 
ATOM     14  C   UNL A   1      44.895  25.266  28.122  1.00  0.00     0.074 A 
ATOM     15  C   UNL A   1      42.451  25.614  28.306  1.00  0.00     0.049 A 
ATOM     16  N   UNL A   1      45.335  26.446  28.478  1.00  0.00    -0.248 NA
ATOM     17  C   UNL A   1      45.958  24.301  27.803  1.00  0.00     0.031 C 
ATOM     18  C   UNL A   1      41.032  25.240  28.256  1.00  0.00     0.029 A 
ATOM     19  N   UNL A   1      42.428  26.937  28.654  1.00  0.00    -0.354 N 
ATOM     20  C   UNL A   1      46.720  26.367  28.433  1.00  0.00     0.074 A 
ATOM     21  C   UNL A   1      47.052  25.011  28.050  1.00  0.00     0.031 C 
ATOM     22  C   UNL A   1      40.281  26.324  28.478  1.00  0.00     0.029 A 
ATOM     23  C   UNL A   1      41.157  27.445  28.783  1.00  0.00     0.049 A 
ATOM     24  H   UNL A   1      43.241  27.473  28.797  1.00  0.00     0.167 HD
ATOM     25  C   UNL A   1      47.627  27.344  28.677  1.00  0.00     0.037 A 
ATOM     26  C   UNL A   1      40.739  28.673  29.133  1.00  0.00     0.037 A 
ATOM     27  C   UNL A   1      47.279  28.691  29.059  1.00  0.00     0.049 A 
ATOM     28  C   UNL A   1      41.769  29.722  29.422  1.00  0.00     0.074 A 
ATOM     29  C   UNL A   1      48.121  29.755  29.331  1.00  0.00     0.029 A 
ATOM     30  N   UNL A   1      45.982  29.159  29.224  1.00  0.00    -0.354 N 
ATOM     31  N   UNL A   1      43.075  29.636  29.358  1.00  0.00    -0.248 NA
ATOM     32  C   UNL A   1      41.269  31.038  29.836  1.00  0.00     0.031 C 
ATOM     33  C   UNL A   1      47.337  30.852  29.705  1.00  0.00     0.029 A 
ATOM     34  C   UNL A   1      46.003  30.490  29.609  1.00  0.00     0.049 A 
ATOM     35  H   UNL A   1      45.167  28.624  29.086  1.00  0.00     0.167 HD
ATOM     36  C   UNL A   1      43.555  30.886  29.717  1.00  0.00     0.074 A 
ATOM     37  C   UNL A   1      42.396  31.723  29.955  1.00  0.00     0.031 C 
ATOM     38  C   UNL A   1      44.838  31.303  29.849  1.00  0.00     0.037 A 
BRANCH  25  39
ATOM     39  C   UNL A   1      49.083  26.994  28.552  1.00  0.00     0.057 A 
ATOM     40  C   UNL A   1      49.826  26.526  29.644  1.00  0.00     0.134 A 
ATOM     41  C   UNL A   1      49.734  27.068  27.314  1.00  0.00     0.134 A 
ATOM     42  F   UNL A   1      49.268  26.443  30.861  1.00  0.00    -0.206 F 
ATOM     43  C   UNL A   1      51.167  26.159  29.512  1.00  0.00     0.040 A 
ATOM     44  C   UNL A   1      51.067  26.679  27.164  1.00  0.00     0.040 A 
ATOM     45  F   UNL A   1      49.082  27.501  26.225  1.00  0.00    -0.206 F 
ATOM     46  C   UNL A   1      51.788  26.226  28.266  1.00  0.00     0.006 A 
ENDBRANCH  25  39
BRANCH  26  47
ATOM     47  C   UNL A   1      39.287  28.955  29.265  1.00  0.00     0.057 A 
ATOM     48  C   UNL A   1      38.614  28.790  30.480  1.00  0.00     0.134 A 
ATOM     49  C   UNL A   1      38.533  29.390  28.166  1.00  0.00     0.134 A 
ATOM     50  F   UNL A   1      39.275  28.363  31.566  1.00  0.00    -0.206 F 
ATOM     51  C   UNL A   1      37.242  29.023  30.592  1.00  0.00     0.040 A 
ATOM     52  C   UNL A   1      37.170  29.663  28.272  1.00  0.00     0.040 A 
ATOM     53  F   UNL A   1      39.120  29.582  26.975  1.00  0.00    -0.206 F 
ATOM     54  C   UNL A   1      36.518  29.467  29.487  1.00  0.00     0.006 A 
ENDBRANCH  26  47
BRANCH  38  55
ATOM     55  C   UNL A   1      45.037  32.736  30.250  1.00  0.00     0.057 A 
ATOM     56  C   UNL A   1      45.154  33.119  31.593  1.00  0.00     0.134 A 
ATOM     57  C   UNL A   1      45.102  33.744  29.281  1.00  0.00     0.134 A 
ATOM     58  F   UNL A   1      45.083  32.203  32.570  1.00  0.00    -0.206 F 
ATOM     59  C   UNL A   1      45.285  34.460  31.959  1.00  0.00     0.040 A 
ATOM     60  C   UNL A   1      45.267  35.084  29.633  1.00  0.00     0.040 A 
ATOM     61  F   UNL A   1      45.005  33.445  27.977  1.00  0.00    -0.206 F 
ATOM     62  C   UNL A   1      45.345  35.446  30.977  1.00  0.00     0.006 A 
ENDBRANCH  38  55
ENDBRANCH  12  13
ENDBRANCH   5   7
ENDBRANCH   2   3
ENDBRANCH   1   2
BRANCH   1  63
ATOM     63  C   UNL A   1      37.744  21.574  25.420  1.00  0.00     0.117 C 
BRANCH  63  64
ATOM     64  N   UNL A   1      37.484  22.287  24.183  1.00  0.00    -0.354 N 
ATOM     65  C   UNL A   1      36.288  22.672  23.632  1.00  0.00     0.247 C 
ATOM     66  H   UNL A   1      38.283  22.529  23.662  1.00  0.00     0.163 HD
ATOM     67  O   UNL A   1      36.337  23.048  22.462  1.00  0.00    -0.272 OA
BRANCH  65  68
ATOM     68  C   UNL A   1      34.996  22.612  24.496  1.00  0.00     0.211 C 
BRANCH  68  69
ATOM     69  N   UNL A   1      34.338  23.874  24.882  1.00  0.00    -0.276 N 
ATOM     70  C   UNL A   1      34.105  24.892  23.974  1.00  0.00     0.267 C 
ATOM     71  C   UNL A   1      33.750  24.038  26.128  1.00  0.00     0.149 C 
ATOM     72  O   UNL A   1      34.342  24.902  22.772  1.00  0.00    -0.268 OA
ATOM     73  C   UNL A   1      33.456  26.045  24.649  1.00  0.00     0.084 C 
ATOM     74  S   UNL A   1      32.940  25.583  26.218  1.00  0.00    -0.054 SA
ATOM     75  S   UNL A   1      33.735  23.012  27.449  1.00  0.00    -0.052 S 
ATOM     76  C   UNL A   1      33.319  27.243  24.064  1.00  0.00     0.068 C 
BRANCH  76  77
ATOM     77  C   UNL A   1      32.715  28.342  24.732  1.00  0.00     0.129 A 
ATOM     78  C   UNL A   1      31.387  28.749  24.732  1.00  0.00     0.051 A 
ATOM     79  O   UNL A   1      33.425  29.230  25.508  1.00  0.00    -0.454 OA
ATOM     80  C   UNL A   1      31.303  29.936  25.481  1.00  0.00     0.054 A 
ATOM     81  C   UNL A   1      32.575  30.210  25.949  1.00  0.00     0.163 A 
BRANCH  81  82
ATOM     82  C   UNL A   1      32.952  31.333  26.756  1.00  0.00     0.160 A 
ATOM     83  N   UNL A   1      34.010  31.269  27.535  1.00  0.00    -0.233 NA
ATOM     84  S   UNL A   1      32.044  32.780  26.840  1.00  0.00    -0.111 S 
ATOM     85  C   UNL A   1      34.114  32.424  28.279  1.00  0.00     0.082 A 
ATOM     86  C   UNL A   1      33.108  33.369  28.065  1.00  0.00     0.055 A 
ATOM     87  C   UNL A   1      35.124  32.695  29.220  1.00  0.00     0.030 A 
ATOM     88  C   UNL A   1      33.066  34.572  28.790  1.00  0.00     0.021 A 
ATOM     89  C   UNL A   1      35.093  33.889  29.943  1.00  0.00     0.002 A 
ATOM     90  C   UNL A   1      34.072  34.811  29.734  1.00  0.00     0.002 A 
ENDBRANCH  81  82
ENDBRANCH  76  77
ENDBRANCH  68  69
BRANCH  68  91
ATOM     91  C   UNL A   1      34.011  21.537  24.053  1.00  0.00    -0.016 A 
ATOM     92  C   UNL A   1      33.016  21.786  23.101  1.00  0.00     0.006 A 
ATOM     93  C   UNL A   1      34.076  20.254  24.636  1.00  0.00     0.006 A 
ATOM     94  C   UNL A   1      32.105  20.782  22.756  1.00  0.00     0.000 A 
ATOM     95  C   UNL A   1      33.178  19.252  24.279  1.00  0.00     0.000 A 
ATOM     96  C   UNL A   1      32.187  19.519  23.342  1.00  0.00     0.000 A 
ENDBRANCH  68  91
ENDBRANCH  65  68
ENDBRANCH  63  64
ENDBRANCH   1  63
TORSDOF 14
ENDMDL
MODEL 2
REMARK VINA RESULT:     -12.6      0.570      5.870
REMARK SMILES O=C(NCCCNC(=O)[C@H](c1ccccc1)N1C(=O)/C(=C/c2ccc(-c3nc4ccccc4s3)o2)SC1=S)c1ccc(-c2c3nc(c(-c4c(F)cccc4F)c4ccc([nH]4)c(-c4c(F)cccc4F)c4nc(c(-c5c(F)cccc5F)c5ccc2[nH]5)C=C4)C=C3)cc1
REMARK SMILES IDX 5 1 4 2 3 3 1 4 2 5 39 7 40 8 92 9 41 10 91 11 42 12 43 13
REMARK SMILES IDX 44 14 85 15 45 16 90 17 84 18 86 19 46 20 89 21 83 22 82 23
REMARK SMILES IDX 47 25 73 26 56 27 72 28 57 29 60 30 71 31 87 32 58 33 59 34
REMARK SMILES IDX 70 36 88 37 61 38 48 39 49 40 54 41 50 42 51 43 53 44 55 45
REMARK SMILES IDX 52 46 74 47 75 48 80 49 76 50 77 51 79 52 81 53 78 54 62 55
REMARK SMILES IDX 63 56 68 57 64 58 65 59 67 60 69 61 66 62 6 63 7 64 8 65
REMARK SMILES IDX 9 67 10 68 17 69 18 70 37 71 19 72 20 73 36 74 38 75 21 76
REMARK SMILES IDX 22 77 23 78 35 79 24 80 25 81 26 82 27 83 34 84 28 85 33 86
REMARK SMILES IDX 29 87 32 88 30 89 31 90 11 91 12 92 16 93 13 94 15 95 14 96
REMARK H PARENT 3 6 86 24 60 35 7 66
REMARK Flexibility Score: inf
ROOT
ATOM      1  C   UNL A   1      38.619  20.362  25.181  1.00  0.00     0.042 C 
ENDROOT
BRANCH   1   2
ATOM      2  C   UNL A   1      39.353  19.932  26.438  1.00  0.00     0.118 C 
BRANCH   2   3
ATOM      3  N   UNL A   1      40.558  19.169  26.127  1.00  0.00    -0.352 N 
ATOM      4  O   UNL A   1      42.668  18.868  25.391  1.00  0.00    -0.269 OA
ATOM      5  C   UNL A   1      41.842  19.608  25.915  1.00  0.00     0.251 C 
ATOM      6  H   UNL A   1      40.430  18.195  26.057  1.00  0.00     0.163 HD
BRANCH   5   7
ATOM      7  C   UNL A   1      42.218  20.973  26.327  1.00  0.00     0.039 A 
ATOM      8  C   UNL A   1      42.261  21.990  25.375  1.00  0.00     0.014 A 
ATOM      9  C   UNL A   1      42.513  21.252  27.665  1.00  0.00     0.014 A 
ATOM     10  C   UNL A   1      42.783  23.224  25.712  1.00  0.00     0.010 A 
ATOM     11  C   UNL A   1      42.892  22.548  28.033  1.00  0.00     0.010 A 
ATOM     12  C   UNL A   1      43.050  23.538  27.053  1.00  0.00    -0.014 A 
BRANCH  12  13
ATOM     13  C   UNL A   1      43.376  24.949  27.375  1.00  0.00     0.031 A 
ATOM     14  C   UNL A   1      42.336  25.909  27.870  1.00  0.00     0.074 A 
ATOM     15  C   UNL A   1      44.670  25.322  27.289  1.00  0.00     0.049 A 
ATOM     16  N   UNL A   1      42.490  27.148  28.266  1.00  0.00    -0.248 NA
ATOM     17  C   UNL A   1      40.946  25.432  27.919  1.00  0.00     0.031 C 
ATOM     18  C   UNL A   1      45.758  24.469  26.797  1.00  0.00     0.029 A 
ATOM     19  N   UNL A   1      45.300  26.482  27.648  1.00  0.00    -0.354 N 
ATOM     20  C   UNL A   1      41.221  27.600  28.604  1.00  0.00     0.074 A 
ATOM     21  C   UNL A   1      40.302  26.516  28.333  1.00  0.00     0.031 C 
ATOM     22  C   UNL A   1      46.925  25.101  26.964  1.00  0.00     0.029 A 
ATOM     23  C   UNL A   1      46.663  26.436  27.480  1.00  0.00     0.049 A 
ATOM     24  H   UNL A   1      44.824  27.272  27.993  1.00  0.00     0.167 HD
ATOM     25  C   UNL A   1      40.866  28.807  29.107  1.00  0.00     0.037 A 
ATOM     26  C   UNL A   1      47.602  27.375  27.693  1.00  0.00     0.037 A 
ATOM     27  C   UNL A   1      41.797  29.878  29.369  1.00  0.00     0.049 A 
ATOM     28  C   UNL A   1      47.170  28.708  28.224  1.00  0.00     0.074 A 
ATOM     29  C   UNL A   1      41.538  31.140  29.876  1.00  0.00     0.029 A 
ATOM     30  N   UNL A   1      43.165  29.813  29.145  1.00  0.00    -0.354 N 
ATOM     31  N   UNL A   1      45.968  29.114  28.555  1.00  0.00    -0.248 NA
ATOM     32  C   UNL A   1      48.222  29.713  28.407  1.00  0.00     0.031 C 
ATOM     33  C   UNL A   1      42.742  31.853  29.915  1.00  0.00     0.029 A 
ATOM     34  C   UNL A   1      43.761  31.017  29.488  1.00  0.00     0.049 A 
ATOM     35  H   UNL A   1      43.643  29.026  28.794  1.00  0.00     0.167 HD
ATOM     36  C   UNL A   1      46.119  30.421  28.992  1.00  0.00     0.074 A 
ATOM     37  C   UNL A   1      47.535  30.722  28.923  1.00  0.00     0.031 C 
ATOM     38  C   UNL A   1      45.171  31.298  29.404  1.00  0.00     0.037 A 
BRANCH  25  39
ATOM     39  C   UNL A   1      39.411  29.044  29.395  1.00  0.00     0.057 A 
ATOM     40  C   UNL A   1      38.516  29.446  28.395  1.00  0.00     0.134 A 
ATOM     41  C   UNL A   1      38.885  28.808  30.672  1.00  0.00     0.134 A 
ATOM     42  F   UNL A   1      38.954  29.703  27.152  1.00  0.00    -0.206 F 
ATOM     43  C   UNL A   1      37.155  29.621  28.658  1.00  0.00     0.040 A 
ATOM     44  C   UNL A   1      37.523  28.953  30.941  1.00  0.00     0.040 A 
ATOM     45  F   UNL A   1      39.683  28.414  31.675  1.00  0.00    -0.206 F 
ATOM     46  C   UNL A   1      36.654  29.364  29.933  1.00  0.00     0.006 A 
ENDBRANCH  25  39
BRANCH  26  47
ATOM     47  C   UNL A   1      49.023  27.093  27.366  1.00  0.00     0.057 A 
ATOM     48  C   UNL A   1      49.543  27.331  26.090  1.00  0.00     0.134 A 
ATOM     49  C   UNL A   1      49.895  26.568  28.330  1.00  0.00     0.134 A 
ATOM     50  F   UNL A   1      48.758  27.820  25.119  1.00  0.00    -0.206 F 
ATOM     51  C   UNL A   1      50.871  27.033  25.776  1.00  0.00     0.040 A 
ATOM     52  C   UNL A   1      51.232  26.301  28.041  1.00  0.00     0.040 A 
ATOM     53  F   UNL A   1      49.463  26.330  29.577  1.00  0.00    -0.206 F 
ATOM     54  C   UNL A   1      51.721  26.523  26.756  1.00  0.00     0.006 A 
ENDBRANCH  26  47
BRANCH  38  55
ATOM     55  C   UNL A   1      45.655  32.655  29.828  1.00  0.00     0.057 A 
ATOM     56  C   UNL A   1      46.028  32.927  31.151  1.00  0.00     0.134 A 
ATOM     57  C   UNL A   1      45.738  33.703  28.903  1.00  0.00     0.134 A 
ATOM     58  F   UNL A   1      45.955  31.971  32.088  1.00  0.00    -0.206 F 
ATOM     59  C   UNL A   1      46.425  34.205  31.547  1.00  0.00     0.040 A 
ATOM     60  C   UNL A   1      46.167  34.976  29.280  1.00  0.00     0.040 A 
ATOM     61  F   UNL A   1      45.404  33.508  27.618  1.00  0.00    -0.206 F 
ATOM     62  C   UNL A   1      46.499  35.232  30.609  1.00  0.00     0.006 A 
ENDBRANCH  38  55
ENDBRANCH  12  13
ENDBRANCH   5   7
ENDBRANCH   2   3
ENDBRANCH   1   2
BRANCH   1  63
ATOM     63  C   UNL A   1      37.762  21.596  25.416  1.00  0.00     0.117 C 
BRANCH  63  64
ATOM     64  N   UNL A   1      37.478  22.267  24.160  1.00  0.00    -0.354 N 
ATOM     65  C   UNL A   1      36.269  22.611  23.609  1.00  0.00     0.247 C 
ATOM     66  H   UNL A   1      38.268  22.511  23.627  1.00  0.00     0.163 HD
ATOM     67  O   UNL A   1      36.302  22.953  22.428  1.00  0.00    -0.272 OA
BRANCH  65  68
ATOM     68  C   UNL A   1      34.986  22.549  24.485  1.00  0.00     0.211 C 
BRANCH  68  69
ATOM     69  N   UNL A   1      34.336  23.811  24.887  1.00  0.00    -0.276 N 
ATOM     70  C   UNL A   1      34.138  24.853  23.999  1.00  0.00     0.267 C 
ATOM     71  C   UNL A   1      33.722  23.953  26.123  1.00  0.00     0.149 C 
ATOM     72  O   UNL A   1      34.403  24.889  22.804  1.00  0.00    -0.268 OA
ATOM     73  C   UNL A   1      33.490  25.999  24.687  1.00  0.00     0.084 C 
ATOM     74  S   UNL A   1      32.932  25.507  26.233  1.00  0.00    -0.054 SA
ATOM     75  S   UNL A   1      33.664  22.896  27.418  1.00  0.00    -0.052 S 
ATOM     76  C   UNL A   1      33.383  27.213  24.129  1.00  0.00     0.068 C 
BRANCH  76  77
ATOM     77  C   UNL A   1      32.778  28.304  24.810  1.00  0.00     0.129 A 
ATOM     78  C   UNL A   1      31.448  28.701  24.827  1.00  0.00     0.051 A 
ATOM     79  O   UNL A   1      33.491  29.192  25.582  1.00  0.00    -0.454 OA
ATOM     80  C   UNL A   1      31.364  29.884  25.583  1.00  0.00     0.054 A 
ATOM     81  C   UNL A   1      32.639  30.164  26.038  1.00  0.00     0.163 A 
BRANCH  81  82
ATOM     82  C   UNL A   1      33.017  31.285  26.847  1.00  0.00     0.160 A 
ATOM     83  N   UNL A   1      34.039  31.198  27.671  1.00  0.00    -0.233 NA
ATOM     84  S   UNL A   1      32.153  32.761  26.876  1.00  0.00    -0.111 S 
ATOM     85  C   UNL A   1      34.149  32.359  28.405  1.00  0.00     0.082 A 
ATOM     86  C   UNL A   1      33.183  33.332  28.138  1.00  0.00     0.055 A 
ATOM     87  C   UNL A   1      35.127  32.611  29.384  1.00  0.00     0.030 A 
ATOM     88  C   UNL A   1      33.149  34.545  28.846  1.00  0.00     0.021 A 
ATOM     89  C   UNL A   1      35.104  33.815  30.091  1.00  0.00     0.002 A 
ATOM     90  C   UNL A   1      34.121  34.765  29.828  1.00  0.00     0.002 A 
ENDBRANCH  81  82
ENDBRANCH  76  77
ENDBRANCH  68  69
BRANCH  68  91
ATOM     91  C   UNL A   1      33.993  21.481  24.044  1.00  0.00    -0.016 A 
ATOM     92  C   UNL A   1      32.997  21.737  23.096  1.00  0.00     0.006 A 
ATOM     93  C   UNL A   1      34.051  20.197  24.626  1.00  0.00     0.006 A 
ATOM     94  C   UNL A   1      32.078  20.740  22.752  1.00  0.00     0.000 A 
ATOM     95  C   UNL A   1      33.145  19.201  24.271  1.00  0.00     0.000 A 
ATOM     96  C   UNL A   1      32.153  19.476  23.337  1.00  0.00     0.000 A 
ENDBRANCH  68  91
ENDBRANCH  65  68
ENDBRANCH  63  64
ENDBRANCH   1  63
TORSDOF 14
ENDMDL
MODEL 3
REMARK VINA RESULT:     -11.6      4.457     11.346
REMARK SMILES O=C(NCCCNC(=O)[C@H](c1ccccc1)N1C(=O)/C(=C/c2ccc(-c3nc4ccccc4s3)o2)SC1=S)c1ccc(-c2c3nc(c(-c4c(F)cccc4F)c4ccc([nH]4)c(-c4c(F)cccc4F)c4nc(c(-c5c(F)cccc5F)c5ccc2[nH]5)C=C4)C=C3)cc1
REMARK SMILES IDX 5 1 4 2 3 3 1 4 2 5 39 7 40 8 92 9 41 10 91 11 42 12 43 13
REMARK SMILES IDX 44 14 85 15 45 16 90 17 84 18 86 19 46 20 89 21 83 22 82 23
REMARK SMILES IDX 47 25 73 26 56 27 72 28 57 29 60 30 71 31 87 32 58 33 59 34
REMARK SMILES IDX 70 36 88 37 61 38 48 39 49 40 54 41 50 42 51 43 53 44 55 45
REMARK SMILES IDX 52 46 74 47 75 48 80 49 76 50 77 51 79 52 81 53 78 54 62 55
REMARK SMILES IDX 63 56 68 57 64 58 65 59 67 60 69 61 66 62 6 63 7 64 8 65
REMARK SMILES IDX 9 67 10 68 17 69 18 70 37 71 19 72 20 73 36 74 38 75 21 76
REMARK SMILES IDX 22 77 23 78 35 79 24 80 25 81 26 82 27 83 34 84 28 85 33 86
REMARK SMILES IDX 29 87 32 88 30 89 31 90 11 91 12 92 16 93 13 94 15 95 14 96
REMARK H PARENT 3 6 86 24 60 35 7 66
REMARK Flexibility Score: inf
ROOT
ATOM      1  C   UNL A   1      35.117  32.390  31.306  1.00  0.00     0.042 C 
ENDROOT
BRANCH   1   2
ATOM      2  C   UNL A   1      35.415  32.464  29.820  1.00  0.00     0.118 C 
BRANCH   2   3
ATOM      3  N   UNL A   1      34.660  31.468  29.066  1.00  0.00    -0.352 N 
ATOM      4  O   UNL A   1      34.359  29.846  27.528  1.00  0.00    -0.269 OA
ATOM      5  C   UNL A   1      35.111  30.409  28.316  1.00  0.00     0.251 C 
ATOM      6  H   UNL A   1      33.681  31.571  29.101  1.00  0.00     0.163 HD
BRANCH   5   7
ATOM      7  C   UNL A   1      36.506  29.955  28.470  1.00  0.00     0.039 A 
ATOM      8  C   UNL A   1      37.417  30.172  27.438  1.00  0.00     0.014 A 
ATOM      9  C   UNL A   1      36.919  29.326  29.649  1.00  0.00     0.014 A 
ATOM     10  C   UNL A   1      38.671  29.595  27.496  1.00  0.00     0.010 A 
ATOM     11  C   UNL A   1      38.239  28.879  29.768  1.00  0.00     0.010 A 
ATOM     12  C   UNL A   1      39.119  28.993  28.682  1.00  0.00    -0.014 A 
BRANCH  12  13
ATOM     13  C   UNL A   1      40.550  28.610  28.757  1.00  0.00     0.031 A 
ATOM     14  C   UNL A   1      41.027  27.246  28.358  1.00  0.00     0.074 A 
ATOM     15  C   UNL A   1      41.430  29.566  29.119  1.00  0.00     0.049 A 
ATOM     16  N   UNL A   1      42.255  26.796  28.295  1.00  0.00    -0.248 NA
ATOM     17  C   UNL A   1      40.005  26.254  27.992  1.00  0.00     0.031 C 
ATOM     18  C   UNL A   1      41.066  30.922  29.548  1.00  0.00     0.029 A 
ATOM     19  N   UNL A   1      42.798  29.571  29.143  1.00  0.00    -0.354 N 
ATOM     20  C   UNL A   1      42.155  25.471  27.891  1.00  0.00     0.074 A 
ATOM     21  C   UNL A   1      40.744  25.177  27.757  1.00  0.00     0.031 C 
ATOM     22  C   UNL A   1      42.179  31.648  29.711  1.00  0.00     0.029 A 
ATOM     23  C   UNL A   1      43.333  30.788  29.495  1.00  0.00     0.049 A 
ATOM     24  H   UNL A   1      43.346  28.782  28.930  1.00  0.00     0.167 HD
ATOM     25  C   UNL A   1      43.155  24.590  27.643  1.00  0.00     0.037 A 
ATOM     26  C   UNL A   1      44.612  31.167  29.652  1.00  0.00     0.037 A 
ATOM     27  C   UNL A   1      44.557  24.900  27.783  1.00  0.00     0.049 A 
ATOM     28  C   UNL A   1      45.692  30.160  29.395  1.00  0.00     0.074 A 
ATOM     29  C   UNL A   1      45.649  24.078  27.559  1.00  0.00     0.029 A 
ATOM     30  N   UNL A   1      45.062  26.129  28.185  1.00  0.00    -0.354 N 
ATOM     31  N   UNL A   1      45.581  28.916  28.997  1.00  0.00    -0.248 NA
ATOM     32  C   UNL A   1      47.072  30.606  29.614  1.00  0.00     0.031 C 
ATOM     33  C   UNL A   1      46.809  24.795  27.869  1.00  0.00     0.029 A 
ATOM     34  C   UNL A   1      46.446  26.082  28.230  1.00  0.00     0.049 A 
ATOM     35  H   UNL A   1      44.516  26.919  28.404  1.00  0.00     0.167 HD
ATOM     36  C   UNL A   1      46.876  28.430  28.911  1.00  0.00     0.074 A 
ATOM     37  C   UNL A   1      47.756  29.529  29.257  1.00  0.00     0.031 C 
ATOM     38  C   UNL A   1      47.302  27.186  28.585  1.00  0.00     0.037 A 
BRANCH  25  39
ATOM     39  C   UNL A   1      42.773  23.203  27.209  1.00  0.00     0.057 A 
ATOM     40  C   UNL A   1      42.816  22.812  25.864  1.00  0.00     0.134 A 
ATOM     41  C   UNL A   1      42.415  22.230  28.151  1.00  0.00     0.134 A 
ATOM     42  F   UNL A   1      43.138  23.697  24.908  1.00  0.00    -0.206 F 
ATOM     43  C   UNL A   1      42.504  21.509  25.471  1.00  0.00     0.040 A 
ATOM     44  C   UNL A   1      42.125  20.917  27.774  1.00  0.00     0.040 A 
ATOM     45  F   UNL A   1      42.358  22.533  29.456  1.00  0.00    -0.206 F 
ATOM     46  C   UNL A   1      42.166  20.554  26.429  1.00  0.00     0.006 A 
ENDBRANCH  25  39
BRANCH  26  47
ATOM     47  C   UNL A   1      44.929  32.545  30.108  1.00  0.00     0.057 A 
ATOM     48  C   UNL A   1      45.034  33.610  29.208  1.00  0.00     0.134 A 
ATOM     49  C   UNL A   1      45.144  32.824  31.465  1.00  0.00     0.134 A 
ATOM     50  F   UNL A   1      44.853  33.407  27.895  1.00  0.00    -0.206 F 
ATOM     51  C   UNL A   1      45.365  34.897  29.636  1.00  0.00     0.040 A 
ATOM     52  C   UNL A   1      45.438  34.111  31.911  1.00  0.00     0.040 A 
ATOM     53  F   UNL A   1      45.044  31.850  32.382  1.00  0.00    -0.206 F 
ATOM     54  C   UNL A   1      45.562  35.151  30.993  1.00  0.00     0.006 A 
ENDBRANCH  26  47
BRANCH  38  55
ATOM     55  C   UNL A   1      48.788  26.969  28.572  1.00  0.00     0.057 A 
ATOM     56  C   UNL A   1      49.478  26.508  29.702  1.00  0.00     0.134 A 
ATOM     57  C   UNL A   1      49.537  27.235  27.420  1.00  0.00     0.134 A 
ATOM     58  F   UNL A   1      48.821  26.251  30.842  1.00  0.00    -0.206 F 
ATOM     59  C   UNL A   1      50.867  26.361  29.697  1.00  0.00     0.040 A 
ATOM     60  C   UNL A   1      50.921  27.060  27.392  1.00  0.00     0.040 A 
ATOM     61  F   UNL A   1      48.937  27.672  26.302  1.00  0.00    -0.206 F 
ATOM     62  C   UNL A   1      51.590  26.634  28.538  1.00  0.00     0.006 A 
ENDBRANCH  38  55
ENDBRANCH  12  13
ENDBRANCH   5   7
ENDBRANCH   2   3
ENDBRANCH   1   2
BRANCH   1  63
ATOM     63  C   UNL A   1      36.050  33.272  32.119  1.00  0.00     0.117 C 
BRANCH  63  64
ATOM     64  N   UNL A   1      37.318  33.443  31.433  1.00  0.00    -0.354 N 
ATOM     65  C   UNL A   1      38.590  33.168  31.869  1.00  0.00     0.247 C 
ATOM     66  H   UNL A   1      37.256  33.810  30.522  1.00  0.00     0.163 HD
ATOM     67  O   UNL A   1      39.499  33.630  31.182  1.00  0.00    -0.272 OA
BRANCH  65  68
ATOM     68  C   UNL A   1      38.789  32.318  33.156  1.00  0.00     0.211 C 
BRANCH  68  69
ATOM     69  N   UNL A   1      39.633  31.111  33.089  1.00  0.00    -0.276 N 
ATOM     70  C   UNL A   1      41.015  31.174  33.130  1.00  0.00     0.267 C 
ATOM     71  C   UNL A   1      39.090  29.837  33.170  1.00  0.00     0.149 C 
ATOM     72  O   UNL A   1      41.723  32.165  33.267  1.00  0.00    -0.268 OA
ATOM     73  C   UNL A   1      41.596  29.812  33.017  1.00  0.00     0.084 C 
ATOM     74  S   UNL A   1      40.360  28.637  33.202  1.00  0.00    -0.054 SA
ATOM     75  S   UNL A   1      37.489  29.355  33.228  1.00  0.00    -0.052 S 
ATOM     76  C   UNL A   1      42.902  29.597  32.806  1.00  0.00     0.068 C 
BRANCH  76  77
ATOM     77  C   UNL A   1      43.438  28.287  32.680  1.00  0.00     0.129 A 
ATOM     78  C   UNL A   1      43.631  27.523  31.537  1.00  0.00     0.051 A 
ATOM     79  O   UNL A   1      43.846  27.537  33.760  1.00  0.00    -0.454 OA
ATOM     80  C   UNL A   1      44.117  26.266  31.940  1.00  0.00     0.054 A 
ATOM     81  C   UNL A   1      44.242  26.303  33.316  1.00  0.00     0.163 A 
BRANCH  81  82
ATOM     82  C   UNL A   1      44.700  25.230  34.149  1.00  0.00     0.160 A 
ATOM     83  N   UNL A   1      44.940  24.043  33.635  1.00  0.00    -0.233 NA
ATOM     84  S   UNL A   1      44.891  25.368  35.843  1.00  0.00    -0.111 S 
ATOM     85  C   UNL A   1      45.274  23.158  34.637  1.00  0.00     0.082 A 
ATOM     86  C   UNL A   1      45.273  23.686  35.930  1.00  0.00     0.055 A 
ATOM     87  C   UNL A   1      45.589  21.800  34.449  1.00  0.00     0.030 A 
ATOM     88  C   UNL A   1      45.550  22.885  37.050  1.00  0.00     0.021 A 
ATOM     89  C   UNL A   1      45.869  20.995  35.555  1.00  0.00     0.002 A 
ATOM     90  C   UNL A   1      45.842  21.532  36.839  1.00  0.00     0.002 A 
ENDBRANCH  81  82
ENDBRANCH  76  77
ENDBRANCH  68  69
BRANCH  68  91
ATOM     91  C   UNL A   1      39.035  33.150  34.409  1.00  0.00    -0.016 A 
ATOM     92  C   UNL A   1      38.852  32.630  35.695  1.00  0.00     0.006 A 
ATOM     93  C   UNL A   1      39.433  34.497  34.281  1.00  0.00     0.006 A 
ATOM     94  C   UNL A   1      39.048  33.441  36.817  1.00  0.00     0.000 A 
ATOM     95  C   UNL A   1      39.642  35.299  35.399  1.00  0.00     0.000 A 
ATOM     96  C   UNL A   1      39.443  34.771  36.670  1.00  0.00     0.000 A 
ENDBRANCH  68  91
ENDBRANCH  65  68
ENDBRANCH  63  64
ENDBRANCH   1  63
TORSDOF 14
ENDMDL
