MODEL 1
REMARK VINA RESULT:     -13.1      0.000      0.000
REMARK SMILES O=C(NCCCNC(=O)c1ccccc1Nc1cccc(S(F)(F)(F)(F)F)c1)c1ccc(-c2c3nc(c(-c4c(F)cccc4F)c4ccc([nH]4)c(-c4c(F)cccc4F)c4nc(c(-c5c(F)cccc5F)c5ccc2[nH]5)C=C4)C=C3)cc1
REMARK SMILES IDX 5 1 4 2 3 3 1 4 2 5 29 7 30 8 82 9 31 10 81 11 32 12 33 13
REMARK SMILES IDX 34 14 75 15 35 16 80 17 74 18 76 19 36 20 79 21 73 22 72 23
REMARK SMILES IDX 37 25 63 26 46 27 62 28 47 29 50 30 61 31 77 32 48 33 49 34
REMARK SMILES IDX 60 36 78 37 51 38 38 39 39 40 44 41 40 42 41 43 43 44 45 45
REMARK SMILES IDX 42 46 64 47 65 48 70 49 66 50 67 51 69 52 71 53 68 54 52 55
REMARK SMILES IDX 53 56 58 57 54 58 55 59 57 60 59 61 56 62 6 63 7 64 8 65
REMARK SMILES IDX 9 67 10 68 11 69 15 70 12 71 14 72 13 73 16 74 17 76 18 77
REMARK SMILES IDX 28 78 19 79 21 80 20 81 22 82 23 83 24 84 25 85 26 86 27 87
REMARK H PARENT 3 6 76 24 50 35 7 66 16 75
REMARK Flexibility Score: inf
ROOT
ATOM      1  C   UNL A   1      37.443  19.941  24.937  1.00  0.00     0.042 C 
ENDROOT
BRANCH   1   2
ATOM      2  C   UNL A   1      38.699  20.343  25.692  1.00  0.00     0.118 C 
BRANCH   2   3
ATOM      3  N   UNL A   1      39.699  19.271  25.585  1.00  0.00    -0.352 N 
ATOM      4  O   UNL A   1      41.945  18.581  25.936  1.00  0.00    -0.269 OA
ATOM      5  C   UNL A   1      41.081  19.508  26.028  1.00  0.00     0.251 C 
ATOM      6  H   UNL A   1      39.444  18.394  25.217  1.00  0.00     0.163 HD
BRANCH   5   7
ATOM      7  C   UNL A   1      41.475  20.861  26.597  1.00  0.00     0.039 A 
ATOM      8  C   UNL A   1      41.349  21.089  27.957  1.00  0.00     0.014 A 
ATOM      9  C   UNL A   1      41.934  21.802  25.781  1.00  0.00     0.014 A 
ATOM     10  C   UNL A   1      41.462  22.452  28.323  1.00  0.00     0.010 A 
ATOM     11  C   UNL A   1      42.152  23.079  26.237  1.00  0.00     0.010 A 
ATOM     12  C   UNL A   1      41.989  23.391  27.559  1.00  0.00    -0.014 A 
BRANCH  12  13
ATOM     13  C   UNL A   1      42.395  24.745  28.118  1.00  0.00     0.031 A 
ATOM     14  C   UNL A   1      43.740  24.946  28.433  1.00  0.00     0.074 A 
ATOM     15  C   UNL A   1      41.410  25.702  28.282  1.00  0.00     0.049 A 
ATOM     16  N   UNL A   1      44.308  26.060  28.898  1.00  0.00    -0.248 NA
ATOM     17  C   UNL A   1      44.783  23.921  28.291  1.00  0.00     0.031 C 
ATOM     18  C   UNL A   1      40.052  25.509  27.958  1.00  0.00     0.029 A 
ATOM     19  N   UNL A   1      41.547  26.981  28.775  1.00  0.00    -0.354 N 
ATOM     20  C   UNL A   1      45.620  25.876  29.061  1.00  0.00     0.074 A 
ATOM     21  C   UNL A   1      45.943  24.495  28.679  1.00  0.00     0.031 C 
ATOM     22  C   UNL A   1      39.379  26.650  28.262  1.00  0.00     0.029 A 
ATOM     23  C   UNL A   1      40.305  27.577  28.779  1.00  0.00     0.049 A 
ATOM     24  H   UNL A   1      42.388  27.398  29.071  1.00  0.00     0.167 HD
ATOM     25  C   UNL A   1      46.558  26.805  29.511  1.00  0.00     0.037 A 
ATOM     26  C   UNL A   1      39.976  28.853  29.208  1.00  0.00     0.037 A 
ATOM     27  C   UNL A   1      46.237  28.096  29.899  1.00  0.00     0.049 A 
ATOM     28  C   UNL A   1      40.907  29.763  29.714  1.00  0.00     0.074 A 
ATOM     29  C   UNL A   1      47.172  29.049  30.348  1.00  0.00     0.029 A 
ATOM     30  N   UNL A   1      44.991  28.683  29.927  1.00  0.00    -0.354 N 
ATOM     31  N   UNL A   1      42.224  29.592  29.839  1.00  0.00    -0.248 NA
ATOM     32  C   UNL A   1      40.567  31.107  30.202  1.00  0.00     0.031 C 
ATOM     33  C   UNL A   1      46.500  30.190  30.651  1.00  0.00     0.029 A 
ATOM     34  C   UNL A   1      45.132  29.970  30.399  1.00  0.00     0.049 A 
ATOM     35  H   UNL A   1      44.146  28.256  29.658  1.00  0.00     0.167 HD
ATOM     36  C   UNL A   1      42.785  30.692  30.343  1.00  0.00     0.074 A 
ATOM     37  C   UNL A   1      41.726  31.680  30.591  1.00  0.00     0.031 C 
ATOM     38  C   UNL A   1      44.139  30.914  30.604  1.00  0.00     0.037 A 
BRANCH  25  39
ATOM     39  C   UNL A   1      48.016  26.378  29.578  1.00  0.00     0.057 A 
ATOM     40  C   UNL A   1      48.824  26.572  28.470  1.00  0.00     0.134 A 
ATOM     41  C   UNL A   1      48.493  25.838  30.693  1.00  0.00     0.134 A 
ATOM     42  F   UNL A   1      48.468  27.328  27.436  1.00  0.00    -0.206 F 
ATOM     43  C   UNL A   1      50.063  25.892  28.539  1.00  0.00     0.040 A 
ATOM     44  C   UNL A   1      49.763  25.314  30.729  1.00  0.00     0.040 A 
ATOM     45  F   UNL A   1      47.736  25.803  31.785  1.00  0.00    -0.206 F 
ATOM     46  C   UNL A   1      50.597  25.418  29.649  1.00  0.00     0.006 A 
ENDBRANCH  25  39
BRANCH  26  47
ATOM     47  C   UNL A   1      38.522  29.285  29.125  1.00  0.00     0.057 A 
ATOM     48  C   UNL A   1      38.052  29.811  27.932  1.00  0.00     0.134 A 
ATOM     49  C   UNL A   1      37.727  29.154  30.181  1.00  0.00     0.134 A 
ATOM     50  F   UNL A   1      38.727  29.729  26.789  1.00  0.00    -0.206 F 
ATOM     51  C   UNL A   1      36.792  30.443  28.041  1.00  0.00     0.040 A 
ATOM     52  C   UNL A   1      36.457  29.679  30.169  1.00  0.00     0.040 A 
ATOM     53  F   UNL A   1      38.163  28.510  31.259  1.00  0.00    -0.206 F 
ATOM     54  C   UNL A   1      35.949  30.266  29.043  1.00  0.00     0.006 A 
ENDBRANCH  26  47
BRANCH  38  55
ATOM     55  C   UNL A   1      44.547  32.274  31.146  1.00  0.00     0.057 A 
ATOM     56  C   UNL A   1      44.617  32.466  32.516  1.00  0.00     0.134 A 
ATOM     57  C   UNL A   1      44.832  33.255  30.297  1.00  0.00     0.134 A 
ATOM     58  F   UNL A   1      44.592  31.466  33.391  1.00  0.00    -0.206 F 
ATOM     59  C   UNL A   1      44.718  33.826  32.899  1.00  0.00     0.040 A 
ATOM     60  C   UNL A   1      45.053  34.532  30.753  1.00  0.00     0.040 A 
ATOM     61  F   UNL A   1      44.901  32.998  28.994  1.00  0.00    -0.206 F 
ATOM     62  C   UNL A   1      45.076  34.807  32.092  1.00  0.00     0.006 A 
ENDBRANCH  38  55
ENDBRANCH  12  13
ENDBRANCH   5   7
ENDBRANCH   2   3
ENDBRANCH   1   2
BRANCH   1  63
ATOM     63  C   UNL A   1      36.445  21.087  24.962  1.00  0.00     0.118 C 
BRANCH  63  64
ATOM     64  N   UNL A   1      35.847  21.186  26.301  1.00  0.00    -0.352 N 
ATOM     65  C   UNL A   1      34.776  22.160  26.557  1.00  0.00     0.253 C 
ATOM     66  H   UNL A   1      36.163  20.599  27.027  1.00  0.00     0.163 HD
ATOM     67  O   UNL A   1      34.258  22.245  27.714  1.00  0.00    -0.269 OA
BRANCH  65  68
ATOM     68  C   UNL A   1      34.288  23.064  25.437  1.00  0.00     0.063 A 
ATOM     69  C   UNL A   1      35.021  24.181  25.070  1.00  0.00     0.016 A 
ATOM     70  C   UNL A   1      33.100  22.811  24.899  1.00  0.00     0.051 A 
ATOM     71  C   UNL A   1      34.280  25.133  24.329  1.00  0.00     0.001 A 
ATOM     72  C   UNL A   1      32.496  23.729  24.076  1.00  0.00     0.027 A 
ATOM     73  C   UNL A   1      33.138  24.882  23.717  1.00  0.00     0.002 A 
BRANCH  70  74
ATOM     74  N   UNL A   1      32.428  21.536  25.188  1.00  0.00    -0.355 N 
ATOM     75  H   UNL A   1      31.846  21.454  25.977  1.00  0.00     0.167 HD
BRANCH  74  76
ATOM     76  C   UNL A   1      32.626  20.384  24.297  1.00  0.00     0.040 A 
ATOM     77  C   UNL A   1      32.161  20.437  22.993  1.00  0.00     0.026 A 
ATOM     78  C   UNL A   1      33.250  19.307  24.761  1.00  0.00     0.050 A 
ATOM     79  C   UNL A   1      32.148  19.184  22.336  1.00  0.00     0.004 A 
ATOM     80  C   UNL A   1      33.318  18.159  24.010  1.00  0.00     0.109 A 
ATOM     81  C   UNL A   1      32.825  18.123  22.735  1.00  0.00     0.024 A 
BRANCH  80  82
ATOM     82  S   UNL A   1      34.068  16.672  24.718  1.00  0.00     0.310 S 
ATOM     83  F   UNL A   1      34.380  15.917  23.359  1.00  0.00    -0.094 F 
ATOM     84  F   UNL A   1      32.642  16.002  24.683  1.00  0.00    -0.094 F 
ATOM     85  F   UNL A   1      34.658  15.442  25.466  1.00  0.00    -0.094 F 
ATOM     86  F   UNL A   1      35.515  17.296  24.620  1.00  0.00    -0.094 F 
ATOM     87  F   UNL A   1      33.505  17.874  23.859  1.00  0.00    -0.094 F 
ENDBRANCH  80  82
ENDBRANCH  74  76
ENDBRANCH  70  74
ENDBRANCH  65  68
ENDBRANCH  63  64
ENDBRANCH   1  63
TORSDOF 13
ENDMDL
MODEL 2
REMARK VINA RESULT:     -13.1      5.275      9.831
REMARK SMILES O=C(NCCCNC(=O)c1ccccc1Nc1cccc(S(F)(F)(F)(F)F)c1)c1ccc(-c2c3nc(c(-c4c(F)cccc4F)c4ccc([nH]4)c(-c4c(F)cccc4F)c4nc(c(-c5c(F)cccc5F)c5ccc2[nH]5)C=C4)C=C3)cc1
REMARK SMILES IDX 5 1 4 2 3 3 1 4 2 5 29 7 30 8 82 9 31 10 81 11 32 12 33 13
REMARK SMILES IDX 34 14 75 15 35 16 80 17 74 18 76 19 36 20 79 21 73 22 72 23
REMARK SMILES IDX 37 25 63 26 46 27 62 28 47 29 50 30 61 31 77 32 48 33 49 34
REMARK SMILES IDX 60 36 78 37 51 38 38 39 39 40 44 41 40 42 41 43 43 44 45 45
REMARK SMILES IDX 42 46 64 47 65 48 70 49 66 50 67 51 69 52 71 53 68 54 52 55
REMARK SMILES IDX 53 56 58 57 54 58 55 59 57 60 59 61 56 62 6 63 7 64 8 65
REMARK SMILES IDX 9 67 10 68 11 69 15 70 12 71 14 72 13 73 16 74 17 76 18 77
REMARK SMILES IDX 28 78 19 79 21 80 20 81 22 82 23 83 24 84 25 85 26 86 27 87
REMARK H PARENT 3 6 76 24 50 35 7 66 16 75
REMARK Flexibility Score: inf
ROOT
ATOM      1  C   UNL A   1      31.427  31.359  26.511  1.00  0.00     0.042 C 
ENDROOT
BRANCH   1   2
ATOM      2  C   UNL A   1      32.631  32.217  26.864  1.00  0.00     0.118 C 
BRANCH   2   3
ATOM      3  N   UNL A   1      32.172  33.524  27.357  1.00  0.00    -0.352 N 
ATOM      4  O   UNL A   1      32.605  35.416  28.726  1.00  0.00    -0.269 OA
ATOM      5  C   UNL A   1      33.002  34.286  28.301  1.00  0.00     0.251 C 
ATOM      6  H   UNL A   1      31.308  33.889  27.055  1.00  0.00     0.163 HD
BRANCH   5   7
ATOM      7  C   UNL A   1      34.334  33.724  28.767  1.00  0.00     0.039 A 
ATOM      8  C   UNL A   1      35.491  34.063  28.084  1.00  0.00     0.014 A 
ATOM      9  C   UNL A   1      34.367  32.917  29.821  1.00  0.00     0.014 A 
ATOM     10  C   UNL A   1      36.609  33.261  28.419  1.00  0.00     0.010 A 
ATOM     11  C   UNL A   1      35.529  32.273  30.172  1.00  0.00     0.010 A 
ATOM     12  C   UNL A   1      36.697  32.514  29.503  1.00  0.00    -0.014 A 
BRANCH  12  13
ATOM     13  C   UNL A   1      38.026  31.953  29.984  1.00  0.00     0.031 A 
ATOM     14  C   UNL A   1      38.749  32.694  30.920  1.00  0.00     0.074 A 
ATOM     15  C   UNL A   1      38.442  30.738  29.468  1.00  0.00     0.049 A 
ATOM     16  N   UNL A   1      39.909  32.369  31.493  1.00  0.00    -0.248 NA
ATOM     17  C   UNL A   1      38.324  34.000  31.444  1.00  0.00     0.031 C 
ATOM     18  C   UNL A   1      37.713  29.980  28.531  1.00  0.00     0.029 A 
ATOM     19  N   UNL A   1      39.603  30.053  29.752  1.00  0.00    -0.354 N 
ATOM     20  C   UNL A   1      40.282  33.320  32.351  1.00  0.00     0.074 A 
ATOM     21  C   UNL A   1      39.272  34.386  32.327  1.00  0.00     0.031 C 
ATOM     22  C   UNL A   1      38.429  28.861  28.244  1.00  0.00     0.029 A 
ATOM     23  C   UNL A   1      39.617  28.899  29.000  1.00  0.00     0.049 A 
ATOM     24  H   UNL A   1      40.301  30.338  30.385  1.00  0.00     0.167 HD
ATOM     25  C   UNL A   1      41.423  33.340  33.154  1.00  0.00     0.037 A 
ATOM     26  C   UNL A   1      40.601  27.924  28.958  1.00  0.00     0.037 A 
ATOM     27  C   UNL A   1      42.387  32.344  33.145  1.00  0.00     0.049 A 
ATOM     28  C   UNL A   1      41.772  27.973  29.718  1.00  0.00     0.074 A 
ATOM     29  C   UNL A   1      43.540  32.344  33.953  1.00  0.00     0.029 A 
ATOM     30  N   UNL A   1      42.413  31.203  32.374  1.00  0.00    -0.354 N 
ATOM     31  N   UNL A   1      42.125  28.904  30.606  1.00  0.00    -0.248 NA
ATOM     32  C   UNL A   1      42.837  26.963  29.659  1.00  0.00     0.031 C 
ATOM     33  C   UNL A   1      44.256  31.224  33.667  1.00  0.00     0.029 A 
ATOM     34  C   UNL A   1      43.563  30.506  32.674  1.00  0.00     0.049 A 
ATOM     35  H   UNL A   1      41.728  30.932  31.719  1.00  0.00     0.167 HD
ATOM     36  C   UNL A   1      43.306  28.600  31.147  1.00  0.00     0.074 A 
ATOM     37  C   UNL A   1      43.784  27.350  30.541  1.00  0.00     0.031 C 
ATOM     38  C   UNL A   1      44.002  29.312  32.126  1.00  0.00     0.037 A 
BRANCH  25  39
ATOM     39  C   UNL A   1      41.621  34.520  34.091  1.00  0.00     0.057 A 
ATOM     40  C   UNL A   1      41.122  34.443  35.382  1.00  0.00     0.134 A 
ATOM     41  C   UNL A   1      42.272  35.596  33.668  1.00  0.00     0.134 A 
ATOM     42  F   UNL A   1      40.694  33.308  35.927  1.00  0.00    -0.206 F 
ATOM     43  C   UNL A   1      41.110  35.681  36.066  1.00  0.00     0.040 A 
ATOM     44  C   UNL A   1      42.336  36.727  34.446  1.00  0.00     0.040 A 
ATOM     45  F   UNL A   1      42.868  35.581  32.479  1.00  0.00    -0.206 F 
ATOM     46  C   UNL A   1      41.813  36.741  35.710  1.00  0.00     0.006 A 
ENDBRANCH  25  39
BRANCH  26  47
ATOM     47  C   UNL A   1      40.396  26.737  28.033  1.00  0.00     0.057 A 
ATOM     48  C   UNL A   1      39.680  25.646  28.500  1.00  0.00     0.134 A 
ATOM     49  C   UNL A   1      40.894  26.756  26.803  1.00  0.00     0.134 A 
ATOM     50  F   UNL A   1      38.954  25.679  29.615  1.00  0.00    -0.206 F 
ATOM     51  C   UNL A   1      39.792  24.495  27.686  1.00  0.00     0.040 A 
ATOM     52  C   UNL A   1      40.849  25.634  26.011  1.00  0.00     0.040 A 
ATOM     53  F   UNL A   1      41.444  27.872  26.332  1.00  0.00    -0.206 F 
ATOM     54  C   UNL A   1      40.209  24.501  26.433  1.00  0.00     0.006 A 
ENDBRANCH  26  47
BRANCH  38  55
ATOM     55  C   UNL A   1      45.321  28.741  32.620  1.00  0.00     0.057 A 
ATOM     56  C   UNL A   1      45.321  27.841  33.672  1.00  0.00     0.134 A 
ATOM     57  C   UNL A   1      46.453  29.115  32.033  1.00  0.00     0.134 A 
ATOM     58  F   UNL A   1      44.218  27.249  34.120  1.00  0.00    -0.206 F 
ATOM     59  C   UNL A   1      46.602  27.609  34.228  1.00  0.00     0.040 A 
ATOM     60  C   UNL A   1      47.668  28.738  32.553  1.00  0.00     0.040 A 
ATOM     61  F   UNL A   1      46.409  29.861  30.932  1.00  0.00    -0.206 F 
ATOM     62  C   UNL A   1      47.742  27.899  33.629  1.00  0.00     0.006 A 
ENDBRANCH  38  55
ENDBRANCH  12  13
ENDBRANCH   5   7
ENDBRANCH   2   3
ENDBRANCH   1   2
BRANCH   1  63
ATOM     63  C   UNL A   1      31.894  29.968  26.113  1.00  0.00     0.118 C 
BRANCH  63  64
ATOM     64  N   UNL A   1      32.816  30.070  24.972  1.00  0.00    -0.352 N 
ATOM     65  C   UNL A   1      33.295  28.850  24.305  1.00  0.00     0.253 C 
ATOM     66  H   UNL A   1      33.111  30.953  24.654  1.00  0.00     0.163 HD
ATOM     67  O   UNL A   1      34.092  28.937  23.318  1.00  0.00    -0.269 OA
BRANCH  65  68
ATOM     68  C   UNL A   1      32.839  27.486  24.796  1.00  0.00     0.063 A 
ATOM     69  C   UNL A   1      33.380  26.939  25.947  1.00  0.00     0.016 A 
ATOM     70  C   UNL A   1      31.991  26.799  24.039  1.00  0.00     0.051 A 
ATOM     71  C   UNL A   1      33.186  25.542  26.064  1.00  0.00     0.001 A 
ATOM     72  C   UNL A   1      31.745  25.472  24.292  1.00  0.00     0.027 A 
ATOM     73  C   UNL A   1      32.293  24.851  25.380  1.00  0.00     0.002 A 
BRANCH  70  74
ATOM     74  N   UNL A   1      31.311  27.466  22.919  1.00  0.00    -0.355 N 
ATOM     75  H   UNL A   1      31.733  27.491  22.030  1.00  0.00     0.167 HD
BRANCH  74  76
ATOM     76  C   UNL A   1      29.999  28.096  23.128  1.00  0.00     0.040 A 
ATOM     77  C   UNL A   1      28.900  27.308  23.423  1.00  0.00     0.026 A 
ATOM     78  C   UNL A   1      29.894  29.416  23.029  1.00  0.00     0.050 A 
ATOM     79  C   UNL A   1      27.662  27.985  23.313  1.00  0.00     0.004 A 
ATOM     80  C   UNL A   1      28.662  30.024  23.066  1.00  0.00     0.109 A 
ATOM     81  C   UNL A   1      27.526  29.299  23.295  1.00  0.00     0.024 A 
BRANCH  80  82
ATOM     82  S   UNL A   1      28.541  31.812  22.807  1.00  0.00     0.310 S 
ATOM     83  F   UNL A   1      27.127  32.035  23.490  1.00  0.00    -0.094 F 
ATOM     84  F   UNL A   1      27.769  31.510  21.467  1.00  0.00    -0.094 F 
ATOM     85  F   UNL A   1      28.559  33.333  22.487  1.00  0.00    -0.094 F 
ATOM     86  F   UNL A   1      29.187  32.109  24.217  1.00  0.00    -0.094 F 
ATOM     87  F   UNL A   1      28.428  30.283  23.196  1.00  0.00    -0.094 F 
ENDBRANCH  80  82
ENDBRANCH  74  76
ENDBRANCH  70  74
ENDBRANCH  65  68
ENDBRANCH  63  64
ENDBRANCH   1  63
TORSDOF 13
ENDMDL
MODEL 3
REMARK VINA RESULT:     -13.0      0.086      5.988
REMARK SMILES O=C(NCCCNC(=O)c1ccccc1Nc1cccc(S(F)(F)(F)(F)F)c1)c1ccc(-c2c3nc(c(-c4c(F)cccc4F)c4ccc([nH]4)c(-c4c(F)cccc4F)c4nc(c(-c5c(F)cccc5F)c5ccc2[nH]5)C=C4)C=C3)cc1
REMARK SMILES IDX 5 1 4 2 3 3 1 4 2 5 29 7 30 8 82 9 31 10 81 11 32 12 33 13
REMARK SMILES IDX 34 14 75 15 35 16 80 17 74 18 76 19 36 20 79 21 73 22 72 23
REMARK SMILES IDX 37 25 63 26 46 27 62 28 47 29 50 30 61 31 77 32 48 33 49 34
REMARK SMILES IDX 60 36 78 37 51 38 38 39 39 40 44 41 40 42 41 43 43 44 45 45
REMARK SMILES IDX 42 46 64 47 65 48 70 49 66 50 67 51 69 52 71 53 68 54 52 55
REMARK SMILES IDX 53 56 58 57 54 58 55 59 57 60 59 61 56 62 6 63 7 64 8 65
REMARK SMILES IDX 9 67 10 68 11 69 15 70 12 71 14 72 13 73 16 74 17 76 18 77
REMARK SMILES IDX 28 78 19 79 21 80 20 81 22 82 23 83 24 84 25 85 26 86 27 87
REMARK H PARENT 3 6 76 24 50 35 7 66 16 75
REMARK Flexibility Score: inf
ROOT
ATOM      1  C   UNL A   1      37.522  19.944  24.870  1.00  0.00     0.042 C 
ENDROOT
BRANCH   1   2
ATOM      2  C   UNL A   1      38.723  20.308  25.728  1.00  0.00     0.118 C 
BRANCH   2   3
ATOM      3  N   UNL A   1      39.747  19.260  25.606  1.00  0.00    -0.352 N 
ATOM      4  O   UNL A   1      42.014  18.623  25.923  1.00  0.00    -0.269 OA
ATOM      5  C   UNL A   1      41.129  19.529  26.029  1.00  0.00     0.251 C 
ATOM      6  H   UNL A   1      39.507  18.377  25.240  1.00  0.00     0.163 HD
BRANCH   5   7
ATOM      7  C   UNL A   1      41.499  20.892  26.592  1.00  0.00     0.039 A 
ATOM      8  C   UNL A   1      41.318  21.140  27.942  1.00  0.00     0.014 A 
ATOM      9  C   UNL A   1      41.991  21.820  25.780  1.00  0.00     0.014 A 
ATOM     10  C   UNL A   1      41.416  22.508  28.291  1.00  0.00     0.010 A 
ATOM     11  C   UNL A   1      42.190  23.104  26.226  1.00  0.00     0.010 A 
ATOM     12  C   UNL A   1      41.973  23.436  27.535  1.00  0.00    -0.014 A 
BRANCH  12  13
ATOM     13  C   UNL A   1      42.356  24.799  28.089  1.00  0.00     0.031 A 
ATOM     14  C   UNL A   1      41.344  25.747  28.250  1.00  0.00     0.074 A 
ATOM     15  C   UNL A   1      43.684  25.022  28.404  1.00  0.00     0.049 A 
ATOM     16  N   UNL A   1      41.457  26.980  28.747  1.00  0.00    -0.248 NA
ATOM     17  C   UNL A   1      39.938  25.523  27.885  1.00  0.00     0.031 C 
ATOM     18  C   UNL A   1      44.709  24.067  28.253  1.00  0.00     0.029 A 
ATOM     19  N   UNL A   1      44.252  26.173  28.906  1.00  0.00    -0.354 N 
ATOM     20  C   UNL A   1      40.266  27.582  28.761  1.00  0.00     0.074 A 
ATOM     21  C   UNL A   1      39.274  26.657  28.201  1.00  0.00     0.031 C 
ATOM     22  C   UNL A   1      45.878  24.637  28.647  1.00  0.00     0.029 A 
ATOM     23  C   UNL A   1      45.605  25.958  29.053  1.00  0.00     0.049 A 
ATOM     24  H   UNL A   1      43.773  27.005  29.124  1.00  0.00     0.167 HD
ATOM     25  C   UNL A   1      39.970  28.866  29.220  1.00  0.00     0.037 A 
ATOM     26  C   UNL A   1      46.562  26.849  29.508  1.00  0.00     0.037 A 
ATOM     27  C   UNL A   1      40.921  29.744  29.718  1.00  0.00     0.049 A 
ATOM     28  C   UNL A   1      46.275  28.155  29.913  1.00  0.00     0.074 A 
ATOM     29  C   UNL A   1      40.638  31.039  30.192  1.00  0.00     0.029 A 
ATOM     30  N   UNL A   1      42.277  29.537  29.840  1.00  0.00    -0.354 N 
ATOM     31  N   UNL A   1      45.078  28.743  29.964  1.00  0.00    -0.248 NA
ATOM     32  C   UNL A   1      47.284  29.120  30.368  1.00  0.00     0.031 C 
ATOM     33  C   UNL A   1      41.807  31.609  30.586  1.00  0.00     0.029 A 
ATOM     34  C   UNL A   1      42.841  30.680  30.363  1.00  0.00     0.049 A 
ATOM     35  H   UNL A   1      42.760  28.714  29.595  1.00  0.00     0.167 HD
ATOM     36  C   UNL A   1      45.198  29.991  30.422  1.00  0.00     0.074 A 
ATOM     37  C   UNL A   1      46.620  30.253  30.681  1.00  0.00     0.031 C 
ATOM     38  C   UNL A   1      44.178  30.919  30.637  1.00  0.00     0.037 A 
BRANCH  25  39
ATOM     39  C   UNL A   1      38.523  29.329  29.173  1.00  0.00     0.057 A 
ATOM     40  C   UNL A   1      38.033  29.881  28.001  1.00  0.00     0.134 A 
ATOM     41  C   UNL A   1      37.751  29.191  30.245  1.00  0.00     0.134 A 
ATOM     42  F   UNL A   1      38.678  29.809  26.841  1.00  0.00    -0.206 F 
ATOM     43  C   UNL A   1      36.783  30.527  28.151  1.00  0.00     0.040 A 
ATOM     44  C   UNL A   1      36.488  29.732  30.273  1.00  0.00     0.040 A 
ATOM     45  F   UNL A   1      38.205  28.523  31.302  1.00  0.00    -0.206 F 
ATOM     46  C   UNL A   1      35.962  30.344  29.168  1.00  0.00     0.006 A 
ENDBRANCH  25  39
BRANCH  26  47
ATOM     47  C   UNL A   1      48.006  26.381  29.571  1.00  0.00     0.057 A 
ATOM     48  C   UNL A   1      48.805  26.541  28.450  1.00  0.00     0.134 A 
ATOM     49  C   UNL A   1      48.482  25.835  30.683  1.00  0.00     0.134 A 
ATOM     50  F   UNL A   1      48.458  27.300  27.414  1.00  0.00    -0.206 F 
ATOM     51  C   UNL A   1      50.023  25.822  28.506  1.00  0.00     0.040 A 
ATOM     52  C   UNL A   1      49.735  25.270  30.705  1.00  0.00     0.040 A 
ATOM     53  F   UNL A   1      47.740  25.832  31.786  1.00  0.00    -0.206 F 
ATOM     54  C   UNL A   1      50.556  25.338  29.613  1.00  0.00     0.006 A 
ENDBRANCH  26  47
BRANCH  38  55
ATOM     55  C   UNL A   1      44.558  32.276  31.208  1.00  0.00     0.057 A 
ATOM     56  C   UNL A   1      44.611  32.445  32.581  1.00  0.00     0.134 A 
ATOM     57  C   UNL A   1      44.834  33.277  30.380  1.00  0.00     0.134 A 
ATOM     58  F   UNL A   1      44.595  31.429  33.438  1.00  0.00    -0.206 F 
ATOM     59  C   UNL A   1      44.685  33.798  32.990  1.00  0.00     0.040 A 
ATOM     60  C   UNL A   1      45.029  34.549  30.861  1.00  0.00     0.040 A 
ATOM     61  F   UNL A   1      44.920  33.046  29.072  1.00  0.00    -0.206 F 
ATOM     62  C   UNL A   1      45.035  34.800  32.204  1.00  0.00     0.006 A 
ENDBRANCH  38  55
ENDBRANCH  12  13
ENDBRANCH   5   7
ENDBRANCH   2   3
ENDBRANCH   1   2
BRANCH   1  63
ATOM     63  C   UNL A   1      36.499  21.067  24.926  1.00  0.00     0.118 C 
BRANCH  63  64
ATOM     64  N   UNL A   1      35.906  21.122  26.270  1.00  0.00    -0.352 N 
ATOM     65  C   UNL A   1      34.838  22.089  26.563  1.00  0.00     0.253 C 
ATOM     66  H   UNL A   1      36.224  20.511  26.974  1.00  0.00     0.163 HD
ATOM     67  O   UNL A   1      34.325  22.136  27.725  1.00  0.00    -0.269 OA
BRANCH  65  68
ATOM     68  C   UNL A   1      34.348  23.031  25.476  1.00  0.00     0.063 A 
ATOM     69  C   UNL A   1      35.095  24.142  25.123  1.00  0.00     0.016 A 
ATOM     70  C   UNL A   1      33.145  22.815  24.954  1.00  0.00     0.051 A 
ATOM     71  C   UNL A   1      34.360  25.128  24.421  1.00  0.00     0.001 A 
ATOM     72  C   UNL A   1      32.544  23.766  24.166  1.00  0.00     0.027 A 
ATOM     73  C   UNL A   1      33.202  24.914  23.825  1.00  0.00     0.002 A 
BRANCH  70  74
ATOM     74  N   UNL A   1      32.453  21.546  25.223  1.00  0.00    -0.355 N 
ATOM     75  H   UNL A   1      31.871  21.460  26.012  1.00  0.00     0.167 HD
BRANCH  74  76
ATOM     76  C   UNL A   1      32.632  20.405  24.313  1.00  0.00     0.040 A 
ATOM     77  C   UNL A   1      32.155  20.484  23.015  1.00  0.00     0.026 A 
ATOM     78  C   UNL A   1      33.249  19.316  24.756  1.00  0.00     0.050 A 
ATOM     79  C   UNL A   1      32.124  19.241  22.340  1.00  0.00     0.004 A 
ATOM     80  C   UNL A   1      33.299  18.179  23.987  1.00  0.00     0.109 A 
ATOM     81  C   UNL A   1      32.794  18.167  22.716  1.00  0.00     0.024 A 
BRANCH  80  82
ATOM     82  S   UNL A   1      34.041  16.674  24.665  1.00  0.00     0.310 S 
ATOM     83  F   UNL A   1      34.339  15.939  23.291  1.00  0.00    -0.094 F 
ATOM     84  F   UNL A   1      32.609  16.016  24.627  1.00  0.00    -0.094 F 
ATOM     85  F   UNL A   1      34.625  15.427  25.389  1.00  0.00    -0.094 F 
ATOM     86  F   UNL A   1      35.492  17.288  24.569  1.00  0.00    -0.094 F 
ATOM     87  F   UNL A   1      33.483  17.895  23.830  1.00  0.00    -0.094 F 
ENDBRANCH  80  82
ENDBRANCH  74  76
ENDBRANCH  70  74
ENDBRANCH  65  68
ENDBRANCH  63  64
ENDBRANCH   1  63
TORSDOF 13
ENDMDL
