MODEL 1
REMARK VINA RESULT:     -12.1      0.000      0.000
REMARK SMILES CC(=O)N1CC[NH+](C[C@@H](CC(=O)Nc2ccccc2F)C(=O)NCCCNC(=O)c2ccc(-c3c4nc(c(-c5c(F)cccc5F)c5ccc([nH]5)c(-c5c(F)cccc5F)c5nc(c(-c6c(F)cccc6F)c6ccc3[nH]6)C=C5)C=C4)cc2)CC1
REMARK SMILES IDX 24 1 23 2 21 3 22 4 9 6 8 7 7 8 1 9 2 10 3 11 4 12 5 13
REMARK SMILES IDX 85 14 6 15 84 16 10 18 11 19 12 20 13 21 14 23 15 24 19 25
REMARK SMILES IDX 16 26 18 27 20 28 17 29 25 30 26 31 27 32 28 33 29 35 30 36
REMARK SMILES IDX 31 37 83 38 32 39 82 40 33 41 34 42 35 43 76 44 36 45 81 46
REMARK SMILES IDX 75 47 77 48 37 49 80 50 74 51 73 52 38 54 64 55 47 56 63 57
REMARK SMILES IDX 48 58 51 59 62 60 78 61 49 62 50 63 61 65 79 66 52 67 39 68
REMARK SMILES IDX 40 69 45 70 41 71 42 72 44 73 46 74 43 75 65 76 66 77 71 78
REMARK SMILES IDX 67 79 68 80 70 81 72 82 69 83 53 84 54 85 59 86 55 87 56 88
REMARK SMILES IDX 58 89 60 90 57 91
REMARK H PARENT 23 5 7 17 13 22 27 34 77 53 51 64
REMARK Flexibility Score: inf
ROOT
ATOM      1  C   UNL A   1      37.768  21.595  24.964  1.00  0.00     0.117 C 
ENDROOT
BRANCH   1   2
ATOM      2  N   UNL A   1      37.187  22.217  23.814  1.00  0.00    -0.356 N 
ATOM      3  C   UNL A   1      35.976  22.846  23.789  1.00  0.00     0.229 C 
ATOM      4  O   UNL A   1      35.658  23.424  22.746  1.00  0.00    -0.275 OA
ATOM      5  H   UNL A   1      37.700  22.189  22.975  1.00  0.00     0.163 HD
BRANCH   3   6
ATOM      6  C   UNL A   1      34.980  22.764  24.975  1.00  0.00     0.142 C 
BRANCH   6   7
ATOM      7  C   UNL A   1      34.545  24.195  25.321  1.00  0.00     0.276 C 
BRANCH   7   8
ATOM      8  N   UNL A   1      33.436  24.910  24.669  1.00  0.00    -0.331 N 
ATOM      9  C   UNL A   1      32.029  29.527  26.601  1.00  0.00     0.114 C 
ATOM     10  C   UNL A   1      31.784  28.113  27.037  1.00  0.00     0.219 C 
ATOM     11  O   UNL A   1      31.011  27.870  27.964  1.00  0.00    -0.275 OA
ATOM     12  N   UNL A   1      32.393  27.119  26.293  1.00  0.00    -0.332 N 
ATOM     13  C   UNL A   1      31.947  25.756  26.526  1.00  0.00     0.181 C 
ATOM     14  C   UNL A   1      33.663  27.265  25.566  1.00  0.00     0.181 C 
ATOM     15  C   UNL A   1      32.101  24.893  25.272  1.00  0.00     0.284 C 
ATOM     16  C   UNL A   1      33.778  26.314  24.354  1.00  0.00     0.284 C 
ATOM     17  H   UNL A   1      33.340  24.324  23.840  1.00  0.00     0.348 HD
ENDBRANCH   7   8
ENDBRANCH   6   7
BRANCH   6  18
ATOM     18  C   UNL A   1      34.040  21.548  24.999  1.00  0.00     0.119 C 
BRANCH  18  19
ATOM     19  C   UNL A   1      32.905  21.071  24.071  1.00  0.00     0.225 C 
ATOM     20  O   UNL A   1      32.323  21.972  23.435  1.00  0.00    -0.275 OA
ATOM     21  N   UNL A   1      32.498  19.831  23.717  1.00  0.00    -0.324 N 
ATOM     22  H   UNL A   1      31.848  19.871  22.978  1.00  0.00     0.170 HD
BRANCH  21  23
ATOM     23  C   UNL A   1      32.739  18.505  24.103  1.00  0.00     0.077 A 
ATOM     24  C   UNL A   1      32.592  18.231  25.467  1.00  0.00     0.029 A 
ATOM     25  C   UNL A   1      33.254  17.488  23.296  1.00  0.00     0.146 A 
ATOM     26  C   UNL A   1      32.792  16.941  25.968  1.00  0.00     0.002 A 
ATOM     27  C   UNL A   1      33.457  16.197  23.785  1.00  0.00     0.041 A 
ATOM     28  F   UNL A   1      33.655  17.722  22.043  1.00  0.00    -0.205 F 
ATOM     29  C   UNL A   1      33.196  15.914  25.120  1.00  0.00     0.003 A 
ENDBRANCH  21  23
ENDBRANCH  18  19
ENDBRANCH   6  18
ENDBRANCH   3   6
ENDBRANCH   1   2
BRANCH   1  30
ATOM     30  C   UNL A   1      38.313  20.205  24.807  1.00  0.00     0.042 C 
BRANCH  30  31
ATOM     31  C   UNL A   1      38.849  19.644  26.094  1.00  0.00     0.118 C 
BRANCH  31  32
ATOM     32  N   UNL A   1      40.087  18.884  25.925  1.00  0.00    -0.352 N 
ATOM     33  C   UNL A   1      41.407  19.258  26.028  1.00  0.00     0.251 C 
ATOM     34  H   UNL A   1      39.952  17.935  25.698  1.00  0.00     0.163 HD
ATOM     35  O   UNL A   1      42.294  18.463  25.722  1.00  0.00    -0.269 OA
BRANCH  33  36
ATOM     36  C   UNL A   1      41.766  20.622  26.465  1.00  0.00     0.039 A 
ATOM     37  C   UNL A   1      42.118  20.855  27.797  1.00  0.00     0.014 A 
ATOM     38  C   UNL A   1      41.786  21.673  25.555  1.00  0.00     0.014 A 
ATOM     39  C   UNL A   1      42.571  22.120  28.178  1.00  0.00     0.010 A 
ATOM     40  C   UNL A   1      42.415  22.860  25.884  1.00  0.00     0.010 A 
ATOM     41  C   UNL A   1      42.771  23.119  27.212  1.00  0.00    -0.014 A 
BRANCH  41  42
ATOM     42  C   UNL A   1      43.274  24.470  27.554  1.00  0.00     0.031 A 
ATOM     43  C   UNL A   1      42.298  25.529  28.004  1.00  0.00     0.074 A 
ATOM     44  C   UNL A   1      44.577  24.770  27.394  1.00  0.00     0.049 A 
ATOM     45  N   UNL A   1      42.505  26.800  28.237  1.00  0.00    -0.248 NA
ATOM     46  C   UNL A   1      40.890  25.118  28.166  1.00  0.00     0.031 C 
ATOM     47  C   UNL A   1      45.609  23.850  26.910  1.00  0.00     0.029 A 
ATOM     48  N   UNL A   1      45.259  25.939  27.620  1.00  0.00    -0.354 N 
ATOM     49  C   UNL A   1      41.257  27.332  28.540  1.00  0.00     0.074 A 
ATOM     50  C   UNL A   1      40.287  26.277  28.378  1.00  0.00     0.031 C 
ATOM     51  C   UNL A   1      46.797  24.473  26.924  1.00  0.00     0.029 A 
ATOM     52  C   UNL A   1      46.606  25.850  27.369  1.00  0.00     0.049 A 
ATOM     53  H   UNL A   1      44.822  26.764  27.933  1.00  0.00     0.167 HD
ATOM     54  C   UNL A   1      40.950  28.578  28.964  1.00  0.00     0.037 A 
ATOM     55  C   UNL A   1      47.577  26.776  27.488  1.00  0.00     0.037 A 
ATOM     56  C   UNL A   1      41.927  29.605  29.187  1.00  0.00     0.049 A 
ATOM     57  C   UNL A   1      47.216  28.152  27.973  1.00  0.00     0.074 A 
ATOM     58  C   UNL A   1      41.735  30.883  29.679  1.00  0.00     0.029 A 
ATOM     59  N   UNL A   1      43.286  29.466  28.944  1.00  0.00    -0.354 N 
ATOM     60  N   UNL A   1      46.040  28.627  28.308  1.00  0.00    -0.248 NA
ATOM     61  C   UNL A   1      48.314  29.121  28.104  1.00  0.00     0.031 C 
ATOM     62  C   UNL A   1      42.970  31.533  29.690  1.00  0.00     0.029 A 
ATOM     63  C   UNL A   1      43.941  30.642  29.260  1.00  0.00     0.049 A 
ATOM     64  H   UNL A   1      43.718  28.652  28.598  1.00  0.00     0.167 HD
ATOM     65  C   UNL A   1      46.258  29.936  28.714  1.00  0.00     0.074 A 
ATOM     66  C   UNL A   1      47.681  30.178  28.595  1.00  0.00     0.031 C 
ATOM     67  C   UNL A   1      45.361  30.855  29.148  1.00  0.00     0.037 A 
BRANCH  54  68
ATOM     68  C   UNL A   1      39.509  28.888  29.247  1.00  0.00     0.057 A 
ATOM     69  C   UNL A   1      38.963  28.653  30.515  1.00  0.00     0.134 A 
ATOM     70  C   UNL A   1      38.647  29.369  28.253  1.00  0.00     0.134 A 
ATOM     71  F   UNL A   1      39.730  28.191  31.514  1.00  0.00    -0.206 F 
ATOM     72  C   UNL A   1      37.609  28.871  30.778  1.00  0.00     0.040 A 
ATOM     73  C   UNL A   1      37.299  29.621  28.511  1.00  0.00     0.040 A 
ATOM     74  F   UNL A   1      39.109  29.632  27.020  1.00  0.00    -0.206 F 
ATOM     75  C   UNL A   1      36.774  29.361  29.775  1.00  0.00     0.006 A 
ENDBRANCH  54  68
BRANCH  55  76
ATOM     76  C   UNL A   1      48.986  26.409  27.188  1.00  0.00     0.057 A 
ATOM     77  C   UNL A   1      49.508  26.488  25.892  1.00  0.00     0.134 A 
ATOM     78  C   UNL A   1      49.834  25.936  28.196  1.00  0.00     0.134 A 
ATOM     79  F   UNL A   1      48.743  26.923  24.879  1.00  0.00    -0.206 F 
ATOM     80  C   UNL A   1      50.816  26.097  25.605  1.00  0.00     0.040 A 
ATOM     81  C   UNL A   1      51.154  25.565  27.929  1.00  0.00     0.040 A 
ATOM     82  F   UNL A   1      49.398  25.851  29.462  1.00  0.00    -0.206 F 
ATOM     83  C   UNL A   1      51.645  25.636  26.627  1.00  0.00     0.006 A 
ENDBRANCH  55  76
BRANCH  67  84
ATOM     84  C   UNL A   1      45.882  32.199  29.561  1.00  0.00     0.057 A 
ATOM     85  C   UNL A   1      46.240  32.442  30.894  1.00  0.00     0.134 A 
ATOM     86  C   UNL A   1      45.928  33.277  28.670  1.00  0.00     0.134 A 
ATOM     87  F   UNL A   1      46.201  31.454  31.801  1.00  0.00    -0.206 F 
ATOM     88  C   UNL A   1      46.607  33.715  31.330  1.00  0.00     0.040 A 
ATOM     89  C   UNL A   1      46.322  34.550  29.088  1.00  0.00     0.040 A 
ATOM     90  F   UNL A   1      45.603  33.107  27.379  1.00  0.00    -0.206 F 
ATOM     91  C   UNL A   1      46.649  34.773  30.424  1.00  0.00     0.006 A 
ENDBRANCH  67  84
ENDBRANCH  41  42
ENDBRANCH  33  36
ENDBRANCH  31  32
ENDBRANCH  30  31
ENDBRANCH   1  30
TORSDOF 15
ENDMDL
MODEL 2
REMARK VINA RESULT:     -12.0      1.306      6.239
REMARK SMILES CC(=O)N1CC[NH+](C[C@@H](CC(=O)Nc2ccccc2F)C(=O)NCCCNC(=O)c2ccc(-c3c4nc(c(-c5c(F)cccc5F)c5ccc([nH]5)c(-c5c(F)cccc5F)c5nc(c(-c6c(F)cccc6F)c6ccc3[nH]6)C=C5)C=C4)cc2)CC1
REMARK SMILES IDX 24 1 23 2 21 3 22 4 9 6 8 7 7 8 1 9 2 10 3 11 4 12 5 13
REMARK SMILES IDX 85 14 6 15 84 16 10 18 11 19 12 20 13 21 14 23 15 24 19 25
REMARK SMILES IDX 16 26 18 27 20 28 17 29 25 30 26 31 27 32 28 33 29 35 30 36
REMARK SMILES IDX 31 37 83 38 32 39 82 40 33 41 34 42 35 43 76 44 36 45 81 46
REMARK SMILES IDX 75 47 77 48 37 49 80 50 74 51 73 52 38 54 64 55 47 56 63 57
REMARK SMILES IDX 48 58 51 59 62 60 78 61 49 62 50 63 61 65 79 66 52 67 39 68
REMARK SMILES IDX 40 69 45 70 41 71 42 72 44 73 46 74 43 75 65 76 66 77 71 78
REMARK SMILES IDX 67 79 68 80 70 81 72 82 69 83 53 84 54 85 59 86 55 87 56 88
REMARK SMILES IDX 58 89 60 90 57 91
REMARK H PARENT 23 5 7 17 13 22 27 34 77 53 51 64
REMARK Flexibility Score: inf
ROOT
ATOM      1  C   UNL A   1      37.672  21.582  25.056  1.00  0.00     0.117 C 
ENDROOT
BRANCH   1   2
ATOM      2  N   UNL A   1      37.141  22.167  23.862  1.00  0.00    -0.356 N 
ATOM      3  C   UNL A   1      35.956  22.837  23.777  1.00  0.00     0.229 C 
ATOM      4  O   UNL A   1      35.683  23.374  22.699  1.00  0.00    -0.275 OA
ATOM      5  H   UNL A   1      37.672  22.078  23.038  1.00  0.00     0.163 HD
BRANCH   3   6
ATOM      6  C   UNL A   1      34.930  22.852  24.940  1.00  0.00     0.142 C 
BRANCH   6   7
ATOM      7  C   UNL A   1      34.555  24.315  25.216  1.00  0.00     0.276 C 
BRANCH   7   8
ATOM      8  N   UNL A   1      33.425  25.018  24.587  1.00  0.00    -0.331 N 
ATOM      9  C   UNL A   1      31.999  29.611  26.560  1.00  0.00     0.114 C 
ATOM     10  C   UNL A   1      31.778  28.193  26.995  1.00  0.00     0.219 C 
ATOM     11  O   UNL A   1      31.025  27.937  27.935  1.00  0.00    -0.275 OA
ATOM     12  N   UNL A   1      32.385  27.209  26.237  1.00  0.00    -0.332 N 
ATOM     13  C   UNL A   1      31.960  25.840  26.473  1.00  0.00     0.181 C 
ATOM     14  C   UNL A   1      33.640  27.372  25.487  1.00  0.00     0.181 C 
ATOM     15  C   UNL A   1      32.102  24.983  25.213  1.00  0.00     0.284 C 
ATOM     16  C   UNL A   1      33.745  26.427  24.270  1.00  0.00     0.284 C 
ATOM     17  H   UNL A   1      33.321  24.434  23.757  1.00  0.00     0.348 HD
ENDBRANCH   7   8
ENDBRANCH   6   7
BRANCH   6  18
ATOM     18  C   UNL A   1      33.934  21.682  24.991  1.00  0.00     0.119 C 
BRANCH  18  19
ATOM     19  C   UNL A   1      32.831  21.190  24.032  1.00  0.00     0.225 C 
ATOM     20  O   UNL A   1      32.252  22.084  23.383  1.00  0.00    -0.275 OA
ATOM     21  N   UNL A   1      32.452  19.946  23.664  1.00  0.00    -0.324 N 
ATOM     22  H   UNL A   1      31.822  19.977  22.908  1.00  0.00     0.170 HD
BRANCH  21  23
ATOM     23  C   UNL A   1      32.704  18.622  24.053  1.00  0.00     0.077 A 
ATOM     24  C   UNL A   1      32.623  18.364  25.426  1.00  0.00     0.029 A 
ATOM     25  C   UNL A   1      33.171  17.592  23.233  1.00  0.00     0.146 A 
ATOM     26  C   UNL A   1      32.838  17.079  25.932  1.00  0.00     0.002 A 
ATOM     27  C   UNL A   1      33.389  16.305  23.727  1.00  0.00     0.041 A 
ATOM     28  F   UNL A   1      33.510  17.809  21.959  1.00  0.00    -0.205 F 
ATOM     29  C   UNL A   1      33.193  16.040  25.076  1.00  0.00     0.003 A 
ENDBRANCH  21  23
ENDBRANCH  18  19
ENDBRANCH   6  18
ENDBRANCH   3   6
ENDBRANCH   1   2
BRANCH   1  30
ATOM     30  C   UNL A   1      38.457  20.310  24.921  1.00  0.00     0.042 C 
BRANCH  30  31
ATOM     31  C   UNL A   1      39.245  19.982  26.158  1.00  0.00     0.118 C 
BRANCH  31  32
ATOM     32  N   UNL A   1      40.465  19.224  25.885  1.00  0.00    -0.352 N 
ATOM     33  C   UNL A   1      41.792  19.577  25.954  1.00  0.00     0.251 C 
ATOM     34  H   UNL A   1      40.308  18.293  25.602  1.00  0.00     0.163 HD
ATOM     35  O   UNL A   1      42.656  18.796  25.557  1.00  0.00    -0.269 OA
BRANCH  33  36
ATOM     36  C   UNL A   1      42.188  20.906  26.463  1.00  0.00     0.039 A 
ATOM     37  C   UNL A   1      42.482  21.935  25.565  1.00  0.00     0.014 A 
ATOM     38  C   UNL A   1      42.243  21.150  27.831  1.00  0.00     0.014 A 
ATOM     39  C   UNL A   1      42.740  23.219  26.049  1.00  0.00     0.010 A 
ATOM     40  C   UNL A   1      42.303  22.450  28.297  1.00  0.00     0.010 A 
ATOM     41  C   UNL A   1      42.601  23.497  27.418  1.00  0.00    -0.014 A 
BRANCH  41  42
ATOM     42  C   UNL A   1      42.836  24.847  27.986  1.00  0.00     0.031 A 
ATOM     43  C   UNL A   1      44.230  25.236  28.411  1.00  0.00     0.074 A 
ATOM     44  C   UNL A   1      41.803  25.686  28.189  1.00  0.00     0.049 A 
ATOM     45  N   UNL A   1      44.635  26.312  29.035  1.00  0.00    -0.248 NA
ATOM     46  C   UNL A   1      45.309  24.264  28.144  1.00  0.00     0.031 C 
ATOM     47  C   UNL A   1      40.401  25.403  27.874  1.00  0.00     0.029 A 
ATOM     48  N   UNL A   1      41.773  26.955  28.712  1.00  0.00    -0.354 N 
ATOM     49  C   UNL A   1      45.994  26.127  29.255  1.00  0.00     0.074 A 
ATOM     50  C   UNL A   1      46.333  24.807  28.782  1.00  0.00     0.031 C 
ATOM     51  C   UNL A   1      39.657  26.482  28.163  1.00  0.00     0.029 A 
ATOM     52  C   UNL A   1      40.520  27.516  28.728  1.00  0.00     0.049 A 
ATOM     53  H   UNL A   1      42.576  27.419  29.043  1.00  0.00     0.167 HD
ATOM     54  C   UNL A   1      46.895  26.999  29.763  1.00  0.00     0.037 A 
ATOM     55  C   UNL A   1      40.114  28.728  29.151  1.00  0.00     0.037 A 
ATOM     56  C   UNL A   1      46.565  28.335  30.171  1.00  0.00     0.049 A 
ATOM     57  C   UNL A   1      41.133  29.687  29.700  1.00  0.00     0.074 A 
ATOM     58  C   UNL A   1      47.410  29.325  30.636  1.00  0.00     0.029 A 
ATOM     59  N   UNL A   1      45.287  28.873  30.149  1.00  0.00    -0.354 N 
ATOM     60  N   UNL A   1      42.425  29.520  29.854  1.00  0.00    -0.248 NA
ATOM     61  C   UNL A   1      40.643  31.004  30.130  1.00  0.00     0.031 C 
ATOM     62  C   UNL A   1      46.637  30.446  30.941  1.00  0.00     0.029 A 
ATOM     63  C   UNL A   1      45.318  30.176  30.609  1.00  0.00     0.049 A 
ATOM     64  H   UNL A   1      44.478  28.397  29.849  1.00  0.00     0.167 HD
ATOM     65  C   UNL A   1      42.906  30.715  30.369  1.00  0.00     0.074 A 
ATOM     66  C   UNL A   1      41.769  31.604  30.493  1.00  0.00     0.031 C 
ATOM     67  C   UNL A   1      44.176  31.047  30.709  1.00  0.00     0.037 A 
BRANCH  54  68
ATOM     68  C   UNL A   1      48.323  26.550  29.872  1.00  0.00     0.057 A 
ATOM     69  C   UNL A   1      49.234  26.806  28.839  1.00  0.00     0.134 A 
ATOM     70  C   UNL A   1      48.785  25.817  30.973  1.00  0.00     0.134 A 
ATOM     71  F   UNL A   1      48.858  27.500  27.754  1.00  0.00    -0.206 F 
ATOM     72  C   UNL A   1      50.548  26.337  28.892  1.00  0.00     0.040 A 
ATOM     73  C   UNL A   1      50.104  25.370  31.053  1.00  0.00     0.040 A 
ATOM     74  F   UNL A   1      47.969  25.552  32.005  1.00  0.00    -0.206 F 
ATOM     75  C   UNL A   1      50.987  25.620  30.004  1.00  0.00     0.006 A 
ENDBRANCH  54  68
BRANCH  55  76
ATOM     76  C   UNL A   1      38.684  29.113  29.020  1.00  0.00     0.057 A 
ATOM     77  C   UNL A   1      37.796  29.024  30.098  1.00  0.00     0.134 A 
ATOM     78  C   UNL A   1      38.168  29.551  27.795  1.00  0.00     0.134 A 
ATOM     79  F   UNL A   1      38.225  28.602  31.297  1.00  0.00    -0.206 F 
ATOM     80  C   UNL A   1      36.444  29.341  29.960  1.00  0.00     0.040 A 
ATOM     81  C   UNL A   1      36.822  29.895  27.648  1.00  0.00     0.040 A 
ATOM     82  F   UNL A   1      38.971  29.672  26.728  1.00  0.00    -0.206 F 
ATOM     83  C   UNL A   1      35.954  29.781  28.732  1.00  0.00     0.006 A 
ENDBRANCH  55  76
BRANCH  67  84
ATOM     84  C   UNL A   1      44.423  32.436  31.216  1.00  0.00     0.057 A 
ATOM     85  C   UNL A   1      44.741  33.471  30.326  1.00  0.00     0.134 A 
ATOM     86  C   UNL A   1      44.450  32.727  32.585  1.00  0.00     0.134 A 
ATOM     87  F   UNL A   1      44.748  33.252  29.002  1.00  0.00    -0.206 F 
ATOM     88  C   UNL A   1      45.098  34.740  30.781  1.00  0.00     0.040 A 
ATOM     89  C   UNL A   1      44.777  34.002  33.051  1.00  0.00     0.040 A 
ATOM     90  F   UNL A   1      44.149  31.781  33.488  1.00  0.00    -0.206 F 
ATOM     91  C   UNL A   1      45.115  35.008  32.148  1.00  0.00     0.006 A 
ENDBRANCH  67  84
ENDBRANCH  41  42
ENDBRANCH  33  36
ENDBRANCH  31  32
ENDBRANCH  30  31
ENDBRANCH   1  30
TORSDOF 15
ENDMDL
MODEL 3
REMARK VINA RESULT:     -12.0      4.722      9.776
REMARK SMILES CC(=O)N1CC[NH+](C[C@@H](CC(=O)Nc2ccccc2F)C(=O)NCCCNC(=O)c2ccc(-c3c4nc(c(-c5c(F)cccc5F)c5ccc([nH]5)c(-c5c(F)cccc5F)c5nc(c(-c6c(F)cccc6F)c6ccc3[nH]6)C=C5)C=C4)cc2)CC1
REMARK SMILES IDX 24 1 23 2 21 3 22 4 9 6 8 7 7 8 1 9 2 10 3 11 4 12 5 13
REMARK SMILES IDX 85 14 6 15 84 16 10 18 11 19 12 20 13 21 14 23 15 24 19 25
REMARK SMILES IDX 16 26 18 27 20 28 17 29 25 30 26 31 27 32 28 33 29 35 30 36
REMARK SMILES IDX 31 37 83 38 32 39 82 40 33 41 34 42 35 43 76 44 36 45 81 46
REMARK SMILES IDX 75 47 77 48 37 49 80 50 74 51 73 52 38 54 64 55 47 56 63 57
REMARK SMILES IDX 48 58 51 59 62 60 78 61 49 62 50 63 61 65 79 66 52 67 39 68
REMARK SMILES IDX 40 69 45 70 41 71 42 72 44 73 46 74 43 75 65 76 66 77 71 78
REMARK SMILES IDX 67 79 68 80 70 81 72 82 69 83 53 84 54 85 59 86 55 87 56 88
REMARK SMILES IDX 58 89 60 90 57 91
REMARK H PARENT 23 5 7 17 13 22 27 34 77 53 51 64
REMARK Flexibility Score: inf
ROOT
ATOM      1  C   UNL A   1      32.410  30.297  27.288  1.00  0.00     0.117 C 
ENDROOT
BRANCH   1   2
ATOM      2  N   UNL A   1      31.746  29.046  27.493  1.00  0.00    -0.356 N 
ATOM      3  C   UNL A   1      31.756  27.999  26.618  1.00  0.00     0.229 C 
ATOM      4  O   UNL A   1      31.221  26.949  26.984  1.00  0.00    -0.275 OA
ATOM      5  H   UNL A   1      31.243  28.932  28.331  1.00  0.00     0.163 HD
BRANCH   3   6
ATOM      6  C   UNL A   1      32.318  28.132  25.178  1.00  0.00     0.142 C 
BRANCH   6   7
ATOM      7  C   UNL A   1      33.314  26.985  24.957  1.00  0.00     0.276 C 
BRANCH   7   8
ATOM      8  N   UNL A   1      32.946  25.561  24.906  1.00  0.00    -0.331 N 
ATOM      9  C   UNL A   1      36.775  22.054  24.636  1.00  0.00     0.114 C 
ATOM     10  C   UNL A   1      36.147  22.970  23.627  1.00  0.00     0.219 C 
ATOM     11  O   UNL A   1      36.439  22.881  22.435  1.00  0.00    -0.275 OA
ATOM     12  N   UNL A   1      35.177  23.836  24.094  1.00  0.00    -0.332 N 
ATOM     13  C   UNL A   1      34.371  24.522  23.098  1.00  0.00     0.181 C 
ATOM     14  C   UNL A   1      35.119  24.386  25.457  1.00  0.00     0.181 C 
ATOM     15  C   UNL A   1      32.973  24.843  23.630  1.00  0.00     0.284 C 
ATOM     16  C   UNL A   1      33.685  24.753  25.901  1.00  0.00     0.284 C 
ATOM     17  H   UNL A   1      31.953  25.649  25.119  1.00  0.00     0.348 HD
ENDBRANCH   7   8
ENDBRANCH   6   7
BRANCH   6  18
ATOM     18  C   UNL A   1      31.345  28.648  24.107  1.00  0.00     0.119 C 
BRANCH  18  19
ATOM     19  C   UNL A   1      29.944  28.197  23.645  1.00  0.00     0.225 C 
ATOM     20  O   UNL A   1      29.662  27.006  23.885  1.00  0.00    -0.275 OA
ATOM     21  N   UNL A   1      28.902  28.890  23.135  1.00  0.00    -0.324 N 
ATOM     22  H   UNL A   1      28.092  28.332  23.096  1.00  0.00     0.170 HD
BRANCH  21  23
ATOM     23  C   UNL A   1      28.648  30.179  22.645  1.00  0.00     0.077 A 
ATOM     24  C   UNL A   1      28.263  30.257  21.301  1.00  0.00     0.029 A 
ATOM     25  C   UNL A   1      28.888  31.382  23.314  1.00  0.00     0.146 A 
ATOM     26  C   UNL A   1      27.968  31.487  20.706  1.00  0.00     0.002 A 
ATOM     27  C   UNL A   1      28.598  32.615  22.729  1.00  0.00     0.041 A 
ATOM     28  F   UNL A   1      29.485  31.413  24.509  1.00  0.00    -0.205 F 
ATOM     29  C   UNL A   1      28.107  32.667  21.431  1.00  0.00     0.003 A 
ENDBRANCH  21  23
ENDBRANCH  18  19
ENDBRANCH   6  18
ENDBRANCH   3   6
ENDBRANCH   1   2
BRANCH   1  30
ATOM     30  C   UNL A   1      31.558  31.519  27.104  1.00  0.00     0.042 C 
BRANCH  30  31
ATOM     31  C   UNL A   1      32.320  32.673  26.515  1.00  0.00     0.118 C 
BRANCH  31  32
ATOM     32  N   UNL A   1      32.190  33.909  27.286  1.00  0.00    -0.352 N 
ATOM     33  C   UNL A   1      32.956  34.434  28.300  1.00  0.00     0.251 C 
ATOM     34  H   UNL A   1      31.417  34.464  27.033  1.00  0.00     0.163 HD
ATOM     35  O   UNL A   1      32.581  35.447  28.889  1.00  0.00    -0.269 OA
BRANCH  33  36
ATOM     36  C   UNL A   1      34.207  33.768  28.716  1.00  0.00     0.039 A 
ATOM     37  C   UNL A   1      35.440  34.333  28.381  1.00  0.00     0.014 A 
ATOM     38  C   UNL A   1      34.168  32.596  29.464  1.00  0.00     0.014 A 
ATOM     39  C   UNL A   1      36.615  33.764  28.876  1.00  0.00     0.010 A 
ATOM     40  C   UNL A   1      35.306  32.153  30.111  1.00  0.00     0.010 A 
ATOM     41  C   UNL A   1      36.553  32.699  29.789  1.00  0.00    -0.014 A 
BRANCH  41  42
ATOM     42  C   UNL A   1      37.766  32.073  30.368  1.00  0.00     0.031 A 
ATOM     43  C   UNL A   1      38.333  32.616  31.656  1.00  0.00     0.074 A 
ATOM     44  C   UNL A   1      38.396  31.080  29.712  1.00  0.00     0.049 A 
ATOM     45  N   UNL A   1      39.443  32.298  32.271  1.00  0.00    -0.248 NA
ATOM     46  C   UNL A   1      37.577  33.697  32.319  1.00  0.00     0.031 C 
ATOM     47  C   UNL A   1      37.980  30.508  28.429  1.00  0.00     0.029 A 
ATOM     48  N   UNL A   1      39.528  30.374  30.036  1.00  0.00    -0.354 N 
ATOM     49  C   UNL A   1      39.525  33.155  33.362  1.00  0.00     0.074 A 
ATOM     50  C   UNL A   1      38.406  34.063  33.282  1.00  0.00     0.031 C 
ATOM     51  C   UNL A   1      38.813  29.508  28.101  1.00  0.00     0.029 A 
ATOM     52  C   UNL A   1      39.850  29.399  29.123  1.00  0.00     0.049 A 
ATOM     53  H   UNL A   1      40.058  30.549  30.847  1.00  0.00     0.167 HD
ATOM     54  C   UNL A   1      40.425  33.156  34.370  1.00  0.00     0.037 A 
ATOM     55  C   UNL A   1      40.867  28.517  29.114  1.00  0.00     0.037 A 
ATOM     56  C   UNL A   1      41.498  32.209  34.479  1.00  0.00     0.049 A 
ATOM     57  C   UNL A   1      41.850  28.527  30.252  1.00  0.00     0.074 A 
ATOM     58  C   UNL A   1      42.427  32.076  35.494  1.00  0.00     0.029 A 
ATOM     59  N   UNL A   1      41.775  31.221  33.545  1.00  0.00    -0.354 N 
ATOM     60  N   UNL A   1      41.886  29.308  31.305  1.00  0.00    -0.248 NA
ATOM     61  C   UNL A   1      42.931  27.532  30.205  1.00  0.00     0.031 C 
ATOM     62  C   UNL A   1      43.297  31.039  35.151  1.00  0.00     0.029 A 
ATOM     63  C   UNL A   1      42.873  30.487  33.952  1.00  0.00     0.049 A 
ATOM     64  H   UNL A   1      41.265  31.067  32.717  1.00  0.00     0.167 HD
ATOM     65  C   UNL A   1      42.970  28.882  32.060  1.00  0.00     0.074 A 
ATOM     66  C   UNL A   1      43.561  27.768  31.348  1.00  0.00     0.031 C 
ATOM     67  C   UNL A   1      43.434  29.370  33.235  1.00  0.00     0.037 A 
BRANCH  54  68
ATOM     68  C   UNL A   1      40.269  34.187  35.450  1.00  0.00     0.057 A 
ATOM     69  C   UNL A   1      40.884  35.440  35.338  1.00  0.00     0.134 A 
ATOM     70  C   UNL A   1      39.554  33.922  36.626  1.00  0.00     0.134 A 
ATOM     71  F   UNL A   1      41.586  35.759  34.240  1.00  0.00    -0.206 F 
ATOM     72  C   UNL A   1      40.806  36.386  36.362  1.00  0.00     0.040 A 
ATOM     73  C   UNL A   1      39.442  34.870  37.644  1.00  0.00     0.040 A 
ATOM     74  F   UNL A   1      38.925  32.748  36.791  1.00  0.00    -0.206 F 
ATOM     75  C   UNL A   1      40.080  36.103  37.517  1.00  0.00     0.006 A 
ENDBRANCH  54  68
BRANCH  55  76
ATOM     76  C   UNL A   1      40.971  27.523  28.014  1.00  0.00     0.057 A 
ATOM     77  C   UNL A   1      41.694  27.790  26.845  1.00  0.00     0.134 A 
ATOM     78  C   UNL A   1      40.315  26.289  28.098  1.00  0.00     0.134 A 
ATOM     79  F   UNL A   1      42.336  28.958  26.698  1.00  0.00    -0.206 F 
ATOM     80  C   UNL A   1      41.749  26.874  25.794  1.00  0.00     0.040 A 
ATOM     81  C   UNL A   1      40.382  25.352  27.065  1.00  0.00     0.040 A 
ATOM     82  F   UNL A   1      39.618  25.968  29.198  1.00  0.00    -0.206 F 
ATOM     83  C   UNL A   1      41.094  25.648  25.904  1.00  0.00     0.006 A 
ENDBRANCH  55  76
BRANCH  67  84
ATOM     84  C   UNL A   1      44.619  28.691  33.856  1.00  0.00     0.057 A 
ATOM     85  C   UNL A   1      44.438  27.624  34.747  1.00  0.00     0.134 A 
ATOM     86  C   UNL A   1      45.924  29.156  33.655  1.00  0.00     0.134 A 
ATOM     87  F   UNL A   1      43.210  27.143  34.994  1.00  0.00    -0.206 F 
ATOM     88  C   UNL A   1      45.512  27.058  35.433  1.00  0.00     0.040 A 
ATOM     89  C   UNL A   1      47.010  28.578  34.314  1.00  0.00     0.040 A 
ATOM     90  F   UNL A   1      46.162  30.169  32.810  1.00  0.00    -0.206 F 
ATOM     91  C   UNL A   1      46.804  27.534  35.215  1.00  0.00     0.006 A 
ENDBRANCH  67  84
ENDBRANCH  41  42
ENDBRANCH  33  36
ENDBRANCH  31  32
ENDBRANCH  30  31
ENDBRANCH   1  30
TORSDOF 15
ENDMDL
