MODEL 1
REMARK VINA RESULT:     -12.2      0.000      0.000
REMARK SMILES Cc1ccc(N2CCC[C@@H](Cn3cc(C(=O)NCCCNC(=O)c4ccc(-c5c6nc(c(-c7c(F)cccc7F)c7ccc([nH]7)c(-c7c(F)cccc7F)c7nc(c(-c8c(F)cccc8F)c8ccc5[nH]8)C=C7)C=C6)cc4)nn3)C2)nn1
REMARK SMILES IDX 18 1 17 2 15 3 16 4 14 6 12 7 13 8 79 9 78 10 11 11 10 12
REMARK SMILES IDX 6 13 7 14 80 15 8 16 9 17 5 18 1 19 2 20 3 21 82 22 4 23
REMARK SMILES IDX 81 24 19 25 20 26 21 27 22 28 23 30 24 31 25 32 77 33 26 34
REMARK SMILES IDX 76 35 27 36 28 37 29 38 70 39 30 40 75 41 69 42 71 43 31 44
REMARK SMILES IDX 74 45 68 46 67 47 32 49 58 50 41 51 57 52 42 53 45 54 56 55
REMARK SMILES IDX 72 56 43 57 44 58 55 60 73 61 46 62 33 63 34 64 39 65 35 66
REMARK SMILES IDX 36 67 38 68 40 69 37 70 59 71 60 72 65 73 61 74 62 75 64 76
REMARK SMILES IDX 66 77 63 78 47 79 48 80 53 81 49 82 50 83 52 84 54 85 51 86
REMARK H PARENT 17 5 21 29 71 48 45 59
REMARK Flexibility Score: inf
ROOT
ATOM      1  C   UNL A   1      41.706  19.169  25.933  1.00  0.00     0.118 C 
ENDROOT
BRANCH   1   2
ATOM      2  N   UNL A   1      41.700  20.109  27.043  1.00  0.00    -0.351 N 
ATOM      3  C   UNL A   1      40.739  21.037  27.394  1.00  0.00     0.273 C 
ATOM      4  O   UNL A   1      40.835  21.568  28.503  1.00  0.00    -0.267 OA
ATOM      5  H   UNL A   1      42.493  20.081  27.626  1.00  0.00     0.163 HD
BRANCH   3   6
ATOM      6  C   UNL A   1      39.634  21.314  26.486  1.00  0.00     0.170 A 
ATOM      7  N   UNL A   1      37.830  21.206  25.302  1.00  0.00    -0.251 N 
ATOM      8  C   UNL A   1      38.871  20.442  25.732  1.00  0.00     0.145 A 
ATOM      9  N   UNL A   1      38.057  22.506  25.530  1.00  0.00    -0.067 NA
ATOM     10  N   UNL A   1      39.156  22.587  26.271  1.00  0.00    -0.125 NA
BRANCH   7  11
ATOM     11  C   UNL A   1      36.532  20.746  24.854  1.00  0.00     0.151 C 
BRANCH  11  12
ATOM     12  C   UNL A   1      35.370  21.708  25.178  1.00  0.00     0.030 C 
ATOM     13  N   UNL A   1      33.775  23.322  24.330  1.00  0.00    -0.355 N 
ATOM     14  C   UNL A   1      32.595  22.671  24.877  1.00  0.00     0.118 C 
ATOM     15  C   UNL A   1      34.883  22.476  23.935  1.00  0.00     0.123 C 
ATOM     16  C   UNL A   1      33.017  21.959  26.157  1.00  0.00     0.022 C 
ATOM     17  C   UNL A   1      34.194  21.012  25.900  1.00  0.00     0.009 C 
BRANCH  13  18
ATOM     18  C   UNL A   1      33.683  24.596  23.814  1.00  0.00     0.151 A 
ATOM     19  C   UNL A   1      33.707  28.541  22.265  1.00  0.00     0.069 C 
ATOM     20  C   UNL A   1      33.701  27.164  22.848  1.00  0.00     0.060 A 
ATOM     21  C   UNL A   1      33.478  26.962  24.197  1.00  0.00     0.029 A 
ATOM     22  N   UNL A   1      33.891  26.122  22.011  1.00  0.00    -0.154 NA
ATOM     23  C   UNL A   1      33.460  25.660  24.678  1.00  0.00     0.051 A 
ATOM     24  N   UNL A   1      33.906  24.834  22.504  1.00  0.00    -0.133 NA
ENDBRANCH  13  18
ENDBRANCH  11  12
ENDBRANCH   7  11
ENDBRANCH   3   6
ENDBRANCH   1   2
BRANCH   1  25
ATOM     25  C   UNL A   1      42.741  18.050  26.102  1.00  0.00     0.042 C 
BRANCH  25  26
ATOM     26  C   UNL A   1      44.150  18.580  25.955  1.00  0.00     0.118 C 
BRANCH  26  27
ATOM     27  N   UNL A   1      44.512  18.855  24.559  1.00  0.00    -0.352 N 
ATOM     28  C   UNL A   1      44.580  20.079  23.915  1.00  0.00     0.251 C 
ATOM     29  H   UNL A   1      44.735  18.068  24.011  1.00  0.00     0.163 HD
ATOM     30  O   UNL A   1      44.606  20.159  22.693  1.00  0.00    -0.269 OA
BRANCH  28  31
ATOM     31  C   UNL A   1      44.633  21.294  24.738  1.00  0.00     0.039 A 
ATOM     32  C   UNL A   1      45.717  21.601  25.565  1.00  0.00     0.014 A 
ATOM     33  C   UNL A   1      43.548  22.156  24.642  1.00  0.00     0.014 A 
ATOM     34  C   UNL A   1      45.687  22.800  26.270  1.00  0.00     0.010 A 
ATOM     35  C   UNL A   1      43.660  23.436  25.083  1.00  0.00     0.010 A 
ATOM     36  C   UNL A   1      44.639  23.697  26.020  1.00  0.00    -0.014 A 
BRANCH  36  37
ATOM     37  C   UNL A   1      44.463  24.925  26.763  1.00  0.00     0.031 A 
ATOM     38  C   UNL A   1      45.514  25.941  26.555  1.00  0.00     0.074 A 
ATOM     39  C   UNL A   1      43.307  25.189  27.409  1.00  0.00     0.049 A 
ATOM     40  N   UNL A   1      46.441  26.281  27.383  1.00  0.00    -0.248 NA
ATOM     41  C   UNL A   1      45.643  26.549  25.223  1.00  0.00     0.031 C 
ATOM     42  C   UNL A   1      42.043  24.434  27.425  1.00  0.00     0.029 A 
ATOM     43  N   UNL A   1      43.003  26.281  28.151  1.00  0.00    -0.354 N 
ATOM     44  C   UNL A   1      47.158  27.293  26.758  1.00  0.00     0.074 A 
ATOM     45  C   UNL A   1      46.746  27.285  25.378  1.00  0.00     0.031 C 
ATOM     46  C   UNL A   1      41.063  25.197  27.958  1.00  0.00     0.029 A 
ATOM     47  C   UNL A   1      41.661  26.408  28.481  1.00  0.00     0.049 A 
ATOM     48  H   UNL A   1      43.683  26.935  28.434  1.00  0.00     0.167 HD
ATOM     49  C   UNL A   1      47.861  28.203  27.487  1.00  0.00     0.037 A 
ATOM     50  C   UNL A   1      41.102  27.462  29.120  1.00  0.00     0.037 A 
ATOM     51  C   UNL A   1      47.970  27.789  28.865  1.00  0.00     0.049 A 
ATOM     52  C   UNL A   1      42.203  28.183  29.813  1.00  0.00     0.074 A 
ATOM     53  C   UNL A   1      48.546  26.715  29.516  1.00  0.00     0.029 A 
ATOM     54  N   UNL A   1      47.078  28.332  29.760  1.00  0.00    -0.354 N 
ATOM     55  N   UNL A   1      42.874  27.676  30.812  1.00  0.00    -0.248 NA
ATOM     56  C   UNL A   1      42.889  29.235  29.076  1.00  0.00     0.031 C 
ATOM     57  C   UNL A   1      47.626  26.380  30.556  1.00  0.00     0.029 A 
ATOM     58  C   UNL A   1      46.581  27.304  30.520  1.00  0.00     0.049 A 
ATOM     59  H   UNL A   1      46.839  29.284  29.840  1.00  0.00     0.167 HD
ATOM     60  C   UNL A   1      44.195  28.033  30.580  1.00  0.00     0.074 A 
ATOM     61  C   UNL A   1      44.133  29.055  29.533  1.00  0.00     0.031 C 
ATOM     62  C   UNL A   1      45.230  27.263  31.035  1.00  0.00     0.037 A 
BRANCH  49  63
ATOM     63  C   UNL A   1      48.125  29.625  27.074  1.00  0.00     0.057 A 
ATOM     64  C   UNL A   1      47.124  30.600  26.900  1.00  0.00     0.134 A 
ATOM     65  C   UNL A   1      49.439  30.120  27.155  1.00  0.00     0.134 A 
ATOM     66  F   UNL A   1      45.821  30.294  26.870  1.00  0.00    -0.206 F 
ATOM     67  C   UNL A   1      47.403  31.968  26.855  1.00  0.00     0.040 A 
ATOM     68  C   UNL A   1      49.724  31.490  27.162  1.00  0.00     0.040 A 
ATOM     69  F   UNL A   1      50.480  29.287  27.312  1.00  0.00    -0.206 F 
ATOM     70  C   UNL A   1      48.702  32.419  27.026  1.00  0.00     0.006 A 
ENDBRANCH  49  63
BRANCH  50  71
ATOM     71  C   UNL A   1      39.767  28.054  28.889  1.00  0.00     0.057 A 
ATOM     72  C   UNL A   1      39.514  28.854  27.759  1.00  0.00     0.134 A 
ATOM     73  C   UNL A   1      38.792  28.079  29.892  1.00  0.00     0.134 A 
ATOM     74  F   UNL A   1      40.418  28.962  26.774  1.00  0.00    -0.206 F 
ATOM     75  C   UNL A   1      38.366  29.643  27.640  1.00  0.00     0.040 A 
ATOM     76  C   UNL A   1      37.636  28.866  29.787  1.00  0.00     0.040 A 
ATOM     77  F   UNL A   1      38.966  27.382  31.024  1.00  0.00    -0.206 F 
ATOM     78  C   UNL A   1      37.427  29.660  28.663  1.00  0.00     0.006 A 
ENDBRANCH  50  71
BRANCH  62  79
ATOM     79  C   UNL A   1      44.896  26.132  31.970  1.00  0.00     0.057 A 
ATOM     80  C   UNL A   1      44.972  26.347  33.349  1.00  0.00     0.134 A 
ATOM     81  C   UNL A   1      44.650  24.815  31.551  1.00  0.00     0.134 A 
ATOM     82  F   UNL A   1      45.269  27.565  33.826  1.00  0.00    -0.206 F 
ATOM     83  C   UNL A   1      44.797  25.308  34.268  1.00  0.00     0.040 A 
ATOM     84  C   UNL A   1      44.442  23.772  32.459  1.00  0.00     0.040 A 
ATOM     85  F   UNL A   1      44.664  24.489  30.255  1.00  0.00    -0.206 F 
ATOM     86  C   UNL A   1      44.519  24.018  33.825  1.00  0.00     0.006 A 
ENDBRANCH  62  79
ENDBRANCH  36  37
ENDBRANCH  28  31
ENDBRANCH  26  27
ENDBRANCH  25  26
ENDBRANCH   1  25
TORSDOF 13
ENDMDL
MODEL 2
REMARK VINA RESULT:     -12.0      5.211     11.025
REMARK SMILES Cc1ccc(N2CCC[C@@H](Cn3cc(C(=O)NCCCNC(=O)c4ccc(-c5c6nc(c(-c7c(F)cccc7F)c7ccc([nH]7)c(-c7c(F)cccc7F)c7nc(c(-c8c(F)cccc8F)c8ccc5[nH]8)C=C7)C=C6)cc4)nn3)C2)nn1
REMARK SMILES IDX 18 1 17 2 15 3 16 4 14 6 12 7 13 8 79 9 78 10 11 11 10 12
REMARK SMILES IDX 6 13 7 14 80 15 8 16 9 17 5 18 1 19 2 20 3 21 82 22 4 23
REMARK SMILES IDX 81 24 19 25 20 26 21 27 22 28 23 30 24 31 25 32 77 33 26 34
REMARK SMILES IDX 76 35 27 36 28 37 29 38 70 39 30 40 75 41 69 42 71 43 31 44
REMARK SMILES IDX 74 45 68 46 67 47 32 49 58 50 41 51 57 52 42 53 45 54 56 55
REMARK SMILES IDX 72 56 43 57 44 58 55 60 73 61 46 62 33 63 34 64 39 65 35 66
REMARK SMILES IDX 36 67 38 68 40 69 37 70 59 71 60 72 65 73 61 74 62 75 64 76
REMARK SMILES IDX 66 77 63 78 47 79 48 80 53 81 49 82 50 83 52 84 54 85 51 86
REMARK H PARENT 17 5 21 29 71 48 45 59
REMARK Flexibility Score: inf
ROOT
ATOM      1  C   UNL A   1      33.841  34.733  29.188  1.00  0.00     0.118 C 
ENDROOT
BRANCH   1   2
ATOM      2  N   UNL A   1      33.221  36.011  29.502  1.00  0.00    -0.351 N 
ATOM      3  C   UNL A   1      33.217  36.707  30.695  1.00  0.00     0.273 C 
ATOM      4  O   UNL A   1      32.826  37.877  30.673  1.00  0.00    -0.267 OA
ATOM      5  H   UNL A   1      32.737  36.440  28.761  1.00  0.00     0.163 HD
BRANCH   3   6
ATOM      6  C   UNL A   1      33.712  36.069  31.908  1.00  0.00     0.170 A 
ATOM      7  N   UNL A   1      34.485  34.672  33.363  1.00  0.00    -0.251 N 
ATOM      8  C   UNL A   1      33.628  34.749  32.307  1.00  0.00     0.145 A 
ATOM      9  N   UNL A   1      34.863  35.892  33.769  1.00  0.00    -0.067 NA
ATOM     10  N   UNL A   1      34.408  36.761  32.874  1.00  0.00    -0.125 NA
BRANCH   7  11
ATOM     11  C   UNL A   1      35.119  33.483  33.891  1.00  0.00     0.151 C 
BRANCH  11  12
ATOM     12  C   UNL A   1      36.178  32.859  32.958  1.00  0.00     0.030 C 
ATOM     13  N   UNL A   1      38.418  33.004  32.047  1.00  0.00    -0.355 N 
ATOM     14  C   UNL A   1      38.820  31.656  32.416  1.00  0.00     0.118 C 
ATOM     15  C   UNL A   1      37.479  33.684  32.916  1.00  0.00     0.123 C 
ATOM     16  C   UNL A   1      37.569  30.784  32.394  1.00  0.00     0.022 C 
ATOM     17  C   UNL A   1      36.469  31.375  33.281  1.00  0.00     0.009 C 
BRANCH  13  18
ATOM     18  C   UNL A   1      39.200  33.747  31.189  1.00  0.00     0.151 A 
ATOM     19  C   UNL A   1      41.562  35.807  28.337  1.00  0.00     0.069 C 
ATOM     20  C   UNL A   1      40.759  35.056  29.351  1.00  0.00     0.060 A 
ATOM     21  C   UNL A   1      41.365  34.186  30.237  1.00  0.00     0.029 A 
ATOM     22  N   UNL A   1      39.428  35.277  29.392  1.00  0.00    -0.154 NA
ATOM     23  C   UNL A   1      40.572  33.534  31.172  1.00  0.00     0.051 A 
ATOM     24  N   UNL A   1      38.645  34.598  30.301  1.00  0.00    -0.133 NA
ENDBRANCH  13  18
ENDBRANCH  11  12
ENDBRANCH   7  11
ENDBRANCH   3   6
ENDBRANCH   1   2
BRANCH   1  25
ATOM     25  C   UNL A   1      35.338  34.854  28.876  1.00  0.00     0.042 C 
BRANCH  25  26
ATOM     26  C   UNL A   1      35.806  33.720  27.990  1.00  0.00     0.118 C 
BRANCH  26  27
ATOM     27  N   UNL A   1      34.832  32.626  27.903  1.00  0.00    -0.352 N 
ATOM     28  C   UNL A   1      35.073  31.266  27.814  1.00  0.00     0.251 C 
ATOM     29  H   UNL A   1      33.884  32.894  27.908  1.00  0.00     0.163 HD
ATOM     30  O   UNL A   1      34.203  30.482  27.455  1.00  0.00    -0.269 OA
BRANCH  28  31
ATOM     31  C   UNL A   1      36.410  30.774  28.176  1.00  0.00     0.039 A 
ATOM     32  C   UNL A   1      37.421  31.613  28.651  1.00  0.00     0.014 A 
ATOM     33  C   UNL A   1      36.624  29.408  28.046  1.00  0.00     0.014 A 
ATOM     34  C   UNL A   1      38.638  31.039  29.007  1.00  0.00     0.010 A 
ATOM     35  C   UNL A   1      37.681  28.826  28.670  1.00  0.00     0.010 A 
ATOM     36  C   UNL A   1      38.746  29.641  28.997  1.00  0.00    -0.014 A 
BRANCH  36  37
ATOM     37  C   UNL A   1      39.988  28.949  29.258  1.00  0.00     0.031 A 
ATOM     38  C   UNL A   1      40.283  28.705  30.685  1.00  0.00     0.074 A 
ATOM     39  C   UNL A   1      40.692  28.376  28.258  1.00  0.00     0.049 A 
ATOM     40  N   UNL A   1      41.164  29.305  31.409  1.00  0.00    -0.248 NA
ATOM     41  C   UNL A   1      39.404  27.797  31.434  1.00  0.00     0.031 C 
ATOM     42  C   UNL A   1      40.356  28.234  26.831  1.00  0.00     0.029 A 
ATOM     43  N   UNL A   1      41.870  27.712  28.347  1.00  0.00    -0.354 N 
ATOM     44  C   UNL A   1      41.094  28.711  32.663  1.00  0.00     0.074 A 
ATOM     45  C   UNL A   1      39.883  27.933  32.673  1.00  0.00     0.031 C 
ATOM     46  C   UNL A   1      41.198  27.351  26.250  1.00  0.00     0.029 A 
ATOM     47  C   UNL A   1      42.232  27.010  27.206  1.00  0.00     0.049 A 
ATOM     48  H   UNL A   1      42.425  27.726  29.160  1.00  0.00     0.167 HD
ATOM     49  C   UNL A   1      42.164  28.731  33.505  1.00  0.00     0.037 A 
ATOM     50  C   UNL A   1      43.303  26.190  27.091  1.00  0.00     0.037 A 
ATOM     51  C   UNL A   1      43.174  29.650  33.037  1.00  0.00     0.049 A 
ATOM     52  C   UNL A   1      44.246  26.554  28.182  1.00  0.00     0.074 A 
ATOM     53  C   UNL A   1      43.226  31.013  32.824  1.00  0.00     0.029 A 
ATOM     54  N   UNL A   1      44.228  29.121  32.329  1.00  0.00    -0.354 N 
ATOM     55  N   UNL A   1      44.874  27.697  28.234  1.00  0.00    -0.248 NA
ATOM     56  C   UNL A   1      44.097  25.869  29.459  1.00  0.00     0.031 C 
ATOM     57  C   UNL A   1      43.986  31.168  31.625  1.00  0.00     0.029 A 
ATOM     58  C   UNL A   1      44.407  29.902  31.215  1.00  0.00     0.049 A 
ATOM     59  H   UNL A   1      44.756  28.328  32.575  1.00  0.00     0.167 HD
ATOM     60  C   UNL A   1      44.830  28.075  29.570  1.00  0.00     0.074 A 
ATOM     61  C   UNL A   1      44.401  26.873  30.288  1.00  0.00     0.031 C 
ATOM     62  C   UNL A   1      44.851  29.391  29.937  1.00  0.00     0.037 A 
BRANCH  49  63
ATOM     63  C   UNL A   1      42.480  27.675  34.528  1.00  0.00     0.057 A 
ATOM     64  C   UNL A   1      42.056  27.718  35.870  1.00  0.00     0.134 A 
ATOM     65  C   UNL A   1      42.956  26.427  34.088  1.00  0.00     0.134 A 
ATOM     66  F   UNL A   1      41.519  28.815  36.419  1.00  0.00    -0.206 F 
ATOM     67  C   UNL A   1      42.061  26.594  36.700  1.00  0.00     0.040 A 
ATOM     68  C   UNL A   1      42.918  25.284  34.894  1.00  0.00     0.040 A 
ATOM     69  F   UNL A   1      43.397  26.263  32.830  1.00  0.00    -0.206 F 
ATOM     70  C   UNL A   1      42.457  25.363  36.200  1.00  0.00     0.006 A 
ENDBRANCH  49  63
BRANCH  50  71
ATOM     71  C   UNL A   1      43.395  24.927  26.329  1.00  0.00     0.057 A 
ATOM     72  C   UNL A   1      42.801  23.745  26.809  1.00  0.00     0.134 A 
ATOM     73  C   UNL A   1      44.287  24.779  25.260  1.00  0.00     0.134 A 
ATOM     74  F   UNL A   1      41.990  23.765  27.877  1.00  0.00    -0.206 F 
ATOM     75  C   UNL A   1      43.087  22.489  26.267  1.00  0.00     0.040 A 
ATOM     76  C   UNL A   1      44.584  23.525  24.708  1.00  0.00     0.040 A 
ATOM     77  F   UNL A   1      44.934  25.843  24.764  1.00  0.00    -0.206 F 
ATOM     78  C   UNL A   1      43.992  22.374  25.220  1.00  0.00     0.006 A 
ENDBRANCH  50  71
BRANCH  62  79
ATOM     79  C   UNL A   1      45.134  30.409  28.863  1.00  0.00     0.057 A 
ATOM     80  C   UNL A   1      46.446  30.850  28.675  1.00  0.00     0.134 A 
ATOM     81  C   UNL A   1      44.137  31.064  28.124  1.00  0.00     0.134 A 
ATOM     82  F   UNL A   1      47.446  30.318  29.395  1.00  0.00    -0.206 F 
ATOM     83  C   UNL A   1      46.757  31.880  27.784  1.00  0.00     0.040 A 
ATOM     84  C   UNL A   1      44.436  32.075  27.205  1.00  0.00     0.040 A 
ATOM     85  F   UNL A   1      42.842  30.787  28.310  1.00  0.00    -0.206 F 
ATOM     86  C   UNL A   1      45.752  32.488  27.036  1.00  0.00     0.006 A 
ENDBRANCH  62  79
ENDBRANCH  36  37
ENDBRANCH  28  31
ENDBRANCH  26  27
ENDBRANCH  25  26
ENDBRANCH   1  25
TORSDOF 13
ENDMDL
MODEL 3
REMARK VINA RESULT:     -12.0      3.676      8.871
REMARK SMILES Cc1ccc(N2CCC[C@@H](Cn3cc(C(=O)NCCCNC(=O)c4ccc(-c5c6nc(c(-c7c(F)cccc7F)c7ccc([nH]7)c(-c7c(F)cccc7F)c7nc(c(-c8c(F)cccc8F)c8ccc5[nH]8)C=C7)C=C6)cc4)nn3)C2)nn1
REMARK SMILES IDX 18 1 17 2 15 3 16 4 14 6 12 7 13 8 79 9 78 10 11 11 10 12
REMARK SMILES IDX 6 13 7 14 80 15 8 16 9 17 5 18 1 19 2 20 3 21 82 22 4 23
REMARK SMILES IDX 81 24 19 25 20 26 21 27 22 28 23 30 24 31 25 32 77 33 26 34
REMARK SMILES IDX 76 35 27 36 28 37 29 38 70 39 30 40 75 41 69 42 71 43 31 44
REMARK SMILES IDX 74 45 68 46 67 47 32 49 58 50 41 51 57 52 42 53 45 54 56 55
REMARK SMILES IDX 72 56 43 57 44 58 55 60 73 61 46 62 33 63 34 64 39 65 35 66
REMARK SMILES IDX 36 67 38 68 40 69 37 70 59 71 60 72 65 73 61 74 62 75 64 76
REMARK SMILES IDX 66 77 63 78 47 79 48 80 53 81 49 82 50 83 52 84 54 85 51 86
REMARK H PARENT 17 5 21 29 71 48 45 59
REMARK Flexibility Score: inf
ROOT
ATOM      1  C   UNL A   1      33.283  29.329  25.770  1.00  0.00     0.118 C 
ENDROOT
BRANCH   1   2
ATOM      2  N   UNL A   1      32.158  29.824  24.990  1.00  0.00    -0.351 N 
ATOM      3  C   UNL A   1      31.180  29.111  24.323  1.00  0.00     0.273 C 
ATOM      4  O   UNL A   1      30.195  29.734  23.921  1.00  0.00    -0.267 OA
ATOM      5  H   UNL A   1      32.083  30.803  24.929  1.00  0.00     0.163 HD
BRANCH   3   6
ATOM      6  C   UNL A   1      31.314  27.669  24.166  1.00  0.00     0.170 A 
ATOM      7  N   UNL A   1      31.979  25.682  23.641  1.00  0.00    -0.251 N 
ATOM      8  C   UNL A   1      31.889  26.944  23.139  1.00  0.00     0.145 A 
ATOM      9  N   UNL A   1      31.273  25.560  24.774  1.00  0.00    -0.067 NA
ATOM     10  N   UNL A   1      30.871  26.778  25.117  1.00  0.00    -0.125 NA
BRANCH   7  11
ATOM     11  C   UNL A   1      32.863  24.624  23.200  1.00  0.00     0.151 C 
BRANCH  11  12
ATOM     12  C   UNL A   1      33.275  23.635  24.311  1.00  0.00     0.030 C 
ATOM     13  N   UNL A   1      34.077  21.416  24.857  1.00  0.00    -0.355 N 
ATOM     14  C   UNL A   1      35.208  21.856  25.659  1.00  0.00     0.118 C 
ATOM     15  C   UNL A   1      33.675  22.259  23.749  1.00  0.00     0.123 C 
ATOM     16  C   UNL A   1      34.825  23.185  26.300  1.00  0.00     0.022 C 
ATOM     17  C   UNL A   1      34.374  24.198  25.243  1.00  0.00     0.009 C 
BRANCH  13  18
ATOM     18  C   UNL A   1      33.697  20.091  24.869  1.00  0.00     0.151 A 
ATOM     19  C   UNL A   1      32.600  16.013  25.209  1.00  0.00     0.069 C 
ATOM     20  C   UNL A   1      33.024  17.441  25.088  1.00  0.00     0.060 A 
ATOM     21  C   UNL A   1      34.313  17.772  24.713  1.00  0.00     0.029 A 
ATOM     22  N   UNL A   1      32.103  18.398  25.328  1.00  0.00    -0.154 NA
ATOM     23  C   UNL A   1      34.644  19.115  24.594  1.00  0.00     0.051 A 
ATOM     24  N   UNL A   1      32.451  19.729  25.241  1.00  0.00    -0.133 NA
ENDBRANCH  13  18
ENDBRANCH  11  12
ENDBRANCH   7  11
ENDBRANCH   3   6
ENDBRANCH   1   2
BRANCH   1  25
ATOM     25  C   UNL A   1      33.302  29.871  27.204  1.00  0.00     0.042 C 
BRANCH  25  26
ATOM     26  C   UNL A   1      34.477  30.798  27.424  1.00  0.00     0.118 C 
BRANCH  26  27
ATOM     27  N   UNL A   1      34.285  31.700  28.567  1.00  0.00    -0.352 N 
ATOM     28  C   UNL A   1      35.049  31.803  29.717  1.00  0.00     0.251 C 
ATOM     29  H   UNL A   1      33.514  32.309  28.508  1.00  0.00     0.163 HD
ATOM     30  O   UNL A   1      34.629  32.374  30.716  1.00  0.00    -0.269 OA
BRANCH  28  31
ATOM     31  C   UNL A   1      36.395  31.215  29.710  1.00  0.00     0.039 A 
ATOM     32  C   UNL A   1      37.544  31.960  29.429  1.00  0.00     0.014 A 
ATOM     33  C   UNL A   1      36.484  29.865  30.024  1.00  0.00     0.014 A 
ATOM     34  C   UNL A   1      38.776  31.316  29.493  1.00  0.00     0.010 A 
ATOM     35  C   UNL A   1      37.682  29.330  30.377  1.00  0.00     0.010 A 
ATOM     36  C   UNL A   1      38.817  29.994  29.959  1.00  0.00    -0.014 A 
BRANCH  36  37
ATOM     37  C   UNL A   1      40.028  29.206  29.976  1.00  0.00     0.031 A 
ATOM     38  C   UNL A   1      40.617  28.988  31.313  1.00  0.00     0.074 A 
ATOM     39  C   UNL A   1      40.443  28.539  28.877  1.00  0.00     0.049 A 
ATOM     40  N   UNL A   1      41.682  29.533  31.791  1.00  0.00    -0.248 NA
ATOM     41  C   UNL A   1      39.861  28.187  32.286  1.00  0.00     0.031 C 
ATOM     42  C   UNL A   1      39.784  28.378  27.570  1.00  0.00     0.029 A 
ATOM     43  N   UNL A   1      41.555  27.778  28.739  1.00  0.00    -0.354 N 
ATOM     44  C   UNL A   1      41.851  28.992  33.060  1.00  0.00     0.074 A 
ATOM     45  C   UNL A   1      40.616  28.324  33.379  1.00  0.00     0.031 C 
ATOM     46  C   UNL A   1      40.402  27.404  26.865  1.00  0.00     0.029 A 
ATOM     47  C   UNL A   1      41.595  27.008  27.586  1.00  0.00     0.049 A 
ATOM     48  H   UNL A   1      42.279  27.772  29.407  1.00  0.00     0.167 HD
ATOM     49  C   UNL A   1      43.081  28.948  33.641  1.00  0.00     0.037 A 
ATOM     50  C   UNL A   1      42.546  26.094  27.281  1.00  0.00     0.037 A 
ATOM     51  C   UNL A   1      44.028  29.757  32.913  1.00  0.00     0.049 A 
ATOM     52  C   UNL A   1      43.737  26.412  28.115  1.00  0.00     0.074 A 
ATOM     53  C   UNL A   1      44.136  31.103  32.620  1.00  0.00     0.029 A 
ATOM     54  N   UNL A   1      44.851  29.114  32.018  1.00  0.00    -0.354 N 
ATOM     55  N   UNL A   1      44.447  27.497  27.965  1.00  0.00    -0.248 NA
ATOM     56  C   UNL A   1      43.826  25.788  29.427  1.00  0.00     0.031 C 
ATOM     57  C   UNL A   1      44.616  31.149  31.276  1.00  0.00     0.029 A 
ATOM     58  C   UNL A   1      44.834  29.837  30.852  1.00  0.00     0.049 A 
ATOM     59  H   UNL A   1      45.357  28.287  32.184  1.00  0.00     0.167 HD
ATOM     60  C   UNL A   1      44.733  27.924  29.255  1.00  0.00     0.074 A 
ATOM     61  C   UNL A   1      44.386  26.790  30.113  1.00  0.00     0.031 C 
ATOM     62  C   UNL A   1      44.939  29.245  29.537  1.00  0.00     0.037 A 
BRANCH  49  63
ATOM     63  C   UNL A   1      43.536  27.905  34.624  1.00  0.00     0.057 A 
ATOM     64  C   UNL A   1      43.859  26.578  34.280  1.00  0.00     0.134 A 
ATOM     65  C   UNL A   1      43.964  28.316  35.899  1.00  0.00     0.134 A 
ATOM     66  F   UNL A   1      43.578  26.059  33.078  1.00  0.00    -0.206 F 
ATOM     67  C   UNL A   1      44.593  25.737  35.121  1.00  0.00     0.040 A 
ATOM     68  C   UNL A   1      44.742  27.500  36.727  1.00  0.00     0.040 A 
ATOM     69  F   UNL A   1      43.708  29.556  36.344  1.00  0.00    -0.206 F 
ATOM     70  C   UNL A   1      45.070  26.211  36.332  1.00  0.00     0.006 A 
ENDBRANCH  49  63
BRANCH  50  71
ATOM     71  C   UNL A   1      42.367  24.802  26.586  1.00  0.00     0.057 A 
ATOM     72  C   UNL A   1      41.624  23.760  27.172  1.00  0.00     0.134 A 
ATOM     73  C   UNL A   1      43.134  24.457  25.466  1.00  0.00     0.134 A 
ATOM     74  F   UNL A   1      40.915  23.964  28.292  1.00  0.00    -0.206 F 
ATOM     75  C   UNL A   1      41.653  22.451  26.683  1.00  0.00     0.040 A 
ATOM     76  C   UNL A   1      43.174  23.149  24.966  1.00  0.00     0.040 A 
ATOM     77  F   UNL A   1      43.908  25.374  24.867  1.00  0.00    -0.206 F 
ATOM     78  C   UNL A   1      42.441  22.138  25.582  1.00  0.00     0.006 A 
ENDBRANCH  50  71
BRANCH  62  79
ATOM     79  C   UNL A   1      45.050  30.196  28.374  1.00  0.00     0.057 A 
ATOM     80  C   UNL A   1      46.317  30.519  27.881  1.00  0.00     0.134 A 
ATOM     81  C   UNL A   1      43.965  30.904  27.836  1.00  0.00     0.134 A 
ATOM     82  F   UNL A   1      47.409  29.931  28.393  1.00  0.00    -0.206 F 
ATOM     83  C   UNL A   1      46.497  31.486  26.889  1.00  0.00     0.040 A 
ATOM     84  C   UNL A   1      44.127  31.853  26.821  1.00  0.00     0.040 A 
ATOM     85  F   UNL A   1      42.727  30.744  28.315  1.00  0.00    -0.206 F 
ATOM     86  C   UNL A   1      45.399  32.148  26.347  1.00  0.00     0.006 A 
ENDBRANCH  62  79
ENDBRANCH  36  37
ENDBRANCH  28  31
ENDBRANCH  26  27
ENDBRANCH  25  26
ENDBRANCH   1  25
TORSDOF 13
ENDMDL
