MODEL 1
REMARK VINA RESULT:     -10.9      0.000      0.000
REMARK SMILES CCCC[C@H](C(=O)NCCCNC(=O)c1ccc(-c2c3nc(c(-c4c(F)cccc4F)c4ccc([nH]4)c(-c4c(F)cccc4F)c4nc(c(-c5c(F)cccc5F)c5ccc2[nH]5)C=C4)C=C3)cc1)[C@H](O)c1ccc(C(F)(F)F)cc1
REMARK SMILES IDX 9 1 8 2 6 3 7 4 5 6 4 7 3 8 2 9 1 10 69 11 71 12 72 13 80 14
REMARK SMILES IDX 73 15 79 16 74 17 75 18 76 19 77 20 78 21 70 22 10 24 11 25
REMARK SMILES IDX 12 26 13 27 14 29 15 30 16 31 68 32 17 33 67 34 18 35 19 36
REMARK SMILES IDX 20 37 61 38 21 39 66 40 60 41 62 42 22 43 65 44 59 45 58 46
REMARK SMILES IDX 23 48 49 49 32 50 48 51 33 52 36 53 47 54 63 55 34 56 35 57
REMARK SMILES IDX 46 59 64 60 37 61 24 62 25 63 30 64 26 65 27 66 29 67 31 68
REMARK SMILES IDX 28 69 50 70 51 71 56 72 52 73 53 74 55 75 57 76 54 77 38 78
REMARK SMILES IDX 39 79 44 80 40 81 41 82 43 83 45 84 42 85
REMARK H PARENT 8 5 70 23 12 28 62 47 36 58
REMARK Flexibility Score: inf
ROOT
ATOM      1  C   UNL A   1      36.248  20.326  24.776  1.00  0.00     0.117 C 
ENDROOT
BRANCH   1   2
ATOM      2  N   UNL A   1      34.976  19.651  24.958  1.00  0.00    -0.356 N 
ATOM      3  C   UNL A   1      33.688  20.065  24.864  1.00  0.00     0.226 C 
ATOM      4  O   UNL A   1      32.837  19.168  24.898  1.00  0.00    -0.275 OA
ATOM      5  H   UNL A   1      35.067  18.702  25.198  1.00  0.00     0.163 HD
BRANCH   3   6
ATOM      6  C   UNL A   1      33.282  21.538  24.709  1.00  0.00     0.111 C 
BRANCH   6   7
ATOM      7  C   UNL A   1      32.551  21.728  23.344  1.00  0.00     0.016 C 
BRANCH   7   8
ATOM      8  C   UNL A   1      33.111  22.825  22.421  1.00  0.00     0.001 C 
BRANCH   8   9
ATOM      9  C   UNL A   1      32.492  24.211  22.605  1.00  0.00    -0.003 C 
ATOM     10  C   UNL A   1      32.768  25.140  21.433  1.00  0.00     0.004 C 
ENDBRANCH   8   9
ENDBRANCH   7   8
ENDBRANCH   6   7
BRANCH   6  11
ATOM     11  C   UNL A   1      32.408  22.100  25.861  1.00  0.00     0.157 C 
BRANCH  11  12
ATOM     12  C   UNL A   1      32.211  23.601  26.045  1.00  0.00    -0.019 A 
ATOM     13  C   UNL A   1      30.952  24.216  26.076  1.00  0.00     0.007 A 
ATOM     14  C   UNL A   1      33.338  24.442  26.092  1.00  0.00     0.007 A 
ATOM     15  C   UNL A   1      30.820  25.597  26.252  1.00  0.00     0.013 A 
ATOM     16  C   UNL A   1      33.213  25.828  26.235  1.00  0.00     0.013 A 
ATOM     17  C   UNL A   1      31.950  26.419  26.334  1.00  0.00     0.056 A 
BRANCH  17  18
ATOM     18  C   UNL A   1      31.789  27.900  26.560  1.00  0.00     0.416 C 
ATOM     19  F   UNL A   1      31.092  28.199  27.690  1.00  0.00    -0.166 F 
ATOM     20  F   UNL A   1      32.994  28.527  26.685  1.00  0.00    -0.166 F 
ATOM     21  F   UNL A   1      31.149  28.538  25.541  1.00  0.00    -0.166 F 
ENDBRANCH  17  18
ENDBRANCH  11  12
BRANCH  11  22
ATOM     22  O   UNL A   1      31.134  21.439  25.804  1.00  0.00    -0.388 OA
ATOM     23  H   UNL A   1      30.991  20.939  26.624  1.00  0.00     0.211 HD
ENDBRANCH  11  22
ENDBRANCH   6  11
ENDBRANCH   3   6
ENDBRANCH   1   2
BRANCH   1  24
ATOM     24  C   UNL A   1      37.503  19.470  24.983  1.00  0.00     0.042 C 
BRANCH  24  25
ATOM     25  C   UNL A   1      38.687  20.139  25.680  1.00  0.00     0.118 C 
BRANCH  25  26
ATOM     26  N   UNL A   1      39.846  19.266  25.768  1.00  0.00    -0.352 N 
ATOM     27  C   UNL A   1      41.162  19.539  26.054  1.00  0.00     0.251 C 
ATOM     28  H   UNL A   1      39.656  18.316  25.593  1.00  0.00     0.163 HD
ATOM     29  O   UNL A   1      42.000  18.658  25.869  1.00  0.00    -0.269 OA
BRANCH  27  30
ATOM     30  C   UNL A   1      41.617  20.862  26.563  1.00  0.00     0.039 A 
ATOM     31  C   UNL A   1      41.470  21.129  27.931  1.00  0.00     0.014 A 
ATOM     32  C   UNL A   1      42.064  21.882  25.721  1.00  0.00     0.014 A 
ATOM     33  C   UNL A   1      41.806  22.385  28.452  1.00  0.00     0.010 A 
ATOM     34  C   UNL A   1      42.454  23.120  26.250  1.00  0.00     0.010 A 
ATOM     35  C   UNL A   1      42.319  23.392  27.619  1.00  0.00    -0.014 A 
BRANCH  35  36
ATOM     36  C   UNL A   1      42.691  24.726  28.172  1.00  0.00     0.031 A 
ATOM     37  C   UNL A   1      41.647  25.790  28.398  1.00  0.00     0.074 A 
ATOM     38  C   UNL A   1      43.982  25.006  28.443  1.00  0.00     0.049 A 
ATOM     39  N   UNL A   1      41.794  27.008  28.862  1.00  0.00    -0.248 NA
ATOM     40  C   UNL A   1      40.262  25.451  28.041  1.00  0.00     0.031 C 
ATOM     41  C   UNL A   1      45.109  24.098  28.228  1.00  0.00     0.029 A 
ATOM     42  N   UNL A   1      44.564  26.143  28.951  1.00  0.00    -0.354 N 
ATOM     43  C   UNL A   1      40.531  27.583  28.833  1.00  0.00     0.074 A 
ATOM     44  C   UNL A   1      39.633  26.594  28.276  1.00  0.00     0.031 C 
ATOM     45  C   UNL A   1      46.243  24.706  28.612  1.00  0.00     0.029 A 
ATOM     46  C   UNL A   1      45.929  26.054  29.080  1.00  0.00     0.049 A 
ATOM     47  H   UNL A   1      44.051  26.946  29.200  1.00  0.00     0.167 HD
ATOM     48  C   UNL A   1      40.145  28.815  29.248  1.00  0.00     0.037 A 
ATOM     49  C   UNL A   1      46.831  26.953  29.522  1.00  0.00     0.037 A 
ATOM     50  C   UNL A   1      41.017  29.793  29.843  1.00  0.00     0.049 A 
ATOM     51  C   UNL A   1      46.374  28.302  30.002  1.00  0.00     0.074 A 
ATOM     52  C   UNL A   1      40.688  31.027  30.378  1.00  0.00     0.029 A 
ATOM     53  N   UNL A   1      42.388  29.651  29.979  1.00  0.00    -0.354 N 
ATOM     54  N   UNL A   1      45.161  28.793  30.050  1.00  0.00    -0.248 NA
ATOM     55  C   UNL A   1      47.413  29.219  30.497  1.00  0.00     0.031 C 
ATOM     56  C   UNL A   1      41.867  31.649  30.807  1.00  0.00     0.029 A 
ATOM     57  C   UNL A   1      42.923  30.786  30.567  1.00  0.00     0.049 A 
ATOM     58  H   UNL A   1      42.906  28.862  29.699  1.00  0.00     0.167 HD
ATOM     59  C   UNL A   1      45.287  30.064  30.599  1.00  0.00     0.074 A 
ATOM     60  C   UNL A   1      46.693  30.264  30.879  1.00  0.00     0.031 C 
ATOM     61  C   UNL A   1      44.321  30.980  30.847  1.00  0.00     0.037 A 
BRANCH  48  62
ATOM     62  C   UNL A   1      38.701  29.183  29.082  1.00  0.00     0.057 A 
ATOM     63  C   UNL A   1      37.810  29.174  30.162  1.00  0.00     0.134 A 
ATOM     64  C   UNL A   1      38.212  29.614  27.842  1.00  0.00     0.134 A 
ATOM     65  F   UNL A   1      38.216  28.766  31.374  1.00  0.00    -0.206 F 
ATOM     66  C   UNL A   1      36.479  29.564  30.012  1.00  0.00     0.040 A 
ATOM     67  C   UNL A   1      36.889  30.027  27.684  1.00  0.00     0.040 A 
ATOM     68  F   UNL A   1      39.018  29.657  26.770  1.00  0.00    -0.206 F 
ATOM     69  C   UNL A   1      36.017  29.999  28.770  1.00  0.00     0.006 A 
ENDBRANCH  48  62
BRANCH  49  70
ATOM     70  C   UNL A   1      48.271  26.601  29.548  1.00  0.00     0.057 A 
ATOM     71  C   UNL A   1      49.113  26.925  28.478  1.00  0.00     0.134 A 
ATOM     72  C   UNL A   1      48.834  25.921  30.634  1.00  0.00     0.134 A 
ATOM     73  F   UNL A   1      48.625  27.556  27.401  1.00  0.00    -0.206 F 
ATOM     74  C   UNL A   1      50.463  26.568  28.479  1.00  0.00     0.040 A 
ATOM     75  C   UNL A   1      50.187  25.577  30.657  1.00  0.00     0.040 A 
ATOM     76  F   UNL A   1      48.078  25.586  31.689  1.00  0.00    -0.206 F 
ATOM     77  C   UNL A   1      51.003  25.895  29.574  1.00  0.00     0.006 A 
ENDBRANCH  49  70
BRANCH  61  78
ATOM     78  C   UNL A   1      44.745  32.275  31.471  1.00  0.00     0.057 A 
ATOM     79  C   UNL A   1      45.086  33.389  30.694  1.00  0.00     0.134 A 
ATOM     80  C   UNL A   1      44.776  32.422  32.864  1.00  0.00     0.134 A 
ATOM     81  F   UNL A   1      45.088  33.308  29.355  1.00  0.00    -0.206 F 
ATOM     82  C   UNL A   1      45.459  34.600  31.280  1.00  0.00     0.040 A 
ATOM     83  C   UNL A   1      45.128  33.633  33.462  1.00  0.00     0.040 A 
ATOM     84  F   UNL A   1      44.454  31.395  33.664  1.00  0.00    -0.206 F 
ATOM     85  C   UNL A   1      45.476  34.725  32.669  1.00  0.00     0.006 A 
ENDBRANCH  61  78
ENDBRANCH  35  36
ENDBRANCH  27  30
ENDBRANCH  25  26
ENDBRANCH  24  25
ENDBRANCH   1  24
TORSDOF 17
ENDMDL
MODEL 2
REMARK VINA RESULT:     -10.8      3.236      7.665
REMARK SMILES CCCC[C@H](C(=O)NCCCNC(=O)c1ccc(-c2c3nc(c(-c4c(F)cccc4F)c4ccc([nH]4)c(-c4c(F)cccc4F)c4nc(c(-c5c(F)cccc5F)c5ccc2[nH]5)C=C4)C=C3)cc1)[C@H](O)c1ccc(C(F)(F)F)cc1
REMARK SMILES IDX 9 1 8 2 6 3 7 4 5 6 4 7 3 8 2 9 1 10 69 11 71 12 72 13 80 14
REMARK SMILES IDX 73 15 79 16 74 17 75 18 76 19 77 20 78 21 70 22 10 24 11 25
REMARK SMILES IDX 12 26 13 27 14 29 15 30 16 31 68 32 17 33 67 34 18 35 19 36
REMARK SMILES IDX 20 37 61 38 21 39 66 40 60 41 62 42 22 43 65 44 59 45 58 46
REMARK SMILES IDX 23 48 49 49 32 50 48 51 33 52 36 53 47 54 63 55 34 56 35 57
REMARK SMILES IDX 46 59 64 60 37 61 24 62 25 63 30 64 26 65 27 66 29 67 31 68
REMARK SMILES IDX 28 69 50 70 51 71 56 72 52 73 53 74 55 75 57 76 54 77 38 78
REMARK SMILES IDX 39 79 44 80 40 81 41 82 43 83 45 84 42 85
REMARK H PARENT 8 5 70 23 12 28 62 47 36 58
REMARK Flexibility Score: inf
ROOT
ATOM      1  C   UNL A   1      33.812  27.091  25.190  1.00  0.00     0.117 C 
ENDROOT
BRANCH   1   2
ATOM      2  N   UNL A   1      33.988  27.019  23.750  1.00  0.00    -0.356 N 
ATOM      3  C   UNL A   1      33.549  26.149  22.807  1.00  0.00     0.226 C 
ATOM      4  O   UNL A   1      33.731  26.499  21.634  1.00  0.00    -0.275 OA
ATOM      5  H   UNL A   1      34.537  27.750  23.386  1.00  0.00     0.163 HD
BRANCH   3   6
ATOM      6  C   UNL A   1      32.856  24.820  23.140  1.00  0.00     0.111 C 
BRANCH   6   7
ATOM      7  C   UNL A   1      31.371  24.883  22.668  1.00  0.00     0.016 C 
BRANCH   7   8
ATOM      8  C   UNL A   1      30.324  24.326  23.648  1.00  0.00     0.001 C 
BRANCH   8   9
ATOM      9  C   UNL A   1      30.639  24.536  25.129  1.00  0.00    -0.003 C 
ATOM     10  C   UNL A   1      30.292  25.935  25.614  1.00  0.00     0.004 C 
ENDBRANCH   8   9
ENDBRANCH   7   8
ENDBRANCH   6   7
BRANCH   6  11
ATOM     11  C   UNL A   1      33.545  23.559  22.554  1.00  0.00     0.157 C 
BRANCH  11  12
ATOM     12  C   UNL A   1      33.403  22.196  23.224  1.00  0.00    -0.019 A 
ATOM     13  C   UNL A   1      34.270  21.734  24.223  1.00  0.00     0.007 A 
ATOM     14  C   UNL A   1      32.416  21.305  22.767  1.00  0.00     0.007 A 
ATOM     15  C   UNL A   1      34.098  20.477  24.813  1.00  0.00     0.013 A 
ATOM     16  C   UNL A   1      32.258  20.034  23.330  1.00  0.00     0.013 A 
ATOM     17  C   UNL A   1      33.089  19.614  24.374  1.00  0.00     0.056 A 
BRANCH  17  18
ATOM     18  C   UNL A   1      32.895  18.278  25.045  1.00  0.00     0.416 C 
ATOM     19  F   UNL A   1      31.837  17.578  24.551  1.00  0.00    -0.166 F 
ATOM     20  F   UNL A   1      33.983  17.471  24.893  1.00  0.00    -0.166 F 
ATOM     21  F   UNL A   1      32.692  18.371  26.388  1.00  0.00    -0.166 F 
ENDBRANCH  17  18
ENDBRANCH  11  12
BRANCH  11  22
ATOM     22  O   UNL A   1      33.180  23.467  21.167  1.00  0.00    -0.388 OA
ATOM     23  H   UNL A   1      33.154  22.535  20.900  1.00  0.00     0.211 HD
ENDBRANCH  11  22
ENDBRANCH   6  11
ENDBRANCH   3   6
ENDBRANCH   1   2
BRANCH   1  24
ATOM     24  C   UNL A   1      33.934  28.484  25.816  1.00  0.00     0.042 C 
BRANCH  24  25
ATOM     25  C   UNL A   1      33.602  28.603  27.303  1.00  0.00     0.118 C 
BRANCH  25  26
ATOM     26  N   UNL A   1      33.634  29.978  27.773  1.00  0.00    -0.352 N 
ATOM     27  C   UNL A   1      34.630  30.699  28.386  1.00  0.00     0.251 C 
ATOM     28  H   UNL A   1      32.799  30.480  27.626  1.00  0.00     0.163 HD
ATOM     29  O   UNL A   1      34.349  31.793  28.875  1.00  0.00    -0.269 OA
BRANCH  27  30
ATOM     30  C   UNL A   1      36.029  30.205  28.497  1.00  0.00     0.039 A 
ATOM     31  C   UNL A   1      36.472  29.749  29.745  1.00  0.00     0.014 A 
ATOM     32  C   UNL A   1      36.947  30.294  27.447  1.00  0.00     0.014 A 
ATOM     33  C   UNL A   1      37.802  29.348  29.928  1.00  0.00     0.010 A 
ATOM     34  C   UNL A   1      38.262  29.839  27.613  1.00  0.00     0.010 A 
ATOM     35  C   UNL A   1      38.711  29.373  28.858  1.00  0.00    -0.014 A 
BRANCH  35  36
ATOM     36  C   UNL A   1      40.123  28.933  29.043  1.00  0.00     0.031 A 
ATOM     37  C   UNL A   1      41.151  29.861  29.640  1.00  0.00     0.074 A 
ATOM     38  C   UNL A   1      40.504  27.703  28.643  1.00  0.00     0.049 A 
ATOM     39  N   UNL A   1      42.425  29.648  29.866  1.00  0.00    -0.248 NA
ATOM     40  C   UNL A   1      40.696  31.208  30.015  1.00  0.00     0.031 C 
ATOM     41  C   UNL A   1      39.636  26.714  28.003  1.00  0.00     0.029 A 
ATOM     42  N   UNL A   1      41.727  27.079  28.708  1.00  0.00    -0.354 N 
ATOM     43  C   UNL A   1      42.925  30.834  30.387  1.00  0.00     0.074 A 
ATOM     44  C   UNL A   1      41.825  31.775  30.416  1.00  0.00     0.031 C 
ATOM     45  C   UNL A   1      40.348  25.605  27.746  1.00  0.00     0.029 A 
ATOM     46  C   UNL A   1      41.728  25.809  28.182  1.00  0.00     0.049 A 
ATOM     47  H   UNL A   1      42.527  27.501  29.096  1.00  0.00     0.167 HD
ATOM     48  C   UNL A   1      44.178  31.114  30.821  1.00  0.00     0.037 A 
ATOM     49  C   UNL A   1      42.723  24.910  28.059  1.00  0.00     0.037 A 
ATOM     50  C   UNL A   1      45.271  30.177  30.840  1.00  0.00     0.049 A 
ATOM     51  C   UNL A   1      44.098  25.234  28.574  1.00  0.00     0.074 A 
ATOM     52  C   UNL A   1      46.545  30.351  31.352  1.00  0.00     0.029 A 
ATOM     53  N   UNL A   1      45.220  28.894  30.321  1.00  0.00    -0.354 N 
ATOM     54  N   UNL A   1      44.527  26.331  29.147  1.00  0.00    -0.248 NA
ATOM     55  C   UNL A   1      45.125  24.190  28.430  1.00  0.00     0.031 C 
ATOM     56  C   UNL A   1      47.279  29.184  31.111  1.00  0.00     0.029 A 
ATOM     57  C   UNL A   1      46.449  28.273  30.479  1.00  0.00     0.049 A 
ATOM     58  H   UNL A   1      44.430  28.484  29.902  1.00  0.00     0.167 HD
ATOM     59  C   UNL A   1      45.863  26.103  29.452  1.00  0.00     0.074 A 
ATOM     60  C   UNL A   1      46.172  24.759  29.012  1.00  0.00     0.031 C 
ATOM     61  C   UNL A   1      46.751  26.936  30.043  1.00  0.00     0.037 A 
BRANCH  48  62
ATOM     62  C   UNL A   1      44.445  32.500  31.327  1.00  0.00     0.057 A 
ATOM     63  C   UNL A   1      44.325  32.824  32.685  1.00  0.00     0.134 A 
ATOM     64  C   UNL A   1      44.889  33.504  30.458  1.00  0.00     0.134 A 
ATOM     65  F   UNL A   1      43.898  31.907  33.567  1.00  0.00    -0.206 F 
ATOM     66  C   UNL A   1      44.621  34.103  33.157  1.00  0.00     0.040 A 
ATOM     67  C   UNL A   1      45.209  34.781  30.922  1.00  0.00     0.040 A 
ATOM     68  F   UNL A   1      45.036  33.255  29.148  1.00  0.00    -0.206 F 
ATOM     69  C   UNL A   1      45.071  35.084  32.275  1.00  0.00     0.006 A 
ENDBRANCH  48  62
BRANCH  49  70
ATOM     70  C   UNL A   1      42.454  23.593  27.431  1.00  0.00     0.057 A 
ATOM     71  C   UNL A   1      42.088  22.485  28.204  1.00  0.00     0.134 A 
ATOM     72  C   UNL A   1      42.572  23.410  26.048  1.00  0.00     0.134 A 
ATOM     73  F   UNL A   1      41.983  22.596  29.535  1.00  0.00    -0.206 F 
ATOM     74  C   UNL A   1      41.866  21.235  27.626  1.00  0.00     0.040 A 
ATOM     75  C   UNL A   1      42.332  22.169  25.455  1.00  0.00     0.040 A 
ATOM     76  F   UNL A   1      42.917  24.434  25.256  1.00  0.00    -0.206 F 
ATOM     77  C   UNL A   1      41.984  21.076  26.246  1.00  0.00     0.006 A 
ENDBRANCH  49  70
BRANCH  61  78
ATOM     78  C   UNL A   1      48.138  26.414  30.271  1.00  0.00     0.057 A 
ATOM     79  C   UNL A   1      48.490  25.756  31.456  1.00  0.00     0.134 A 
ATOM     80  C   UNL A   1      49.122  26.538  29.281  1.00  0.00     0.134 A 
ATOM     81  F   UNL A   1      47.597  25.617  32.447  1.00  0.00    -0.206 F 
ATOM     82  C   UNL A   1      49.777  25.253  31.655  1.00  0.00     0.040 A 
ATOM     83  C   UNL A   1      50.406  26.022  29.461  1.00  0.00     0.040 A 
ATOM     84  F   UNL A   1      48.847  27.152  28.122  1.00  0.00    -0.206 F 
ATOM     85  C   UNL A   1      50.738  25.381  30.653  1.00  0.00     0.006 A 
ENDBRANCH  61  78
ENDBRANCH  35  36
ENDBRANCH  27  30
ENDBRANCH  25  26
ENDBRANCH  24  25
ENDBRANCH   1  24
TORSDOF 17
ENDMDL
MODEL 3
REMARK VINA RESULT:     -10.8      2.616      7.131
REMARK SMILES CCCC[C@H](C(=O)NCCCNC(=O)c1ccc(-c2c3nc(c(-c4c(F)cccc4F)c4ccc([nH]4)c(-c4c(F)cccc4F)c4nc(c(-c5c(F)cccc5F)c5ccc2[nH]5)C=C4)C=C3)cc1)[C@H](O)c1ccc(C(F)(F)F)cc1
REMARK SMILES IDX 9 1 8 2 6 3 7 4 5 6 4 7 3 8 2 9 1 10 69 11 71 12 72 13 80 14
REMARK SMILES IDX 73 15 79 16 74 17 75 18 76 19 77 20 78 21 70 22 10 24 11 25
REMARK SMILES IDX 12 26 13 27 14 29 15 30 16 31 68 32 17 33 67 34 18 35 19 36
REMARK SMILES IDX 20 37 61 38 21 39 66 40 60 41 62 42 22 43 65 44 59 45 58 46
REMARK SMILES IDX 23 48 49 49 32 50 48 51 33 52 36 53 47 54 63 55 34 56 35 57
REMARK SMILES IDX 46 59 64 60 37 61 24 62 25 63 30 64 26 65 27 66 29 67 31 68
REMARK SMILES IDX 28 69 50 70 51 71 56 72 52 73 53 74 55 75 57 76 54 77 38 78
REMARK SMILES IDX 39 79 44 80 40 81 41 82 43 83 45 84 42 85
REMARK H PARENT 8 5 70 23 12 28 62 47 36 58
REMARK Flexibility Score: inf
ROOT
ATOM      1  C   UNL A   1      38.005  21.781  25.078  1.00  0.00     0.117 C 
ENDROOT
BRANCH   1   2
ATOM      2  N   UNL A   1      37.192  22.283  23.986  1.00  0.00    -0.356 N 
ATOM      3  C   UNL A   1      36.130  23.125  23.935  1.00  0.00     0.226 C 
ATOM      4  O   UNL A   1      35.794  23.490  22.802  1.00  0.00    -0.275 OA
ATOM      5  H   UNL A   1      37.467  21.944  23.104  1.00  0.00     0.163 HD
BRANCH   3   6
ATOM      6  C   UNL A   1      35.384  23.621  25.182  1.00  0.00     0.111 C 
BRANCH   6   7
ATOM      7  C   UNL A   1      34.571  24.902  24.818  1.00  0.00     0.016 C 
BRANCH   7   8
ATOM      8  C   UNL A   1      33.645  25.453  25.916  1.00  0.00     0.001 C 
BRANCH   8   9
ATOM      9  C   UNL A   1      33.562  26.977  25.996  1.00  0.00    -0.003 C 
ATOM     10  C   UNL A   1      32.163  27.507  25.722  1.00  0.00     0.004 C 
ENDBRANCH   8   9
ENDBRANCH   7   8
ENDBRANCH   6   7
BRANCH   6  11
ATOM     11  C   UNL A   1      34.453  22.573  25.847  1.00  0.00     0.157 C 
BRANCH  11  12
ATOM     12  C   UNL A   1      34.053  21.295  25.118  1.00  0.00    -0.019 A 
ATOM     13  C   UNL A   1      32.877  21.171  24.366  1.00  0.00     0.007 A 
ATOM     14  C   UNL A   1      34.842  20.141  25.272  1.00  0.00     0.007 A 
ATOM     15  C   UNL A   1      32.553  19.978  23.710  1.00  0.00     0.013 A 
ATOM     16  C   UNL A   1      34.508  18.935  24.645  1.00  0.00     0.013 A 
ATOM     17  C   UNL A   1      33.366  18.847  23.842  1.00  0.00     0.056 A 
BRANCH  17  18
ATOM     18  C   UNL A   1      33.022  17.582  23.099  1.00  0.00     0.416 C 
ATOM     19  F   UNL A   1      32.119  17.775  22.099  1.00  0.00    -0.166 F 
ATOM     20  F   UNL A   1      34.119  17.024  22.512  1.00  0.00    -0.166 F 
ATOM     21  F   UNL A   1      32.500  16.610  23.898  1.00  0.00    -0.166 F 
ENDBRANCH  17  18
ENDBRANCH  11  12
BRANCH  11  22
ATOM     22  O   UNL A   1      35.003  22.255  27.136  1.00  0.00    -0.388 OA
ATOM     23  H   UNL A   1      34.608  22.831  27.808  1.00  0.00     0.211 HD
ENDBRANCH  11  22
ENDBRANCH   6  11
ENDBRANCH   3   6
ENDBRANCH   1   2
BRANCH   1  24
ATOM     24  C   UNL A   1      38.538  20.352  24.922  1.00  0.00     0.042 C 
BRANCH  24  25
ATOM     25  C   UNL A   1      39.123  19.694  26.171  1.00  0.00     0.118 C 
BRANCH  25  26
ATOM     26  N   UNL A   1      40.392  19.034  25.910  1.00  0.00    -0.352 N 
ATOM     27  C   UNL A   1      41.678  19.518  25.914  1.00  0.00     0.251 C 
ATOM     28  H   UNL A   1      40.318  18.076  25.694  1.00  0.00     0.163 HD
ATOM     29  O   UNL A   1      42.575  18.808  25.461  1.00  0.00    -0.269 OA
BRANCH  27  30
ATOM     30  C   UNL A   1      42.028  20.869  26.429  1.00  0.00     0.039 A 
ATOM     31  C   UNL A   1      41.936  21.094  27.809  1.00  0.00     0.014 A 
ATOM     32  C   UNL A   1      42.321  21.945  25.588  1.00  0.00     0.014 A 
ATOM     33  C   UNL A   1      42.175  22.368  28.341  1.00  0.00     0.010 A 
ATOM     34  C   UNL A   1      42.616  23.206  26.124  1.00  0.00     0.010 A 
ATOM     35  C   UNL A   1      42.535  23.438  27.505  1.00  0.00    -0.014 A 
BRANCH  35  36
ATOM     36  C   UNL A   1      42.805  24.791  28.069  1.00  0.00     0.031 A 
ATOM     37  C   UNL A   1      44.195  25.188  28.498  1.00  0.00     0.074 A 
ATOM     38  C   UNL A   1      41.793  25.667  28.234  1.00  0.00     0.049 A 
ATOM     39  N   UNL A   1      44.609  26.319  29.017  1.00  0.00    -0.248 NA
ATOM     40  C   UNL A   1      45.254  24.180  28.343  1.00  0.00     0.031 C 
ATOM     41  C   UNL A   1      40.389  25.408  27.915  1.00  0.00     0.029 A 
ATOM     42  N   UNL A   1      41.791  26.951  28.723  1.00  0.00    -0.354 N 
ATOM     43  C   UNL A   1      45.965  26.152  29.266  1.00  0.00     0.074 A 
ATOM     44  C   UNL A   1      46.299  24.800  28.872  1.00  0.00     0.031 C 
ATOM     45  C   UNL A   1      39.664  26.501  28.203  1.00  0.00     0.029 A 
ATOM     46  C   UNL A   1      40.545  27.531  28.747  1.00  0.00     0.049 A 
ATOM     47  H   UNL A   1      42.605  27.413  29.027  1.00  0.00     0.167 HD
ATOM     48  C   UNL A   1      46.857  27.044  29.761  1.00  0.00     0.037 A 
ATOM     49  C   UNL A   1      40.151  28.751  29.163  1.00  0.00     0.037 A 
ATOM     50  C   UNL A   1      46.549  28.405  30.116  1.00  0.00     0.049 A 
ATOM     51  C   UNL A   1      41.165  29.732  29.681  1.00  0.00     0.074 A 
ATOM     52  C   UNL A   1      47.414  29.402  30.533  1.00  0.00     0.029 A 
ATOM     53  N   UNL A   1      45.280  28.958  30.100  1.00  0.00    -0.354 N 
ATOM     54  N   UNL A   1      42.459  29.584  29.824  1.00  0.00    -0.248 NA
ATOM     55  C   UNL A   1      40.663  31.054  30.088  1.00  0.00     0.031 C 
ATOM     56  C   UNL A   1      46.663  30.551  30.804  1.00  0.00     0.029 A 
ATOM     57  C   UNL A   1      45.335  30.276  30.524  1.00  0.00     0.049 A 
ATOM     58  H   UNL A   1      44.460  28.485  29.829  1.00  0.00     0.167 HD
ATOM     59  C   UNL A   1      42.928  30.796  30.315  1.00  0.00     0.074 A 
ATOM     60  C   UNL A   1      41.783  31.674  30.435  1.00  0.00     0.031 C 
ATOM     61  C   UNL A   1      44.195  31.146  30.638  1.00  0.00     0.037 A 
BRANCH  48  62
ATOM     62  C   UNL A   1      48.273  26.583  29.943  1.00  0.00     0.057 A 
ATOM     63  C   UNL A   1      49.253  26.815  28.971  1.00  0.00     0.134 A 
ATOM     64  C   UNL A   1      48.672  25.959  31.132  1.00  0.00     0.134 A 
ATOM     65  F   UNL A   1      48.933  27.404  27.809  1.00  0.00    -0.206 F 
ATOM     66  C   UNL A   1      50.579  26.427  29.168  1.00  0.00     0.040 A 
ATOM     67  C   UNL A   1      49.999  25.585  31.348  1.00  0.00     0.040 A 
ATOM     68  F   UNL A   1      47.783  25.719  32.107  1.00  0.00    -0.206 F 
ATOM     69  C   UNL A   1      50.956  25.816  30.363  1.00  0.00     0.006 A 
ENDBRANCH  48  62
BRANCH  49  70
ATOM     70  C   UNL A   1      38.718  29.128  29.091  1.00  0.00     0.057 A 
ATOM     71  C   UNL A   1      38.151  29.586  27.897  1.00  0.00     0.134 A 
ATOM     72  C   UNL A   1      37.890  29.052  30.217  1.00  0.00     0.134 A 
ATOM     73  F   UNL A   1      38.903  29.701  26.793  1.00  0.00    -0.206 F 
ATOM     74  C   UNL A   1      36.812  29.975  27.828  1.00  0.00     0.040 A 
ATOM     75  C   UNL A   1      36.544  29.418  30.156  1.00  0.00     0.040 A 
ATOM     76  F   UNL A   1      38.376  28.619  31.388  1.00  0.00    -0.206 F 
ATOM     77  C   UNL A   1      36.004  29.887  28.960  1.00  0.00     0.006 A 
ENDBRANCH  49  70
BRANCH  61  78
ATOM     78  C   UNL A   1      44.419  32.545  31.131  1.00  0.00     0.057 A 
ATOM     79  C   UNL A   1      44.401  32.854  32.496  1.00  0.00     0.134 A 
ATOM     80  C   UNL A   1      44.691  33.585  30.233  1.00  0.00     0.134 A 
ATOM     81  F   UNL A   1      44.133  31.905  33.404  1.00  0.00    -0.206 F 
ATOM     82  C   UNL A   1      44.631  34.154  32.951  1.00  0.00     0.040 A 
ATOM     83  C   UNL A   1      44.942  34.884  30.677  1.00  0.00     0.040 A 
ATOM     84  F   UNL A   1      44.729  33.353  28.913  1.00  0.00    -0.206 F 
ATOM     85  C   UNL A   1      44.908  35.172  32.040  1.00  0.00     0.006 A 
ENDBRANCH  61  78
ENDBRANCH  35  36
ENDBRANCH  27  30
ENDBRANCH  25  26
ENDBRANCH  24  25
ENDBRANCH   1  24
TORSDOF 17
ENDMDL
