MODEL 1
REMARK VINA RESULT:     -12.0      0.000      0.000
REMARK SMILES CCC(CC)COc1cc2c(cc1Cl)C=C(C(=O)NCCCNC(=O)c1ccc(-c3c4nc(c(-c5c(F)cccc5F)c5ccc([nH]5)c(-c5c(F)cccc5F)c5nc(c(-c6c(F)cccc6F)c6ccc3[nH]6)C=C5)C=C4)cc1)[C@@H](C(F)(F)F)O2
REMARK SMILES IDX 20 1 19 2 17 3 18 4 16 6 8 7 9 8 13 9 10 10 12 11 14 12
REMARK SMILES IDX 11 13 85 14 15 15 80 16 7 17 6 18 3 19 2 20 1 21 4 22 5 23
REMARK SMILES IDX 81 24 82 25 83 26 84 27 21 28 22 29 23 30 24 31 25 33 26 34
REMARK SMILES IDX 27 35 79 36 28 37 78 38 29 39 30 40 31 41 72 42 32 43 77 44
REMARK SMILES IDX 71 45 73 46 33 47 76 48 70 49 69 50 34 52 60 53 43 54 59 55
REMARK SMILES IDX 44 56 47 57 58 58 74 59 45 60 46 61 57 63 75 64 48 65 35 66
REMARK SMILES IDX 36 67 41 68 37 69 38 70 40 71 42 72 39 73 61 74 62 75 67 76
REMARK SMILES IDX 63 77 64 78 66 79 68 80 65 81 49 82 50 83 55 84 51 85 52 86
REMARK SMILES IDX 54 87 56 88 53 89
REMARK H PARENT 19 5 23 32 73 51 47 62
REMARK Flexibility Score: inf
ROOT
ATOM      1  C   UNL A   1      36.460  20.882  25.163  1.00  0.00     0.118 C 
ENDROOT
BRANCH   1   2
ATOM      2  N   UNL A   1      35.326  19.977  25.099  1.00  0.00    -0.352 N 
ATOM      3  C   UNL A   1      33.986  20.096  24.977  1.00  0.00     0.251 C 
ATOM      4  O   UNL A   1      33.358  19.033  24.975  1.00  0.00    -0.270 OA
ATOM      5  H   UNL A   1      35.605  19.036  25.158  1.00  0.00     0.163 HD
BRANCH   3   6
ATOM      6  C   UNL A   1      33.260  21.382  24.844  1.00  0.00     0.067 C 
ATOM      7  C   UNL A   1      31.383  25.682  23.145  1.00  0.00     0.141 A 
ATOM      8  C   UNL A   1      30.837  24.655  23.916  1.00  0.00     0.095 A 
ATOM      9  C   UNL A   1      32.726  25.623  22.742  1.00  0.00     0.083 A 
ATOM     10  C   UNL A   1      31.617  23.537  24.184  1.00  0.00     0.131 A 
ATOM     11  C   UNL A   1      33.450  24.444  22.900  1.00  0.00     0.036 A 
ATOM     12  Cl  UNL A   1      33.531  26.972  22.028  1.00  0.00    -0.080 Cl
ATOM     13  C   UNL A   1      32.882  23.386  23.600  1.00  0.00     0.019 A 
ATOM     14  O   UNL A   1      31.135  22.600  25.067  1.00  0.00    -0.475 OA
ATOM     15  C   UNL A   1      33.584  22.123  23.770  1.00  0.00     0.025 C 
ATOM     16  C   UNL A   1      32.207  21.902  25.783  1.00  0.00     0.314 C 
BRANCH   7  17
ATOM     17  O   UNL A   1      30.603  26.757  22.810  1.00  0.00    -0.492 OA
BRANCH  17  18
ATOM     18  C   UNL A   1      30.133  27.480  23.974  1.00  0.00     0.233 C 
BRANCH  18  19
ATOM     19  C   UNL A   1      31.292  28.186  24.723  1.00  0.00     0.026 C 
BRANCH  19  20
ATOM     20  C   UNL A   1      31.078  29.718  24.778  1.00  0.00     0.003 C 
ATOM     21  C   UNL A   1      31.884  30.386  25.883  1.00  0.00     0.004 C 
ENDBRANCH  19  20
BRANCH  19  22
ATOM     22  C   UNL A   1      31.540  27.579  26.120  1.00  0.00     0.003 C 
ATOM     23  C   UNL A   1      32.866  26.856  26.299  1.00  0.00     0.004 C 
ENDBRANCH  19  22
ENDBRANCH  18  19
ENDBRANCH  17  18
ENDBRANCH   7  17
BRANCH  16  24
ATOM     24  C   UNL A   1      32.811  22.795  26.900  1.00  0.00     0.429 C 
ATOM     25  F   UNL A   1      33.118  22.049  27.990  1.00  0.00    -0.167 F 
ATOM     26  F   UNL A   1      33.962  23.397  26.506  1.00  0.00    -0.167 F 
ATOM     27  F   UNL A   1      31.988  23.786  27.308  1.00  0.00    -0.167 F 
ENDBRANCH  16  24
ENDBRANCH   3   6
ENDBRANCH   1   2
BRANCH   1  28
ATOM     28  C   UNL A   1      37.753  20.165  24.815  1.00  0.00     0.042 C 
BRANCH  28  29
ATOM     29  C   UNL A   1      38.885  20.530  25.763  1.00  0.00     0.118 C 
BRANCH  29  30
ATOM     30  N   UNL A   1      39.917  19.499  25.809  1.00  0.00    -0.352 N 
ATOM     31  C   UNL A   1      41.264  19.602  26.072  1.00  0.00     0.251 C 
ATOM     32  H   UNL A   1      39.599  18.585  25.621  1.00  0.00     0.163 HD
ATOM     33  O   UNL A   1      42.011  18.666  25.836  1.00  0.00    -0.269 OA
BRANCH  31  34
ATOM     34  C   UNL A   1      41.803  20.865  26.618  1.00  0.00     0.039 A 
ATOM     35  C   UNL A   1      41.859  21.065  27.996  1.00  0.00     0.014 A 
ATOM     36  C   UNL A   1      42.236  21.867  25.745  1.00  0.00     0.014 A 
ATOM     37  C   UNL A   1      42.136  22.329  28.495  1.00  0.00     0.010 A 
ATOM     38  C   UNL A   1      42.633  23.104  26.258  1.00  0.00     0.010 A 
ATOM     39  C   UNL A   1      42.529  23.364  27.634  1.00  0.00    -0.014 A 
BRANCH  39  40
ATOM     40  C   UNL A   1      42.814  24.704  28.206  1.00  0.00     0.031 A 
ATOM     41  C   UNL A   1      44.228  25.140  28.482  1.00  0.00     0.074 A 
ATOM     42  C   UNL A   1      41.792  25.560  28.403  1.00  0.00     0.049 A 
ATOM     43  N   UNL A   1      44.663  26.286  28.945  1.00  0.00    -0.248 NA
ATOM     44  C   UNL A   1      45.295  24.164  28.211  1.00  0.00     0.031 C 
ATOM     45  C   UNL A   1      40.380  25.259  28.151  1.00  0.00     0.029 A 
ATOM     46  N   UNL A   1      41.783  26.866  28.815  1.00  0.00    -0.354 N 
ATOM     47  C   UNL A   1      46.042  26.156  29.054  1.00  0.00     0.074 A 
ATOM     48  C   UNL A   1      46.372  24.813  28.629  1.00  0.00     0.031 C 
ATOM     49  C   UNL A   1      39.654  26.371  28.333  1.00  0.00     0.029 A 
ATOM     50  C   UNL A   1      40.535  27.438  28.793  1.00  0.00     0.049 A 
ATOM     51  H   UNL A   1      42.593  27.349  29.101  1.00  0.00     0.167 HD
ATOM     52  C   UNL A   1      46.951  27.073  29.465  1.00  0.00     0.037 A 
ATOM     53  C   UNL A   1      40.139  28.682  29.119  1.00  0.00     0.037 A 
ATOM     54  C   UNL A   1      46.621  28.420  29.857  1.00  0.00     0.049 A 
ATOM     55  C   UNL A   1      41.160  29.659  29.622  1.00  0.00     0.074 A 
ATOM     56  C   UNL A   1      47.471  29.440  30.248  1.00  0.00     0.029 A 
ATOM     57  N   UNL A   1      45.333  28.933  29.908  1.00  0.00    -0.354 N 
ATOM     58  N   UNL A   1      42.461  29.523  29.712  1.00  0.00    -0.248 NA
ATOM     59  C   UNL A   1      40.652  30.954  30.089  1.00  0.00     0.031 C 
ATOM     60  C   UNL A   1      46.694  30.556  30.581  1.00  0.00     0.029 A 
ATOM     61  C   UNL A   1      45.362  30.245  30.355  1.00  0.00     0.049 A 
ATOM     62  H   UNL A   1      44.518  28.439  29.663  1.00  0.00     0.167 HD
ATOM     63  C   UNL A   1      42.930  30.720  30.234  1.00  0.00     0.074 A 
ATOM     64  C   UNL A   1      41.774  31.576  30.419  1.00  0.00     0.031 C 
ATOM     65  C   UNL A   1      44.201  31.078  30.539  1.00  0.00     0.037 A 
BRANCH  52  66
ATOM     66  C   UNL A   1      48.386  26.635  29.546  1.00  0.00     0.057 A 
ATOM     67  C   UNL A   1      48.868  25.999  30.696  1.00  0.00     0.134 A 
ATOM     68  C   UNL A   1      49.290  26.843  28.497  1.00  0.00     0.134 A 
ATOM     69  F   UNL A   1      48.057  25.773  31.741  1.00  0.00    -0.206 F 
ATOM     70  C   UNL A   1      50.196  25.580  30.799  1.00  0.00     0.040 A 
ATOM     71  C   UNL A   1      50.616  26.406  28.578  1.00  0.00     0.040 A 
ATOM     72  F   UNL A   1      48.892  27.433  27.360  1.00  0.00    -0.206 F 
ATOM     73  C   UNL A   1      51.071  25.775  29.734  1.00  0.00     0.006 A 
ENDBRANCH  52  66
BRANCH  53  74
ATOM     74  C   UNL A   1      38.714  29.069  28.990  1.00  0.00     0.057 A 
ATOM     75  C   UNL A   1      37.830  28.992  30.074  1.00  0.00     0.134 A 
ATOM     76  C   UNL A   1      38.202  29.531  27.772  1.00  0.00     0.134 A 
ATOM     77  F   UNL A   1      38.259  28.554  31.267  1.00  0.00    -0.206 F 
ATOM     78  C   UNL A   1      36.487  29.346  29.949  1.00  0.00     0.040 A 
ATOM     79  C   UNL A   1      36.867  29.914  27.639  1.00  0.00     0.040 A 
ATOM     80  F   UNL A   1      39.005  29.644  26.703  1.00  0.00    -0.206 F 
ATOM     81  C   UNL A   1      36.004  29.816  28.729  1.00  0.00     0.006 A 
ENDBRANCH  53  74
BRANCH  65  82
ATOM     82  C   UNL A   1      44.397  32.462  31.080  1.00  0.00     0.057 A 
ATOM     83  C   UNL A   1      44.589  33.546  30.217  1.00  0.00     0.134 A 
ATOM     84  C   UNL A   1      44.392  32.721  32.457  1.00  0.00     0.134 A 
ATOM     85  F   UNL A   1      44.609  33.364  28.888  1.00  0.00    -0.206 F 
ATOM     86  C   UNL A   1      44.766  34.842  30.702  1.00  0.00     0.040 A 
ATOM     87  C   UNL A   1      44.541  34.016  32.954  1.00  0.00     0.040 A 
ATOM     88  F   UNL A   1      44.192  31.726  33.336  1.00  0.00    -0.206 F 
ATOM     89  C   UNL A   1      44.733  35.081  32.075  1.00  0.00     0.006 A 
ENDBRANCH  65  82
ENDBRANCH  39  40
ENDBRANCH  31  34
ENDBRANCH  29  30
ENDBRANCH  28  29
ENDBRANCH   1  28
TORSDOF 16
ENDMDL
MODEL 2
REMARK VINA RESULT:     -11.9      1.205      1.591
REMARK SMILES CCC(CC)COc1cc2c(cc1Cl)C=C(C(=O)NCCCNC(=O)c1ccc(-c3c4nc(c(-c5c(F)cccc5F)c5ccc([nH]5)c(-c5c(F)cccc5F)c5nc(c(-c6c(F)cccc6F)c6ccc3[nH]6)C=C5)C=C4)cc1)[C@@H](C(F)(F)F)O2
REMARK SMILES IDX 20 1 19 2 17 3 18 4 16 6 8 7 9 8 13 9 10 10 12 11 14 12
REMARK SMILES IDX 11 13 85 14 15 15 80 16 7 17 6 18 3 19 2 20 1 21 4 22 5 23
REMARK SMILES IDX 81 24 82 25 83 26 84 27 21 28 22 29 23 30 24 31 25 33 26 34
REMARK SMILES IDX 27 35 79 36 28 37 78 38 29 39 30 40 31 41 72 42 32 43 77 44
REMARK SMILES IDX 71 45 73 46 33 47 76 48 70 49 69 50 34 52 60 53 43 54 59 55
REMARK SMILES IDX 44 56 47 57 58 58 74 59 45 60 46 61 57 63 75 64 48 65 35 66
REMARK SMILES IDX 36 67 41 68 37 69 38 70 40 71 42 72 39 73 61 74 62 75 67 76
REMARK SMILES IDX 63 77 64 78 66 79 68 80 65 81 49 82 50 83 55 84 51 85 52 86
REMARK SMILES IDX 54 87 56 88 53 89
REMARK H PARENT 19 5 23 32 73 51 47 62
REMARK Flexibility Score: inf
ROOT
ATOM      1  C   UNL A   1      36.417  21.313  24.841  1.00  0.00     0.118 C 
ENDROOT
BRANCH   1   2
ATOM      2  N   UNL A   1      35.584  21.188  26.024  1.00  0.00    -0.352 N 
ATOM      3  C   UNL A   1      34.490  21.807  26.520  1.00  0.00     0.251 C 
ATOM      4  O   UNL A   1      34.089  21.383  27.607  1.00  0.00    -0.270 OA
ATOM      5  H   UNL A   1      35.896  20.468  26.616  1.00  0.00     0.163 HD
BRANCH   3   6
ATOM      6  C   UNL A   1      33.772  22.918  25.851  1.00  0.00     0.067 C 
ATOM      7  C   UNL A   1      32.542  27.308  23.821  1.00  0.00     0.141 A 
ATOM      8  C   UNL A   1      32.288  25.990  23.440  1.00  0.00     0.095 A 
ATOM      9  C   UNL A   1      33.236  27.577  25.011  1.00  0.00     0.083 A 
ATOM     10  C   UNL A   1      32.823  24.961  24.205  1.00  0.00     0.131 A 
ATOM     11  C   UNL A   1      33.880  26.545  25.690  1.00  0.00     0.036 A 
ATOM     12  Cl  UNL A   1      33.344  29.166  25.673  1.00  0.00    -0.080 Cl
ATOM     13  C   UNL A   1      33.695  25.234  25.268  1.00  0.00     0.019 A 
ATOM     14  O   UNL A   1      32.447  23.670  23.919  1.00  0.00    -0.475 OA
ATOM     15  C   UNL A   1      34.366  24.122  25.925  1.00  0.00     0.025 C 
ATOM     16  C   UNL A   1      32.473  22.805  25.102  1.00  0.00     0.314 C 
BRANCH   7  17
ATOM     17  O   UNL A   1      32.082  28.333  23.037  1.00  0.00    -0.492 OA
BRANCH  17  18
ATOM     18  C   UNL A   1      30.820  28.018  22.402  1.00  0.00     0.233 C 
BRANCH  18  19
ATOM     19  C   UNL A   1      29.641  28.790  23.047  1.00  0.00     0.026 C 
BRANCH  19  20
ATOM     20  C   UNL A   1      29.288  30.061  22.238  1.00  0.00     0.003 C 
ATOM     21  C   UNL A   1      28.003  30.726  22.714  1.00  0.00     0.004 C 
ENDBRANCH  19  20
BRANCH  19  22
ATOM     22  C   UNL A   1      28.412  27.888  23.283  1.00  0.00     0.003 C 
ATOM     23  C   UNL A   1      28.697  26.540  23.929  1.00  0.00     0.004 C 
ENDBRANCH  19  22
ENDBRANCH  18  19
ENDBRANCH  17  18
ENDBRANCH   7  17
BRANCH  16  24
ATOM     24  C   UNL A   1      31.247  23.068  26.017  1.00  0.00     0.429 C 
ATOM     25  F   UNL A   1      30.471  21.960  26.103  1.00  0.00    -0.167 F 
ATOM     26  F   UNL A   1      31.615  23.381  27.286  1.00  0.00    -0.167 F 
ATOM     27  F   UNL A   1      30.459  24.081  25.593  1.00  0.00    -0.167 F 
ENDBRANCH  16  24
ENDBRANCH   3   6
ENDBRANCH   1   2
BRANCH   1  28
ATOM     28  C   UNL A   1      37.504  20.252  24.822  1.00  0.00     0.042 C 
BRANCH  28  29
ATOM     29  C   UNL A   1      38.679  20.616  25.717  1.00  0.00     0.118 C 
BRANCH  29  30
ATOM     30  N   UNL A   1      39.701  19.575  25.730  1.00  0.00    -0.352 N 
ATOM     31  C   UNL A   1      41.051  19.661  25.988  1.00  0.00     0.251 C 
ATOM     32  H   UNL A   1      39.375  18.670  25.520  1.00  0.00     0.163 HD
ATOM     33  O   UNL A   1      41.788  18.724  25.724  1.00  0.00    -0.269 OA
BRANCH  31  34
ATOM     34  C   UNL A   1      41.604  20.905  26.563  1.00  0.00     0.039 A 
ATOM     35  C   UNL A   1      41.591  21.104  27.943  1.00  0.00     0.014 A 
ATOM     36  C   UNL A   1      42.119  21.889  25.716  1.00  0.00     0.014 A 
ATOM     37  C   UNL A   1      41.885  22.358  28.456  1.00  0.00     0.010 A 
ATOM     38  C   UNL A   1      42.531  23.112  26.251  1.00  0.00     0.010 A 
ATOM     39  C   UNL A   1      42.361  23.378  27.619  1.00  0.00    -0.014 A 
BRANCH  39  40
ATOM     40  C   UNL A   1      42.661  24.708  28.207  1.00  0.00     0.031 A 
ATOM     41  C   UNL A   1      44.080  25.117  28.505  1.00  0.00     0.074 A 
ATOM     42  C   UNL A   1      41.652  25.580  28.398  1.00  0.00     0.049 A 
ATOM     43  N   UNL A   1      44.528  26.251  28.983  1.00  0.00    -0.248 NA
ATOM     44  C   UNL A   1      45.133  24.125  28.239  1.00  0.00     0.031 C 
ATOM     45  C   UNL A   1      40.238  25.305  28.125  1.00  0.00     0.029 A 
ATOM     46  N   UNL A   1      41.660  26.882  28.822  1.00  0.00    -0.354 N 
ATOM     47  C   UNL A   1      45.903  26.096  29.109  1.00  0.00     0.074 A 
ATOM     48  C   UNL A   1      46.216  24.751  28.676  1.00  0.00     0.031 C 
ATOM     49  C   UNL A   1      39.530  26.428  28.308  1.00  0.00     0.029 A 
ATOM     50  C   UNL A   1      40.423  27.476  28.788  1.00  0.00     0.049 A 
ATOM     51  H   UNL A   1      42.475  27.348  29.122  1.00  0.00     0.167 HD
ATOM     52  C   UNL A   1      46.822  26.994  29.539  1.00  0.00     0.037 A 
ATOM     53  C   UNL A   1      40.044  28.723  29.121  1.00  0.00     0.037 A 
ATOM     54  C   UNL A   1      46.511  28.342  29.939  1.00  0.00     0.049 A 
ATOM     55  C   UNL A   1      41.075  29.678  29.645  1.00  0.00     0.074 A 
ATOM     56  C   UNL A   1      47.373  29.344  30.350  1.00  0.00     0.029 A 
ATOM     57  N   UNL A   1      45.231  28.877  29.978  1.00  0.00    -0.354 N 
ATOM     58  N   UNL A   1      42.372  29.518  29.750  1.00  0.00    -0.248 NA
ATOM     59  C   UNL A   1      40.583  30.978  30.117  1.00  0.00     0.031 C 
ATOM     60  C   UNL A   1      46.610  30.470  30.682  1.00  0.00     0.029 A 
ATOM     61  C   UNL A   1      45.277  30.184  30.437  1.00  0.00     0.049 A 
ATOM     62  H   UNL A   1      44.410  28.399  29.718  1.00  0.00     0.167 HD
ATOM     63  C   UNL A   1      42.855  30.703  30.289  1.00  0.00     0.074 A 
ATOM     64  C   UNL A   1      41.712  31.577  30.466  1.00  0.00     0.031 C 
ATOM     65  C   UNL A   1      44.128  31.035  30.613  1.00  0.00     0.037 A 
BRANCH  52  66
ATOM     66  C   UNL A   1      48.248  26.530  29.634  1.00  0.00     0.057 A 
ATOM     67  C   UNL A   1      48.706  25.881  30.788  1.00  0.00     0.134 A 
ATOM     68  C   UNL A   1      49.168  26.726  28.597  1.00  0.00     0.134 A 
ATOM     69  F   UNL A   1      47.879  25.666  31.823  1.00  0.00    -0.206 F 
ATOM     70  C   UNL A   1      50.025  25.438  30.904  1.00  0.00     0.040 A 
ATOM     71  C   UNL A   1      50.484  26.265  28.691  1.00  0.00     0.040 A 
ATOM     72  F   UNL A   1      48.792  27.326  27.457  1.00  0.00    -0.206 F 
ATOM     73  C   UNL A   1      50.916  25.622  29.850  1.00  0.00     0.006 A 
ENDBRANCH  52  66
BRANCH  53  74
ATOM     74  C   UNL A   1      38.627  29.136  28.977  1.00  0.00     0.057 A 
ATOM     75  C   UNL A   1      37.737  29.095  30.057  1.00  0.00     0.134 A 
ATOM     76  C   UNL A   1      38.131  29.586  27.748  1.00  0.00     0.134 A 
ATOM     77  F   UNL A   1      38.151  28.670  31.260  1.00  0.00    -0.206 F 
ATOM     78  C   UNL A   1      36.402  29.474  29.918  1.00  0.00     0.040 A 
ATOM     79  C   UNL A   1      36.805  29.993  27.600  1.00  0.00     0.040 A 
ATOM     80  F   UNL A   1      38.942  29.665  26.682  1.00  0.00    -0.206 F 
ATOM     81  C   UNL A   1      35.934  29.931  28.687  1.00  0.00     0.006 A 
ENDBRANCH  53  74
BRANCH  65  82
ATOM     82  C   UNL A   1      44.341  32.411  31.169  1.00  0.00     0.057 A 
ATOM     83  C   UNL A   1      44.558  33.501  30.318  1.00  0.00     0.134 A 
ATOM     84  C   UNL A   1      44.327  32.658  32.548  1.00  0.00     0.134 A 
ATOM     85  F   UNL A   1      44.588  33.330  28.987  1.00  0.00    -0.206 F 
ATOM     86  C   UNL A   1      44.750  34.788  30.817  1.00  0.00     0.040 A 
ATOM     87  C   UNL A   1      44.492  33.946  33.058  1.00  0.00     0.040 A 
ATOM     88  F   UNL A   1      44.103  31.658  33.416  1.00  0.00    -0.206 F 
ATOM     89  C   UNL A   1      44.708  35.015  32.192  1.00  0.00     0.006 A 
ENDBRANCH  65  82
ENDBRANCH  39  40
ENDBRANCH  31  34
ENDBRANCH  29  30
ENDBRANCH  28  29
ENDBRANCH   1  28
TORSDOF 16
ENDMDL
MODEL 3
REMARK VINA RESULT:     -11.9      1.631      2.175
REMARK SMILES CCC(CC)COc1cc2c(cc1Cl)C=C(C(=O)NCCCNC(=O)c1ccc(-c3c4nc(c(-c5c(F)cccc5F)c5ccc([nH]5)c(-c5c(F)cccc5F)c5nc(c(-c6c(F)cccc6F)c6ccc3[nH]6)C=C5)C=C4)cc1)[C@@H](C(F)(F)F)O2
REMARK SMILES IDX 20 1 19 2 17 3 18 4 16 6 8 7 9 8 13 9 10 10 12 11 14 12
REMARK SMILES IDX 11 13 85 14 15 15 80 16 7 17 6 18 3 19 2 20 1 21 4 22 5 23
REMARK SMILES IDX 81 24 82 25 83 26 84 27 21 28 22 29 23 30 24 31 25 33 26 34
REMARK SMILES IDX 27 35 79 36 28 37 78 38 29 39 30 40 31 41 72 42 32 43 77 44
REMARK SMILES IDX 71 45 73 46 33 47 76 48 70 49 69 50 34 52 60 53 43 54 59 55
REMARK SMILES IDX 44 56 47 57 58 58 74 59 45 60 46 61 57 63 75 64 48 65 35 66
REMARK SMILES IDX 36 67 41 68 37 69 38 70 40 71 42 72 39 73 61 74 62 75 67 76
REMARK SMILES IDX 63 77 64 78 66 79 68 80 65 81 49 82 50 83 55 84 51 85 52 86
REMARK SMILES IDX 54 87 56 88 53 89
REMARK H PARENT 19 5 23 32 73 51 47 62
REMARK Flexibility Score: inf
ROOT
ATOM      1  C   UNL A   1      36.704  20.932  25.049  1.00  0.00     0.118 C 
ENDROOT
BRANCH   1   2
ATOM      2  N   UNL A   1      35.398  20.349  25.296  1.00  0.00    -0.352 N 
ATOM      3  C   UNL A   1      34.113  20.758  25.215  1.00  0.00     0.251 C 
ATOM      4  O   UNL A   1      33.268  19.919  25.540  1.00  0.00    -0.270 OA
ATOM      5  H   UNL A   1      35.465  19.416  25.599  1.00  0.00     0.163 HD
BRANCH   3   6
ATOM      6  C   UNL A   1      33.682  22.104  24.768  1.00  0.00     0.067 C 
ATOM      7  C   UNL A   1      31.771  25.922  22.184  1.00  0.00     0.141 A 
ATOM      8  C   UNL A   1      31.769  25.611  23.544  1.00  0.00     0.095 A 
ATOM      9  C   UNL A   1      32.445  25.095  21.272  1.00  0.00     0.083 A 
ATOM     10  C   UNL A   1      32.355  24.420  23.955  1.00  0.00     0.131 A 
ATOM     11  C   UNL A   1      32.907  23.844  21.675  1.00  0.00     0.036 A 
ATOM     12  Cl  UNL A   1      32.715  25.561  19.633  1.00  0.00    -0.080 Cl
ATOM     13  C   UNL A   1      32.835  23.494  23.018  1.00  0.00     0.019 A 
ATOM     14  O   UNL A   1      32.488  24.188  25.303  1.00  0.00    -0.475 OA
ATOM     15  C   UNL A   1      33.278  22.190  23.488  1.00  0.00     0.025 C 
ATOM     16  C   UNL A   1      33.648  23.347  25.615  1.00  0.00     0.314 C 
BRANCH   7  17
ATOM     17  O   UNL A   1      31.135  27.056  21.754  1.00  0.00    -0.492 OA
BRANCH  17  18
ATOM     18  C   UNL A   1      30.290  27.635  22.778  1.00  0.00     0.233 C 
BRANCH  18  19
ATOM     19  C   UNL A   1      30.317  29.184  22.741  1.00  0.00     0.026 C 
BRANCH  19  20
ATOM     20  C   UNL A   1      29.028  29.757  22.102  1.00  0.00     0.003 C 
ATOM     21  C   UNL A   1      27.936  30.035  23.125  1.00  0.00     0.004 C 
ENDBRANCH  19  20
BRANCH  19  22
ATOM     22  C   UNL A   1      30.604  29.797  24.127  1.00  0.00     0.003 C 
ATOM     23  C   UNL A   1      31.416  28.930  25.077  1.00  0.00     0.004 C 
ENDBRANCH  19  22
ENDBRANCH  18  19
ENDBRANCH  17  18
ENDBRANCH   7  17
BRANCH  16  24
ATOM     24  C   UNL A   1      34.970  24.155  25.519  1.00  0.00     0.429 C 
ATOM     25  F   UNL A   1      34.733  25.477  25.705  1.00  0.00    -0.167 F 
ATOM     26  F   UNL A   1      35.865  23.784  26.470  1.00  0.00    -0.167 F 
ATOM     27  F   UNL A   1      35.604  24.022  24.333  1.00  0.00    -0.167 F 
ENDBRANCH  16  24
ENDBRANCH   3   6
ENDBRANCH   1   2
BRANCH   1  28
ATOM     28  C   UNL A   1      37.780  19.860  24.990  1.00  0.00     0.042 C 
BRANCH  28  29
ATOM     29  C   UNL A   1      39.041  20.270  25.736  1.00  0.00     0.118 C 
BRANCH  29  30
ATOM     30  N   UNL A   1      40.004  19.178  25.826  1.00  0.00    -0.352 N 
ATOM     31  C   UNL A   1      41.369  19.211  25.999  1.00  0.00     0.251 C 
ATOM     32  H   UNL A   1      39.617  18.275  25.751  1.00  0.00     0.163 HD
ATOM     33  O   UNL A   1      42.037  18.205  25.817  1.00  0.00    -0.269 OA
BRANCH  31  34
ATOM     34  C   UNL A   1      42.023  20.480  26.382  1.00  0.00     0.039 A 
ATOM     35  C   UNL A   1      42.060  20.872  27.719  1.00  0.00     0.014 A 
ATOM     36  C   UNL A   1      42.584  21.294  25.395  1.00  0.00     0.014 A 
ATOM     37  C   UNL A   1      42.455  22.162  28.043  1.00  0.00     0.010 A 
ATOM     38  C   UNL A   1      43.095  22.547  25.743  1.00  0.00     0.010 A 
ATOM     39  C   UNL A   1      42.980  23.015  27.061  1.00  0.00    -0.014 A 
BRANCH  39  40
ATOM     40  C   UNL A   1      43.388  24.389  27.448  1.00  0.00     0.031 A 
ATOM     41  C   UNL A   1      44.813  24.846  27.280  1.00  0.00     0.074 A 
ATOM     42  C   UNL A   1      42.447  25.252  27.879  1.00  0.00     0.049 A 
ATOM     43  N   UNL A   1      45.338  26.020  27.530  1.00  0.00    -0.248 NA
ATOM     44  C   UNL A   1      45.778  23.859  26.772  1.00  0.00     0.031 C 
ATOM     45  C   UNL A   1      41.029  24.931  28.061  1.00  0.00     0.029 A 
ATOM     46  N   UNL A   1      42.530  26.582  28.199  1.00  0.00    -0.354 N 
ATOM     47  C   UNL A   1      46.693  25.901  27.247  1.00  0.00     0.074 A 
ATOM     48  C   UNL A   1      46.916  24.536  26.824  1.00  0.00     0.031 C 
ATOM     49  C   UNL A   1      40.363  26.050  28.378  1.00  0.00     0.029 A 
ATOM     50  C   UNL A   1      41.315  27.147  28.502  1.00  0.00     0.049 A 
ATOM     51  H   UNL A   1      43.377  27.084  28.211  1.00  0.00     0.167 HD
ATOM     52  C   UNL A   1      47.661  26.846  27.324  1.00  0.00     0.037 A 
ATOM     53  C   UNL A   1      41.004  28.407  28.854  1.00  0.00     0.037 A 
ATOM     54  C   UNL A   1      47.429  28.213  27.715  1.00  0.00     0.049 A 
ATOM     55  C   UNL A   1      42.105  29.417  28.984  1.00  0.00     0.074 A 
ATOM     56  C   UNL A   1      48.334  29.259  27.785  1.00  0.00     0.029 A 
ATOM     57  N   UNL A   1      46.199  28.724  28.103  1.00  0.00    -0.354 N 
ATOM     58  N   UNL A   1      43.379  29.291  28.705  1.00  0.00    -0.248 NA
ATOM     59  C   UNL A   1      41.725  30.737  29.501  1.00  0.00     0.031 C 
ATOM     60  C   UNL A   1      47.661  30.390  28.260  1.00  0.00     0.029 A 
ATOM     61  C   UNL A   1      46.328  30.061  28.444  1.00  0.00     0.049 A 
ATOM     62  H   UNL A   1      45.359  28.213  28.132  1.00  0.00     0.167 HD
ATOM     63  C   UNL A   1      43.953  30.520  28.999  1.00  0.00     0.074 A 
ATOM     64  C   UNL A   1      42.881  31.382  29.457  1.00  0.00     0.031 C 
ATOM     65  C   UNL A   1      45.250  30.900  28.905  1.00  0.00     0.037 A 
BRANCH  52  66
ATOM     66  C   UNL A   1      49.068  26.418  27.015  1.00  0.00     0.057 A 
ATOM     67  C   UNL A   1      49.549  26.461  25.701  1.00  0.00     0.134 A 
ATOM     68  C   UNL A   1      49.944  25.960  28.008  1.00  0.00     0.134 A 
ATOM     69  F   UNL A   1      48.761  26.883  24.700  1.00  0.00    -0.206 F 
ATOM     70  C   UNL A   1      50.852  26.070  25.384  1.00  0.00     0.040 A 
ATOM     71  C   UNL A   1      51.259  25.591  27.708  1.00  0.00     0.040 A 
ATOM     72  F   UNL A   1      49.554  25.908  29.290  1.00  0.00    -0.206 F 
ATOM     73  C   UNL A   1      51.713  25.642  26.391  1.00  0.00     0.006 A 
ENDBRANCH  52  66
BRANCH  53  74
ATOM     74  C   UNL A   1      39.593  28.781  29.118  1.00  0.00     0.057 A 
ATOM     75  C   UNL A   1      39.028  28.667  30.394  1.00  0.00     0.134 A 
ATOM     76  C   UNL A   1      38.775  29.266  28.091  1.00  0.00     0.134 A 
ATOM     77  F   UNL A   1      39.760  28.205  31.419  1.00  0.00    -0.206 F 
ATOM     78  C   UNL A   1      37.698  29.008  30.638  1.00  0.00     0.040 A 
ATOM     79  C   UNL A   1      37.450  29.637  28.326  1.00  0.00     0.040 A 
ATOM     80  F   UNL A   1      39.265  29.415  26.851  1.00  0.00    -0.206 F 
ATOM     81  C   UNL A   1      36.907  29.502  29.602  1.00  0.00     0.006 A 
ENDBRANCH  53  74
BRANCH  65  82
ATOM     82  C   UNL A   1      45.564  32.316  29.285  1.00  0.00     0.057 A 
ATOM     83  C   UNL A   1      45.466  33.347  28.343  1.00  0.00     0.134 A 
ATOM     84  C   UNL A   1      45.960  32.659  30.584  1.00  0.00     0.134 A 
ATOM     85  F   UNL A   1      45.096  33.084  27.081  1.00  0.00    -0.206 F 
ATOM     86  C   UNL A   1      45.746  34.671  28.681  1.00  0.00     0.040 A 
ATOM     87  C   UNL A   1      46.217  33.982  30.940  1.00  0.00     0.040 A 
ATOM     88  F   UNL A   1      46.053  31.718  31.537  1.00  0.00    -0.206 F 
ATOM     89  C   UNL A   1      46.115  34.993  29.986  1.00  0.00     0.006 A 
ENDBRANCH  65  82
ENDBRANCH  39  40
ENDBRANCH  31  34
ENDBRANCH  29  30
ENDBRANCH  28  29
ENDBRANCH   1  28
TORSDOF 16
ENDMDL
