MODEL 1
REMARK VINA RESULT:     -13.7      0.000      0.000
REMARK SMILES O=C(CCNc1cc(N2CCC3(CC2)OCCO3)c2noc3c2c1C(=O)c1ccccc1-3)NCCCNC(=O)c1ccc(-c2c3nc(c(-c4c(F)cccc4F)c4ccc([nH]4)c(-c4c(F)cccc4F)c4nc(c(-c5c(F)cccc5F)c5ccc2[nH]5)C=C4)C=C3)cc1
REMARK SMILES IDX 34 1 33 2 1 3 2 4 3 6 4 7 5 8 6 10 7 11 24 12 8 13 23 14
REMARK SMILES IDX 25 15 19 16 22 17 26 18 27 19 20 20 21 21 32 22 28 23 31 24
REMARK SMILES IDX 29 25 30 26 9 27 10 28 14 29 11 30 13 31 12 32 15 33 18 34
REMARK SMILES IDX 16 35 17 36 35 37 36 38 37 39 38 40 39 42 40 43 41 44 93 45
REMARK SMILES IDX 42 46 92 47 43 48 44 49 45 50 86 51 46 52 91 53 85 54 87 55
REMARK SMILES IDX 47 56 90 57 84 58 83 59 48 61 74 62 57 63 73 64 58 65 61 66
REMARK SMILES IDX 72 67 88 68 59 69 60 70 71 72 89 73 62 74 49 75 50 76 55 77
REMARK SMILES IDX 51 78 52 79 54 80 56 81 53 82 75 83 76 84 81 85 77 86 78 87
REMARK SMILES IDX 80 88 82 89 79 90 63 91 64 92 69 93 65 94 66 95 68 96 70 97
REMARK SMILES IDX 67 98
REMARK H PARENT 33 5 5 9 37 41 87 60 61 71
REMARK Flexibility Score: inf
ROOT
ATOM      1  C   UNL A   1      42.390  23.459  26.382  1.00  0.00     0.117 C 
ENDROOT
BRANCH   1   2
ATOM      2  N   UNL A   1      41.134  22.857  25.992  1.00  0.00    -0.356 N 
ATOM      3  O   UNL A   1      40.600  21.784  27.949  1.00  0.00    -0.275 OA
ATOM      4  C   UNL A   1      40.360  22.042  26.776  1.00  0.00     0.221 C 
ATOM      5  H   UNL A   1      40.807  23.049  25.084  1.00  0.00     0.163 HD
BRANCH   4   6
ATOM      6  C   UNL A   1      39.227  21.389  26.008  1.00  0.00     0.121 C 
BRANCH   6   7
ATOM      7  C   UNL A   1      38.050  22.324  25.747  1.00  0.00     0.123 C 
BRANCH   7   8
ATOM      8  N   UNL A   1      37.339  21.981  24.493  1.00  0.00    -0.384 N 
ATOM      9  H   UNL A   1      37.841  21.808  23.663  1.00  0.00     0.160 HD
BRANCH   8  10
ATOM     10  C   UNL A   1      35.932  21.906  24.513  1.00  0.00     0.048 A 
ATOM     11  C   UNL A   1      35.215  23.168  24.514  1.00  0.00     0.054 A 
ATOM     12  C   UNL A   1      35.239  20.691  24.684  1.00  0.00     0.059 A 
ATOM     13  C   UNL A   1      33.795  23.358  24.669  1.00  0.00     0.069 A 
ATOM     14  C   UNL A   1      33.881  20.911  24.793  1.00  0.00     0.065 A 
ATOM     15  C   UNL A   1      35.742  19.297  24.817  1.00  0.00     0.196 C 
ATOM     16  C   UNL A   1      33.128  22.112  24.808  1.00  0.00     0.138 A 
ATOM     17  C   UNL A   1      33.022  19.874  24.907  1.00  0.00     0.176 A 
ATOM     18  O   UNL A   1      36.937  19.052  24.926  1.00  0.00    -0.288 OA
ATOM     19  C   UNL A   1      34.737  18.177  24.847  1.00  0.00     0.034 A 
ATOM     20  N   UNL A   1      31.824  21.772  24.958  1.00  0.00    -0.077 NA
ATOM     21  O   UNL A   1      31.765  20.367  25.007  1.00  0.00    -0.355 OA
ATOM     22  C   UNL A   1      33.353  18.472  24.899  1.00  0.00     0.032 A 
ATOM     23  C   UNL A   1      35.178  16.853  24.810  1.00  0.00     0.013 A 
ATOM     24  C   UNL A   1      32.424  17.435  24.908  1.00  0.00     0.013 A 
ATOM     25  C   UNL A   1      34.241  15.822  24.814  1.00  0.00     0.001 A 
ATOM     26  C   UNL A   1      32.874  16.111  24.862  1.00  0.00     0.001 A 
BRANCH  13  27
ATOM     27  N   UNL A   1      33.248  24.622  24.723  1.00  0.00    -0.369 N 
ATOM     28  C   UNL A   1      32.492  25.078  25.885  1.00  0.00     0.122 C 
ATOM     29  C   UNL A   1      33.115  25.428  23.517  1.00  0.00     0.122 C 
ATOM     30  C   UNL A   1      32.999  26.475  26.249  1.00  0.00     0.087 C 
ATOM     31  C   UNL A   1      33.639  26.825  23.809  1.00  0.00     0.087 C 
ATOM     32  C   UNL A   1      32.964  27.423  25.046  1.00  0.00     0.171 C 
ATOM     33  O   UNL A   1      31.599  27.757  24.726  1.00  0.00    -0.347 OA
ATOM     34  O   UNL A   1      33.667  28.633  25.399  1.00  0.00    -0.347 OA
ATOM     35  C   UNL A   1      31.433  29.101  25.183  1.00  0.00     0.192 C 
ATOM     36  C   UNL A   1      32.802  29.696  25.005  1.00  0.00     0.192 C 
ENDBRANCH  13  27
ENDBRANCH   8  10
ENDBRANCH   7   8
ENDBRANCH   6   7
ENDBRANCH   4   6
ENDBRANCH   1   2
BRANCH   1  37
ATOM     37  C   UNL A   1      42.151  24.806  27.059  1.00  0.00     0.042 C 
BRANCH  37  38
ATOM     38  C   UNL A   1      43.318  25.781  26.880  1.00  0.00     0.118 C 
BRANCH  38  39
ATOM     39  N   UNL A   1      43.162  26.684  25.750  1.00  0.00    -0.352 N 
ATOM     40  C   UNL A   1      42.425  27.844  25.666  1.00  0.00     0.251 C 
ATOM     41  H   UNL A   1      43.651  26.430  24.934  1.00  0.00     0.163 HD
ATOM     42  O   UNL A   1      42.324  28.448  24.611  1.00  0.00    -0.269 OA
BRANCH  40  43
ATOM     43  C   UNL A   1      41.705  28.312  26.866  1.00  0.00     0.039 A 
ATOM     44  C   UNL A   1      40.334  28.086  27.006  1.00  0.00     0.014 A 
ATOM     45  C   UNL A   1      42.418  29.018  27.838  1.00  0.00     0.014 A 
ATOM     46  C   UNL A   1      39.645  28.678  28.056  1.00  0.00     0.010 A 
ATOM     47  C   UNL A   1      41.734  29.573  28.916  1.00  0.00     0.010 A 
ATOM     48  C   UNL A   1      40.343  29.426  29.010  1.00  0.00    -0.014 A 
BRANCH  48  49
ATOM     49  C   UNL A   1      39.573  29.958  30.142  1.00  0.00     0.031 A 
ATOM     50  C   UNL A   1      39.830  29.266  31.435  1.00  0.00     0.074 A 
ATOM     51  C   UNL A   1      39.162  31.241  30.191  1.00  0.00     0.049 A 
ATOM     52  N   UNL A   1      40.860  29.548  32.177  1.00  0.00    -0.248 NA
ATOM     53  C   UNL A   1      39.117  28.057  31.840  1.00  0.00     0.031 C 
ATOM     54  C   UNL A   1      39.853  32.350  29.523  1.00  0.00     0.029 A 
ATOM     55  N   UNL A   1      38.244  31.851  31.012  1.00  0.00    -0.354 N 
ATOM     56  C   UNL A   1      40.997  28.521  33.087  1.00  0.00     0.074 A 
ATOM     57  C   UNL A   1      39.874  27.635  32.866  1.00  0.00     0.031 C 
ATOM     58  C   UNL A   1      39.466  33.504  30.106  1.00  0.00     0.029 A 
ATOM     59  C   UNL A   1      38.386  33.235  31.049  1.00  0.00     0.049 A 
ATOM     60  H   UNL A   1      37.557  31.361  31.519  1.00  0.00     0.167 HD
ATOM     61  C   UNL A   1      42.048  28.439  33.941  1.00  0.00     0.037 A 
ATOM     62  C   UNL A   1      38.098  34.017  32.123  1.00  0.00     0.037 A 
ATOM     63  C   UNL A   1      43.012  29.494  33.849  1.00  0.00     0.049 A 
ATOM     64  C   UNL A   1      39.152  33.607  33.110  1.00  0.00     0.074 A 
ATOM     65  C   UNL A   1      44.189  29.717  33.168  1.00  0.00     0.029 A 
ATOM     66  N   UNL A   1      42.757  30.668  34.515  1.00  0.00    -0.354 N 
ATOM     67  N   UNL A   1      40.378  34.059  33.135  1.00  0.00    -0.248 NA
ATOM     68  C   UNL A   1      38.936  32.393  33.900  1.00  0.00     0.031 C 
ATOM     69  C   UNL A   1      44.336  31.137  33.111  1.00  0.00     0.029 A 
ATOM     70  C   UNL A   1      43.203  31.685  33.709  1.00  0.00     0.049 A 
ATOM     71  H   UNL A   1      42.336  30.762  35.400  1.00  0.00     0.167 HD
ATOM     72  C   UNL A   1      41.137  33.035  33.705  1.00  0.00     0.074 A 
ATOM     73  C   UNL A   1      40.184  32.065  34.205  1.00  0.00     0.031 C 
ATOM     74  C   UNL A   1      42.488  32.929  33.552  1.00  0.00     0.037 A 
BRANCH  61  75
ATOM     75  C   UNL A   1      42.219  27.404  34.974  1.00  0.00     0.057 A 
ATOM     76  C   UNL A   1      41.580  27.473  36.212  1.00  0.00     0.134 A 
ATOM     77  C   UNL A   1      42.848  26.205  34.621  1.00  0.00     0.134 A 
ATOM     78  F   UNL A   1      40.950  28.593  36.594  1.00  0.00    -0.206 F 
ATOM     79  C   UNL A   1      41.534  26.361  37.056  1.00  0.00     0.040 A 
ATOM     80  C   UNL A   1      42.806  25.089  35.450  1.00  0.00     0.040 A 
ATOM     81  F   UNL A   1      43.468  26.094  33.433  1.00  0.00    -0.206 F 
ATOM     82  C   UNL A   1      42.133  25.161  36.668  1.00  0.00     0.006 A 
ENDBRANCH  61  75
BRANCH  62  83
ATOM     83  C   UNL A   1      36.643  34.153  32.424  1.00  0.00     0.057 A 
ATOM     84  C   UNL A   1      35.578  33.932  31.543  1.00  0.00     0.134 A 
ATOM     85  C   UNL A   1      36.280  34.537  33.731  1.00  0.00     0.134 A 
ATOM     86  F   UNL A   1      35.775  33.455  30.309  1.00  0.00    -0.206 F 
ATOM     87  C   UNL A   1      34.249  34.200  31.898  1.00  0.00     0.040 A 
ATOM     88  C   UNL A   1      34.957  34.785  34.108  1.00  0.00     0.040 A 
ATOM     89  F   UNL A   1      37.219  34.678  34.682  1.00  0.00    -0.206 F 
ATOM     90  C   UNL A   1      33.935  34.641  33.179  1.00  0.00     0.006 A 
ENDBRANCH  62  83
BRANCH  74  91
ATOM     91  C   UNL A   1      43.148  34.099  32.910  1.00  0.00     0.057 A 
ATOM     92  C   UNL A   1      43.649  35.171  33.659  1.00  0.00     0.134 A 
ATOM     93  C   UNL A   1      43.277  34.162  31.519  1.00  0.00     0.134 A 
ATOM     94  F   UNL A   1      43.582  35.168  35.000  1.00  0.00    -0.206 F 
ATOM     95  C   UNL A   1      44.220  36.285  33.043  1.00  0.00     0.040 A 
ATOM     96  C   UNL A   1      43.868  35.260  30.893  1.00  0.00     0.040 A 
ATOM     97  F   UNL A   1      42.813  33.167  30.745  1.00  0.00    -0.206 F 
ATOM     98  C   UNL A   1      44.332  36.331  31.656  1.00  0.00     0.006 A 
ENDBRANCH  74  91
ENDBRANCH  48  49
ENDBRANCH  40  43
ENDBRANCH  38  39
ENDBRANCH  37  38
ENDBRANCH   1  37
TORSDOF 14
ENDMDL
MODEL 2
REMARK VINA RESULT:     -13.6      0.960      1.732
REMARK SMILES O=C(CCNc1cc(N2CCC3(CC2)OCCO3)c2noc3c2c1C(=O)c1ccccc1-3)NCCCNC(=O)c1ccc(-c2c3nc(c(-c4c(F)cccc4F)c4ccc([nH]4)c(-c4c(F)cccc4F)c4nc(c(-c5c(F)cccc5F)c5ccc2[nH]5)C=C4)C=C3)cc1
REMARK SMILES IDX 34 1 33 2 1 3 2 4 3 6 4 7 5 8 6 10 7 11 24 12 8 13 23 14
REMARK SMILES IDX 25 15 19 16 22 17 26 18 27 19 20 20 21 21 32 22 28 23 31 24
REMARK SMILES IDX 29 25 30 26 9 27 10 28 14 29 11 30 13 31 12 32 15 33 18 34
REMARK SMILES IDX 16 35 17 36 35 37 36 38 37 39 38 40 39 42 40 43 41 44 93 45
REMARK SMILES IDX 42 46 92 47 43 48 44 49 45 50 86 51 46 52 91 53 85 54 87 55
REMARK SMILES IDX 47 56 90 57 84 58 83 59 48 61 74 62 57 63 73 64 58 65 61 66
REMARK SMILES IDX 72 67 88 68 59 69 60 70 71 72 89 73 62 74 49 75 50 76 55 77
REMARK SMILES IDX 51 78 52 79 54 80 56 81 53 82 75 83 76 84 81 85 77 86 78 87
REMARK SMILES IDX 80 88 82 89 79 90 63 91 64 92 69 93 65 94 66 95 68 96 70 97
REMARK SMILES IDX 67 98
REMARK H PARENT 33 5 5 9 37 41 87 60 61 71
REMARK Flexibility Score: inf
ROOT
ATOM      1  C   UNL A   1      42.278  23.329  26.373  1.00  0.00     0.117 C 
ENDROOT
BRANCH   1   2
ATOM      2  N   UNL A   1      41.018  24.025  26.510  1.00  0.00    -0.356 N 
ATOM      3  O   UNL A   1      39.595  22.227  26.609  1.00  0.00    -0.275 OA
ATOM      4  C   UNL A   1      39.782  23.438  26.577  1.00  0.00     0.221 C 
ATOM      5  H   UNL A   1      41.051  25.008  26.560  1.00  0.00     0.163 HD
BRANCH   4   6
ATOM      6  C   UNL A   1      38.648  24.440  26.489  1.00  0.00     0.121 C 
BRANCH   6   7
ATOM      7  C   UNL A   1      37.268  23.795  26.396  1.00  0.00     0.123 C 
BRANCH   7   8
ATOM      8  N   UNL A   1      36.983  23.294  25.032  1.00  0.00    -0.384 N 
ATOM      9  H   UNL A   1      37.717  23.110  24.401  1.00  0.00     0.160 HD
BRANCH   8  10
ATOM     10  C   UNL A   1      35.641  23.085  24.656  1.00  0.00     0.048 A 
ATOM     11  C   UNL A   1      34.826  24.273  24.475  1.00  0.00     0.054 A 
ATOM     12  C   UNL A   1      35.057  21.803  24.607  1.00  0.00     0.059 A 
ATOM     13  C   UNL A   1      33.407  24.320  24.229  1.00  0.00     0.069 A 
ATOM     14  C   UNL A   1      33.707  21.889  24.335  1.00  0.00     0.065 A 
ATOM     15  C   UNL A   1      35.644  20.459  24.856  1.00  0.00     0.196 C 
ATOM     16  C   UNL A   1      32.859  23.012  24.157  1.00  0.00     0.138 A 
ATOM     17  C   UNL A   1      32.961  20.772  24.188  1.00  0.00     0.176 A 
ATOM     18  O   UNL A   1      36.781  20.324  25.291  1.00  0.00    -0.288 OA
ATOM     19  C   UNL A   1      34.791  19.249  24.585  1.00  0.00     0.034 A 
ATOM     20  N   UNL A   1      31.607  22.543  23.930  1.00  0.00    -0.077 NA
ATOM     21  O   UNL A   1      31.682  21.138  23.940  1.00  0.00    -0.355 OA
ATOM     22  C   UNL A   1      33.425  19.409  24.252  1.00  0.00     0.032 A 
ATOM     23  C   UNL A   1      35.359  17.976  24.654  1.00  0.00     0.013 A 
ATOM     24  C   UNL A   1      32.642  18.289  23.985  1.00  0.00     0.013 A 
ATOM     25  C   UNL A   1      34.570  16.861  24.380  1.00  0.00     0.001 A 
ATOM     26  C   UNL A   1      33.220  17.017  24.047  1.00  0.00     0.001 A 
BRANCH  13  27
ATOM     27  N   UNL A   1      32.739  25.523  24.147  1.00  0.00    -0.369 N 
ATOM     28  C   UNL A   1      33.340  26.688  23.504  1.00  0.00     0.122 C 
ATOM     29  C   UNL A   1      31.565  25.781  24.970  1.00  0.00     0.122 C 
ATOM     30  C   UNL A   1      32.291  27.296  22.572  1.00  0.00     0.087 C 
ATOM     31  C   UNL A   1      30.471  26.357  24.085  1.00  0.00     0.087 C 
ATOM     32  C   UNL A   1      30.973  27.572  23.302  1.00  0.00     0.171 C 
ATOM     33  O   UNL A   1      31.139  28.683  24.207  1.00  0.00    -0.347 OA
ATOM     34  O   UNL A   1      29.972  27.918  22.322  1.00  0.00    -0.347 OA
ATOM     35  C   UNL A   1      30.463  29.773  23.576  1.00  0.00     0.192 C 
ATOM     36  C   UNL A   1      29.350  29.099  22.823  1.00  0.00     0.192 C 
ENDBRANCH  13  27
ENDBRANCH   8  10
ENDBRANCH   7   8
ENDBRANCH   6   7
ENDBRANCH   4   6
ENDBRANCH   1   2
BRANCH   1  37
ATOM     37  C   UNL A   1      43.431  24.323  26.268  1.00  0.00     0.042 C 
BRANCH  37  38
ATOM     38  C   UNL A   1      43.048  25.735  26.718  1.00  0.00     0.118 C 
BRANCH  38  39
ATOM     39  N   UNL A   1      42.943  26.691  25.627  1.00  0.00    -0.352 N 
ATOM     40  C   UNL A   1      42.283  27.899  25.597  1.00  0.00     0.251 C 
ATOM     41  H   UNL A   1      43.407  26.440  24.796  1.00  0.00     0.163 HD
ATOM     42  O   UNL A   1      42.213  28.552  24.569  1.00  0.00    -0.269 OA
BRANCH  40  43
ATOM     43  C   UNL A   1      41.605  28.364  26.823  1.00  0.00     0.039 A 
ATOM     44  C   UNL A   1      40.239  28.138  27.009  1.00  0.00     0.014 A 
ATOM     45  C   UNL A   1      42.351  29.065  27.772  1.00  0.00     0.014 A 
ATOM     46  C   UNL A   1      39.587  28.728  28.084  1.00  0.00     0.010 A 
ATOM     47  C   UNL A   1      41.705  29.617  28.876  1.00  0.00     0.010 A 
ATOM     48  C   UNL A   1      40.318  29.472  29.016  1.00  0.00    -0.014 A 
BRANCH  48  49
ATOM     49  C   UNL A   1      39.588  30.000  30.176  1.00  0.00     0.031 A 
ATOM     50  C   UNL A   1      39.884  29.299  31.456  1.00  0.00     0.074 A 
ATOM     51  C   UNL A   1      39.185  31.285  30.246  1.00  0.00     0.049 A 
ATOM     52  N   UNL A   1      40.938  29.571  32.165  1.00  0.00    -0.248 NA
ATOM     53  C   UNL A   1      39.178  28.091  31.877  1.00  0.00     0.031 C 
ATOM     54  C   UNL A   1      39.859  32.395  29.562  1.00  0.00     0.029 A 
ATOM     55  N   UNL A   1      38.297  31.894  31.100  1.00  0.00    -0.354 N 
ATOM     56  C   UNL A   1      41.100  28.538  33.065  1.00  0.00     0.074 A 
ATOM     57  C   UNL A   1      39.965  27.660  32.875  1.00  0.00     0.031 C 
ATOM     58  C   UNL A   1      39.498  33.547  30.165  1.00  0.00     0.029 A 
ATOM     59  C   UNL A   1      38.447  33.277  31.141  1.00  0.00     0.049 A 
ATOM     60  H   UNL A   1      37.625  31.404  31.626  1.00  0.00     0.167 HD
ATOM     61  C   UNL A   1      42.177  28.446  33.884  1.00  0.00     0.037 A 
ATOM     62  C   UNL A   1      38.198  34.054  32.228  1.00  0.00     0.037 A 
ATOM     63  C   UNL A   1      43.143  29.497  33.766  1.00  0.00     0.049 A 
ATOM     64  C   UNL A   1      39.282  33.633  33.178  1.00  0.00     0.074 A 
ATOM     65  C   UNL A   1      44.298  29.719  33.049  1.00  0.00     0.029 A 
ATOM     66  N   UNL A   1      42.915  30.669  34.448  1.00  0.00    -0.354 N 
ATOM     67  N   UNL A   1      40.510  34.079  33.166  1.00  0.00    -0.248 NA
ATOM     68  C   UNL A   1      39.085  32.416  33.967  1.00  0.00     0.031 C 
ATOM     69  C   UNL A   1      44.450  31.139  32.996  1.00  0.00     0.029 A 
ATOM     70  C   UNL A   1      43.340  31.689  33.634  1.00  0.00     0.049 A 
ATOM     71  H   UNL A   1      42.523  30.759  35.347  1.00  0.00     0.167 HD
ATOM     72  C   UNL A   1      41.281  33.048  33.705  1.00  0.00     0.074 A 
ATOM     73  C   UNL A   1      40.341  32.080  34.230  1.00  0.00     0.031 C 
ATOM     74  C   UNL A   1      42.626  32.937  33.507  1.00  0.00     0.037 A 
BRANCH  61  75
ATOM     75  C   UNL A   1      42.376  27.404  34.904  1.00  0.00     0.057 A 
ATOM     76  C   UNL A   1      41.785  27.473  36.165  1.00  0.00     0.134 A 
ATOM     77  C   UNL A   1      42.980  26.201  34.522  1.00  0.00     0.134 A 
ATOM     78  F   UNL A   1      41.181  28.597  36.577  1.00  0.00    -0.206 F 
ATOM     79  C   UNL A   1      41.760  26.357  37.006  1.00  0.00     0.040 A 
ATOM     80  C   UNL A   1      42.958  25.081  35.347  1.00  0.00     0.040 A 
ATOM     81  F   UNL A   1      43.554  26.090  33.311  1.00  0.00    -0.206 F 
ATOM     82  C   UNL A   1      42.332  25.153  36.589  1.00  0.00     0.006 A 
ENDBRANCH  61  75
BRANCH  62  83
ATOM     83  C   UNL A   1      36.754  34.195  32.577  1.00  0.00     0.057 A 
ATOM     84  C   UNL A   1      36.207  34.320  33.859  1.00  0.00     0.134 A 
ATOM     85  C   UNL A   1      35.824  34.210  31.516  1.00  0.00     0.134 A 
ATOM     86  F   UNL A   1      36.981  34.434  34.944  1.00  0.00    -0.206 F 
ATOM     87  C   UNL A   1      34.824  34.331  34.082  1.00  0.00     0.040 A 
ATOM     88  C   UNL A   1      34.442  34.245  31.721  1.00  0.00     0.040 A 
ATOM     89  F   UNL A   1      36.250  34.195  30.242  1.00  0.00    -0.206 F 
ATOM     90  C   UNL A   1      33.936  34.278  33.013  1.00  0.00     0.006 A 
ENDBRANCH  62  83
BRANCH  74  91
ATOM     91  C   UNL A   1      43.271  34.107  32.851  1.00  0.00     0.057 A 
ATOM     92  C   UNL A   1      43.386  34.206  31.459  1.00  0.00     0.134 A 
ATOM     93  C   UNL A   1      43.797  35.148  33.622  1.00  0.00     0.134 A 
ATOM     94  F   UNL A   1      42.883  33.256  30.654  1.00  0.00    -0.206 F 
ATOM     95  C   UNL A   1      44.037  35.284  30.857  1.00  0.00     0.040 A 
ATOM     96  C   UNL A   1      44.429  36.243  33.030  1.00  0.00     0.040 A 
ATOM     97  F   UNL A   1      43.722  35.109  34.962  1.00  0.00    -0.206 F 
ATOM     98  C   UNL A   1      44.560  36.307  31.643  1.00  0.00     0.006 A 
ENDBRANCH  74  91
ENDBRANCH  48  49
ENDBRANCH  40  43
ENDBRANCH  38  39
ENDBRANCH  37  38
ENDBRANCH   1  37
TORSDOF 14
ENDMDL
MODEL 3
REMARK VINA RESULT:     -13.2      5.416     11.482
REMARK SMILES O=C(CCNc1cc(N2CCC3(CC2)OCCO3)c2noc3c2c1C(=O)c1ccccc1-3)NCCCNC(=O)c1ccc(-c2c3nc(c(-c4c(F)cccc4F)c4ccc([nH]4)c(-c4c(F)cccc4F)c4nc(c(-c5c(F)cccc5F)c5ccc2[nH]5)C=C4)C=C3)cc1
REMARK SMILES IDX 34 1 33 2 1 3 2 4 3 6 4 7 5 8 6 10 7 11 24 12 8 13 23 14
REMARK SMILES IDX 25 15 19 16 22 17 26 18 27 19 20 20 21 21 32 22 28 23 31 24
REMARK SMILES IDX 29 25 30 26 9 27 10 28 14 29 11 30 13 31 12 32 15 33 18 34
REMARK SMILES IDX 16 35 17 36 35 37 36 38 37 39 38 40 39 42 40 43 41 44 93 45
REMARK SMILES IDX 42 46 92 47 43 48 44 49 45 50 86 51 46 52 91 53 85 54 87 55
REMARK SMILES IDX 47 56 90 57 84 58 83 59 48 61 74 62 57 63 73 64 58 65 61 66
REMARK SMILES IDX 72 67 88 68 59 69 60 70 71 72 89 73 62 74 49 75 50 76 55 77
REMARK SMILES IDX 51 78 52 79 54 80 56 81 53 82 75 83 76 84 81 85 77 86 78 87
REMARK SMILES IDX 80 88 82 89 79 90 63 91 64 92 69 93 65 94 66 95 68 96 70 97
REMARK SMILES IDX 67 98
REMARK H PARENT 33 5 5 9 37 41 87 60 61 71
REMARK Flexibility Score: inf
ROOT
ATOM      1  C   UNL A   1      42.038  26.863  36.566  1.00  0.00     0.117 C 
ENDROOT
BRANCH   1   2
ATOM      2  N   UNL A   1      41.635  27.543  35.355  1.00  0.00    -0.356 N 
ATOM      3  O   UNL A   1      41.291  29.650  36.196  1.00  0.00    -0.275 OA
ATOM      4  C   UNL A   1      41.257  28.858  35.263  1.00  0.00     0.221 C 
ATOM      5  H   UNL A   1      41.632  27.017  34.523  1.00  0.00     0.163 HD
BRANCH   4   6
ATOM      6  C   UNL A   1      40.675  29.210  33.908  1.00  0.00     0.121 C 
BRANCH   6   7
ATOM      7  C   UNL A   1      39.475  30.148  33.984  1.00  0.00     0.123 C 
BRANCH   7   8
ATOM      8  N   UNL A   1      39.886  31.557  34.184  1.00  0.00    -0.384 N 
ATOM      9  H   UNL A   1      40.094  31.896  35.085  1.00  0.00     0.160 HD
BRANCH   8  10
ATOM     10  C   UNL A   1      39.976  32.400  33.058  1.00  0.00     0.048 A 
ATOM     11  C   UNL A   1      38.746  32.635  32.324  1.00  0.00     0.054 A 
ATOM     12  C   UNL A   1      41.207  32.873  32.560  1.00  0.00     0.059 A 
ATOM     13  C   UNL A   1      38.605  33.340  31.074  1.00  0.00     0.069 A 
ATOM     14  C   UNL A   1      41.025  33.571  31.384  1.00  0.00     0.065 A 
ATOM     15  C   UNL A   1      42.595  32.682  33.062  1.00  0.00     0.196 C 
ATOM     16  C   UNL A   1      39.858  33.826  30.619  1.00  0.00     0.138 A 
ATOM     17  C   UNL A   1      42.071  34.160  30.763  1.00  0.00     0.176 A 
ATOM     18  O   UNL A   1      42.846  31.915  33.983  1.00  0.00    -0.288 OA
ATOM     19  C   UNL A   1      43.706  33.438  32.386  1.00  0.00     0.034 A 
ATOM     20  N   UNL A   1      40.234  34.547  29.534  1.00  0.00    -0.077 NA
ATOM     21  O   UNL A   1      41.620  34.762  29.638  1.00  0.00    -0.355 OA
ATOM     22  C   UNL A   1      43.441  34.185  31.212  1.00  0.00     0.032 A 
ATOM     23  C   UNL A   1      44.992  33.407  32.928  1.00  0.00     0.013 A 
ATOM     24  C   UNL A   1      44.466  34.898  30.598  1.00  0.00     0.013 A 
ATOM     25  C   UNL A   1      46.012  34.128  32.311  1.00  0.00     0.001 A 
ATOM     26  C   UNL A   1      45.750  34.870  31.154  1.00  0.00     0.001 A 
BRANCH  13  27
ATOM     27  N   UNL A   1      37.382  33.430  30.444  1.00  0.00    -0.369 N 
ATOM     28  C   UNL A   1      37.219  34.165  29.193  1.00  0.00     0.122 C 
ATOM     29  C   UNL A   1      36.154  33.087  31.149  1.00  0.00     0.122 C 
ATOM     30  C   UNL A   1      36.413  33.283  28.239  1.00  0.00     0.087 C 
ATOM     31  C   UNL A   1      35.323  32.178  30.258  1.00  0.00     0.087 C 
ATOM     32  C   UNL A   1      35.105  32.802  28.877  1.00  0.00     0.171 C 
ATOM     33  O   UNL A   1      34.185  33.905  28.995  1.00  0.00    -0.347 OA
ATOM     34  O   UNL A   1      34.521  31.799  28.019  1.00  0.00    -0.347 OA
ATOM     35  C   UNL A   1      33.210  33.679  27.975  1.00  0.00     0.192 C 
ATOM     36  C   UNL A   1      33.155  32.180  27.877  1.00  0.00     0.192 C 
ENDBRANCH  13  27
ENDBRANCH   8  10
ENDBRANCH   7   8
ENDBRANCH   6   7
ENDBRANCH   4   6
ENDBRANCH   1   2
BRANCH   1  37
ATOM     37  C   UNL A   1      41.371  25.493  36.658  1.00  0.00     0.042 C 
BRANCH  37  38
ATOM     38  C   UNL A   1      41.802  24.540  35.541  1.00  0.00     0.118 C 
BRANCH  38  39
ATOM     39  N   UNL A   1      42.830  23.591  35.941  1.00  0.00    -0.352 N 
ATOM     40  C   UNL A   1      44.057  23.351  35.365  1.00  0.00     0.251 C 
ATOM     41  H   UNL A   1      42.618  23.045  36.733  1.00  0.00     0.163 HD
ATOM     42  O   UNL A   1      44.776  22.453  35.768  1.00  0.00    -0.269 OA
BRANCH  40  43
ATOM     43  C   UNL A   1      44.462  24.167  34.203  1.00  0.00     0.039 A 
ATOM     44  C   UNL A   1      45.224  25.324  34.378  1.00  0.00     0.014 A 
ATOM     45  C   UNL A   1      44.036  23.775  32.932  1.00  0.00     0.014 A 
ATOM     46  C   UNL A   1      45.451  26.165  33.297  1.00  0.00     0.010 A 
ATOM     47  C   UNL A   1      44.304  24.595  31.840  1.00  0.00     0.010 A 
ATOM     48  C   UNL A   1      44.988  25.805  32.028  1.00  0.00    -0.014 A 
BRANCH  48  49
ATOM     49  C   UNL A   1      45.331  26.693  30.909  1.00  0.00     0.031 A 
ATOM     50  C   UNL A   1      45.372  26.019  29.583  1.00  0.00     0.074 A 
ATOM     51  C   UNL A   1      45.055  28.013  30.931  1.00  0.00     0.049 A 
ATOM     52  N   UNL A   1      44.295  25.787  28.892  1.00  0.00    -0.248 NA
ATOM     53  C   UNL A   1      46.562  25.337  29.079  1.00  0.00     0.031 C 
ATOM     54  C   UNL A   1      43.950  28.609  31.690  1.00  0.00     0.029 A 
ATOM     55  N   UNL A   1      45.508  29.030  30.124  1.00  0.00    -0.354 N 
ATOM     56  C   UNL A   1      44.627  24.865  27.921  1.00  0.00     0.074 A 
ATOM     57  C   UNL A   1      46.051  24.640  28.051  1.00  0.00     0.031 C 
ATOM     58  C   UNL A   1      43.686  29.826  31.171  1.00  0.00     0.029 A 
ATOM     59  C   UNL A   1      44.703  30.164  30.181  1.00  0.00     0.049 A 
ATOM     60  H   UNL A   1      46.316  28.963  29.566  1.00  0.00     0.167 HD
ATOM     61  C   UNL A   1      43.704  24.311  27.096  1.00  0.00     0.037 A 
ATOM     62  C   UNL A   1      44.508  31.031  29.152  1.00  0.00     0.037 A 
ATOM     63  C   UNL A   1      42.354  24.748  27.285  1.00  0.00     0.049 A 
ATOM     64  C   UNL A   1      43.735  30.195  28.172  1.00  0.00     0.074 A 
ATOM     65  C   UNL A   1      41.260  24.334  28.014  1.00  0.00     0.029 A 
ATOM     66  N   UNL A   1      41.961  25.922  26.688  1.00  0.00    -0.354 N 
ATOM     67  N   UNL A   1      42.446  29.984  28.213  1.00  0.00    -0.248 NA
ATOM     68  C   UNL A   1      44.473  29.280  27.300  1.00  0.00     0.031 C 
ATOM     69  C   UNL A   1      40.439  25.493  28.167  1.00  0.00     0.029 A 
ATOM     70  C   UNL A   1      41.121  26.553  27.571  1.00  0.00     0.049 A 
ATOM     71  H   UNL A   1      42.230  26.249  25.799  1.00  0.00     0.167 HD
ATOM     72  C   UNL A   1      42.256  28.744  27.601  1.00  0.00     0.074 A 
ATOM     73  C   UNL A   1      43.531  28.392  27.011  1.00  0.00     0.031 C 
ATOM     74  C   UNL A   1      41.142  27.980  27.788  1.00  0.00     0.037 A 
BRANCH  61  75
ATOM     75  C   UNL A   1      44.004  23.370  26.004  1.00  0.00     0.057 A 
ATOM     76  C   UNL A   1      44.745  23.741  24.882  1.00  0.00     0.134 A 
ATOM     77  C   UNL A   1      43.741  22.010  26.203  1.00  0.00     0.134 A 
ATOM     78  F   UNL A   1      45.037  25.029  24.651  1.00  0.00    -0.206 F 
ATOM     79  C   UNL A   1      45.248  22.776  24.006  1.00  0.00     0.040 A 
ATOM     80  C   UNL A   1      44.240  21.039  25.340  1.00  0.00     0.040 A 
ATOM     81  F   UNL A   1      43.038  21.609  27.276  1.00  0.00    -0.206 F 
ATOM     82  C   UNL A   1      45.010  21.421  24.244  1.00  0.00     0.006 A 
ENDBRANCH  61  75
BRANCH  62  83
ATOM     83  C   UNL A   1      45.689  31.878  28.817  1.00  0.00     0.057 A 
ATOM     84  C   UNL A   1      46.921  31.904  29.481  1.00  0.00     0.134 A 
ATOM     85  C   UNL A   1      45.576  32.749  27.713  1.00  0.00     0.134 A 
ATOM     86  F   UNL A   1      47.202  31.051  30.472  1.00  0.00    -0.206 F 
ATOM     87  C   UNL A   1      47.925  32.824  29.153  1.00  0.00     0.040 A 
ATOM     88  C   UNL A   1      46.579  33.655  27.358  1.00  0.00     0.040 A 
ATOM     89  F   UNL A   1      44.473  32.731  26.946  1.00  0.00    -0.206 F 
ATOM     90  C   UNL A   1      47.752  33.713  28.097  1.00  0.00     0.006 A 
ENDBRANCH  62  83
BRANCH  74  91
ATOM     91  C   UNL A   1      40.031  28.644  28.523  1.00  0.00     0.057 A 
ATOM     92  C   UNL A   1      39.907  28.556  29.915  1.00  0.00     0.134 A 
ATOM     93  C   UNL A   1      39.062  29.375  27.830  1.00  0.00     0.134 A 
ATOM     94  F   UNL A   1      40.813  27.891  30.650  1.00  0.00    -0.206 F 
ATOM     95  C   UNL A   1      38.834  29.141  30.589  1.00  0.00     0.040 A 
ATOM     96  C   UNL A   1      37.997  29.984  28.495  1.00  0.00     0.040 A 
ATOM     97  F   UNL A   1      39.124  29.493  26.493  1.00  0.00    -0.206 F 
ATOM     98  C   UNL A   1      37.875  29.858  29.878  1.00  0.00     0.006 A 
ENDBRANCH  74  91
ENDBRANCH  48  49
ENDBRANCH  40  43
ENDBRANCH  38  39
ENDBRANCH  37  38
ENDBRANCH   1  37
TORSDOF 14
ENDMDL
