MODEL 1
REMARK VINA RESULT:     -11.8      0.000      0.000
REMARK SMILES Cc1cc(C)cc(Oc2nc3ccccn3c(=O)c2/C=C2\SC(=S)N(CCC(=O)NCCCNC(=O)c3ccc(-c4c5nc(c(-c6c(F)cccc6F)c6ccc([nH]6)c(-c6c(F)cccc6F)c6nc(c(-c7c(F)cccc7F)c7ccc4[nH]7)C=C6)C=C5)cc3)C2=O)c1
REMARK SMILES IDX 28 1 29 2 30 3 27 5 26 6 25 7 20 8 21 9 22 10 91 11 23 12
REMARK SMILES IDX 92 13 24 14 19 15 9 16 10 17 11 18 17 19 12 20 16 21 18 22
REMARK SMILES IDX 13 23 15 24 14 25 8 26 7 27 1 28 2 29 3 30 93 31 4 32 5 33
REMARK SMILES IDX 6 34 31 35 32 36 33 37 34 38 35 39 36 41 37 42 38 43 90 44
REMARK SMILES IDX 39 45 89 46 40 47 41 48 42 49 83 50 43 51 88 52 82 53 84 54
REMARK SMILES IDX 44 55 87 56 81 57 80 58 45 60 71 61 54 62 70 63 55 64 58 65
REMARK SMILES IDX 69 66 85 67 56 68 57 69 68 71 86 72 59 73 46 74 47 75 52 76
REMARK SMILES IDX 48 77 49 78 51 79 53 80 50 81 72 82 73 83 78 84 74 85 75 86
REMARK SMILES IDX 77 87 79 88 76 89 60 90 61 91 66 92 62 93 63 94 65 95 67 96
REMARK SMILES IDX 64 97
REMARK H PARENT 30 4 34 40 84 59 58 70
REMARK Flexibility Score: inf
ROOT
ATOM      1  C   UNL A   1      39.175  28.778  28.086  1.00  0.00     0.221 C 
ATOM      2  O   UNL A   1      38.263  29.558  27.806  1.00  0.00    -0.275 OA
ATOM      3  N   UNL A   1      38.923  27.442  27.991  1.00  0.00    -0.356 N 
ATOM      4  H   UNL A   1      38.049  27.220  27.595  1.00  0.00     0.163 HD
ENDROOT
BRANCH   1   5
ATOM      5  C   UNL A   1      40.535  29.312  28.491  1.00  0.00     0.122 C 
BRANCH   5   6
ATOM      6  C   UNL A   1      40.730  29.334  30.014  1.00  0.00     0.137 C 
BRANCH   6   7
ATOM      7  N   UNL A   1      39.620  30.022  30.688  1.00  0.00    -0.292 N 
ATOM      8  C   UNL A   1      37.580  32.927  30.455  1.00  0.00     0.041 C 
ATOM      9  C   UNL A   1      38.134  31.810  30.947  1.00  0.00     0.081 C 
ATOM     10  S   UNL A   1      37.406  30.579  31.890  1.00  0.00    -0.054 SA
ATOM     11  C   UNL A   1      39.512  31.393  30.581  1.00  0.00     0.266 C 
ATOM     12  C   UNL A   1      38.641  29.403  31.440  1.00  0.00     0.148 C 
ATOM     13  O   UNL A   1      40.388  32.166  30.218  1.00  0.00    -0.268 OA
ATOM     14  S   UNL A   1      38.535  27.796  31.870  1.00  0.00    -0.052 S 
BRANCH   8  15
ATOM     15  C   UNL A   1      36.239  33.433  30.702  1.00  0.00     0.104 A 
ATOM     16  C   UNL A   1      35.194  33.407  29.842  1.00  0.00     0.234 A 
ATOM     17  N   UNL A   1      34.047  34.136  30.033  1.00  0.00    -0.194 NA
ATOM     18  C   UNL A   1      33.963  34.904  31.069  1.00  0.00     0.143 A 
ATOM     19  C   UNL A   1      36.053  34.186  31.977  1.00  0.00     0.269 A 
ATOM     20  C   UNL A   1      32.809  35.840  31.187  1.00  0.00     0.048 A 
ATOM     21  N   UNL A   1      34.904  34.943  32.081  1.00  0.00    -0.267 N 
ATOM     22  O   UNL A   1      36.943  34.169  32.831  1.00  0.00    -0.268 OA
ATOM     23  C   UNL A   1      32.725  36.664  32.240  1.00  0.00     0.005 A 
ATOM     24  C   UNL A   1      34.731  35.757  33.191  1.00  0.00     0.096 A 
ATOM     25  C   UNL A   1      33.704  36.606  33.291  1.00  0.00     0.019 A 
BRANCH  16  26
ATOM     26  O   UNL A   1      35.299  32.882  28.556  1.00  0.00    -0.438 OA
BRANCH  26  27
ATOM     27  C   UNL A   1      34.446  31.909  28.083  1.00  0.00     0.130 A 
ATOM     28  C   UNL A   1      34.406  28.351  26.767  1.00  0.00     0.044 C 
ATOM     29  C   UNL A   1      33.962  29.736  27.133  1.00  0.00    -0.047 A 
ATOM     30  C   UNL A   1      32.735  30.219  26.656  1.00  0.00     0.007 A 
ATOM     31  C   UNL A   1      34.795  30.578  27.882  1.00  0.00     0.050 A 
ATOM     32  C   UNL A   1      32.334  31.532  26.918  1.00  0.00    -0.047 A 
ATOM     33  C   UNL A   1      31.027  32.030  26.371  1.00  0.00     0.044 C 
ATOM     34  C   UNL A   1      33.197  32.369  27.638  1.00  0.00     0.050 A 
ENDBRANCH  26  27
ENDBRANCH  16  26
ENDBRANCH   8  15
ENDBRANCH   6   7
ENDBRANCH   5   6
ENDBRANCH   1   5
BRANCH   3  35
ATOM     35  C   UNL A   1      39.722  26.287  28.372  1.00  0.00     0.117 C 
BRANCH  35  36
ATOM     36  C   UNL A   1      39.805  25.270  27.238  1.00  0.00     0.042 C 
BRANCH  36  37
ATOM     37  C   UNL A   1      40.008  23.801  27.586  1.00  0.00     0.118 C 
BRANCH  37  38
ATOM     38  N   UNL A   1      40.882  23.099  26.656  1.00  0.00    -0.352 N 
ATOM     39  C   UNL A   1      42.090  23.369  26.053  1.00  0.00     0.251 C 
ATOM     40  H   UNL A   1      40.523  22.220  26.396  1.00  0.00     0.163 HD
ATOM     41  O   UNL A   1      42.491  22.525  25.245  1.00  0.00    -0.269 OA
BRANCH  39  42
ATOM     42  C   UNL A   1      42.941  24.579  26.278  1.00  0.00     0.039 A 
ATOM     43  C   UNL A   1      43.233  25.379  25.155  1.00  0.00     0.014 A 
ATOM     44  C   UNL A   1      43.579  24.894  27.478  1.00  0.00     0.014 A 
ATOM     45  C   UNL A   1      44.123  26.465  25.226  1.00  0.00     0.010 A 
ATOM     46  C   UNL A   1      44.459  25.992  27.560  1.00  0.00     0.010 A 
ATOM     47  C   UNL A   1      44.761  26.773  26.431  1.00  0.00    -0.014 A 
BRANCH  47  48
ATOM     48  C   UNL A   1      45.848  27.795  26.486  1.00  0.00     0.031 A 
ATOM     49  C   UNL A   1      45.486  29.240  26.694  1.00  0.00     0.074 A 
ATOM     50  C   UNL A   1      47.143  27.462  26.325  1.00  0.00     0.049 A 
ATOM     51  N   UNL A   1      46.258  30.297  26.686  1.00  0.00    -0.248 NA
ATOM     52  C   UNL A   1      44.060  29.534  26.905  1.00  0.00     0.031 C 
ATOM     53  C   UNL A   1      47.622  26.112  26.073  1.00  0.00     0.029 A 
ATOM     54  N   UNL A   1      48.289  28.224  26.333  1.00  0.00    -0.354 N 
ATOM     55  C   UNL A   1      45.409  31.385  26.843  1.00  0.00     0.074 A 
ATOM     56  C   UNL A   1      44.064  30.859  26.951  1.00  0.00     0.031 C 
ATOM     57  C   UNL A   1      48.964  26.128  25.985  1.00  0.00     0.029 A 
ATOM     58  C   UNL A   1      49.441  27.499  26.123  1.00  0.00     0.049 A 
ATOM     59  H   UNL A   1      48.286  29.198  26.475  1.00  0.00     0.167 HD
ATOM     60  C   UNL A   1      45.722  32.701  26.874  1.00  0.00     0.037 A 
ATOM     61  C   UNL A   1      50.728  27.893  26.022  1.00  0.00     0.037 A 
ATOM     62  C   UNL A   1      47.061  33.224  26.776  1.00  0.00     0.049 A 
ATOM     63  C   UNL A   1      51.045  29.366  26.079  1.00  0.00     0.074 A 
ATOM     64  C   UNL A   1      47.474  34.544  26.836  1.00  0.00     0.029 A 
ATOM     65  N   UNL A   1      48.200  32.457  26.591  1.00  0.00    -0.354 N 
ATOM     66  N   UNL A   1      50.236  30.380  26.273  1.00  0.00    -0.248 NA
ATOM     67  C   UNL A   1      52.449  29.755  25.874  1.00  0.00     0.031 C 
ATOM     68  C   UNL A   1      48.856  34.580  26.630  1.00  0.00     0.029 A 
ATOM     69  C   UNL A   1      49.312  33.279  26.505  1.00  0.00     0.049 A 
ATOM     70  H   UNL A   1      48.216  31.474  26.528  1.00  0.00     0.167 HD
ATOM     71  C   UNL A   1      51.031  31.518  26.221  1.00  0.00     0.074 A 
ATOM     72  C   UNL A   1      52.392  31.071  26.017  1.00  0.00     0.031 C 
ATOM     73  C   UNL A   1      50.664  32.819  26.315  1.00  0.00     0.037 A 
BRANCH  60  74
ATOM     74  C   UNL A   1      44.590  33.681  26.968  1.00  0.00     0.057 A 
ATOM     75  C   UNL A   1      44.153  34.203  28.190  1.00  0.00     0.134 A 
ATOM     76  C   UNL A   1      43.959  34.143  25.805  1.00  0.00     0.134 A 
ATOM     77  F   UNL A   1      44.705  33.792  29.343  1.00  0.00    -0.206 F 
ATOM     78  C   UNL A   1      43.116  35.137  28.255  1.00  0.00     0.040 A 
ATOM     79  C   UNL A   1      42.941  35.096  25.854  1.00  0.00     0.040 A 
ATOM     80  F   UNL A   1      44.332  33.685  24.599  1.00  0.00    -0.206 F 
ATOM     81  C   UNL A   1      42.514  35.592  27.084  1.00  0.00     0.006 A 
ENDBRANCH  60  74
BRANCH  61  82
ATOM     82  C   UNL A   1      51.828  26.905  25.820  1.00  0.00     0.057 A 
ATOM     83  C   UNL A   1      52.194  26.480  24.535  1.00  0.00     0.134 A 
ATOM     84  C   UNL A   1      52.494  26.309  26.898  1.00  0.00     0.134 A 
ATOM     85  F   UNL A   1      51.579  26.988  23.456  1.00  0.00    -0.206 F 
ATOM     86  C   UNL A   1      53.151  25.482  24.331  1.00  0.00     0.040 A 
ATOM     87  C   UNL A   1      53.482  25.339  26.709  1.00  0.00     0.040 A 
ATOM     88  F   UNL A   1      52.193  26.658  28.157  1.00  0.00    -0.206 F 
ATOM     89  C   UNL A   1      53.803  24.912  25.422  1.00  0.00     0.006 A 
ENDBRANCH  61  82
BRANCH  73  90
ATOM     90  C   UNL A   1      51.753  33.849  26.238  1.00  0.00     0.057 A 
ATOM     91  C   UNL A   1      52.426  34.306  27.379  1.00  0.00     0.134 A 
ATOM     92  C   UNL A   1      52.160  34.363  25.000  1.00  0.00     0.134 A 
ATOM     93  F   UNL A   1      52.076  33.865  28.597  1.00  0.00    -0.206 F 
ATOM     94  C   UNL A   1      53.447  35.253  27.293  1.00  0.00     0.040 A 
ATOM     95  C   UNL A   1      53.200  35.287  24.899  1.00  0.00     0.040 A 
ATOM     96  F   UNL A   1      51.564  33.961  23.866  1.00  0.00    -0.206 F 
ATOM     97  C   UNL A   1      53.842  35.741  26.048  1.00  0.00     0.006 A 
ENDBRANCH  73  90
ENDBRANCH  47  48
ENDBRANCH  39  42
ENDBRANCH  37  38
ENDBRANCH  36  37
ENDBRANCH  35  36
ENDBRANCH   3  35
TORSDOF 15
ENDMDL
MODEL 2
REMARK VINA RESULT:     -11.7      6.985     11.514
REMARK SMILES Cc1cc(C)cc(Oc2nc3ccccn3c(=O)c2/C=C2\SC(=S)N(CCC(=O)NCCCNC(=O)c3ccc(-c4c5nc(c(-c6c(F)cccc6F)c6ccc([nH]6)c(-c6c(F)cccc6F)c6nc(c(-c7c(F)cccc7F)c7ccc4[nH]7)C=C6)C=C5)cc3)C2=O)c1
REMARK SMILES IDX 28 1 29 2 30 3 27 5 26 6 25 7 20 8 21 9 22 10 91 11 23 12
REMARK SMILES IDX 92 13 24 14 19 15 9 16 10 17 11 18 17 19 12 20 16 21 18 22
REMARK SMILES IDX 13 23 15 24 14 25 8 26 7 27 1 28 2 29 3 30 93 31 4 32 5 33
REMARK SMILES IDX 6 34 31 35 32 36 33 37 34 38 35 39 36 41 37 42 38 43 90 44
REMARK SMILES IDX 39 45 89 46 40 47 41 48 42 49 83 50 43 51 88 52 82 53 84 54
REMARK SMILES IDX 44 55 87 56 81 57 80 58 45 60 71 61 54 62 70 63 55 64 58 65
REMARK SMILES IDX 69 66 85 67 56 68 57 69 68 71 86 72 59 73 46 74 47 75 52 76
REMARK SMILES IDX 48 77 49 78 51 79 53 80 50 81 72 82 73 83 78 84 74 85 75 86
REMARK SMILES IDX 77 87 79 88 76 89 60 90 61 91 66 92 62 93 63 94 65 95 67 96
REMARK SMILES IDX 64 97
REMARK H PARENT 30 4 34 40 84 59 58 70
REMARK Flexibility Score: inf
ROOT
ATOM      1  C   UNL A   1      37.894  23.125  26.123  1.00  0.00     0.221 C 
ATOM      2  O   UNL A   1      37.806  24.341  26.306  1.00  0.00    -0.275 OA
ATOM      3  N   UNL A   1      39.084  22.523  26.402  1.00  0.00    -0.356 N 
ATOM      4  H   UNL A   1      39.746  23.110  26.835  1.00  0.00     0.163 HD
ENDROOT
BRANCH   1   5
ATOM      5  C   UNL A   1      36.692  22.342  25.633  1.00  0.00     0.122 C 
BRANCH   5   6
ATOM      6  C   UNL A   1      35.390  22.764  26.330  1.00  0.00     0.137 C 
BRANCH   6   7
ATOM      7  N   UNL A   1      34.451  23.385  25.383  1.00  0.00    -0.292 N 
ATOM      8  C   UNL A   1      31.807  25.759  25.223  1.00  0.00     0.041 C 
ATOM      9  C   UNL A   1      32.655  24.788  24.857  1.00  0.00     0.081 C 
ATOM     10  S   UNL A   1      33.384  24.523  23.329  1.00  0.00    -0.054 SA
ATOM     11  C   UNL A   1      33.233  23.840  25.843  1.00  0.00     0.266 C 
ATOM     12  C   UNL A   1      34.685  23.564  24.035  1.00  0.00     0.148 C 
ATOM     13  O   UNL A   1      32.699  23.546  26.904  1.00  0.00    -0.268 OA
ATOM     14  S   UNL A   1      35.984  23.032  23.134  1.00  0.00    -0.052 S 
BRANCH   8  15
ATOM     15  C   UNL A   1      31.197  26.769  24.373  1.00  0.00     0.104 A 
ATOM     16  C   UNL A   1      31.780  27.902  23.918  1.00  0.00     0.234 A 
ATOM     17  N   UNL A   1      31.073  28.935  23.353  1.00  0.00    -0.194 NA
ATOM     18  C   UNL A   1      29.788  28.836  23.268  1.00  0.00     0.143 A 
ATOM     19  C   UNL A   1      29.738  26.600  24.107  1.00  0.00     0.269 A 
ATOM     20  C   UNL A   1      28.996  30.021  22.832  1.00  0.00     0.048 A 
ATOM     21  N   UNL A   1      29.077  27.695  23.589  1.00  0.00    -0.267 N 
ATOM     22  O   UNL A   1      29.178  25.547  24.424  1.00  0.00    -0.268 OA
ATOM     23  C   UNL A   1      27.661  29.944  22.770  1.00  0.00     0.005 A 
ATOM     24  C   UNL A   1      27.700  27.638  23.430  1.00  0.00     0.096 A 
ATOM     25  C   UNL A   1      26.988  28.705  23.054  1.00  0.00     0.019 A 
BRANCH  16  26
ATOM     26  O   UNL A   1      33.088  28.252  24.246  1.00  0.00    -0.438 OA
BRANCH  26  27
ATOM     27  C   UNL A   1      33.386  29.126  25.269  1.00  0.00     0.130 A 
ATOM     28  C   UNL A   1      35.516  29.463  28.389  1.00  0.00     0.044 C 
ATOM     29  C   UNL A   1      34.486  29.739  27.336  1.00  0.00    -0.047 A 
ATOM     30  C   UNL A   1      33.516  30.727  27.558  1.00  0.00     0.007 A 
ATOM     31  C   UNL A   1      34.436  28.969  26.166  1.00  0.00     0.050 A 
ATOM     32  C   UNL A   1      32.499  30.952  26.625  1.00  0.00    -0.047 A 
ATOM     33  C   UNL A   1      31.457  31.998  26.903  1.00  0.00     0.044 C 
ATOM     34  C   UNL A   1      32.446  30.147  25.479  1.00  0.00     0.050 A 
ENDBRANCH  26  27
ENDBRANCH  16  26
ENDBRANCH   8  15
ENDBRANCH   6   7
ENDBRANCH   5   6
ENDBRANCH   1   5
BRANCH   3  35
ATOM     35  C   UNL A   1      39.546  21.162  26.172  1.00  0.00     0.117 C 
BRANCH  35  36
ATOM     36  C   UNL A   1      41.065  21.065  26.278  1.00  0.00     0.042 C 
BRANCH  36  37
ATOM     37  C   UNL A   1      41.826  22.202  26.948  1.00  0.00     0.118 C 
BRANCH  37  38
ATOM     38  N   UNL A   1      42.478  23.099  26.004  1.00  0.00    -0.352 N 
ATOM     39  C   UNL A   1      42.602  24.464  25.876  1.00  0.00     0.251 C 
ATOM     40  H   UNL A   1      42.944  22.613  25.286  1.00  0.00     0.163 HD
ATOM     41  O   UNL A   1      43.196  24.861  24.869  1.00  0.00    -0.269 OA
BRANCH  39  42
ATOM     42  C   UNL A   1      42.079  25.494  26.829  1.00  0.00     0.039 A 
ATOM     43  C   UNL A   1      42.757  26.729  26.877  1.00  0.00     0.014 A 
ATOM     44  C   UNL A   1      41.069  25.275  27.765  1.00  0.00     0.014 A 
ATOM     45  C   UNL A   1      42.433  27.719  27.821  1.00  0.00     0.010 A 
ATOM     46  C   UNL A   1      40.726  26.271  28.701  1.00  0.00     0.010 A 
ATOM     47  C   UNL A   1      41.421  27.492  28.758  1.00  0.00    -0.014 A 
BRANCH  47  48
ATOM     48  C   UNL A   1      41.188  28.444  29.883  1.00  0.00     0.031 A 
ATOM     49  C   UNL A   1      42.061  28.364  31.105  1.00  0.00     0.074 A 
ATOM     50  C   UNL A   1      40.196  29.355  29.848  1.00  0.00     0.049 A 
ATOM     51  N   UNL A   1      41.979  29.031  32.228  1.00  0.00    -0.248 NA
ATOM     52  C   UNL A   1      43.152  27.379  31.067  1.00  0.00     0.031 C 
ATOM     53  C   UNL A   1      39.255  29.507  28.749  1.00  0.00     0.029 A 
ATOM     54  N   UNL A   1      39.802  30.312  30.755  1.00  0.00    -0.354 N 
ATOM     55  C   UNL A   1      42.973  28.514  33.048  1.00  0.00     0.074 A 
ATOM     56  C   UNL A   1      43.652  27.484  32.290  1.00  0.00     0.031 C 
ATOM     57  C   UNL A   1      38.413  30.518  29.023  1.00  0.00     0.029 A 
ATOM     58  C   UNL A   1      38.720  31.057  30.343  1.00  0.00     0.049 A 
ATOM     59  H   UNL A   1      40.252  30.451  31.620  1.00  0.00     0.167 HD
ATOM     60  C   UNL A   1      43.278  28.855  34.322  1.00  0.00     0.037 A 
ATOM     61  C   UNL A   1      38.034  32.039  30.966  1.00  0.00     0.037 A 
ATOM     62  C   UNL A   1      42.610  29.887  35.072  1.00  0.00     0.049 A 
ATOM     63  C   UNL A   1      38.411  32.408  32.379  1.00  0.00     0.074 A 
ATOM     64  C   UNL A   1      42.879  30.325  36.358  1.00  0.00     0.029 A 
ATOM     65  N   UNL A   1      41.538  30.635  34.612  1.00  0.00    -0.354 N 
ATOM     66  N   UNL A   1      39.383  31.940  33.124  1.00  0.00    -0.248 NA
ATOM     67  C   UNL A   1      37.578  33.419  33.049  1.00  0.00     0.031 C 
ATOM     68  C   UNL A   1      41.934  31.299  36.696  1.00  0.00     0.029 A 
ATOM     69  C   UNL A   1      41.116  31.511  35.599  1.00  0.00     0.049 A 
ATOM     70  H   UNL A   1      41.135  30.555  33.716  1.00  0.00     0.167 HD
ATOM     71  C   UNL A   1      39.283  32.604  34.341  1.00  0.00     0.074 A 
ATOM     72  C   UNL A   1      38.181  33.535  34.224  1.00  0.00     0.031 C 
ATOM     73  C   UNL A   1      40.026  32.443  35.463  1.00  0.00     0.037 A 
BRANCH  60  74
ATOM     74  C   UNL A   1      44.354  28.069  35.012  1.00  0.00     0.057 A 
ATOM     75  C   UNL A   1      44.090  26.870  35.683  1.00  0.00     0.134 A 
ATOM     76  C   UNL A   1      45.686  28.503  34.961  1.00  0.00     0.134 A 
ATOM     77  F   UNL A   1      42.834  26.407  35.781  1.00  0.00    -0.206 F 
ATOM     78  C   UNL A   1      45.110  26.138  36.294  1.00  0.00     0.040 A 
ATOM     79  C   UNL A   1      46.717  27.766  35.544  1.00  0.00     0.040 A 
ATOM     80  F   UNL A   1      46.008  29.643  34.330  1.00  0.00    -0.206 F 
ATOM     81  C   UNL A   1      46.429  26.581  36.218  1.00  0.00     0.006 A 
ENDBRANCH  60  74
BRANCH  61  82
ATOM     82  C   UNL A   1      36.895  32.734  30.297  1.00  0.00     0.057 A 
ATOM     83  C   UNL A   1      35.566  32.406  30.602  1.00  0.00     0.134 A 
ATOM     84  C   UNL A   1      37.098  33.688  29.292  1.00  0.00     0.134 A 
ATOM     85  F   UNL A   1      35.296  31.480  31.535  1.00  0.00    -0.206 F 
ATOM     86  C   UNL A   1      34.489  32.972  29.915  1.00  0.00     0.040 A 
ATOM     87  C   UNL A   1      36.030  34.293  28.625  1.00  0.00     0.040 A 
ATOM     88  F   UNL A   1      38.340  34.048  28.940  1.00  0.00    -0.206 F 
ATOM     89  C   UNL A   1      34.721  33.925  28.925  1.00  0.00     0.006 A 
ENDBRANCH  61  82
BRANCH  73  90
ATOM     90  C   UNL A   1      39.697  33.318  36.638  1.00  0.00     0.057 A 
ATOM     91  C   UNL A   1      40.298  34.570  36.822  1.00  0.00     0.134 A 
ATOM     92  C   UNL A   1      38.738  32.917  37.577  1.00  0.00     0.134 A 
ATOM     93  F   UNL A   1      41.235  35.008  35.968  1.00  0.00    -0.206 F 
ATOM     94  C   UNL A   1      39.973  35.381  37.911  1.00  0.00     0.040 A 
ATOM     95  C   UNL A   1      38.383  33.732  38.652  1.00  0.00     0.040 A 
ATOM     96  F   UNL A   1      38.117  31.733  37.455  1.00  0.00    -0.206 F 
ATOM     97  C   UNL A   1      39.007  34.965  38.826  1.00  0.00     0.006 A 
ENDBRANCH  73  90
ENDBRANCH  47  48
ENDBRANCH  39  42
ENDBRANCH  37  38
ENDBRANCH  36  37
ENDBRANCH  35  36
ENDBRANCH   3  35
TORSDOF 15
ENDMDL
MODEL 3
REMARK VINA RESULT:     -11.7      7.083     10.504
REMARK SMILES Cc1cc(C)cc(Oc2nc3ccccn3c(=O)c2/C=C2\SC(=S)N(CCC(=O)NCCCNC(=O)c3ccc(-c4c5nc(c(-c6c(F)cccc6F)c6ccc([nH]6)c(-c6c(F)cccc6F)c6nc(c(-c7c(F)cccc7F)c7ccc4[nH]7)C=C6)C=C5)cc3)C2=O)c1
REMARK SMILES IDX 28 1 29 2 30 3 27 5 26 6 25 7 20 8 21 9 22 10 91 11 23 12
REMARK SMILES IDX 92 13 24 14 19 15 9 16 10 17 11 18 17 19 12 20 16 21 18 22
REMARK SMILES IDX 13 23 15 24 14 25 8 26 7 27 1 28 2 29 3 30 93 31 4 32 5 33
REMARK SMILES IDX 6 34 31 35 32 36 33 37 34 38 35 39 36 41 37 42 38 43 90 44
REMARK SMILES IDX 39 45 89 46 40 47 41 48 42 49 83 50 43 51 88 52 82 53 84 54
REMARK SMILES IDX 44 55 87 56 81 57 80 58 45 60 71 61 54 62 70 63 55 64 58 65
REMARK SMILES IDX 69 66 85 67 56 68 57 69 68 71 86 72 59 73 46 74 47 75 52 76
REMARK SMILES IDX 48 77 49 78 51 79 53 80 50 81 72 82 73 83 78 84 74 85 75 86
REMARK SMILES IDX 77 87 79 88 76 89 60 90 61 91 66 92 62 93 63 94 65 95 67 96
REMARK SMILES IDX 64 97
REMARK H PARENT 30 4 34 40 84 59 58 70
REMARK Flexibility Score: inf
ROOT
ATOM      1  C   UNL A   1      37.894  23.274  26.223  1.00  0.00     0.221 C 
ATOM      2  O   UNL A   1      37.668  24.455  26.493  1.00  0.00    -0.275 OA
ATOM      3  N   UNL A   1      39.125  22.775  26.527  1.00  0.00    -0.356 N 
ATOM      4  H   UNL A   1      39.696  23.388  27.043  1.00  0.00     0.163 HD
ENDROOT
BRANCH   1   5
ATOM      5  C   UNL A   1      36.809  22.415  25.602  1.00  0.00     0.122 C 
BRANCH   5   6
ATOM      6  C   UNL A   1      35.438  22.631  26.260  1.00  0.00     0.137 C 
BRANCH   6   7
ATOM      7  N   UNL A   1      34.490  23.264  25.331  1.00  0.00    -0.292 N 
ATOM      8  C   UNL A   1      31.837  25.632  25.230  1.00  0.00     0.041 C 
ATOM      9  C   UNL A   1      32.686  24.669  24.842  1.00  0.00     0.081 C 
ATOM     10  S   UNL A   1      33.403  24.432  23.304  1.00  0.00    -0.054 SA
ATOM     11  C   UNL A   1      33.274  23.707  25.808  1.00  0.00     0.266 C 
ATOM     12  C   UNL A   1      34.713  23.466  23.984  1.00  0.00     0.148 C 
ATOM     13  O   UNL A   1      32.750  23.394  26.868  1.00  0.00    -0.268 OA
ATOM     14  S   UNL A   1      36.006  22.953  23.065  1.00  0.00    -0.052 S 
BRANCH   8  15
ATOM     15  C   UNL A   1      31.217  26.653  24.402  1.00  0.00     0.104 A 
ATOM     16  C   UNL A   1      31.789  27.800  23.969  1.00  0.00     0.234 A 
ATOM     17  N   UNL A   1      31.073  28.838  23.426  1.00  0.00    -0.194 NA
ATOM     18  C   UNL A   1      29.788  28.729  23.340  1.00  0.00     0.143 A 
ATOM     19  C   UNL A   1      29.760  26.476  24.134  1.00  0.00     0.269 A 
ATOM     20  C   UNL A   1      28.986  29.916  22.930  1.00  0.00     0.048 A 
ATOM     21  N   UNL A   1      29.088  27.576  23.639  1.00  0.00    -0.267 N 
ATOM     22  O   UNL A   1      29.209  25.413  24.430  1.00  0.00    -0.268 OA
ATOM     23  C   UNL A   1      27.651  29.828  22.867  1.00  0.00     0.005 A 
ATOM     24  C   UNL A   1      27.711  27.511  23.481  1.00  0.00     0.096 A 
ATOM     25  C   UNL A   1      26.990  28.579  23.127  1.00  0.00     0.019 A 
BRANCH  16  26
ATOM     26  O   UNL A   1      33.095  28.155  24.303  1.00  0.00    -0.438 OA
BRANCH  26  27
ATOM     27  C   UNL A   1      33.385  29.029  25.327  1.00  0.00     0.130 A 
ATOM     28  C   UNL A   1      35.426  29.332  28.510  1.00  0.00     0.044 C 
ATOM     29  C   UNL A   1      34.437  29.628  27.423  1.00  0.00    -0.047 A 
ATOM     30  C   UNL A   1      33.489  30.645  27.607  1.00  0.00     0.007 A 
ATOM     31  C   UNL A   1      34.402  28.850  26.258  1.00  0.00     0.050 A 
ATOM     32  C   UNL A   1      32.508  30.890  26.641  1.00  0.00    -0.047 A 
ATOM     33  C   UNL A   1      31.489  31.967  26.878  1.00  0.00     0.044 C 
ATOM     34  C   UNL A   1      32.468  30.077  25.500  1.00  0.00     0.050 A 
ENDBRANCH  26  27
ENDBRANCH  16  26
ENDBRANCH   8  15
ENDBRANCH   6   7
ENDBRANCH   5   6
ENDBRANCH   1   5
BRANCH   3  35
ATOM     35  C   UNL A   1      39.740  21.492  26.221  1.00  0.00     0.117 C 
BRANCH  35  36
ATOM     36  C   UNL A   1      41.261  21.605  26.162  1.00  0.00     0.042 C 
BRANCH  36  37
ATOM     37  C   UNL A   1      41.928  22.834  26.766  1.00  0.00     0.118 C 
BRANCH  37  38
ATOM     38  N   UNL A   1      42.283  23.845  25.780  1.00  0.00    -0.352 N 
ATOM     39  C   UNL A   1      42.164  25.214  25.694  1.00  0.00     0.251 C 
ATOM     40  H   UNL A   1      42.713  23.457  24.985  1.00  0.00     0.163 HD
ATOM     41  O   UNL A   1      42.535  25.722  24.632  1.00  0.00    -0.269 OA
BRANCH  39  42
ATOM     42  C   UNL A   1      41.624  26.124  26.753  1.00  0.00     0.039 A 
ATOM     43  C   UNL A   1      42.239  27.384  26.892  1.00  0.00     0.014 A 
ATOM     44  C   UNL A   1      40.661  25.768  27.696  1.00  0.00     0.014 A 
ATOM     45  C   UNL A   1      41.899  28.267  27.932  1.00  0.00     0.010 A 
ATOM     46  C   UNL A   1      40.302  26.656  28.730  1.00  0.00     0.010 A 
ATOM     47  C   UNL A   1      40.934  27.902  28.876  1.00  0.00    -0.014 A 
BRANCH  47  48
ATOM     48  C   UNL A   1      40.693  28.736  30.090  1.00  0.00     0.031 A 
ATOM     49  C   UNL A   1      39.559  29.724  30.089  1.00  0.00     0.074 A 
ATOM     50  C   UNL A   1      41.483  28.650  31.178  1.00  0.00     0.049 A 
ATOM     51  N   UNL A   1      39.226  30.605  30.998  1.00  0.00    -0.248 NA
ATOM     52  C   UNL A   1      38.707  29.742  28.890  1.00  0.00     0.031 C 
ATOM     53  C   UNL A   1      42.637  27.771  31.291  1.00  0.00     0.029 A 
ATOM     54  N   UNL A   1      41.451  29.311  32.384  1.00  0.00    -0.354 N 
ATOM     55  C   UNL A   1      38.159  31.315  30.463  1.00  0.00     0.074 A 
ATOM     56  C   UNL A   1      37.895  30.756  29.153  1.00  0.00     0.031 C 
ATOM     57  C   UNL A   1      43.186  27.917  32.510  1.00  0.00     0.029 A 
ATOM     58  C   UNL A   1      42.455  28.938  33.250  1.00  0.00     0.049 A 
ATOM     59  H   UNL A   1      40.774  29.990  32.608  1.00  0.00     0.167 HD
ATOM     60  C   UNL A   1      37.477  32.349  31.006  1.00  0.00     0.037 A 
ATOM     61  C   UNL A   1      42.770  29.386  34.485  1.00  0.00     0.037 A 
ATOM     62  C   UNL A   1      37.733  32.899  32.313  1.00  0.00     0.049 A 
ATOM     63  C   UNL A   1      41.978  30.528  35.069  1.00  0.00     0.074 A 
ATOM     64  C   UNL A   1      37.064  33.925  32.959  1.00  0.00     0.029 A 
ATOM     65  N   UNL A   1      38.739  32.477  33.167  1.00  0.00    -0.354 N 
ATOM     66  N   UNL A   1      40.943  31.158  34.569  1.00  0.00    -0.248 NA
ATOM     67  C   UNL A   1      42.415  31.042  36.376  1.00  0.00     0.031 C 
ATOM     68  C   UNL A   1      37.701  34.161  34.181  1.00  0.00     0.029 A 
ATOM     69  C   UNL A   1      38.727  33.241  34.323  1.00  0.00     0.049 A 
ATOM     70  H   UNL A   1      39.369  31.743  32.980  1.00  0.00     0.167 HD
ATOM     71  C   UNL A   1      40.603  32.132  35.500  1.00  0.00     0.074 A 
ATOM     72  C   UNL A   1      41.515  31.986  36.613  1.00  0.00     0.031 C 
ATOM     73  C   UNL A   1      39.633  33.075  35.430  1.00  0.00     0.037 A 
BRANCH  60  74
ATOM     74  C   UNL A   1      36.414  32.996  30.167  1.00  0.00     0.057 A 
ATOM     75  C   UNL A   1      35.049  32.795  30.405  1.00  0.00     0.134 A 
ATOM     76  C   UNL A   1      36.768  33.872  29.133  1.00  0.00     0.134 A 
ATOM     77  F   UNL A   1      34.643  31.957  31.371  1.00  0.00    -0.206 F 
ATOM     78  C   UNL A   1      34.074  33.428  29.632  1.00  0.00     0.040 A 
ATOM     79  C   UNL A   1      35.803  34.532  28.371  1.00  0.00     0.040 A 
ATOM     80  F   UNL A   1      38.059  34.112  28.855  1.00  0.00    -0.206 F 
ATOM     81  C   UNL A   1      34.451  34.307  28.618  1.00  0.00     0.006 A 
ENDBRANCH  60  74
BRANCH  61  82
ATOM     82  C   UNL A   1      43.904  28.798  35.257  1.00  0.00     0.057 A 
ATOM     83  C   UNL A   1      45.225  29.214  35.037  1.00  0.00     0.134 A 
ATOM     84  C   UNL A   1      43.711  27.762  36.180  1.00  0.00     0.134 A 
ATOM     85  F   UNL A   1      45.487  30.183  34.146  1.00  0.00    -0.206 F 
ATOM     86  C   UNL A   1      46.308  28.605  35.676  1.00  0.00     0.040 A 
ATOM     87  C   UNL A   1      44.781  27.171  36.857  1.00  0.00     0.040 A 
ATOM     88  F   UNL A   1      42.478  27.305  36.438  1.00  0.00    -0.206 F 
ATOM     89  C   UNL A   1      46.086  27.582  36.595  1.00  0.00     0.006 A 
ENDBRANCH  61  82
BRANCH  73  90
ATOM     90  C   UNL A   1      39.483  33.998  36.606  1.00  0.00     0.057 A 
ATOM     91  C   UNL A   1      38.761  33.631  37.749  1.00  0.00     0.134 A 
ATOM     92  C   UNL A   1      40.103  35.254  36.608  1.00  0.00     0.134 A 
ATOM     93  F   UNL A   1      38.132  32.448  37.807  1.00  0.00    -0.206 F 
ATOM     94  C   UNL A   1      38.642  34.491  38.842  1.00  0.00     0.040 A 
ATOM     95  C   UNL A   1      40.016  36.109  37.707  1.00  0.00     0.040 A 
ATOM     96  F   UNL A   1      40.818  35.663  35.548  1.00  0.00    -0.206 F 
ATOM     97  C   UNL A   1      39.277  35.732  38.825  1.00  0.00     0.006 A 
ENDBRANCH  73  90
ENDBRANCH  47  48
ENDBRANCH  39  42
ENDBRANCH  37  38
ENDBRANCH  36  37
ENDBRANCH  35  36
ENDBRANCH   3  35
TORSDOF 15
ENDMDL
