MODEL 1
REMARK VINA RESULT:     -12.6      0.000      0.000
REMARK SMILES O=CN1CCN(S(=O)(=O)c2ccc(C(=O)NCCCNC(=O)c3ccc(-c4c5nc(c(-c6c(F)cccc6F)c6ccc([nH]6)c(-c6c(F)cccc6F)c6nc(c(-c7c(F)cccc7F)c7ccc4[nH]7)C=C6)C=C5)cc3)cc2)CC1
REMARK SMILES IDX 18 1 17 2 16 3 14 4 15 5 13 7 10 8 11 9 78 10 12 11 77 12
REMARK SMILES IDX 7 13 8 14 9 15 6 16 1 17 2 18 3 19 4 20 80 21 5 22 79 23
REMARK SMILES IDX 19 24 20 25 21 26 22 28 23 29 24 30 76 31 25 32 75 33 26 34
REMARK SMILES IDX 27 35 28 36 69 37 29 38 74 39 68 40 70 41 30 42 73 43 67 44
REMARK SMILES IDX 66 45 31 47 57 48 40 49 56 50 41 51 44 52 55 53 71 54 42 55
REMARK SMILES IDX 43 56 54 58 72 59 45 60 32 61 33 62 38 63 34 64 35 65 37 66
REMARK SMILES IDX 39 67 36 68 58 69 59 70 64 71 60 72 61 73 63 74 65 75 62 76
REMARK SMILES IDX 46 77 47 78 52 79 48 80 49 81 51 82 53 83 50 84
REMARK H PARENT 16 6 20 27 70 46 44 57
REMARK Flexibility Score: inf
ROOT
ATOM      1  C   UNL A   1      31.426  32.111  26.707  1.00  0.00     0.042 C 
ENDROOT
BRANCH   1   2
ATOM      2  C   UNL A   1      31.662  30.664  26.278  1.00  0.00     0.118 C 
BRANCH   2   3
ATOM      3  N   UNL A   1      31.132  30.391  24.953  1.00  0.00    -0.352 N 
ATOM      4  C   UNL A   1      31.079  29.226  24.227  1.00  0.00     0.251 C 
ATOM      5  O   UNL A   1      30.414  29.202  23.194  1.00  0.00    -0.269 OA
ATOM      6  H   UNL A   1      30.744  31.174  24.498  1.00  0.00     0.163 HD
BRANCH   4   7
ATOM      7  C   UNL A   1      31.779  27.994  24.664  1.00  0.00     0.039 A 
ATOM      8  C   UNL A   1      32.978  25.585  25.438  1.00  0.00     0.082 A 
ATOM      9  C   UNL A   1      31.656  25.845  25.806  1.00  0.00     0.022 A 
ATOM     10  C   UNL A   1      33.682  26.497  24.643  1.00  0.00     0.022 A 
ATOM     11  C   UNL A   1      31.059  27.051  25.415  1.00  0.00     0.015 A 
ATOM     12  C   UNL A   1      33.083  27.697  24.259  1.00  0.00     0.015 A 
BRANCH   8  13
ATOM     13  S   UNL A   1      33.726  24.016  25.809  1.00  0.00     0.243 S 
ATOM     14  O   UNL A   1      32.982  23.440  26.912  1.00  0.00    -0.207 OA
ATOM     15  O   UNL A   1      35.153  24.213  25.917  1.00  0.00    -0.207 OA
BRANCH  13  16
ATOM     16  N   UNL A   1      33.451  23.059  24.422  1.00  0.00    -0.194 NA
ATOM     17  O   UNL A   1      32.046  18.269  25.328  1.00  0.00    -0.279 OA
ATOM     18  C   UNL A   1      33.105  18.863  25.179  1.00  0.00     0.340 C 
ATOM     19  N   UNL A   1      33.244  20.227  25.050  1.00  0.00    -0.343 N 
ATOM     20  C   UNL A   1      34.560  20.868  25.021  1.00  0.00     0.136 C 
ATOM     21  C   UNL A   1      32.081  21.095  25.210  1.00  0.00     0.136 C 
ATOM     22  C   UNL A   1      34.587  22.116  24.119  1.00  0.00     0.124 C 
ATOM     23  C   UNL A   1      32.153  22.325  24.299  1.00  0.00     0.124 C 
ENDBRANCH  13  16
ENDBRANCH   8  13
ENDBRANCH   4   7
ENDBRANCH   2   3
ENDBRANCH   1   2
BRANCH   1  24
ATOM     24  C   UNL A   1      32.674  32.818  27.231  1.00  0.00     0.118 C 
BRANCH  24  25
ATOM     25  N   UNL A   1      32.406  34.190  27.638  1.00  0.00    -0.352 N 
ATOM     26  C   UNL A   1      32.987  34.947  28.626  1.00  0.00     0.251 C 
ATOM     27  H   UNL A   1      31.698  34.645  27.126  1.00  0.00     0.163 HD
ATOM     28  O   UNL A   1      32.484  36.021  28.942  1.00  0.00    -0.269 OA
BRANCH  26  29
ATOM     29  C   UNL A   1      34.202  34.473  29.327  1.00  0.00     0.039 A 
ATOM     30  C   UNL A   1      34.068  33.907  30.599  1.00  0.00     0.014 A 
ATOM     31  C   UNL A   1      35.469  34.615  28.756  1.00  0.00     0.014 A 
ATOM     32  C   UNL A   1      35.193  33.416  31.267  1.00  0.00     0.010 A 
ATOM     33  C   UNL A   1      36.583  34.074  29.397  1.00  0.00     0.010 A 
ATOM     34  C   UNL A   1      36.455  33.464  30.654  1.00  0.00    -0.014 A 
BRANCH  34  35
ATOM     35  C   UNL A   1      37.651  32.857  31.291  1.00  0.00     0.031 A 
ATOM     36  C   UNL A   1      38.301  31.646  30.685  1.00  0.00     0.074 A 
ATOM     37  C   UNL A   1      38.092  33.341  32.467  1.00  0.00     0.049 A 
ATOM     38  N   UNL A   1      39.261  30.897  31.164  1.00  0.00    -0.248 NA
ATOM     39  C   UNL A   1      37.786  31.206  29.380  1.00  0.00     0.031 C 
ATOM     40  C   UNL A   1      37.523  34.488  33.177  1.00  0.00     0.029 A 
ATOM     41  N   UNL A   1      39.104  32.909  33.288  1.00  0.00    -0.354 N 
ATOM     42  C   UNL A   1      39.454  29.889  30.230  1.00  0.00     0.074 A 
ATOM     43  C   UNL A   1      38.487  30.101  29.173  1.00  0.00     0.031 C 
ATOM     44  C   UNL A   1      38.189  34.666  34.328  1.00  0.00     0.029 A 
ATOM     45  C   UNL A   1      39.205  33.626  34.456  1.00  0.00     0.049 A 
ATOM     46  H   UNL A   1      39.699  32.159  33.062  1.00  0.00     0.167 HD
ATOM     47  C   UNL A   1      40.365  28.886  30.244  1.00  0.00     0.037 A 
ATOM     48  C   UNL A   1      40.007  33.450  35.522  1.00  0.00     0.037 A 
ATOM     49  C   UNL A   1      41.340  28.688  31.285  1.00  0.00     0.049 A 
ATOM     50  C   UNL A   1      40.999  32.322  35.525  1.00  0.00     0.074 A 
ATOM     51  C   UNL A   1      42.351  27.745  31.353  1.00  0.00     0.029 A 
ATOM     52  N   UNL A   1      41.423  29.446  32.442  1.00  0.00    -0.354 N 
ATOM     53  N   UNL A   1      41.210  31.409  34.607  1.00  0.00    -0.248 NA
ATOM     54  C   UNL A   1      41.859  32.196  36.709  1.00  0.00     0.031 C 
ATOM     55  C   UNL A   1      43.021  27.908  32.570  1.00  0.00     0.029 A 
ATOM     56  C   UNL A   1      42.450  28.975  33.244  1.00  0.00     0.049 A 
ATOM     57  H   UNL A   1      40.837  30.207  32.663  1.00  0.00     0.167 HD
ATOM     58  C   UNL A   1      42.233  30.609  35.096  1.00  0.00     0.074 A 
ATOM     59  C   UNL A   1      42.611  31.152  36.385  1.00  0.00     0.031 C 
ATOM     60  C   UNL A   1      42.807  29.522  34.528  1.00  0.00     0.037 A 
BRANCH  47  61
ATOM     61  C   UNL A   1      40.345  27.922  29.095  1.00  0.00     0.057 A 
ATOM     62  C   UNL A   1      39.553  26.767  29.117  1.00  0.00     0.134 A 
ATOM     63  C   UNL A   1      41.106  28.162  27.946  1.00  0.00     0.134 A 
ATOM     64  F   UNL A   1      38.808  26.474  30.194  1.00  0.00    -0.206 F 
ATOM     65  C   UNL A   1      39.540  25.870  28.047  1.00  0.00     0.040 A 
ATOM     66  C   UNL A   1      41.084  27.285  26.860  1.00  0.00     0.040 A 
ATOM     67  F   UNL A   1      41.882  29.253  27.858  1.00  0.00    -0.206 F 
ATOM     68  C   UNL A   1      40.305  26.132  26.911  1.00  0.00     0.006 A 
ENDBRANCH  47  61
BRANCH  48  69
ATOM     69  C   UNL A   1      39.898  34.369  36.682  1.00  0.00     0.057 A 
ATOM     70  C   UNL A   1      40.560  35.600  36.691  1.00  0.00     0.134 A 
ATOM     71  C   UNL A   1      39.113  34.045  37.796  1.00  0.00     0.134 A 
ATOM     72  F   UNL A   1      41.340  35.954  35.659  1.00  0.00    -0.206 F 
ATOM     73  C   UNL A   1      40.453  36.478  37.771  1.00  0.00     0.040 A 
ATOM     74  C   UNL A   1      38.981  34.922  38.873  1.00  0.00     0.040 A 
ATOM     75  F   UNL A   1      38.449  32.881  37.840  1.00  0.00    -0.206 F 
ATOM     76  C   UNL A   1      39.656  36.141  38.863  1.00  0.00     0.006 A 
ENDBRANCH  48  69
BRANCH  60  77
ATOM     77  C   UNL A   1      43.907  28.850  35.293  1.00  0.00     0.057 A 
ATOM     78  C   UNL A   1      43.638  27.853  36.238  1.00  0.00     0.134 A 
ATOM     79  C   UNL A   1      45.248  29.170  35.049  1.00  0.00     0.134 A 
ATOM     80  F   UNL A   1      42.373  27.513  36.526  1.00  0.00    -0.206 F 
ATOM     81  C   UNL A   1      44.667  27.205  36.924  1.00  0.00     0.040 A 
ATOM     82  C   UNL A   1      46.286  28.516  35.714  1.00  0.00     0.040 A 
ATOM     83  F   UNL A   1      45.571  30.113  34.150  1.00  0.00    -0.206 F 
ATOM     84  C   UNL A   1      45.995  27.531  36.656  1.00  0.00     0.006 A 
ENDBRANCH  60  77
ENDBRANCH  34  35
ENDBRANCH  26  29
ENDBRANCH  24  25
ENDBRANCH   1  24
TORSDOF 12
ENDMDL
MODEL 2
REMARK VINA RESULT:     -12.6      0.105      1.604
REMARK SMILES O=CN1CCN(S(=O)(=O)c2ccc(C(=O)NCCCNC(=O)c3ccc(-c4c5nc(c(-c6c(F)cccc6F)c6ccc([nH]6)c(-c6c(F)cccc6F)c6nc(c(-c7c(F)cccc7F)c7ccc4[nH]7)C=C6)C=C5)cc3)cc2)CC1
REMARK SMILES IDX 18 1 17 2 16 3 14 4 15 5 13 7 10 8 11 9 78 10 12 11 77 12
REMARK SMILES IDX 7 13 8 14 9 15 6 16 1 17 2 18 3 19 4 20 80 21 5 22 79 23
REMARK SMILES IDX 19 24 20 25 21 26 22 28 23 29 24 30 76 31 25 32 75 33 26 34
REMARK SMILES IDX 27 35 28 36 69 37 29 38 74 39 68 40 70 41 30 42 73 43 67 44
REMARK SMILES IDX 66 45 31 47 57 48 40 49 56 50 41 51 44 52 55 53 71 54 42 55
REMARK SMILES IDX 43 56 54 58 72 59 45 60 32 61 33 62 38 63 34 64 35 65 37 66
REMARK SMILES IDX 39 67 36 68 58 69 59 70 64 71 60 72 61 73 63 74 65 75 62 76
REMARK SMILES IDX 46 77 47 78 52 79 48 80 49 81 51 82 53 83 50 84
REMARK H PARENT 16 6 20 27 70 46 44 57
REMARK Flexibility Score: inf
ROOT
ATOM      1  C   UNL A   1      31.398  32.061  26.554  1.00  0.00     0.042 C 
ENDROOT
BRANCH   1   2
ATOM      2  C   UNL A   1      31.610  30.598  26.166  1.00  0.00     0.118 C 
BRANCH   2   3
ATOM      3  N   UNL A   1      31.093  30.301  24.841  1.00  0.00    -0.352 N 
ATOM      4  C   UNL A   1      31.045  29.124  24.137  1.00  0.00     0.251 C 
ATOM      5  O   UNL A   1      30.391  29.081  23.097  1.00  0.00    -0.269 OA
ATOM      6  H   UNL A   1      30.712  31.077  24.368  1.00  0.00     0.163 HD
BRANCH   4   7
ATOM      7  C   UNL A   1      31.737  27.898  24.604  1.00  0.00     0.039 A 
ATOM      8  C   UNL A   1      32.926  25.501  25.425  1.00  0.00     0.082 A 
ATOM      9  C   UNL A   1      31.576  25.727  25.698  1.00  0.00     0.022 A 
ATOM     10  C   UNL A   1      33.668  26.441  24.700  1.00  0.00     0.022 A 
ATOM     11  C   UNL A   1      30.984  26.927  25.283  1.00  0.00     0.015 A 
ATOM     12  C   UNL A   1      33.073  27.635  24.292  1.00  0.00     0.015 A 
BRANCH   8  13
ATOM     13  S   UNL A   1      33.679  23.940  25.825  1.00  0.00     0.243 S 
ATOM     14  O   UNL A   1      32.889  23.347  26.886  1.00  0.00    -0.207 OA
ATOM     15  O   UNL A   1      35.095  24.158  26.005  1.00  0.00    -0.207 OA
BRANCH  13  16
ATOM     16  N   UNL A   1      33.487  22.987  24.421  1.00  0.00    -0.194 NA
ATOM     17  O   UNL A   1      32.014  18.199  25.226  1.00  0.00    -0.279 OA
ATOM     18  C   UNL A   1      33.083  18.791  25.144  1.00  0.00     0.340 C 
ATOM     19  N   UNL A   1      33.233  20.154  25.027  1.00  0.00    -0.343 N 
ATOM     20  C   UNL A   1      34.550  20.791  25.082  1.00  0.00     0.136 C 
ATOM     21  C   UNL A   1      32.065  21.026  25.117  1.00  0.00     0.136 C 
ATOM     22  C   UNL A   1      34.637  22.042  24.187  1.00  0.00     0.124 C 
ATOM     23  C   UNL A   1      32.196  22.257  24.216  1.00  0.00     0.124 C 
ENDBRANCH  13  16
ENDBRANCH   8  13
ENDBRANCH   4   7
ENDBRANCH   2   3
ENDBRANCH   1   2
BRANCH   1  24
ATOM     24  C   UNL A   1      32.591  32.697  27.264  1.00  0.00     0.118 C 
BRANCH  24  25
ATOM     25  N   UNL A   1      32.355  34.092  27.605  1.00  0.00    -0.352 N 
ATOM     26  C   UNL A   1      32.963  34.886  28.547  1.00  0.00     0.251 C 
ATOM     27  H   UNL A   1      31.650  34.536  27.079  1.00  0.00     0.163 HD
ATOM     28  O   UNL A   1      32.485  35.984  28.815  1.00  0.00    -0.269 OA
BRANCH  26  29
ATOM     29  C   UNL A   1      34.178  34.423  29.256  1.00  0.00     0.039 A 
ATOM     30  C   UNL A   1      34.036  33.815  30.508  1.00  0.00     0.014 A 
ATOM     31  C   UNL A   1      35.451  34.616  28.714  1.00  0.00     0.014 A 
ATOM     32  C   UNL A   1      35.162  33.333  31.182  1.00  0.00     0.010 A 
ATOM     33  C   UNL A   1      36.567  34.085  29.360  1.00  0.00     0.010 A 
ATOM     34  C   UNL A   1      36.432  33.434  30.596  1.00  0.00    -0.014 A 
BRANCH  34  35
ATOM     35  C   UNL A   1      37.632  32.840  31.236  1.00  0.00     0.031 A 
ATOM     36  C   UNL A   1      38.284  31.622  30.646  1.00  0.00     0.074 A 
ATOM     37  C   UNL A   1      38.077  33.342  32.403  1.00  0.00     0.049 A 
ATOM     38  N   UNL A   1      39.248  30.882  31.132  1.00  0.00    -0.248 NA
ATOM     39  C   UNL A   1      37.764  31.160  29.350  1.00  0.00     0.031 C 
ATOM     40  C   UNL A   1      37.508  34.497  33.099  1.00  0.00     0.029 A 
ATOM     41  N   UNL A   1      39.093  32.925  33.226  1.00  0.00    -0.354 N 
ATOM     42  C   UNL A   1      39.440  29.860  30.212  1.00  0.00     0.074 A 
ATOM     43  C   UNL A   1      38.468  30.054  29.156  1.00  0.00     0.031 C 
ATOM     44  C   UNL A   1      38.178  34.694  34.245  1.00  0.00     0.029 A 
ATOM     45  C   UNL A   1      39.197  33.658  34.384  1.00  0.00     0.049 A 
ATOM     46  H   UNL A   1      39.689  32.172  33.009  1.00  0.00     0.167 HD
ATOM     47  C   UNL A   1      40.353  28.860  30.237  1.00  0.00     0.037 A 
ATOM     48  C   UNL A   1      40.004  33.500  35.449  1.00  0.00     0.037 A 
ATOM     49  C   UNL A   1      41.333  28.681  31.277  1.00  0.00     0.049 A 
ATOM     50  C   UNL A   1      40.998  32.375  35.464  1.00  0.00     0.074 A 
ATOM     51  C   UNL A   1      42.346  27.741  31.354  1.00  0.00     0.029 A 
ATOM     52  N   UNL A   1      41.418  29.456  32.423  1.00  0.00    -0.354 N 
ATOM     53  N   UNL A   1      41.209  31.450  34.559  1.00  0.00    -0.248 NA
ATOM     54  C   UNL A   1      41.864  32.269  36.646  1.00  0.00     0.031 C 
ATOM     55  C   UNL A   1      43.021  27.923  32.566  1.00  0.00     0.029 A 
ATOM     56  C   UNL A   1      42.449  28.999  33.227  1.00  0.00     0.049 A 
ATOM     57  H   UNL A   1      40.832  30.218  32.634  1.00  0.00     0.167 HD
ATOM     58  C   UNL A   1      42.236  30.660  35.056  1.00  0.00     0.074 A 
ATOM     59  C   UNL A   1      42.617  31.223  36.335  1.00  0.00     0.031 C 
ATOM     60  C   UNL A   1      42.811  29.565  34.502  1.00  0.00     0.037 A 
BRANCH  47  61
ATOM     61  C   UNL A   1      40.331  27.880  29.103  1.00  0.00     0.057 A 
ATOM     62  C   UNL A   1      41.092  28.078  27.943  1.00  0.00     0.134 A 
ATOM     63  C   UNL A   1      39.561  26.713  29.179  1.00  0.00     0.134 A 
ATOM     64  F   UNL A   1      41.842  29.181  27.804  1.00  0.00    -0.206 F 
ATOM     65  C   UNL A   1      41.066  27.165  26.888  1.00  0.00     0.040 A 
ATOM     66  C   UNL A   1      39.545  25.781  28.140  1.00  0.00     0.040 A 
ATOM     67  F   UNL A   1      38.814  26.459  30.264  1.00  0.00    -0.206 F 
ATOM     68  C   UNL A   1      40.293  26.009  26.987  1.00  0.00     0.006 A 
ENDBRANCH  47  61
BRANCH  48  69
ATOM     69  C   UNL A   1      39.897  34.436  36.595  1.00  0.00     0.057 A 
ATOM     70  C   UNL A   1      39.144  34.107  37.727  1.00  0.00     0.134 A 
ATOM     71  C   UNL A   1      40.560  35.669  36.593  1.00  0.00     0.134 A 
ATOM     72  F   UNL A   1      38.473  32.947  37.777  1.00  0.00    -0.206 F 
ATOM     73  C   UNL A   1      39.047  34.975  38.816  1.00  0.00     0.040 A 
ATOM     74  C   UNL A   1      40.489  36.537  37.683  1.00  0.00     0.040 A 
ATOM     75  F   UNL A   1      41.303  36.036  35.538  1.00  0.00    -0.206 F 
ATOM     76  C   UNL A   1      39.727  36.191  38.797  1.00  0.00     0.006 A 
ENDBRANCH  48  69
BRANCH  60  77
ATOM     77  C   UNL A   1      43.915  28.908  35.272  1.00  0.00     0.057 A 
ATOM     78  C   UNL A   1      45.255  29.265  35.078  1.00  0.00     0.134 A 
ATOM     79  C   UNL A   1      43.633  27.942  36.246  1.00  0.00     0.134 A 
ATOM     80  F   UNL A   1      45.590  30.173  34.150  1.00  0.00    -0.206 F 
ATOM     81  C   UNL A   1      46.279  28.675  35.821  1.00  0.00     0.040 A 
ATOM     82  C   UNL A   1      44.646  27.359  37.008  1.00  0.00     0.040 A 
ATOM     83  F   UNL A   1      42.368  27.561  36.481  1.00  0.00    -0.206 F 
ATOM     84  C   UNL A   1      45.974  27.725  36.795  1.00  0.00     0.006 A 
ENDBRANCH  60  77
ENDBRANCH  34  35
ENDBRANCH  26  29
ENDBRANCH  24  25
ENDBRANCH   1  24
TORSDOF 12
ENDMDL
MODEL 3
REMARK VINA RESULT:     -12.6      5.302     10.821
REMARK SMILES O=CN1CCN(S(=O)(=O)c2ccc(C(=O)NCCCNC(=O)c3ccc(-c4c5nc(c(-c6c(F)cccc6F)c6ccc([nH]6)c(-c6c(F)cccc6F)c6nc(c(-c7c(F)cccc7F)c7ccc4[nH]7)C=C6)C=C5)cc3)cc2)CC1
REMARK SMILES IDX 18 1 17 2 16 3 14 4 15 5 13 7 10 8 11 9 78 10 12 11 77 12
REMARK SMILES IDX 7 13 8 14 9 15 6 16 1 17 2 18 3 19 4 20 80 21 5 22 79 23
REMARK SMILES IDX 19 24 20 25 21 26 22 28 23 29 24 30 76 31 25 32 75 33 26 34
REMARK SMILES IDX 27 35 28 36 69 37 29 38 74 39 68 40 70 41 30 42 73 43 67 44
REMARK SMILES IDX 66 45 31 47 57 48 40 49 56 50 41 51 44 52 55 53 71 54 42 55
REMARK SMILES IDX 43 56 54 58 72 59 45 60 32 61 33 62 38 63 34 64 35 65 37 66
REMARK SMILES IDX 39 67 36 68 58 69 59 70 64 71 60 72 61 73 63 74 65 75 62 76
REMARK SMILES IDX 46 77 47 78 52 79 48 80 49 81 51 82 53 83 50 84
REMARK H PARENT 16 6 20 27 70 46 44 57
REMARK Flexibility Score: inf
ROOT
ATOM      1  C   UNL A   1      37.921  19.618  24.999  1.00  0.00     0.042 C 
ENDROOT
BRANCH   1   2
ATOM      2  C   UNL A   1      36.830  20.678  24.852  1.00  0.00     0.118 C 
BRANCH   2   3
ATOM      3  N   UNL A   1      35.514  20.162  25.192  1.00  0.00    -0.352 N 
ATOM      4  C   UNL A   1      34.282  20.768  25.191  1.00  0.00     0.251 C 
ATOM      5  O   UNL A   1      33.280  20.073  25.344  1.00  0.00    -0.269 OA
ATOM      6  H   UNL A   1      35.505  19.217  25.470  1.00  0.00     0.163 HD
BRANCH   4   7
ATOM      7  C   UNL A   1      34.123  22.229  24.987  1.00  0.00     0.039 A 
ATOM      8  C   UNL A   1      33.697  24.955  24.516  1.00  0.00     0.082 A 
ATOM      9  C   UNL A   1      33.679  24.061  23.444  1.00  0.00     0.022 A 
ATOM     10  C   UNL A   1      33.873  24.487  25.824  1.00  0.00     0.022 A 
ATOM     11  C   UNL A   1      33.890  22.697  23.684  1.00  0.00     0.015 A 
ATOM     12  C   UNL A   1      34.086  23.128  26.056  1.00  0.00     0.015 A 
BRANCH   8  13
ATOM     13  S   UNL A   1      33.309  26.672  24.266  1.00  0.00     0.243 S 
ATOM     14  O   UNL A   1      33.568  26.967  22.870  1.00  0.00    -0.207 OA
ATOM     15  O   UNL A   1      33.959  27.435  25.306  1.00  0.00    -0.207 OA
BRANCH  13  16
ATOM     16  N   UNL A   1      31.625  26.785  24.530  1.00  0.00    -0.194 NA
ATOM     17  O   UNL A   1      29.109  29.762  21.283  1.00  0.00    -0.279 OA
ATOM     18  C   UNL A   1      29.676  29.911  22.357  1.00  0.00     0.340 C 
ATOM     19  N   UNL A   1      30.406  28.947  23.015  1.00  0.00    -0.343 N 
ATOM     20  C   UNL A   1      31.173  29.253  24.224  1.00  0.00     0.136 C 
ATOM     21  C   UNL A   1      30.654  27.658  22.375  1.00  0.00     0.136 C 
ATOM     22  C   UNL A   1      31.219  28.069  25.207  1.00  0.00     0.124 C 
ATOM     23  C   UNL A   1      30.697  26.512  23.389  1.00  0.00     0.124 C 
ENDBRANCH  13  16
ENDBRANCH   8  13
ENDBRANCH   4   7
ENDBRANCH   2   3
ENDBRANCH   1   2
BRANCH   1  24
ATOM     24  C   UNL A   1      39.158  20.097  25.754  1.00  0.00     0.118 C 
BRANCH  24  25
ATOM     25  N   UNL A   1      40.188  19.072  25.841  1.00  0.00    -0.352 N 
ATOM     26  C   UNL A   1      41.543  19.195  26.033  1.00  0.00     0.251 C 
ATOM     27  H   UNL A   1      39.863  18.147  25.747  1.00  0.00     0.163 HD
ATOM     28  O   UNL A   1      42.268  18.217  25.880  1.00  0.00    -0.269 OA
BRANCH  26  29
ATOM     29  C   UNL A   1      42.139  20.499  26.403  1.00  0.00     0.039 A 
ATOM     30  C   UNL A   1      42.573  21.354  25.385  1.00  0.00     0.014 A 
ATOM     31  C   UNL A   1      42.305  20.865  27.742  1.00  0.00     0.014 A 
ATOM     32  C   UNL A   1      43.104  22.607  25.706  1.00  0.00     0.010 A 
ATOM     33  C   UNL A   1      42.781  22.137  28.059  1.00  0.00     0.010 A 
ATOM     34  C   UNL A   1      43.179  23.022  27.044  1.00  0.00    -0.014 A 
BRANCH  34  35
ATOM     35  C   UNL A   1      43.638  24.384  27.411  1.00  0.00     0.031 A 
ATOM     36  C   UNL A   1      42.648  25.433  27.831  1.00  0.00     0.074 A 
ATOM     37  C   UNL A   1      44.939  24.704  27.272  1.00  0.00     0.049 A 
ATOM     38  N   UNL A   1      42.839  26.708  28.054  1.00  0.00    -0.248 NA
ATOM     39  C   UNL A   1      41.255  24.993  27.997  1.00  0.00     0.031 C 
ATOM     40  C   UNL A   1      45.993  23.787  26.836  1.00  0.00     0.029 A 
ATOM     41  N   UNL A   1      45.590  25.898  27.456  1.00  0.00    -0.354 N 
ATOM     42  C   UNL A   1      41.590  27.226  28.371  1.00  0.00     0.074 A 
ATOM     43  C   UNL A   1      40.643  26.135  28.276  1.00  0.00     0.031 C 
ATOM     44  C   UNL A   1      47.158  24.452  26.780  1.00  0.00     0.029 A 
ATOM     45  C   UNL A   1      46.926  25.848  27.139  1.00  0.00     0.049 A 
ATOM     46  H   UNL A   1      45.143  26.712  27.782  1.00  0.00     0.167 HD
ATOM     47  C   UNL A   1      41.265  28.493  28.723  1.00  0.00     0.037 A 
ATOM     48  C   UNL A   1      47.856  26.821  27.115  1.00  0.00     0.037 A 
ATOM     49  C   UNL A   1      42.211  29.572  28.838  1.00  0.00     0.049 A 
ATOM     50  C   UNL A   1      47.471  28.222  27.494  1.00  0.00     0.074 A 
ATOM     51  C   UNL A   1      41.990  30.873  29.259  1.00  0.00     0.029 A 
ATOM     52  N   UNL A   1      43.559  29.477  28.527  1.00  0.00    -0.354 N 
ATOM     53  N   UNL A   1      46.297  28.686  27.848  1.00  0.00    -0.248 NA
ATOM     54  C   UNL A   1      48.535  29.234  27.467  1.00  0.00     0.031 C 
ATOM     55  C   UNL A   1      43.196  31.575  29.166  1.00  0.00     0.029 A 
ATOM     56  C   UNL A   1      44.176  30.702  28.720  1.00  0.00     0.049 A 
ATOM     57  H   UNL A   1      44.010  28.659  28.215  1.00  0.00     0.167 HD
ATOM     58  C   UNL A   1      46.483  30.039  28.096  1.00  0.00     0.074 A 
ATOM     59  C   UNL A   1      47.886  30.319  27.868  1.00  0.00     0.031 C 
ATOM     60  C   UNL A   1      45.572  30.966  28.479  1.00  0.00     0.037 A 
BRANCH  47  61
ATOM     61  C   UNL A   1      39.821  28.779  29.009  1.00  0.00     0.057 A 
ATOM     62  C   UNL A   1      39.290  28.668  30.300  1.00  0.00     0.134 A 
ATOM     63  C   UNL A   1      38.958  29.192  27.988  1.00  0.00     0.134 A 
ATOM     64  F   UNL A   1      40.062  28.266  31.320  1.00  0.00    -0.206 F 
ATOM     65  C   UNL A   1      37.944  28.931  30.561  1.00  0.00     0.040 A 
ATOM     66  C   UNL A   1      37.615  29.481  28.240  1.00  0.00     0.040 A 
ATOM     67  F   UNL A   1      39.404  29.324  26.730  1.00  0.00    -0.206 F 
ATOM     68  C   UNL A   1      37.103  29.344  29.529  1.00  0.00     0.006 A 
ENDBRANCH  47  61
BRANCH  48  69
ATOM     69  C   UNL A   1      49.245  26.497  26.710  1.00  0.00     0.057 A 
ATOM     70  C   UNL A   1      50.168  25.997  27.633  1.00  0.00     0.134 A 
ATOM     71  C   UNL A   1      49.676  26.662  25.387  1.00  0.00     0.134 A 
ATOM     72  F   UNL A   1      49.817  25.835  28.917  1.00  0.00    -0.206 F 
ATOM     73  C   UNL A   1      51.474  25.676  27.259  1.00  0.00     0.040 A 
ATOM     74  C   UNL A   1      50.972  26.327  24.995  1.00  0.00     0.040 A 
ATOM     75  F   UNL A   1      48.833  27.132  24.455  1.00  0.00    -0.206 F 
ATOM     76  C   UNL A   1      51.876  25.836  25.934  1.00  0.00     0.006 A 
ENDBRANCH  48  69
BRANCH  60  77
ATOM     77  C   UNL A   1      46.064  32.367  28.681  1.00  0.00     0.057 A 
ATOM     78  C   UNL A   1      46.028  33.311  27.647  1.00  0.00     0.134 A 
ATOM     79  C   UNL A   1      46.536  32.788  29.930  1.00  0.00     0.134 A 
ATOM     80  F   UNL A   1      45.600  32.964  26.424  1.00  0.00    -0.206 F 
ATOM     81  C   UNL A   1      46.454  34.625  27.847  1.00  0.00     0.040 A 
ATOM     82  C   UNL A   1      46.948  34.103  30.147  1.00  0.00     0.040 A 
ATOM     83  F   UNL A   1      46.591  31.931  30.961  1.00  0.00    -0.206 F 
ATOM     84  C   UNL A   1      46.909  35.026  29.103  1.00  0.00     0.006 A 
ENDBRANCH  60  77
ENDBRANCH  34  35
ENDBRANCH  26  29
ENDBRANCH  24  25
ENDBRANCH   1  24
TORSDOF 12
ENDMDL
