MODEL 1
REMARK VINA RESULT:     -13.8      0.000      0.000
REMARK SMILES CC(C)n1c2c(c3ccccc31)[C@@H](c1ccccc1)N(CC(=O)NCCCNC(=O)c1ccc(-c3c4nc(c(-c5c(F)cccc5F)c5ccc([nH]5)c(-c5c(F)cccc5F)c5nc(c(-c6c(F)cccc6F)c6ccc3[nH]6)C=C5)C=C4)cc1)C2=O
REMARK SMILES IDX 26 1 25 2 24 3 22 4 23 5 21 7 20 8 4 9 5 10 12 11 6 12 85 13
REMARK SMILES IDX 7 14 11 15 13 16 86 17 8 18 10 19 9 20 2 21 1 22 3 23 14 24
REMARK SMILES IDX 15 25 19 26 16 27 18 28 17 29 27 30 28 31 29 32 30 34 31 35
REMARK SMILES IDX 32 36 84 37 33 38 83 39 34 40 35 41 36 42 77 43 37 44 82 45
REMARK SMILES IDX 76 46 78 47 38 48 81 49 75 50 74 51 39 53 65 54 48 55 64 56
REMARK SMILES IDX 49 57 52 58 63 59 79 60 50 61 51 62 62 64 80 65 53 66 40 67
REMARK SMILES IDX 41 68 46 69 42 70 43 71 45 72 47 73 44 74 66 75 67 76 72 77
REMARK SMILES IDX 68 78 69 79 71 80 73 81 70 82 54 83 55 84 60 85 56 86 57 87
REMARK SMILES IDX 59 88 61 89 58 90
REMARK H PARENT 24 6 28 33 78 52 52 63
REMARK Flexibility Score: inf
ROOT
ATOM      1  C   UNL A   1      41.373  20.806  26.755  1.00  0.00     0.042 C 
ENDROOT
BRANCH   1   2
ATOM      2  C   UNL A   1      40.004  20.688  26.083  1.00  0.00     0.117 C 
BRANCH   2   3
ATOM      3  N   UNL A   1      39.160  21.841  26.346  1.00  0.00    -0.354 N 
ATOM      4  C   UNL A   1      37.980  22.203  25.765  1.00  0.00     0.239 C 
ATOM      5  O   UNL A   1      37.474  23.277  26.099  1.00  0.00    -0.273 OA
ATOM      6  H   UNL A   1      39.489  22.450  27.044  1.00  0.00     0.163 HD
BRANCH   4   7
ATOM      7  C   UNL A   1      37.335  21.331  24.682  1.00  0.00     0.220 C 
BRANCH   7   8
ATOM      8  N   UNL A   1      35.968  21.741  24.424  1.00  0.00    -0.317 N 
ATOM      9  N   UNL A   1      33.479  24.240  23.791  1.00  0.00    -0.334 N 
ATOM     10  C   UNL A   1      34.346  23.200  23.987  1.00  0.00     0.114 A 
ATOM     11  C   UNL A   1      32.435  24.081  24.717  1.00  0.00     0.049 A 
ATOM     12  C   UNL A   1      33.886  22.378  24.978  1.00  0.00     0.018 A 
ATOM     13  C   UNL A   1      35.644  22.785  23.557  1.00  0.00     0.272 C 
ATOM     14  C   UNL A   1      32.699  22.916  25.477  1.00  0.00     0.006 A 
ATOM     15  C   UNL A   1      31.270  24.824  24.992  1.00  0.00     0.027 A 
ATOM     16  C   UNL A   1      34.828  21.261  25.244  1.00  0.00     0.150 C 
ATOM     17  O   UNL A   1      36.367  23.296  22.715  1.00  0.00    -0.267 OA
ATOM     18  C   UNL A   1      31.821  22.518  26.504  1.00  0.00     0.011 A 
ATOM     19  C   UNL A   1      30.400  24.395  26.004  1.00  0.00     0.002 A 
ATOM     20  C   UNL A   1      30.671  23.261  26.755  1.00  0.00     0.001 A 
BRANCH   9  21
ATOM     21  C   UNL A   1      33.690  25.263  22.759  1.00  0.00     0.082 C 
ATOM     22  C   UNL A   1      32.743  25.241  21.556  1.00  0.00     0.031 C 
ATOM     23  C   UNL A   1      33.683  26.690  23.325  1.00  0.00     0.031 C 
ENDBRANCH   9  21
BRANCH  16  24
ATOM     24  C   UNL A   1      34.260  19.954  24.709  1.00  0.00    -0.021 A 
ATOM     25  C   UNL A   1      35.088  18.814  24.739  1.00  0.00     0.006 A 
ATOM     26  C   UNL A   1      32.980  19.804  24.141  1.00  0.00     0.006 A 
ATOM     27  C   UNL A   1      34.671  17.597  24.191  1.00  0.00     0.000 A 
ATOM     28  C   UNL A   1      32.555  18.582  23.613  1.00  0.00     0.000 A 
ATOM     29  C   UNL A   1      33.405  17.482  23.627  1.00  0.00     0.000 A 
ENDBRANCH  16  24
ENDBRANCH   7   8
ENDBRANCH   4   7
ENDBRANCH   2   3
ENDBRANCH   1   2
BRANCH   1  30
ATOM     30  C   UNL A   1      42.272  19.587  26.563  1.00  0.00     0.118 C 
BRANCH  30  31
ATOM     31  N   UNL A   1      43.108  19.673  25.385  1.00  0.00    -0.352 N 
ATOM     32  C   UNL A   1      43.958  20.602  24.863  1.00  0.00     0.251 C 
ATOM     33  H   UNL A   1      43.048  18.866  24.825  1.00  0.00     0.163 HD
ATOM     34  O   UNL A   1      44.560  20.257  23.842  1.00  0.00    -0.269 OA
BRANCH  32  35
ATOM     35  C   UNL A   1      44.148  21.987  25.364  1.00  0.00     0.039 A 
ATOM     36  C   UNL A   1      44.900  22.364  26.478  1.00  0.00     0.014 A 
ATOM     37  C   UNL A   1      43.392  22.970  24.695  1.00  0.00     0.014 A 
ATOM     38  C   UNL A   1      44.761  23.642  27.009  1.00  0.00     0.010 A 
ATOM     39  C   UNL A   1      43.272  24.251  25.202  1.00  0.00     0.010 A 
ATOM     40  C   UNL A   1      43.881  24.550  26.413  1.00  0.00    -0.014 A 
BRANCH  40  41
ATOM     41  C   UNL A   1      43.620  25.816  27.086  1.00  0.00     0.031 A 
ATOM     42  C   UNL A   1      44.612  26.890  26.803  1.00  0.00     0.074 A 
ATOM     43  C   UNL A   1      42.514  26.011  27.837  1.00  0.00     0.049 A 
ATOM     44  N   UNL A   1      45.424  27.470  27.627  1.00  0.00    -0.248 NA
ATOM     45  C   UNL A   1      44.815  27.271  25.397  1.00  0.00     0.031 C 
ATOM     46  C   UNL A   1      41.346  25.134  27.996  1.00  0.00     0.029 A 
ATOM     47  N   UNL A   1      42.167  27.099  28.576  1.00  0.00    -0.354 N 
ATOM     48  C   UNL A   1      46.108  28.428  26.880  1.00  0.00     0.074 A 
ATOM     49  C   UNL A   1      45.803  28.161  25.499  1.00  0.00     0.031 C 
ATOM     50  C   UNL A   1      40.337  25.824  28.576  1.00  0.00     0.029 A 
ATOM     51  C   UNL A   1      40.834  27.127  28.973  1.00  0.00     0.049 A 
ATOM     52  H   UNL A   1      42.806  27.811  28.808  1.00  0.00     0.167 HD
ATOM     53  C   UNL A   1      46.699  29.505  27.467  1.00  0.00     0.037 A 
ATOM     54  C   UNL A   1      40.186  28.179  29.536  1.00  0.00     0.037 A 
ATOM     55  C   UNL A   1      46.912  29.288  28.874  1.00  0.00     0.049 A 
ATOM     56  C   UNL A   1      41.219  29.092  30.084  1.00  0.00     0.074 A 
ATOM     57  C   UNL A   1      47.673  28.417  29.627  1.00  0.00     0.029 A 
ATOM     58  N   UNL A   1      46.002  29.830  29.746  1.00  0.00    -0.354 N 
ATOM     59  N   UNL A   1      41.986  28.784  31.093  1.00  0.00    -0.248 NA
ATOM     60  C   UNL A   1      41.728  30.133  29.204  1.00  0.00     0.031 C 
ATOM     61  C   UNL A   1      46.864  28.111  30.763  1.00  0.00     0.029 A 
ATOM     62  C   UNL A   1      45.691  28.859  30.661  1.00  0.00     0.049 A 
ATOM     63  H   UNL A   1      45.641  30.745  29.720  1.00  0.00     0.167 HD
ATOM     64  C   UNL A   1      43.239  29.271  30.748  1.00  0.00     0.074 A 
ATOM     65  C   UNL A   1      43.004  30.144  29.598  1.00  0.00     0.031 C 
ATOM     66  C   UNL A   1      44.379  28.703  31.241  1.00  0.00     0.037 A 
BRANCH  53  67
ATOM     67  C   UNL A   1      46.718  30.890  26.866  1.00  0.00     0.057 A 
ATOM     68  C   UNL A   1      45.559  31.642  26.593  1.00  0.00     0.134 A 
ATOM     69  C   UNL A   1      47.920  31.624  26.870  1.00  0.00     0.134 A 
ATOM     70  F   UNL A   1      44.334  31.104  26.606  1.00  0.00    -0.206 F 
ATOM     71  C   UNL A   1      45.583  33.025  26.395  1.00  0.00     0.040 A 
ATOM     72  C   UNL A   1      47.949  33.015  26.719  1.00  0.00     0.040 A 
ATOM     73  F   UNL A   1      49.094  31.021  27.111  1.00  0.00    -0.206 F 
ATOM     74  C   UNL A   1      46.774  33.723  26.497  1.00  0.00     0.006 A 
ENDBRANCH  53  67
BRANCH  54  75
ATOM     75  C   UNL A   1      38.798  28.622  29.270  1.00  0.00     0.057 A 
ATOM     76  C   UNL A   1      38.453  29.219  28.044  1.00  0.00     0.134 A 
ATOM     77  C   UNL A   1      37.847  28.728  30.294  1.00  0.00     0.134 A 
ATOM     78  F   UNL A   1      39.325  29.255  27.025  1.00  0.00    -0.206 F 
ATOM     79  C   UNL A   1      37.238  29.884  27.846  1.00  0.00     0.040 A 
ATOM     80  C   UNL A   1      36.626  29.393  30.111  1.00  0.00     0.040 A 
ATOM     81  F   UNL A   1      38.108  28.238  31.515  1.00  0.00    -0.206 F 
ATOM     82  C   UNL A   1      36.322  29.982  28.886  1.00  0.00     0.006 A 
ENDBRANCH  54  75
BRANCH  66  83
ATOM     83  C   UNL A   1      44.227  27.665  32.318  1.00  0.00     0.057 A 
ATOM     84  C   UNL A   1      44.314  28.059  33.655  1.00  0.00     0.134 A 
ATOM     85  C   UNL A   1      44.132  26.286  32.068  1.00  0.00     0.134 A 
ATOM     86  F   UNL A   1      44.472  29.354  33.968  1.00  0.00    -0.206 F 
ATOM     87  C   UNL A   1      44.289  27.131  34.700  1.00  0.00     0.040 A 
ATOM     88  C   UNL A   1      44.076  25.349  33.104  1.00  0.00     0.040 A 
ATOM     89  F   UNL A   1      44.152  25.807  30.819  1.00  0.00    -0.206 F 
ATOM     90  C   UNL A   1      44.156  25.772  34.427  1.00  0.00     0.006 A 
ENDBRANCH  66  83
ENDBRANCH  40  41
ENDBRANCH  32  35
ENDBRANCH  30  31
ENDBRANCH   1  30
TORSDOF 13
ENDMDL
MODEL 2
REMARK VINA RESULT:     -13.3      2.729      7.495
REMARK SMILES CC(C)n1c2c(c3ccccc31)[C@@H](c1ccccc1)N(CC(=O)NCCCNC(=O)c1ccc(-c3c4nc(c(-c5c(F)cccc5F)c5ccc([nH]5)c(-c5c(F)cccc5F)c5nc(c(-c6c(F)cccc6F)c6ccc3[nH]6)C=C5)C=C4)cc1)C2=O
REMARK SMILES IDX 26 1 25 2 24 3 22 4 23 5 21 7 20 8 4 9 5 10 12 11 6 12 85 13
REMARK SMILES IDX 7 14 11 15 13 16 86 17 8 18 10 19 9 20 2 21 1 22 3 23 14 24
REMARK SMILES IDX 15 25 19 26 16 27 18 28 17 29 27 30 28 31 29 32 30 34 31 35
REMARK SMILES IDX 32 36 84 37 33 38 83 39 34 40 35 41 36 42 77 43 37 44 82 45
REMARK SMILES IDX 76 46 78 47 38 48 81 49 75 50 74 51 39 53 65 54 48 55 64 56
REMARK SMILES IDX 49 57 52 58 63 59 79 60 50 61 51 62 62 64 80 65 53 66 40 67
REMARK SMILES IDX 41 68 46 69 42 70 43 71 45 72 47 73 44 74 66 75 67 76 72 77
REMARK SMILES IDX 68 78 69 79 71 80 73 81 70 82 54 83 55 84 60 85 56 86 57 87
REMARK SMILES IDX 59 88 61 89 58 90
REMARK H PARENT 24 6 28 33 78 52 52 63
REMARK Flexibility Score: inf
ROOT
ATOM      1  C   UNL A   1      33.005  29.301  27.026  1.00  0.00     0.042 C 
ENDROOT
BRANCH   1   2
ATOM      2  C   UNL A   1      32.088  28.140  27.419  1.00  0.00     0.117 C 
BRANCH   2   3
ATOM      3  N   UNL A   1      31.207  27.743  26.334  1.00  0.00    -0.354 N 
ATOM      4  C   UNL A   1      30.794  26.497  25.964  1.00  0.00     0.239 C 
ATOM      5  O   UNL A   1      30.097  26.394  24.950  1.00  0.00    -0.273 OA
ATOM      6  H   UNL A   1      30.859  28.481  25.785  1.00  0.00     0.163 HD
BRANCH   4   7
ATOM      7  C   UNL A   1      31.234  25.256  26.748  1.00  0.00     0.220 C 
BRANCH   7   8
ATOM      8  N   UNL A   1      32.070  24.392  25.936  1.00  0.00    -0.317 N 
ATOM      9  N   UNL A   1      33.451  21.191  25.108  1.00  0.00    -0.334 N 
ATOM     10  C   UNL A   1      32.957  22.452  25.307  1.00  0.00     0.114 A 
ATOM     11  C   UNL A   1      34.850  21.307  25.043  1.00  0.00     0.049 A 
ATOM     12  C   UNL A   1      33.977  23.361  25.345  1.00  0.00     0.018 A 
ATOM     13  C   UNL A   1      31.712  23.084  25.610  1.00  0.00     0.272 C 
ATOM     14  C   UNL A   1      35.183  22.672  25.209  1.00  0.00     0.006 A 
ATOM     15  C   UNL A   1      35.886  20.370  24.856  1.00  0.00     0.027 A 
ATOM     16  C   UNL A   1      33.476  24.735  25.603  1.00  0.00     0.150 C 
ATOM     17  O   UNL A   1      30.603  22.580  25.693  1.00  0.00    -0.267 OA
ATOM     18  C   UNL A   1      36.530  23.085  25.207  1.00  0.00     0.011 A 
ATOM     19  C   UNL A   1      37.217  20.808  24.836  1.00  0.00     0.002 A 
ATOM     20  C   UNL A   1      37.538  22.146  25.013  1.00  0.00     0.001 A 
BRANCH   9  21
ATOM     21  C   UNL A   1      32.585  20.012  24.980  1.00  0.00     0.082 C 
ATOM     22  C   UNL A   1      32.528  19.339  23.606  1.00  0.00     0.031 C 
ATOM     23  C   UNL A   1      32.905  18.923  26.014  1.00  0.00     0.031 C 
ENDBRANCH   9  21
BRANCH  16  24
ATOM     24  C   UNL A   1      33.565  25.575  24.336  1.00  0.00    -0.021 A 
ATOM     25  C   UNL A   1      33.993  26.912  24.460  1.00  0.00     0.006 A 
ATOM     26  C   UNL A   1      33.207  25.131  23.048  1.00  0.00     0.006 A 
ATOM     27  C   UNL A   1      34.023  27.771  23.358  1.00  0.00     0.000 A 
ATOM     28  C   UNL A   1      33.257  25.985  21.943  1.00  0.00     0.000 A 
ATOM     29  C   UNL A   1      33.653  27.307  22.100  1.00  0.00     0.000 A 
ENDBRANCH  16  24
ENDBRANCH   7   8
ENDBRANCH   4   7
ENDBRANCH   2   3
ENDBRANCH   1   2
BRANCH   1  30
ATOM     30  C   UNL A   1      34.481  29.066  27.335  1.00  0.00     0.118 C 
BRANCH  30  31
ATOM     31  N   UNL A   1      34.989  29.924  28.384  1.00  0.00    -0.352 N 
ATOM     32  C   UNL A   1      36.205  30.135  28.962  1.00  0.00     0.251 C 
ATOM     33  H   UNL A   1      34.286  30.491  28.776  1.00  0.00     0.163 HD
ATOM     34  O   UNL A   1      36.243  31.038  29.804  1.00  0.00    -0.269 OA
BRANCH  32  35
ATOM     35  C   UNL A   1      37.432  29.334  28.725  1.00  0.00     0.039 A 
ATOM     36  C   UNL A   1      37.958  28.361  29.578  1.00  0.00     0.014 A 
ATOM     37  C   UNL A   1      38.166  29.696  27.579  1.00  0.00     0.014 A 
ATOM     38  C   UNL A   1      39.255  27.897  29.385  1.00  0.00     0.010 A 
ATOM     39  C   UNL A   1      39.446  29.216  27.366  1.00  0.00     0.010 A 
ATOM     40  C   UNL A   1      40.020  28.393  28.325  1.00  0.00    -0.014 A 
BRANCH  40  41
ATOM     41  C   UNL A   1      41.428  28.026  28.248  1.00  0.00     0.031 A 
ATOM     42  C   UNL A   1      41.700  26.737  27.555  1.00  0.00     0.074 A 
ATOM     43  C   UNL A   1      42.405  28.844  28.697  1.00  0.00     0.049 A 
ATOM     44  N   UNL A   1      42.210  25.654  28.047  1.00  0.00    -0.248 NA
ATOM     45  C   UNL A   1      41.220  26.596  26.171  1.00  0.00     0.031 C 
ATOM     46  C   UNL A   1      42.297  30.231  29.168  1.00  0.00     0.029 A 
ATOM     47  N   UNL A   1      43.745  28.617  28.757  1.00  0.00    -0.354 N 
ATOM     48  C   UNL A   1      42.294  24.753  26.985  1.00  0.00     0.074 A 
ATOM     49  C   UNL A   1      41.541  25.330  25.902  1.00  0.00     0.031 C 
ATOM     50  C   UNL A   1      43.529  30.786  29.232  1.00  0.00     0.029 A 
ATOM     51  C   UNL A   1      44.516  29.757  28.965  1.00  0.00     0.049 A 
ATOM     52  H   UNL A   1      44.139  27.720  28.658  1.00  0.00     0.167 HD
ATOM     53  C   UNL A   1      43.161  23.704  27.004  1.00  0.00     0.037 A 
ATOM     54  C   UNL A   1      45.866  29.841  28.865  1.00  0.00     0.037 A 
ATOM     55  C   UNL A   1      43.594  23.402  28.343  1.00  0.00     0.049 A 
ATOM     56  C   UNL A   1      46.405  28.463  28.972  1.00  0.00     0.074 A 
ATOM     57  C   UNL A   1      42.979  22.958  29.495  1.00  0.00     0.029 A 
ATOM     58  N   UNL A   1      44.815  23.886  28.741  1.00  0.00    -0.354 N 
ATOM     59  N   UNL A   1      46.343  27.752  30.064  1.00  0.00    -0.248 NA
ATOM     60  C   UNL A   1      46.560  27.707  27.739  1.00  0.00     0.031 C 
ATOM     61  C   UNL A   1      43.636  23.655  30.554  1.00  0.00     0.029 A 
ATOM     62  C   UNL A   1      44.648  24.430  29.987  1.00  0.00     0.049 A 
ATOM     63  H   UNL A   1      45.655  23.848  28.228  1.00  0.00     0.167 HD
ATOM     64  C   UNL A   1      46.027  26.471  29.636  1.00  0.00     0.074 A 
ATOM     65  C   UNL A   1      46.231  26.493  28.188  1.00  0.00     0.031 C 
ATOM     66  C   UNL A   1      45.358  25.598  30.447  1.00  0.00     0.037 A 
BRANCH  53  67
ATOM     67  C   UNL A   1      43.920  23.213  25.794  1.00  0.00     0.057 A 
ATOM     68  C   UNL A   1      44.896  23.974  25.120  1.00  0.00     0.134 A 
ATOM     69  C   UNL A   1      43.925  21.837  25.498  1.00  0.00     0.134 A 
ATOM     70  F   UNL A   1      45.058  25.285  25.332  1.00  0.00    -0.206 F 
ATOM     71  C   UNL A   1      45.839  23.405  24.261  1.00  0.00     0.040 A 
ATOM     72  C   UNL A   1      44.895  21.251  24.675  1.00  0.00     0.040 A 
ATOM     73  F   UNL A   1      43.042  21.006  26.072  1.00  0.00    -0.206 F 
ATOM     74  C   UNL A   1      45.867  22.034  24.066  1.00  0.00     0.006 A 
ENDBRANCH  53  67
BRANCH  54  75
ATOM     75  C   UNL A   1      46.654  30.957  28.290  1.00  0.00     0.057 A 
ATOM     76  C   UNL A   1      47.416  31.803  29.115  1.00  0.00     0.134 A 
ATOM     77  C   UNL A   1      46.465  31.391  26.971  1.00  0.00     0.134 A 
ATOM     78  F   UNL A   1      47.584  31.529  30.417  1.00  0.00    -0.206 F 
ATOM     79  C   UNL A   1      47.956  33.011  28.659  1.00  0.00     0.040 A 
ATOM     80  C   UNL A   1      46.999  32.599  26.500  1.00  0.00     0.040 A 
ATOM     81  F   UNL A   1      45.706  30.679  26.124  1.00  0.00    -0.206 F 
ATOM     82  C   UNL A   1      47.741  33.418  27.349  1.00  0.00     0.006 A 
ENDBRANCH  54  75
BRANCH  66  83
ATOM     83  C   UNL A   1      45.153  26.003  31.880  1.00  0.00     0.057 A 
ATOM     84  C   UNL A   1      46.056  25.556  32.846  1.00  0.00     0.134 A 
ATOM     85  C   UNL A   1      44.025  26.702  32.342  1.00  0.00     0.134 A 
ATOM     86  F   UNL A   1      47.123  24.825  32.485  1.00  0.00    -0.206 F 
ATOM     87  C   UNL A   1      45.864  25.805  34.207  1.00  0.00     0.040 A 
ATOM     88  C   UNL A   1      43.835  26.985  33.698  1.00  0.00     0.040 A 
ATOM     89  F   UNL A   1      43.052  27.075  31.503  1.00  0.00    -0.206 F 
ATOM     90  C   UNL A   1      44.758  26.533  34.636  1.00  0.00     0.006 A 
ENDBRANCH  66  83
ENDBRANCH  40  41
ENDBRANCH  32  35
ENDBRANCH  30  31
ENDBRANCH   1  30
TORSDOF 13
ENDMDL
MODEL 3
REMARK VINA RESULT:     -13.0      4.127      9.435
REMARK SMILES CC(C)n1c2c(c3ccccc31)[C@@H](c1ccccc1)N(CC(=O)NCCCNC(=O)c1ccc(-c3c4nc(c(-c5c(F)cccc5F)c5ccc([nH]5)c(-c5c(F)cccc5F)c5nc(c(-c6c(F)cccc6F)c6ccc3[nH]6)C=C5)C=C4)cc1)C2=O
REMARK SMILES IDX 26 1 25 2 24 3 22 4 23 5 21 7 20 8 4 9 5 10 12 11 6 12 85 13
REMARK SMILES IDX 7 14 11 15 13 16 86 17 8 18 10 19 9 20 2 21 1 22 3 23 14 24
REMARK SMILES IDX 15 25 19 26 16 27 18 28 17 29 27 30 28 31 29 32 30 34 31 35
REMARK SMILES IDX 32 36 84 37 33 38 83 39 34 40 35 41 36 42 77 43 37 44 82 45
REMARK SMILES IDX 76 46 78 47 38 48 81 49 75 50 74 51 39 53 65 54 48 55 64 56
REMARK SMILES IDX 49 57 52 58 63 59 79 60 50 61 51 62 62 64 80 65 53 66 40 67
REMARK SMILES IDX 41 68 46 69 42 70 43 71 45 72 47 73 44 74 66 75 67 76 72 77
REMARK SMILES IDX 68 78 69 79 71 80 73 81 70 82 54 83 55 84 60 85 56 86 57 87
REMARK SMILES IDX 59 88 61 89 58 90
REMARK H PARENT 24 6 28 33 78 52 52 63
REMARK Flexibility Score: inf
ROOT
ATOM      1  C   UNL A   1      34.505  33.839  28.344  1.00  0.00     0.042 C 
ENDROOT
BRANCH   1   2
ATOM      2  C   UNL A   1      33.466  32.748  28.079  1.00  0.00     0.117 C 
BRANCH   2   3
ATOM      3  N   UNL A   1      34.075  31.500  27.652  1.00  0.00    -0.354 N 
ATOM      4  C   UNL A   1      33.499  30.408  27.072  1.00  0.00     0.239 C 
ATOM      5  O   UNL A   1      34.209  29.420  26.862  1.00  0.00    -0.273 OA
ATOM      6  H   UNL A   1      35.044  31.433  27.804  1.00  0.00     0.163 HD
BRANCH   4   7
ATOM      7  C   UNL A   1      32.001  30.385  26.750  1.00  0.00     0.220 C 
BRANCH   7   8
ATOM      8  N   UNL A   1      31.639  29.183  26.021  1.00  0.00    -0.317 N 
ATOM      9  N   UNL A   1      31.875  25.660  25.411  1.00  0.00    -0.334 N 
ATOM     10  C   UNL A   1      31.676  27.004  25.577  1.00  0.00     0.114 A 
ATOM     11  C   UNL A   1      32.178  25.457  24.054  1.00  0.00     0.049 A 
ATOM     12  C   UNL A   1      31.815  27.656  24.383  1.00  0.00     0.018 A 
ATOM     13  C   UNL A   1      31.491  27.941  26.639  1.00  0.00     0.272 C 
ATOM     14  C   UNL A   1      32.157  26.717  23.409  1.00  0.00     0.006 A 
ATOM     15  C   UNL A   1      32.474  24.307  23.295  1.00  0.00     0.027 A 
ATOM     16  C   UNL A   1      31.648  29.123  24.538  1.00  0.00     0.150 C 
ATOM     17  O   UNL A   1      31.362  27.722  27.834  1.00  0.00    -0.267 OA
ATOM     18  C   UNL A   1      32.446  26.821  22.034  1.00  0.00     0.011 A 
ATOM     19  C   UNL A   1      32.737  24.434  21.925  1.00  0.00     0.002 A 
ATOM     20  C   UNL A   1      32.729  25.672  21.301  1.00  0.00     0.001 A 
BRANCH   9  21
ATOM     21  C   UNL A   1      31.747  24.699  26.513  1.00  0.00     0.082 C 
ATOM     22  C   UNL A   1      30.535  23.763  26.481  1.00  0.00     0.031 C 
ATOM     23  C   UNL A   1      32.998  23.827  26.691  1.00  0.00     0.031 C 
ENDBRANCH   9  21
BRANCH  16  24
ATOM     24  C   UNL A   1      30.316  29.567  23.949  1.00  0.00    -0.021 A 
ATOM     25  C   UNL A   1      29.919  30.904  24.148  1.00  0.00     0.006 A 
ATOM     26  C   UNL A   1      29.422  28.727  23.256  1.00  0.00     0.006 A 
ATOM     27  C   UNL A   1      28.675  31.366  23.711  1.00  0.00     0.000 A 
ATOM     28  C   UNL A   1      28.187  29.195  22.801  1.00  0.00     0.000 A 
ATOM     29  C   UNL A   1      27.808  30.511  23.039  1.00  0.00     0.000 A 
ENDBRANCH  16  24
ENDBRANCH   7   8
ENDBRANCH   4   7
ENDBRANCH   2   3
ENDBRANCH   1   2
BRANCH   1  30
ATOM     30  C   UNL A   1      33.917  35.154  28.850  1.00  0.00     0.118 C 
BRANCH  30  31
ATOM     31  N   UNL A   1      33.272  35.033  30.140  1.00  0.00    -0.352 N 
ATOM     32  C   UNL A   1      33.640  34.577  31.370  1.00  0.00     0.251 C 
ATOM     33  H   UNL A   1      32.342  35.356  30.125  1.00  0.00     0.163 HD
ATOM     34  O   UNL A   1      32.798  34.716  32.263  1.00  0.00    -0.269 OA
BRANCH  32  35
ATOM     35  C   UNL A   1      34.907  33.872  31.694  1.00  0.00     0.039 A 
ATOM     36  C   UNL A   1      36.159  34.465  31.867  1.00  0.00     0.014 A 
ATOM     37  C   UNL A   1      34.816  32.466  31.710  1.00  0.00     0.014 A 
ATOM     38  C   UNL A   1      37.305  33.676  31.876  1.00  0.00     0.010 A 
ATOM     39  C   UNL A   1      35.951  31.676  31.747  1.00  0.00     0.010 A 
ATOM     40  C   UNL A   1      37.195  32.291  31.731  1.00  0.00    -0.014 A 
BRANCH  40  41
ATOM     41  C   UNL A   1      38.412  31.507  31.567  1.00  0.00     0.031 A 
ATOM     42  C   UNL A   1      39.166  31.252  32.826  1.00  0.00     0.074 A 
ATOM     43  C   UNL A   1      38.770  30.985  30.373  1.00  0.00     0.049 A 
ATOM     44  N   UNL A   1      40.353  31.654  33.146  1.00  0.00    -0.248 NA
ATOM     45  C   UNL A   1      38.451  30.573  33.918  1.00  0.00     0.031 C 
ATOM     46  C   UNL A   1      38.005  30.948  29.121  1.00  0.00     0.029 A 
ATOM     47  N   UNL A   1      39.898  30.297  30.048  1.00  0.00    -0.354 N 
ATOM     48  C   UNL A   1      40.613  31.117  34.406  1.00  0.00     0.074 A 
ATOM     49  C   UNL A   1      39.364  30.591  34.890  1.00  0.00     0.031 C 
ATOM     50  C   UNL A   1      38.581  30.075  28.262  1.00  0.00     0.029 A 
ATOM     51  C   UNL A   1      39.833  29.620  28.835  1.00  0.00     0.049 A 
ATOM     52  H   UNL A   1      40.696  30.278  30.626  1.00  0.00     0.167 HD
ATOM     53  C   UNL A   1      41.885  30.949  34.864  1.00  0.00     0.037 A 
ATOM     54  C   UNL A   1      40.727  28.708  28.376  1.00  0.00     0.037 A 
ATOM     55  C   UNL A   1      42.819  31.766  34.135  1.00  0.00     0.049 A 
ATOM     56  C   UNL A   1      41.989  28.907  29.130  1.00  0.00     0.074 A 
ATOM     57  C   UNL A   1      43.020  33.122  33.977  1.00  0.00     0.029 A 
ATOM     58  N   UNL A   1      43.540  31.168  33.132  1.00  0.00    -0.354 N 
ATOM     59  N   UNL A   1      42.733  29.972  29.015  1.00  0.00    -0.248 NA
ATOM     60  C   UNL A   1      42.157  28.155  30.364  1.00  0.00     0.031 C 
ATOM     61  C   UNL A   1      43.419  33.277  32.615  1.00  0.00     0.029 A 
ATOM     62  C   UNL A   1      43.496  32.005  32.049  1.00  0.00     0.049 A 
ATOM     63  H   UNL A   1      44.003  30.301  33.182  1.00  0.00     0.167 HD
ATOM     64  C   UNL A   1      43.141  30.262  30.309  1.00  0.00     0.074 A 
ATOM     65  C   UNL A   1      42.802  29.073  31.090  1.00  0.00     0.031 C 
ATOM     66  C   UNL A   1      43.452  31.538  30.684  1.00  0.00     0.037 A 
BRANCH  53  67
ATOM     67  C   UNL A   1      42.337  29.766  35.686  1.00  0.00     0.057 A 
ATOM     68  C   UNL A   1      42.162  28.424  35.291  1.00  0.00     0.134 A 
ATOM     69  C   UNL A   1      43.262  29.967  36.728  1.00  0.00     0.134 A 
ATOM     70  F   UNL A   1      41.360  28.071  34.280  1.00  0.00    -0.206 F 
ATOM     71  C   UNL A   1      42.890  27.370  35.849  1.00  0.00     0.040 A 
ATOM     72  C   UNL A   1      44.030  28.924  37.260  1.00  0.00     0.040 A 
ATOM     73  F   UNL A   1      43.514  31.199  37.197  1.00  0.00    -0.206 F 
ATOM     74  C   UNL A   1      43.856  27.622  36.808  1.00  0.00     0.006 A 
ENDBRANCH  53  67
BRANCH  54  75
ATOM     75  C   UNL A   1      40.432  27.454  27.643  1.00  0.00     0.057 A 
ATOM     76  C   UNL A   1      39.776  26.385  28.278  1.00  0.00     0.134 A 
ATOM     77  C   UNL A   1      41.022  27.167  26.405  1.00  0.00     0.134 A 
ATOM     78  F   UNL A   1      39.256  26.526  29.505  1.00  0.00    -0.206 F 
ATOM     79  C   UNL A   1      39.712  25.104  27.719  1.00  0.00     0.040 A 
ATOM     80  C   UNL A   1      40.967  25.887  25.832  1.00  0.00     0.040 A 
ATOM     81  F   UNL A   1      41.717  28.107  25.749  1.00  0.00    -0.206 F 
ATOM     82  C   UNL A   1      40.317  24.848  26.495  1.00  0.00     0.006 A 
ENDBRANCH  54  75
BRANCH  66  83
ATOM     83  C   UNL A   1      43.526  32.580  29.603  1.00  0.00     0.057 A 
ATOM     84  C   UNL A   1      44.729  32.758  28.916  1.00  0.00     0.134 A 
ATOM     85  C   UNL A   1      42.494  33.490  29.320  1.00  0.00     0.134 A 
ATOM     86  F   UNL A   1      45.780  31.968  29.181  1.00  0.00    -0.206 F 
ATOM     87  C   UNL A   1      44.896  33.778  27.976  1.00  0.00     0.040 A 
ATOM     88  C   UNL A   1      42.638  34.497  28.361  1.00  0.00     0.040 A 
ATOM     89  F   UNL A   1      41.344  33.465  30.005  1.00  0.00    -0.206 F 
ATOM     90  C   UNL A   1      43.845  34.644  27.686  1.00  0.00     0.006 A 
ENDBRANCH  66  83
ENDBRANCH  40  41
ENDBRANCH  32  35
ENDBRANCH  30  31
ENDBRANCH   1  30
TORSDOF 13
ENDMDL
