MODEL 1
REMARK VINA RESULT:     -11.8      0.000      0.000
REMARK SMILES CC(=O)NCC(=O)N1[C@@H](C(=O)NCCCNC(=O)c2ccc(-c3c4nc(c(-c5c(F)cccc5F)c5ccc([nH]5)c(-c5c(F)cccc5F)c5nc(c(-c6c(F)cccc6F)c6ccc3[nH]6)C=C5)C=C4)cc2)CC[C@H]2CCCC[C@H]21
REMARK SMILES IDX 13 1 12 2 10 3 11 4 9 6 8 7 80 8 73 9 75 10 79 11 74 12
REMARK SMILES IDX 76 13 78 14 77 15 6 16 7 17 5 18 4 19 1 20 2 21 3 22 14 24
REMARK SMILES IDX 15 25 16 26 17 27 18 29 19 30 20 31 72 32 21 33 71 34 22 35
REMARK SMILES IDX 23 36 24 37 65 38 25 39 70 40 64 41 66 42 26 43 69 44 63 45
REMARK SMILES IDX 62 46 27 48 53 49 36 50 52 51 37 52 40 53 51 54 67 55 38 56
REMARK SMILES IDX 39 57 50 59 68 60 41 61 28 62 29 63 34 64 30 65 31 66 33 67
REMARK SMILES IDX 35 68 32 69 54 70 55 71 60 72 56 73 57 74 59 75 61 76 58 77
REMARK SMILES IDX 42 78 43 79 48 80 44 81 45 82 47 83 49 84 46 85
REMARK H PARENT 12 5 4 23 16 28 66 47 40 58
REMARK Flexibility Score: inf
ROOT
ATOM      1  C   UNL A   1      36.674  20.605  25.049  1.00  0.00     0.117 C 
ENDROOT
BRANCH   1   2
ATOM      2  N   UNL A   1      36.730  21.543  23.943  1.00  0.00    -0.354 N 
ATOM      3  C   UNL A   1      36.002  22.676  23.739  1.00  0.00     0.242 C 
ATOM      4  O   UNL A   1      36.142  23.274  22.668  1.00  0.00    -0.273 OA
ATOM      5  H   UNL A   1      37.386  21.331  23.242  1.00  0.00     0.163 HD
BRANCH   3   6
ATOM      6  C   UNL A   1      34.910  23.122  24.731  1.00  0.00     0.174 C 
ATOM      7  N   UNL A   1      33.490  22.889  24.358  1.00  0.00    -0.326 N 
ATOM      8  C   UNL A   1      32.512  23.555  25.241  1.00  0.00     0.089 C 
ATOM      9  C   UNL A   1      35.206  24.630  24.933  1.00  0.00     0.036 C 
ATOM     10  C   UNL A   1      32.738  25.069  25.321  1.00  0.00     0.012 C 
ATOM     11  C   UNL A   1      31.019  23.288  25.018  1.00  0.00     0.025 C 
ATOM     12  C   UNL A   1      34.171  25.374  25.762  1.00  0.00     0.008 C 
ATOM     13  C   UNL A   1      32.329  25.799  24.029  1.00  0.00     0.006 C 
ATOM     14  C   UNL A   1      30.369  24.122  23.915  1.00  0.00     0.002 C 
ATOM     15  C   UNL A   1      31.307  25.058  23.164  1.00  0.00     0.000 C 
BRANCH   7  16
ATOM     16  C   UNL A   1      33.063  21.785  23.620  1.00  0.00     0.242 C 
ATOM     17  O   UNL A   1      32.799  21.891  22.418  1.00  0.00    -0.273 OA
BRANCH  16  18
ATOM     18  C   UNL A   1      33.002  20.407  24.280  1.00  0.00     0.216 C 
BRANCH  18  19
ATOM     19  N   UNL A   1      32.550  19.368  23.378  1.00  0.00    -0.347 N 
ATOM     20  C   UNL A   1      34.118  17.675  24.217  1.00  0.00     0.114 C 
ATOM     21  C   UNL A   1      33.047  18.104  23.252  1.00  0.00     0.217 C 
ATOM     22  O   UNL A   1      32.605  17.362  22.378  1.00  0.00    -0.275 OA
ATOM     23  H   UNL A   1      31.797  19.601  22.787  1.00  0.00     0.164 HD
ENDBRANCH  18  19
ENDBRANCH  16  18
ENDBRANCH   7  16
ENDBRANCH   3   6
ENDBRANCH   1   2
BRANCH   1  24
ATOM     24  C   UNL A   1      37.817  19.613  25.010  1.00  0.00     0.042 C 
BRANCH  24  25
ATOM     25  C   UNL A   1      39.054  20.109  25.735  1.00  0.00     0.118 C 
BRANCH  25  26
ATOM     26  N   UNL A   1      40.071  19.075  25.882  1.00  0.00    -0.352 N 
ATOM     27  C   UNL A   1      41.421  19.206  26.098  1.00  0.00     0.251 C 
ATOM     28  H   UNL A   1      39.742  18.150  25.816  1.00  0.00     0.163 HD
ATOM     29  O   UNL A   1      42.162  18.237  26.010  1.00  0.00    -0.269 OA
BRANCH  27  30
ATOM     30  C   UNL A   1      41.972  20.539  26.413  1.00  0.00     0.039 A 
ATOM     31  C   UNL A   1      42.316  21.394  25.365  1.00  0.00     0.014 A 
ATOM     32  C   UNL A   1      42.112  20.951  27.740  1.00  0.00     0.014 A 
ATOM     33  C   UNL A   1      42.732  22.695  25.652  1.00  0.00     0.010 A 
ATOM     34  C   UNL A   1      42.419  22.275  28.018  1.00  0.00     0.010 A 
ATOM     35  C   UNL A   1      42.744  23.158  26.978  1.00  0.00    -0.014 A 
BRANCH  35  36
ATOM     36  C   UNL A   1      43.106  24.557  27.306  1.00  0.00     0.031 A 
ATOM     37  C   UNL A   1      44.546  24.986  27.260  1.00  0.00     0.074 A 
ATOM     38  C   UNL A   1      42.153  25.416  27.715  1.00  0.00     0.049 A 
ATOM     39  N   UNL A   1      45.078  26.136  27.587  1.00  0.00    -0.248 NA
ATOM     40  C   UNL A   1      45.525  23.979  26.817  1.00  0.00     0.031 C 
ATOM     41  C   UNL A   1      40.729  25.102  27.851  1.00  0.00     0.029 A 
ATOM     42  N   UNL A   1      42.241  26.730  28.102  1.00  0.00    -0.354 N 
ATOM     43  C   UNL A   1      46.447  25.983  27.407  1.00  0.00     0.074 A 
ATOM     44  C   UNL A   1      46.671  24.614  27.003  1.00  0.00     0.031 C 
ATOM     45  C   UNL A   1      40.075  26.199  28.264  1.00  0.00     0.029 A 
ATOM     46  C   UNL A   1      41.035  27.278  28.466  1.00  0.00     0.049 A 
ATOM     47  H   UNL A   1      43.088  27.230  28.118  1.00  0.00     0.167 HD
ATOM     48  C   UNL A   1      47.425  26.909  27.540  1.00  0.00     0.037 A 
ATOM     49  C   UNL A   1      40.741  28.511  28.920  1.00  0.00     0.037 A 
ATOM     50  C   UNL A   1      47.191  28.277  27.920  1.00  0.00     0.049 A 
ATOM     51  C   UNL A   1      41.847  29.519  29.069  1.00  0.00     0.074 A 
ATOM     52  C   UNL A   1      48.105  29.309  28.025  1.00  0.00     0.029 A 
ATOM     53  N   UNL A   1      45.953  28.800  28.263  1.00  0.00    -0.354 N 
ATOM     54  N   UNL A   1      43.128  29.382  28.827  1.00  0.00    -0.248 NA
ATOM     55  C   UNL A   1      41.465  30.853  29.551  1.00  0.00     0.031 C 
ATOM     56  C   UNL A   1      47.429  30.445  28.484  1.00  0.00     0.029 A 
ATOM     57  C   UNL A   1      46.084  30.135  28.604  1.00  0.00     0.049 A 
ATOM     58  H   UNL A   1      45.107  28.296  28.263  1.00  0.00     0.167 HD
ATOM     59  C   UNL A   1      43.700  30.620  29.093  1.00  0.00     0.074 A 
ATOM     60  C   UNL A   1      42.623  31.496  29.505  1.00  0.00     0.031 C 
ATOM     61  C   UNL A   1      44.999  30.997  29.003  1.00  0.00     0.037 A 
BRANCH  48  62
ATOM     62  C   UNL A   1      48.836  26.470  27.272  1.00  0.00     0.057 A 
ATOM     63  C   UNL A   1      49.667  25.980  28.291  1.00  0.00     0.134 A 
ATOM     64  C   UNL A   1      49.363  26.510  25.976  1.00  0.00     0.134 A 
ATOM     65  F   UNL A   1      49.230  25.926  29.558  1.00  0.00    -0.206 F 
ATOM     66  C   UNL A   1      50.977  25.575  28.034  1.00  0.00     0.040 A 
ATOM     67  C   UNL A   1      50.662  26.079  25.701  1.00  0.00     0.040 A 
ATOM     68  F   UNL A   1      48.623  26.962  24.952  1.00  0.00    -0.206 F 
ATOM     69  C   UNL A   1      51.476  25.617  26.733  1.00  0.00     0.006 A 
ENDBRANCH  48  62
BRANCH  49  70
ATOM     70  C   UNL A   1      39.336  28.868  29.246  1.00  0.00     0.057 A 
ATOM     71  C   UNL A   1      38.813  28.650  30.527  1.00  0.00     0.134 A 
ATOM     72  C   UNL A   1      38.482  29.430  28.289  1.00  0.00     0.134 A 
ATOM     73  F   UNL A   1      39.576  28.101  31.482  1.00  0.00    -0.206 F 
ATOM     74  C   UNL A   1      37.486  28.953  30.836  1.00  0.00     0.040 A 
ATOM     75  C   UNL A   1      37.161  29.763  28.593  1.00  0.00     0.040 A 
ATOM     76  F   UNL A   1      38.924  29.674  27.047  1.00  0.00    -0.206 F 
ATOM     77  C   UNL A   1      36.658  29.517  29.869  1.00  0.00     0.006 A 
ENDBRANCH  49  70
BRANCH  61  78
ATOM     78  C   UNL A   1      45.323  32.430  29.313  1.00  0.00     0.057 A 
ATOM     79  C   UNL A   1      45.638  32.857  30.609  1.00  0.00     0.134 A 
ATOM     80  C   UNL A   1      45.365  33.385  28.289  1.00  0.00     0.134 A 
ATOM     81  F   UNL A   1      45.605  31.996  31.637  1.00  0.00    -0.206 F 
ATOM     82  C   UNL A   1      45.958  34.188  30.879  1.00  0.00     0.040 A 
ATOM     83  C   UNL A   1      45.713  34.711  28.541  1.00  0.00     0.040 A 
ATOM     84  F   UNL A   1      45.084  33.039  27.023  1.00  0.00    -0.206 F 
ATOM     85  C   UNL A   1      46.004  35.118  29.842  1.00  0.00     0.006 A 
ENDBRANCH  61  78
ENDBRANCH  35  36
ENDBRANCH  27  30
ENDBRANCH  25  26
ENDBRANCH  24  25
ENDBRANCH   1  24
TORSDOF 13
ENDMDL
MODEL 2
REMARK VINA RESULT:     -11.7      0.934      6.353
REMARK SMILES CC(=O)NCC(=O)N1[C@@H](C(=O)NCCCNC(=O)c2ccc(-c3c4nc(c(-c5c(F)cccc5F)c5ccc([nH]5)c(-c5c(F)cccc5F)c5nc(c(-c6c(F)cccc6F)c6ccc3[nH]6)C=C5)C=C4)cc2)CC[C@H]2CCCC[C@H]21
REMARK SMILES IDX 13 1 12 2 10 3 11 4 9 6 8 7 80 8 73 9 75 10 79 11 74 12
REMARK SMILES IDX 76 13 78 14 77 15 6 16 7 17 5 18 4 19 1 20 2 21 3 22 14 24
REMARK SMILES IDX 15 25 16 26 17 27 18 29 19 30 20 31 72 32 21 33 71 34 22 35
REMARK SMILES IDX 23 36 24 37 65 38 25 39 70 40 64 41 66 42 26 43 69 44 63 45
REMARK SMILES IDX 62 46 27 48 53 49 36 50 52 51 37 52 40 53 51 54 67 55 38 56
REMARK SMILES IDX 39 57 50 59 68 60 41 61 28 62 29 63 34 64 30 65 31 66 33 67
REMARK SMILES IDX 35 68 32 69 54 70 55 71 60 72 56 73 57 74 59 75 61 76 58 77
REMARK SMILES IDX 42 78 43 79 48 80 44 81 45 82 47 83 49 84 46 85
REMARK H PARENT 12 5 4 23 16 28 66 47 40 58
REMARK Flexibility Score: inf
ROOT
ATOM      1  C   UNL A   1      36.851  20.913  25.241  1.00  0.00     0.117 C 
ENDROOT
BRANCH   1   2
ATOM      2  N   UNL A   1      36.488  21.636  24.036  1.00  0.00    -0.354 N 
ATOM      3  C   UNL A   1      35.660  22.708  23.894  1.00  0.00     0.242 C 
ATOM      4  O   UNL A   1      35.410  23.104  22.751  1.00  0.00    -0.273 OA
ATOM      5  H   UNL A   1      36.898  21.305  23.205  1.00  0.00     0.163 HD
BRANCH   3   6
ATOM      6  C   UNL A   1      34.916  23.317  25.098  1.00  0.00     0.174 C 
ATOM      7  N   UNL A   1      33.548  22.822  25.398  1.00  0.00    -0.326 N 
ATOM      8  C   UNL A   1      32.820  23.617  26.406  1.00  0.00     0.089 C 
ATOM      9  C   UNL A   1      34.916  24.836  24.785  1.00  0.00     0.036 C 
ATOM     10  C   UNL A   1      32.711  25.095  26.012  1.00  0.00     0.012 C 
ATOM     11  C   UNL A   1      31.444  23.127  26.876  1.00  0.00     0.025 C 
ATOM     12  C   UNL A   1      34.099  25.681  25.749  1.00  0.00     0.008 C 
ATOM     13  C   UNL A   1      31.721  25.330  24.859  1.00  0.00     0.006 C 
ATOM     14  C   UNL A   1      30.278  23.493  25.960  1.00  0.00     0.002 C 
ATOM     15  C   UNL A   1      30.655  24.245  24.689  1.00  0.00     0.000 C 
BRANCH   7  16
ATOM     16  C   UNL A   1      33.150  21.501  25.191  1.00  0.00     0.242 C 
ATOM     17  O   UNL A   1      32.447  21.195  24.222  1.00  0.00    -0.273 OA
BRANCH  16  18
ATOM     18  C   UNL A   1      33.657  20.399  26.123  1.00  0.00     0.216 C 
BRANCH  18  19
ATOM     19  N   UNL A   1      32.822  19.215  26.105  1.00  0.00    -0.347 N 
ATOM     20  C   UNL A   1      34.222  18.005  24.491  1.00  0.00     0.114 C 
ATOM     21  C   UNL A   1      32.986  18.095  25.343  1.00  0.00     0.217 C 
ATOM     22  O   UNL A   1      32.141  17.204  25.384  1.00  0.00    -0.275 OA
ATOM     23  H   UNL A   1      32.047  19.219  26.712  1.00  0.00     0.164 HD
ENDBRANCH  18  19
ENDBRANCH  16  18
ENDBRANCH   7  16
ENDBRANCH   3   6
ENDBRANCH   1   2
BRANCH   1  24
ATOM     24  C   UNL A   1      37.990  19.944  25.000  1.00  0.00     0.042 C 
BRANCH  24  25
ATOM     25  C   UNL A   1      39.250  20.316  25.760  1.00  0.00     0.118 C 
BRANCH  25  26
ATOM     26  N   UNL A   1      40.180  19.201  25.881  1.00  0.00    -0.352 N 
ATOM     27  C   UNL A   1      41.539  19.217  26.086  1.00  0.00     0.251 C 
ATOM     28  H   UNL A   1      39.777  18.306  25.806  1.00  0.00     0.163 HD
ATOM     29  O   UNL A   1      42.198  18.193  25.977  1.00  0.00    -0.269 OA
BRANCH  27  30
ATOM     30  C   UNL A   1      42.200  20.497  26.413  1.00  0.00     0.039 A 
ATOM     31  C   UNL A   1      42.709  21.281  25.377  1.00  0.00     0.014 A 
ATOM     32  C   UNL A   1      42.280  20.933  27.737  1.00  0.00     0.014 A 
ATOM     33  C   UNL A   1      43.234  22.540  25.667  1.00  0.00     0.010 A 
ATOM     34  C   UNL A   1      42.700  22.227  28.009  1.00  0.00     0.010 A 
ATOM     35  C   UNL A   1      43.193  23.040  26.979  1.00  0.00    -0.014 A 
BRANCH  35  36
ATOM     36  C   UNL A   1      43.673  24.405  27.303  1.00  0.00     0.031 A 
ATOM     37  C   UNL A   1      42.694  25.454  27.749  1.00  0.00     0.074 A 
ATOM     38  C   UNL A   1      44.971  24.716  27.125  1.00  0.00     0.049 A 
ATOM     39  N   UNL A   1      42.897  26.722  28.000  1.00  0.00    -0.248 NA
ATOM     40  C   UNL A   1      41.291  25.032  27.902  1.00  0.00     0.031 C 
ATOM     41  C   UNL A   1      46.006  23.798  26.647  1.00  0.00     0.029 A 
ATOM     42  N   UNL A   1      45.640  25.899  27.317  1.00  0.00    -0.354 N 
ATOM     43  C   UNL A   1      41.652  27.247  28.323  1.00  0.00     0.074 A 
ATOM     44  C   UNL A   1      40.690  26.179  28.174  1.00  0.00     0.031 C 
ATOM     45  C   UNL A   1      47.183  24.444  26.608  1.00  0.00     0.029 A 
ATOM     46  C   UNL A   1      46.978  25.830  27.014  1.00  0.00     0.049 A 
ATOM     47  H   UNL A   1      45.201  26.719  27.639  1.00  0.00     0.167 HD
ATOM     48  C   UNL A   1      41.344  28.500  28.731  1.00  0.00     0.037 A 
ATOM     49  C   UNL A   1      47.929  26.782  27.052  1.00  0.00     0.037 A 
ATOM     50  C   UNL A   1      42.310  29.551  28.899  1.00  0.00     0.049 A 
ATOM     51  C   UNL A   1      47.559  28.169  27.499  1.00  0.00     0.074 A 
ATOM     52  C   UNL A   1      42.110  30.838  29.366  1.00  0.00     0.029 A 
ATOM     53  N   UNL A   1      43.659  29.438  28.600  1.00  0.00    -0.354 N 
ATOM     54  N   UNL A   1      46.391  28.634  27.870  1.00  0.00    -0.248 NA
ATOM     55  C   UNL A   1      48.641  29.162  27.538  1.00  0.00     0.031 C 
ATOM     56  C   UNL A   1      43.329  31.520  29.299  1.00  0.00     0.029 A 
ATOM     57  C   UNL A   1      44.300  30.640  28.849  1.00  0.00     0.049 A 
ATOM     58  H   UNL A   1      44.097  28.623  28.262  1.00  0.00     0.167 HD
ATOM     59  C   UNL A   1      46.602  29.962  28.218  1.00  0.00     0.074 A 
ATOM     60  C   UNL A   1      48.013  30.223  28.024  1.00  0.00     0.031 C 
ATOM     61  C   UNL A   1      45.709  30.881  28.659  1.00  0.00     0.037 A 
BRANCH  48  62
ATOM     62  C   UNL A   1      39.901  28.797  29.024  1.00  0.00     0.057 A 
ATOM     63  C   UNL A   1      39.371  28.698  30.320  1.00  0.00     0.134 A 
ATOM     64  C   UNL A   1      39.036  29.214  28.006  1.00  0.00     0.134 A 
ATOM     65  F   UNL A   1      40.141  28.291  31.340  1.00  0.00    -0.206 F 
ATOM     66  C   UNL A   1      38.028  28.973  30.583  1.00  0.00     0.040 A 
ATOM     67  C   UNL A   1      37.699  29.523  28.263  1.00  0.00     0.040 A 
ATOM     68  F   UNL A   1      39.476  29.336  26.744  1.00  0.00    -0.206 F 
ATOM     69  C   UNL A   1      37.190  29.395  29.553  1.00  0.00     0.006 A 
ENDBRANCH  48  62
BRANCH  49  70
ATOM     70  C   UNL A   1      49.328  26.451  26.674  1.00  0.00     0.057 A 
ATOM     71  C   UNL A   1      49.801  26.681  25.376  1.00  0.00     0.134 A 
ATOM     72  C   UNL A   1      50.223  25.894  27.595  1.00  0.00     0.134 A 
ATOM     73  F   UNL A   1      48.986  27.198  24.445  1.00  0.00    -0.206 F 
ATOM     74  C   UNL A   1      51.103  26.347  25.002  1.00  0.00     0.040 A 
ATOM     75  C   UNL A   1      51.536  25.581  27.242  1.00  0.00     0.040 A 
ATOM     76  F   UNL A   1      49.837  25.658  28.858  1.00  0.00    -0.206 F 
ATOM     77  C   UNL A   1      51.976  25.800  25.938  1.00  0.00     0.006 A 
ENDBRANCH  49  70
BRANCH  61  78
ATOM     78  C   UNL A   1      46.237  32.243  29.007  1.00  0.00     0.057 A 
ATOM     79  C   UNL A   1      46.257  33.291  28.079  1.00  0.00     0.134 A 
ATOM     80  C   UNL A   1      46.690  32.518  30.304  1.00  0.00     0.134 A 
ATOM     81  F   UNL A   1      45.849  33.091  26.817  1.00  0.00    -0.206 F 
ATOM     82  C   UNL A   1      46.731  34.558  28.422  1.00  0.00     0.040 A 
ATOM     83  C   UNL A   1      47.137  33.788  30.667  1.00  0.00     0.040 A 
ATOM     84  F   UNL A   1      46.687  31.560  31.244  1.00  0.00    -0.206 F 
ATOM     85  C   UNL A   1      47.165  34.811  29.722  1.00  0.00     0.006 A 
ENDBRANCH  61  78
ENDBRANCH  35  36
ENDBRANCH  27  30
ENDBRANCH  25  26
ENDBRANCH  24  25
ENDBRANCH   1  24
TORSDOF 13
ENDMDL
MODEL 3
REMARK VINA RESULT:     -11.7      5.636      9.776
REMARK SMILES CC(=O)NCC(=O)N1[C@@H](C(=O)NCCCNC(=O)c2ccc(-c3c4nc(c(-c5c(F)cccc5F)c5ccc([nH]5)c(-c5c(F)cccc5F)c5nc(c(-c6c(F)cccc6F)c6ccc3[nH]6)C=C5)C=C4)cc2)CC[C@H]2CCCC[C@H]21
REMARK SMILES IDX 13 1 12 2 10 3 11 4 9 6 8 7 80 8 73 9 75 10 79 11 74 12
REMARK SMILES IDX 76 13 78 14 77 15 6 16 7 17 5 18 4 19 1 20 2 21 3 22 14 24
REMARK SMILES IDX 15 25 16 26 17 27 18 29 19 30 20 31 72 32 21 33 71 34 22 35
REMARK SMILES IDX 23 36 24 37 65 38 25 39 70 40 64 41 66 42 26 43 69 44 63 45
REMARK SMILES IDX 62 46 27 48 53 49 36 50 52 51 37 52 40 53 51 54 67 55 38 56
REMARK SMILES IDX 39 57 50 59 68 60 41 61 28 62 29 63 34 64 30 65 31 66 33 67
REMARK SMILES IDX 35 68 32 69 54 70 55 71 60 72 56 73 57 74 59 75 61 76 58 77
REMARK SMILES IDX 42 78 43 79 48 80 44 81 45 82 47 83 49 84 46 85
REMARK H PARENT 12 5 4 23 16 28 66 47 40 58
REMARK Flexibility Score: inf
ROOT
ATOM      1  C   UNL A   1      32.015  30.450  26.002  1.00  0.00     0.117 C 
ENDROOT
BRANCH   1   2
ATOM      2  N   UNL A   1      31.420  29.272  26.604  1.00  0.00    -0.354 N 
ATOM      3  C   UNL A   1      31.733  27.959  26.415  1.00  0.00     0.242 C 
ATOM      4  O   UNL A   1      31.022  27.107  26.957  1.00  0.00    -0.273 OA
ATOM      5  H   UNL A   1      30.689  29.444  27.239  1.00  0.00     0.163 HD
BRANCH   3   6
ATOM      6  C   UNL A   1      32.831  27.527  25.425  1.00  0.00     0.174 C 
ATOM      7  N   UNL A   1      32.429  27.204  24.031  1.00  0.00    -0.326 N 
ATOM      8  C   UNL A   1      33.490  26.573  23.222  1.00  0.00     0.089 C 
ATOM      9  C   UNL A   1      33.483  26.307  26.126  1.00  0.00     0.036 C 
ATOM     10  C   UNL A   1      34.029  25.291  23.867  1.00  0.00     0.012 C 
ATOM     11  C   UNL A   1      33.219  26.304  21.736  1.00  0.00     0.025 C 
ATOM     12  C   UNL A   1      34.518  25.574  25.289  1.00  0.00     0.008 C 
ATOM     13  C   UNL A   1      33.032  24.122  23.786  1.00  0.00     0.006 C 
ATOM     14  C   UNL A   1      32.439  25.025  21.441  1.00  0.00     0.002 C 
ATOM     15  C   UNL A   1      31.997  24.231  22.664  1.00  0.00     0.000 C 
BRANCH   7  16
ATOM     16  C   UNL A   1      31.393  27.857  23.363  1.00  0.00     0.242 C 
ATOM     17  O   UNL A   1      30.276  27.339  23.264  1.00  0.00    -0.273 OA
BRANCH  16  18
ATOM     18  C   UNL A   1      31.612  29.269  22.818  1.00  0.00     0.216 C 
BRANCH  18  19
ATOM     19  N   UNL A   1      30.653  29.635  21.796  1.00  0.00    -0.347 N 
ATOM     20  C   UNL A   1      29.153  30.817  23.339  1.00  0.00     0.114 C 
ATOM     21  C   UNL A   1      29.473  30.300  21.964  1.00  0.00     0.217 C 
ATOM     22  O   UNL A   1      28.727  30.465  21.001  1.00  0.00    -0.275 OA
ATOM     23  H   UNL A   1      30.878  29.374  20.873  1.00  0.00     0.164 HD
ENDBRANCH  18  19
ENDBRANCH  16  18
ENDBRANCH   7  16
ENDBRANCH   3   6
ENDBRANCH   1   2
BRANCH   1  24
ATOM     24  C   UNL A   1      31.629  31.718  26.734  1.00  0.00     0.042 C 
BRANCH  24  25
ATOM     25  C   UNL A   1      32.830  32.489  27.251  1.00  0.00     0.118 C 
BRANCH  25  26
ATOM     26  N   UNL A   1      32.516  33.881  27.549  1.00  0.00    -0.352 N 
ATOM     27  C   UNL A   1      33.040  34.705  28.516  1.00  0.00     0.251 C 
ATOM     28  H   UNL A   1      31.829  34.290  26.975  1.00  0.00     0.163 HD
ATOM     29  O   UNL A   1      32.532  35.791  28.751  1.00  0.00    -0.269 OA
BRANCH  27  30
ATOM     30  C   UNL A   1      34.213  34.248  29.288  1.00  0.00     0.039 A 
ATOM     31  C   UNL A   1      34.011  33.566  30.489  1.00  0.00     0.014 A 
ATOM     32  C   UNL A   1      35.506  34.464  28.805  1.00  0.00     0.014 A 
ATOM     33  C   UNL A   1      35.108  33.035  31.167  1.00  0.00     0.010 A 
ATOM     34  C   UNL A   1      36.582  33.843  29.422  1.00  0.00     0.010 A 
ATOM     35  C   UNL A   1      36.396  33.132  30.615  1.00  0.00    -0.014 A 
BRANCH  35  36
ATOM     36  C   UNL A   1      37.569  32.510  31.275  1.00  0.00     0.031 A 
ATOM     37  C   UNL A   1      38.261  31.345  30.625  1.00  0.00     0.074 A 
ATOM     38  C   UNL A   1      37.962  32.945  32.488  1.00  0.00     0.049 A 
ATOM     39  N   UNL A   1      39.248  30.612  31.075  1.00  0.00    -0.248 NA
ATOM     40  C   UNL A   1      37.757  30.924  29.307  1.00  0.00     0.031 C 
ATOM     41  C   UNL A   1      37.337  34.033  33.243  1.00  0.00     0.029 A 
ATOM     42  N   UNL A   1      38.978  32.516  33.304  1.00  0.00    -0.354 N 
ATOM     43  C   UNL A   1      39.468  29.641  30.107  1.00  0.00     0.074 A 
ATOM     44  C   UNL A   1      38.473  29.835  29.077  1.00  0.00     0.031 C 
ATOM     45  C   UNL A   1      37.999  34.203  34.398  1.00  0.00     0.029 A 
ATOM     46  C   UNL A   1      39.064  33.210  34.487  1.00  0.00     0.049 A 
ATOM     47  H   UNL A   1      39.586  31.780  33.065  1.00  0.00     0.167 HD
ATOM     48  C   UNL A   1      40.429  28.689  30.069  1.00  0.00     0.037 A 
ATOM     49  C   UNL A   1      39.902  33.055  35.529  1.00  0.00     0.037 A 
ATOM     50  C   UNL A   1      41.430  28.516  31.087  1.00  0.00     0.049 A 
ATOM     51  C   UNL A   1      40.956  31.983  35.466  1.00  0.00     0.074 A 
ATOM     52  C   UNL A   1      42.485  27.622  31.115  1.00  0.00     0.029 A 
ATOM     53  N   UNL A   1      41.496  29.250  32.262  1.00  0.00    -0.354 N 
ATOM     54  N   UNL A   1      41.198  31.117  34.513  1.00  0.00    -0.248 NA
ATOM     55  C   UNL A   1      41.855  31.871  36.623  1.00  0.00     0.031 C 
ATOM     56  C   UNL A   1      43.158  27.778  32.331  1.00  0.00     0.029 A 
ATOM     57  C   UNL A   1      42.559  28.812  33.033  1.00  0.00     0.049 A 
ATOM     58  H   UNL A   1      40.879  29.977  32.510  1.00  0.00     0.167 HD
ATOM     59  C   UNL A   1      42.296  30.380  34.938  1.00  0.00     0.074 A 
ATOM     60  C   UNL A   1      42.678  30.910  36.230  1.00  0.00     0.031 C 
ATOM     61  C   UNL A   1      42.932  29.358  34.314  1.00  0.00     0.037 A 
BRANCH  48  62
ATOM     62  C   UNL A   1      40.441  27.764  28.886  1.00  0.00     0.057 A 
ATOM     63  C   UNL A   1      41.230  28.017  27.754  1.00  0.00     0.134 A 
ATOM     64  C   UNL A   1      39.677  26.591  28.888  1.00  0.00     0.134 A 
ATOM     65  F   UNL A   1      41.977  29.129  27.680  1.00  0.00    -0.206 F 
ATOM     66  C   UNL A   1      41.234  27.153  26.657  1.00  0.00     0.040 A 
ATOM     67  C   UNL A   1      39.696  25.703  27.811  1.00  0.00     0.040 A 
ATOM     68  F   UNL A   1      38.903  26.283  29.940  1.00  0.00    -0.206 F 
ATOM     69  C   UNL A   1      40.470  25.988  26.688  1.00  0.00     0.006 A 
ENDBRANCH  48  62
BRANCH  49  70
ATOM     70  C   UNL A   1      39.795  33.948  36.710  1.00  0.00     0.057 A 
ATOM     71  C   UNL A   1      39.037  33.581  37.829  1.00  0.00     0.134 A 
ATOM     72  C   UNL A   1      40.439  35.191  36.750  1.00  0.00     0.134 A 
ATOM     73  F   UNL A   1      38.383  32.411  37.844  1.00  0.00    -0.206 F 
ATOM     74  C   UNL A   1      38.903  34.426  38.932  1.00  0.00     0.040 A 
ATOM     75  C   UNL A   1      40.337  36.033  37.859  1.00  0.00     0.040 A 
ATOM     76  F   UNL A   1      41.190  35.599  35.716  1.00  0.00    -0.206 F 
ATOM     77  C   UNL A   1      39.559  35.654  38.951  1.00  0.00     0.006 A 
ENDBRANCH  49  70
BRANCH  61  78
ATOM     78  C   UNL A   1      44.134  28.774  34.999  1.00  0.00     0.057 A 
ATOM     79  C   UNL A   1      45.426  29.269  34.784  1.00  0.00     0.134 A 
ATOM     80  C   UNL A   1      43.987  27.730  35.921  1.00  0.00     0.134 A 
ATOM     81  F   UNL A   1      45.637  30.260  33.905  1.00  0.00    -0.206 F 
ATOM     82  C   UNL A   1      46.531  28.730  35.443  1.00  0.00     0.040 A 
ATOM     83  C   UNL A   1      45.080  27.203  36.609  1.00  0.00     0.040 A 
ATOM     84  F   UNL A   1      42.774  27.216  36.182  1.00  0.00    -0.206 F 
ATOM     85  C   UNL A   1      46.359  27.700  36.365  1.00  0.00     0.006 A 
ENDBRANCH  61  78
ENDBRANCH  35  36
ENDBRANCH  27  30
ENDBRANCH  25  26
ENDBRANCH  24  25
ENDBRANCH   1  24
TORSDOF 13
ENDMDL
