MODEL 1
REMARK VINA RESULT:     -11.1      0.000      0.000
REMARK SMILES C/C(=N\Nc1ccncc1[N+](=O)[O-])C(=O)NCCCNC(=O)c1ccc(-c2c3nc(c(-c4c(F)cccc4F)c4ccc([nH]4)c(-c4c(F)cccc4F)c4nc(c(-c5c(F)cccc5F)c5ccc2[nH]5)C=C4)C=C3)cc1
REMARK SMILES IDX 17 1 16 2 14 3 15 4 2 6 1 7 3 8 4 9 5 11 6 12 10 13 7 14
REMARK SMILES IDX 9 15 8 16 11 17 12 18 13 19 18 20 19 21 20 22 21 23 22 25
REMARK SMILES IDX 23 26 24 27 76 28 25 29 75 30 26 31 27 32 28 33 69 34 29 35
REMARK SMILES IDX 74 36 68 37 70 38 30 39 73 40 67 41 66 42 31 44 57 45 40 46
REMARK SMILES IDX 56 47 41 48 44 49 55 50 71 51 42 52 43 53 54 55 72 56 45 57
REMARK SMILES IDX 32 58 33 59 38 60 34 61 35 62 37 63 39 64 36 65 58 66 59 67
REMARK SMILES IDX 64 68 60 69 61 70 63 71 65 72 62 73 46 74 47 75 52 76 48 77
REMARK SMILES IDX 49 78 51 79 53 80 50 81
REMARK H PARENT 16 5 4 10 20 24 70 43 44 54
REMARK Flexibility Score: inf
ROOT
ATOM      1  C   UNL A   1      31.471  30.654  26.435  1.00  0.00     0.118 C 
ENDROOT
BRANCH   1   2
ATOM      2  N   UNL A   1      31.768  30.233  25.076  1.00  0.00    -0.351 N 
ATOM      3  C   UNL A   1      32.612  29.237  24.643  1.00  0.00     0.267 C 
ATOM      4  O   UNL A   1      32.889  29.104  23.462  1.00  0.00    -0.268 OA
ATOM      5  H   UNL A   1      31.299  30.728  24.365  1.00  0.00     0.163 HD
BRANCH   3   6
ATOM      6  C   UNL A   1      33.083  28.186  25.635  1.00  0.00     0.122 C 
ATOM      7  C   UNL A   1      34.213  28.657  26.514  1.00  0.00     0.075 C 
ATOM      8  N   UNL A   1      32.490  27.023  25.641  1.00  0.00    -0.175 NA
BRANCH   8   9
ATOM      9  N   UNL A   1      33.037  25.988  26.322  1.00  0.00    -0.271 N 
ATOM     10  H   UNL A   1      33.029  26.053  27.304  1.00  0.00     0.190 HD
BRANCH   9  11
ATOM     11  C   UNL A   1      33.618  24.830  25.772  1.00  0.00     0.137 A 
ATOM     12  C   UNL A   1      34.523  24.911  24.708  1.00  0.00     0.055 A 
ATOM     13  C   UNL A   1      33.193  23.547  26.160  1.00  0.00     0.312 A 
ATOM     14  C   UNL A   1      34.924  23.746  24.071  1.00  0.00     0.113 A 
ATOM     15  C   UNL A   1      33.628  22.436  25.455  1.00  0.00     0.198 A 
ATOM     16  N   UNL A   1      34.488  22.514  24.412  1.00  0.00    -0.257 NA
BRANCH  13  17
ATOM     17  N   UNL A   1      32.259  23.345  27.258  1.00  0.00     0.066 N 
ATOM     18  O   UNL A   1      32.588  22.561  28.158  1.00  0.00    -0.258 OA
ATOM     19  O   UNL A   1      31.194  23.983  27.237  1.00  0.00    -0.258 OA
ENDBRANCH  13  17
ENDBRANCH   9  11
ENDBRANCH   8   9
ENDBRANCH   3   6
ENDBRANCH   1   2
BRANCH   1  20
ATOM     20  C   UNL A   1      31.405  32.178  26.523  1.00  0.00     0.042 C 
BRANCH  20  21
ATOM     21  C   UNL A   1      32.611  32.798  27.227  1.00  0.00     0.118 C 
BRANCH  21  22
ATOM     22  N   UNL A   1      32.380  34.182  27.617  1.00  0.00    -0.352 N 
ATOM     23  C   UNL A   1      32.983  34.936  28.593  1.00  0.00     0.251 C 
ATOM     24  H   UNL A   1      31.683  34.650  27.102  1.00  0.00     0.163 HD
ATOM     25  O   UNL A   1      32.519  36.034  28.886  1.00  0.00    -0.269 OA
BRANCH  23  26
ATOM     26  C   UNL A   1      34.175  34.429  29.304  1.00  0.00     0.039 A 
ATOM     27  C   UNL A   1      34.009  33.854  30.566  1.00  0.00     0.014 A 
ATOM     28  C   UNL A   1      35.452  34.544  28.749  1.00  0.00     0.014 A 
ATOM     29  C   UNL A   1      35.115  33.339  31.245  1.00  0.00     0.010 A 
ATOM     30  C   UNL A   1      36.544  33.967  29.395  1.00  0.00     0.010 A 
ATOM     31  C   UNL A   1      36.387  33.360  30.649  1.00  0.00    -0.014 A 
BRANCH  31  32
ATOM     32  C   UNL A   1      37.559  32.742  31.319  1.00  0.00     0.031 A 
ATOM     33  C   UNL A   1      38.228  31.535  30.718  1.00  0.00     0.074 A 
ATOM     34  C   UNL A   1      37.980  33.228  32.502  1.00  0.00     0.049 A 
ATOM     35  N   UNL A   1      39.212  30.815  31.193  1.00  0.00    -0.248 NA
ATOM     36  C   UNL A   1      37.706  31.063  29.428  1.00  0.00     0.031 C 
ATOM     37  C   UNL A   1      37.388  34.365  33.209  1.00  0.00     0.029 A 
ATOM     38  N   UNL A   1      38.999  32.818  33.326  1.00  0.00    -0.354 N 
ATOM     39  C   UNL A   1      39.417  29.799  30.269  1.00  0.00     0.074 A 
ATOM     40  C   UNL A   1      38.422  29.965  29.231  1.00  0.00     0.031 C 
ATOM     41  C   UNL A   1      38.065  34.574  34.349  1.00  0.00     0.029 A 
ATOM     42  C   UNL A   1      39.112  33.564  34.474  1.00  0.00     0.049 A 
ATOM     43  H   UNL A   1      39.592  32.062  33.114  1.00  0.00     0.167 HD
ATOM     44  C   UNL A   1      40.361  28.828  30.274  1.00  0.00     0.037 A 
ATOM     45  C   UNL A   1      39.956  33.442  35.516  1.00  0.00     0.037 A 
ATOM     46  C   UNL A   1      41.363  28.676  31.296  1.00  0.00     0.049 A 
ATOM     47  C   UNL A   1      40.987  32.348  35.502  1.00  0.00     0.074 A 
ATOM     48  C   UNL A   1      42.398  27.759  31.360  1.00  0.00     0.029 A 
ATOM     49  N   UNL A   1      41.454  29.462  32.436  1.00  0.00    -0.354 N 
ATOM     50  N   UNL A   1      41.210  31.434  34.590  1.00  0.00    -0.248 NA
ATOM     51  C   UNL A   1      41.887  32.273  36.661  1.00  0.00     0.031 C 
ATOM     52  C   UNL A   1      43.088  27.961  32.560  1.00  0.00     0.029 A 
ATOM     53  C   UNL A   1      42.514  29.036  33.220  1.00  0.00     0.049 A 
ATOM     54  H   UNL A   1      40.854  30.211  32.655  1.00  0.00     0.167 HD
ATOM     55  C   UNL A   1      42.292  30.695  35.049  1.00  0.00     0.074 A 
ATOM     56  C   UNL A   1      42.689  31.276  36.314  1.00  0.00     0.031 C 
ATOM     57  C   UNL A   1      42.902  29.630  34.474  1.00  0.00     0.037 A 
BRANCH  44  58
ATOM     58  C   UNL A   1      40.356  27.850  29.133  1.00  0.00     0.057 A 
ATOM     59  C   UNL A   1      39.546  26.707  29.144  1.00  0.00     0.134 A 
ATOM     60  C   UNL A   1      41.141  28.074  27.994  1.00  0.00     0.134 A 
ATOM     61  F   UNL A   1      38.779  26.427  30.208  1.00  0.00    -0.206 F 
ATOM     62  C   UNL A   1      39.536  25.809  28.075  1.00  0.00     0.040 A 
ATOM     63  C   UNL A   1      41.117  27.198  26.907  1.00  0.00     0.040 A 
ATOM     64  F   UNL A   1      41.934  29.153  27.914  1.00  0.00    -0.206 F 
ATOM     65  C   UNL A   1      40.319  26.058  26.950  1.00  0.00     0.006 A 
ENDBRANCH  44  58
BRANCH  45  66
ATOM     66  C   UNL A   1      39.874  34.392  36.654  1.00  0.00     0.057 A 
ATOM     67  C   UNL A   1      40.534  35.626  36.612  1.00  0.00     0.134 A 
ATOM     68  C   UNL A   1      39.147  34.090  37.811  1.00  0.00     0.134 A 
ATOM     69  F   UNL A   1      41.262  35.965  35.537  1.00  0.00    -0.206 F 
ATOM     70  C   UNL A   1      40.492  36.516  37.685  1.00  0.00     0.040 A 
ATOM     71  C   UNL A   1      39.074  34.981  38.882  1.00  0.00     0.040 A 
ATOM     72  F   UNL A   1      38.486  32.927  37.911  1.00  0.00    -0.206 F 
ATOM     73  C   UNL A   1      39.755  36.195  38.825  1.00  0.00     0.006 A 
ENDBRANCH  45  66
BRANCH  57  74
ATOM     74  C   UNL A   1      44.087  29.048  35.188  1.00  0.00     0.057 A 
ATOM     75  C   UNL A   1      45.392  29.486  34.936  1.00  0.00     0.134 A 
ATOM     76  C   UNL A   1      43.913  28.063  36.169  1.00  0.00     0.134 A 
ATOM     77  F   UNL A   1      45.629  30.418  34.000  1.00  0.00    -0.206 F 
ATOM     78  C   UNL A   1      46.486  28.948  35.617  1.00  0.00     0.040 A 
ATOM     79  C   UNL A   1      44.994  27.537  36.875  1.00  0.00     0.040 A 
ATOM     80  F   UNL A   1      42.686  27.605  36.465  1.00  0.00    -0.206 F 
ATOM     81  C   UNL A   1      46.287  27.975  36.596  1.00  0.00     0.006 A 
ENDBRANCH  57  74
ENDBRANCH  31  32
ENDBRANCH  23  26
ENDBRANCH  21  22
ENDBRANCH  20  21
ENDBRANCH   1  20
TORSDOF 13
ENDMDL
MODEL 2
REMARK VINA RESULT:     -11.1      1.153      2.111
REMARK SMILES C/C(=N\Nc1ccncc1[N+](=O)[O-])C(=O)NCCCNC(=O)c1ccc(-c2c3nc(c(-c4c(F)cccc4F)c4ccc([nH]4)c(-c4c(F)cccc4F)c4nc(c(-c5c(F)cccc5F)c5ccc2[nH]5)C=C4)C=C3)cc1
REMARK SMILES IDX 17 1 16 2 14 3 15 4 2 6 1 7 3 8 4 9 5 11 6 12 10 13 7 14
REMARK SMILES IDX 9 15 8 16 11 17 12 18 13 19 18 20 19 21 20 22 21 23 22 25
REMARK SMILES IDX 23 26 24 27 76 28 25 29 75 30 26 31 27 32 28 33 69 34 29 35
REMARK SMILES IDX 74 36 68 37 70 38 30 39 73 40 67 41 66 42 31 44 57 45 40 46
REMARK SMILES IDX 56 47 41 48 44 49 55 50 71 51 42 52 43 53 54 55 72 56 45 57
REMARK SMILES IDX 32 58 33 59 38 60 34 61 35 62 37 63 39 64 36 65 58 66 59 67
REMARK SMILES IDX 64 68 60 69 61 70 63 71 65 72 62 73 46 74 47 75 52 76 48 77
REMARK SMILES IDX 49 78 51 79 53 80 50 81
REMARK H PARENT 16 5 4 10 20 24 70 43 44 54
REMARK Flexibility Score: inf
ROOT
ATOM      1  C   UNL A   1      31.641  30.774  26.094  1.00  0.00     0.118 C 
ENDROOT
BRANCH   1   2
ATOM      2  N   UNL A   1      31.652  29.761  27.137  1.00  0.00    -0.351 N 
ATOM      3  C   UNL A   1      31.725  28.393  27.014  1.00  0.00     0.267 C 
ATOM      4  O   UNL A   1      31.558  27.656  27.973  1.00  0.00    -0.268 OA
ATOM      5  H   UNL A   1      31.600  30.101  28.060  1.00  0.00     0.163 HD
BRANCH   3   6
ATOM      6  C   UNL A   1      32.180  27.794  25.693  1.00  0.00     0.122 C 
ATOM      7  C   UNL A   1      31.039  27.409  24.787  1.00  0.00     0.075 C 
ATOM      8  N   UNL A   1      33.461  27.678  25.469  1.00  0.00    -0.175 NA
BRANCH   8   9
ATOM      9  N   UNL A   1      33.899  26.927  24.430  1.00  0.00    -0.271 N 
ATOM     10  H   UNL A   1      34.163  27.413  23.616  1.00  0.00     0.190 HD
BRANCH   9  11
ATOM     11  C   UNL A   1      34.016  25.525  24.393  1.00  0.00     0.137 A 
ATOM     12  C   UNL A   1      34.658  24.826  25.420  1.00  0.00     0.055 A 
ATOM     13  C   UNL A   1      33.639  24.793  23.253  1.00  0.00     0.312 A 
ATOM     14  C   UNL A   1      34.922  23.474  25.257  1.00  0.00     0.113 A 
ATOM     15  C   UNL A   1      33.960  23.447  23.163  1.00  0.00     0.198 A 
ATOM     16  N   UNL A   1      34.599  22.773  24.149  1.00  0.00    -0.257 NA
BRANCH  13  17
ATOM     17  N   UNL A   1      32.960  25.417  22.127  1.00  0.00     0.066 N 
ATOM     18  O   UNL A   1      31.750  25.193  21.987  1.00  0.00    -0.258 OA
ATOM     19  O   UNL A   1      33.628  26.149  21.380  1.00  0.00    -0.258 OA
ENDBRANCH  13  17
ENDBRANCH   9  11
ENDBRANCH   8   9
ENDBRANCH   3   6
ENDBRANCH   1   2
BRANCH   1  20
ATOM     20  C   UNL A   1      31.381  32.156  26.690  1.00  0.00     0.042 C 
BRANCH  20  21
ATOM     21  C   UNL A   1      32.649  32.855  27.179  1.00  0.00     0.118 C 
BRANCH  21  22
ATOM     22  N   UNL A   1      32.403  34.229  27.600  1.00  0.00    -0.352 N 
ATOM     23  C   UNL A   1      32.998  34.966  28.593  1.00  0.00     0.251 C 
ATOM     24  H   UNL A   1      31.702  34.700  27.095  1.00  0.00     0.163 HD
ATOM     25  O   UNL A   1      32.523  36.052  28.910  1.00  0.00    -0.269 OA
BRANCH  23  26
ATOM     26  C   UNL A   1      34.196  34.456  29.293  1.00  0.00     0.039 A 
ATOM     27  C   UNL A   1      34.032  33.827  30.530  1.00  0.00     0.014 A 
ATOM     28  C   UNL A   1      35.474  34.618  28.752  1.00  0.00     0.014 A 
ATOM     29  C   UNL A   1      35.144  33.308  31.196  1.00  0.00     0.010 A 
ATOM     30  C   UNL A   1      36.572  34.039  29.384  1.00  0.00     0.010 A 
ATOM     31  C   UNL A   1      36.419  33.378  30.612  1.00  0.00    -0.014 A 
BRANCH  31  32
ATOM     32  C   UNL A   1      37.599  32.758  31.265  1.00  0.00     0.031 A 
ATOM     33  C   UNL A   1      38.264  31.557  30.651  1.00  0.00     0.074 A 
ATOM     34  C   UNL A   1      38.031  33.237  32.448  1.00  0.00     0.049 A 
ATOM     35  N   UNL A   1      39.254  30.836  31.111  1.00  0.00    -0.248 NA
ATOM     36  C   UNL A   1      37.730  31.092  29.362  1.00  0.00     0.031 C 
ATOM     37  C   UNL A   1      37.444  34.369  33.168  1.00  0.00     0.029 A 
ATOM     38  N   UNL A   1      39.058  32.824  33.259  1.00  0.00    -0.354 N 
ATOM     39  C   UNL A   1      39.452  29.826  30.178  1.00  0.00     0.074 A 
ATOM     40  C   UNL A   1      38.446  29.997  29.151  1.00  0.00     0.031 C 
ATOM     41  C   UNL A   1      38.131  34.571  34.303  1.00  0.00     0.029 A 
ATOM     42  C   UNL A   1      39.181  33.563  34.411  1.00  0.00     0.049 A 
ATOM     43  H   UNL A   1      39.651  32.070  33.036  1.00  0.00     0.167 HD
ATOM     44  C   UNL A   1      40.397  28.856  30.167  1.00  0.00     0.037 A 
ATOM     45  C   UNL A   1      40.036  33.436  35.443  1.00  0.00     0.037 A 
ATOM     46  C   UNL A   1      41.410  28.700  31.178  1.00  0.00     0.049 A 
ATOM     47  C   UNL A   1      41.069  32.343  35.412  1.00  0.00     0.074 A 
ATOM     48  C   UNL A   1      42.446  27.784  31.226  1.00  0.00     0.029 A 
ATOM     49  N   UNL A   1      41.510  29.478  32.322  1.00  0.00    -0.354 N 
ATOM     50  N   UNL A   1      41.284  31.435  34.492  1.00  0.00    -0.248 NA
ATOM     51  C   UNL A   1      41.981  32.263  36.562  1.00  0.00     0.031 C 
ATOM     52  C   UNL A   1      43.148  27.980  32.421  1.00  0.00     0.029 A 
ATOM     53  C   UNL A   1      42.579  29.049  33.093  1.00  0.00     0.049 A 
ATOM     54  H   UNL A   1      40.911  30.225  32.552  1.00  0.00     0.167 HD
ATOM     55  C   UNL A   1      42.372  30.695  34.935  1.00  0.00     0.074 A 
ATOM     56  C   UNL A   1      42.781  31.269  36.200  1.00  0.00     0.031 C 
ATOM     57  C   UNL A   1      42.979  29.636  34.347  1.00  0.00     0.037 A 
BRANCH  44  58
ATOM     58  C   UNL A   1      40.382  27.886  29.020  1.00  0.00     0.057 A 
ATOM     59  C   UNL A   1      39.585  26.735  29.037  1.00  0.00     0.134 A 
ATOM     60  C   UNL A   1      41.145  28.126  27.870  1.00  0.00     0.134 A 
ATOM     61  F   UNL A   1      38.840  26.439  30.113  1.00  0.00    -0.206 F 
ATOM     62  C   UNL A   1      39.566  25.843  27.962  1.00  0.00     0.040 A 
ATOM     63  C   UNL A   1      41.112  27.257  26.777  1.00  0.00     0.040 A 
ATOM     64  F   UNL A   1      41.925  29.214  27.783  1.00  0.00    -0.206 F 
ATOM     65  C   UNL A   1      40.326  26.108  26.825  1.00  0.00     0.006 A 
ENDBRANCH  44  58
BRANCH  45  66
ATOM     66  C   UNL A   1      39.963  34.378  36.588  1.00  0.00     0.057 A 
ATOM     67  C   UNL A   1      39.210  34.070  37.728  1.00  0.00     0.134 A 
ATOM     68  C   UNL A   1      40.632  35.607  36.570  1.00  0.00     0.134 A 
ATOM     69  F   UNL A   1      38.532  32.915  37.797  1.00  0.00    -0.206 F 
ATOM     70  C   UNL A   1      39.107  34.959  38.798  1.00  0.00     0.040 A 
ATOM     71  C   UNL A   1      40.559  36.495  37.645  1.00  0.00     0.040 A 
ATOM     72  F   UNL A   1      41.376  35.957  35.510  1.00  0.00    -0.206 F 
ATOM     73  C   UNL A   1      39.788  36.175  38.760  1.00  0.00     0.006 A 
ENDBRANCH  45  66
BRANCH  57  74
ATOM     74  C   UNL A   1      44.171  29.052  35.046  1.00  0.00     0.057 A 
ATOM     75  C   UNL A   1      44.049  28.014  35.978  1.00  0.00     0.134 A 
ATOM     76  C   UNL A   1      45.463  29.509  34.753  1.00  0.00     0.134 A 
ATOM     77  F   UNL A   1      42.840  27.539  36.312  1.00  0.00    -0.206 F 
ATOM     78  C   UNL A   1      45.167  27.468  36.611  1.00  0.00     0.040 A 
ATOM     79  C   UNL A   1      46.589  28.954  35.359  1.00  0.00     0.040 A 
ATOM     80  F   UNL A   1      45.650  30.496  33.862  1.00  0.00    -0.206 F 
ATOM     81  C   UNL A   1      46.443  27.933  36.296  1.00  0.00     0.006 A 
ENDBRANCH  57  74
ENDBRANCH  31  32
ENDBRANCH  23  26
ENDBRANCH  21  22
ENDBRANCH  20  21
ENDBRANCH   1  20
TORSDOF 13
ENDMDL
MODEL 3
REMARK VINA RESULT:     -11.0      5.507     10.570
REMARK SMILES C/C(=N\Nc1ccncc1[N+](=O)[O-])C(=O)NCCCNC(=O)c1ccc(-c2c3nc(c(-c4c(F)cccc4F)c4ccc([nH]4)c(-c4c(F)cccc4F)c4nc(c(-c5c(F)cccc5F)c5ccc2[nH]5)C=C4)C=C3)cc1
REMARK SMILES IDX 17 1 16 2 14 3 15 4 2 6 1 7 3 8 4 9 5 11 6 12 10 13 7 14
REMARK SMILES IDX 9 15 8 16 11 17 12 18 13 19 18 20 19 21 20 22 21 23 22 25
REMARK SMILES IDX 23 26 24 27 76 28 25 29 75 30 26 31 27 32 28 33 69 34 29 35
REMARK SMILES IDX 74 36 68 37 70 38 30 39 73 40 67 41 66 42 31 44 57 45 40 46
REMARK SMILES IDX 56 47 41 48 44 49 55 50 71 51 42 52 43 53 54 55 72 56 45 57
REMARK SMILES IDX 32 58 33 59 38 60 34 61 35 62 37 63 39 64 36 65 58 66 59 67
REMARK SMILES IDX 64 68 60 69 61 70 63 71 65 72 62 73 46 74 47 75 52 76 48 77
REMARK SMILES IDX 49 78 51 79 53 80 50 81
REMARK H PARENT 16 5 4 10 20 24 70 43 44 54
REMARK Flexibility Score: inf
ROOT
ATOM      1  C   UNL A   1      36.260  19.826  25.006  1.00  0.00     0.118 C 
ENDROOT
BRANCH   1   2
ATOM      2  N   UNL A   1      35.788  18.483  24.708  1.00  0.00    -0.351 N 
ATOM      3  C   UNL A   1      34.497  18.014  24.642  1.00  0.00     0.267 C 
ATOM      4  O   UNL A   1      34.255  16.822  24.544  1.00  0.00    -0.268 OA
ATOM      5  H   UNL A   1      36.490  17.816  24.529  1.00  0.00     0.163 HD
BRANCH   3   6
ATOM      6  C   UNL A   1      33.354  19.011  24.530  1.00  0.00     0.122 C 
ATOM      7  C   UNL A   1      32.566  18.876  23.253  1.00  0.00     0.075 C 
ATOM      8  N   UNL A   1      33.162  19.852  25.509  1.00  0.00    -0.175 NA
BRANCH   8   9
ATOM      9  N   UNL A   1      32.330  20.908  25.340  1.00  0.00    -0.271 N 
ATOM     10  H   UNL A   1      31.373  20.743  25.497  1.00  0.00     0.190 HD
BRANCH   9  11
ATOM     11  C   UNL A   1      32.692  22.215  24.963  1.00  0.00     0.137 A 
ATOM     12  C   UNL A   1      33.351  22.461  23.754  1.00  0.00     0.055 A 
ATOM     13  C   UNL A   1      32.550  23.295  25.852  1.00  0.00     0.312 A 
ATOM     14  C   UNL A   1      33.859  23.728  23.506  1.00  0.00     0.113 A 
ATOM     15  C   UNL A   1      33.106  24.525  25.534  1.00  0.00     0.198 A 
ATOM     16  N   UNL A   1      33.762  24.759  24.373  1.00  0.00    -0.257 NA
BRANCH  13  17
ATOM     17  N   UNL A   1      31.875  23.154  27.133  1.00  0.00     0.066 N 
ATOM     18  O   UNL A   1      32.485  22.581  28.046  1.00  0.00    -0.258 OA
ATOM     19  O   UNL A   1      30.733  23.629  27.243  1.00  0.00    -0.258 OA
ENDBRANCH  13  17
ENDBRANCH   9  11
ENDBRANCH   8   9
ENDBRANCH   3   6
ENDBRANCH   1   2
BRANCH   1  20
ATOM     20  C   UNL A   1      37.712  19.995  24.564  1.00  0.00     0.042 C 
BRANCH  20  21
ATOM     21  C   UNL A   1      38.680  20.207  25.728  1.00  0.00     0.118 C 
BRANCH  21  22
ATOM     22  N   UNL A   1      39.710  19.178  25.793  1.00  0.00    -0.352 N 
ATOM     23  C   UNL A   1      41.063  19.297  25.987  1.00  0.00     0.251 C 
ATOM     24  H   UNL A   1      39.386  18.256  25.678  1.00  0.00     0.163 HD
ATOM     25  O   UNL A   1      41.788  18.320  25.828  1.00  0.00    -0.269 OA
BRANCH  23  26
ATOM     26  C   UNL A   1      41.656  20.596  26.370  1.00  0.00     0.039 A 
ATOM     27  C   UNL A   1      41.993  21.503  25.362  1.00  0.00     0.014 A 
ATOM     28  C   UNL A   1      41.906  20.911  27.708  1.00  0.00     0.014 A 
ATOM     29  C   UNL A   1      42.524  22.749  25.699  1.00  0.00     0.010 A 
ATOM     30  C   UNL A   1      42.370  22.180  28.047  1.00  0.00     0.010 A 
ATOM     31  C   UNL A   1      42.685  23.112  27.047  1.00  0.00    -0.014 A 
BRANCH  31  32
ATOM     32  C   UNL A   1      43.169  24.463  27.426  1.00  0.00     0.031 A 
ATOM     33  C   UNL A   1      42.196  25.524  27.860  1.00  0.00     0.074 A 
ATOM     34  C   UNL A   1      44.480  24.753  27.316  1.00  0.00     0.049 A 
ATOM     35  N   UNL A   1      42.420  26.779  28.156  1.00  0.00    -0.248 NA
ATOM     36  C   UNL A   1      40.782  25.130  27.949  1.00  0.00     0.031 C 
ATOM     37  C   UNL A   1      45.517  23.825  26.865  1.00  0.00     0.029 A 
ATOM     38  N   UNL A   1      45.161  25.919  27.564  1.00  0.00    -0.354 N 
ATOM     39  C   UNL A   1      41.178  27.326  28.452  1.00  0.00     0.074 A 
ATOM     40  C   UNL A   1      40.198  26.280  28.251  1.00  0.00     0.031 C 
ATOM     41  C   UNL A   1      46.705  24.449  26.887  1.00  0.00     0.029 A 
ATOM     42  C   UNL A   1      46.510  25.831  27.315  1.00  0.00     0.049 A 
ATOM     43  H   UNL A   1      44.726  26.739  27.890  1.00  0.00     0.167 HD
ATOM     44  C   UNL A   1      40.883  28.579  28.873  1.00  0.00     0.037 A 
ATOM     45  C   UNL A   1      47.478  26.762  27.410  1.00  0.00     0.037 A 
ATOM     46  C   UNL A   1      41.861  29.612  29.093  1.00  0.00     0.049 A 
ATOM     47  C   UNL A   1      47.122  28.148  27.868  1.00  0.00     0.074 A 
ATOM     48  C   UNL A   1      41.667  30.895  29.573  1.00  0.00     0.029 A 
ATOM     49  N   UNL A   1      43.220  29.479  28.844  1.00  0.00    -0.354 N 
ATOM     50  N   UNL A   1      45.952  28.633  28.206  1.00  0.00    -0.248 NA
ATOM     51  C   UNL A   1      48.224  29.117  27.963  1.00  0.00     0.031 C 
ATOM     52  C   UNL A   1      42.902  31.554  29.573  1.00  0.00     0.029 A 
ATOM     53  C   UNL A   1      43.872  30.665  29.140  1.00  0.00     0.049 A 
ATOM     54  H   UNL A   1      43.655  28.663  28.507  1.00  0.00     0.167 HD
ATOM     55  C   UNL A   1      46.179  29.950  28.581  1.00  0.00     0.074 A 
ATOM     56  C   UNL A   1      47.602  30.185  28.442  1.00  0.00     0.031 C 
ATOM     57  C   UNL A   1      45.291  30.881  29.004  1.00  0.00     0.037 A 
BRANCH  44  58
ATOM     58  C   UNL A   1      39.438  28.903  29.127  1.00  0.00     0.057 A 
ATOM     59  C   UNL A   1      38.604  29.396  28.115  1.00  0.00     0.134 A 
ATOM     60  C   UNL A   1      38.865  28.683  30.386  1.00  0.00     0.134 A 
ATOM     61  F   UNL A   1      39.092  29.641  26.890  1.00  0.00    -0.206 F 
ATOM     62  C   UNL A   1      37.258  29.684  28.354  1.00  0.00     0.040 A 
ATOM     63  C   UNL A   1      37.514  28.939  30.629  1.00  0.00     0.040 A 
ATOM     64  F   UNL A   1      39.605  28.205  31.398  1.00  0.00    -0.206 F 
ATOM     65  C   UNL A   1      36.709  29.448  29.612  1.00  0.00     0.006 A 
ENDBRANCH  44  58
BRANCH  45  66
ATOM     66  C   UNL A   1      48.882  26.409  27.079  1.00  0.00     0.057 A 
ATOM     67  C   UNL A   1      49.374  26.555  25.777  1.00  0.00     0.134 A 
ATOM     68  C   UNL A   1      49.761  25.911  28.048  1.00  0.00     0.134 A 
ATOM     69  F   UNL A   1      48.575  27.011  24.801  1.00  0.00    -0.206 F 
ATOM     70  C   UNL A   1      50.681  26.200  25.444  1.00  0.00     0.040 A 
ATOM     71  C   UNL A   1      51.079  25.575  27.736  1.00  0.00     0.040 A 
ATOM     72  F   UNL A   1      49.352  25.754  29.316  1.00  0.00    -0.206 F 
ATOM     73  C   UNL A   1      51.540  25.711  26.428  1.00  0.00     0.006 A 
ENDBRANCH  45  66
BRANCH  57  74
ATOM     74  C   UNL A   1      45.834  32.228  29.382  1.00  0.00     0.057 A 
ATOM     75  C   UNL A   1      45.931  33.274  28.457  1.00  0.00     0.134 A 
ATOM     76  C   UNL A   1      46.229  32.492  30.700  1.00  0.00     0.134 A 
ATOM     77  F   UNL A   1      45.582  33.083  27.176  1.00  0.00    -0.206 F 
ATOM     78  C   UNL A   1      46.425  34.527  28.823  1.00  0.00     0.040 A 
ATOM     79  C   UNL A   1      46.698  33.747  31.085  1.00  0.00     0.040 A 
ATOM     80  F   UNL A   1      46.153  31.535  31.639  1.00  0.00    -0.206 F 
ATOM     81  C   UNL A   1      46.803  34.769  30.143  1.00  0.00     0.006 A 
ENDBRANCH  57  74
ENDBRANCH  31  32
ENDBRANCH  23  26
ENDBRANCH  21  22
ENDBRANCH  20  21
ENDBRANCH   1  20
TORSDOF 13
ENDMDL
