MODEL 1
REMARK VINA RESULT:     -12.7      0.000      0.000
REMARK SMILES CC(=O)Nc1ccc(/C(=C\c2ccc(S(C)(=O)=O)cc2)C(=O)NCCCNC(=O)c2ccc(-c3c4nc(c(-c5c(F)cccc5F)c5ccc([nH]5)c(-c5c(F)cccc5F)c5nc(c(-c6c(F)cccc6F)c6ccc3[nH]6)C=C5)C=C4)cc2)cc1
REMARK SMILES IDX 25 1 24 2 23 3 21 4 22 5 9 7 10 8 8 9 5 10 6 11 85 12 7 13
REMARK SMILES IDX 84 14 4 15 1 16 2 17 3 18 11 20 12 21 20 22 13 23 19 24
REMARK SMILES IDX 14 25 15 26 16 27 17 28 18 29 26 30 27 31 28 32 29 34 30 35
REMARK SMILES IDX 31 36 83 37 32 38 82 39 33 40 34 41 35 42 76 43 36 44 81 45
REMARK SMILES IDX 75 46 77 47 37 48 80 49 74 50 73 51 38 53 64 54 47 55 63 56
REMARK SMILES IDX 48 57 51 58 62 59 78 60 49 61 50 62 61 64 79 65 52 66 39 67
REMARK SMILES IDX 40 68 45 69 41 70 42 71 44 72 46 73 43 74 65 75 66 76 71 77
REMARK SMILES IDX 67 78 68 79 70 80 72 81 69 82 53 83 54 84 59 85 55 86 56 87
REMARK SMILES IDX 58 88 60 89 57 90
REMARK H PARENT 23 6 4 19 27 33 77 52 51 63
REMARK Flexibility Score: inf
ROOT
ATOM      1  C   UNL A   1      36.465  23.342  24.221  1.00  0.00     0.042 C 
ENDROOT
BRANCH   1   2
ATOM      2  C   UNL A   1      35.024  23.716  23.862  1.00  0.00     0.118 C 
BRANCH   2   3
ATOM      3  N   UNL A   1      34.099  23.201  24.852  1.00  0.00    -0.352 N 
ATOM      4  C   UNL A   1      32.985  23.662  25.478  1.00  0.00     0.251 C 
ATOM      5  O   UNL A   1      32.534  22.869  26.306  1.00  0.00    -0.269 OA
ATOM      6  H   UNL A   1      34.337  22.291  25.144  1.00  0.00     0.163 HD
BRANCH   4   7
ATOM      7  C   UNL A   1      32.300  24.995  25.176  1.00  0.00     0.047 C 
ATOM      8  C   UNL A   1      31.564  25.081  24.042  1.00  0.00     0.022 C 
BRANCH   7   9
ATOM      9  C   UNL A   1      32.622  26.214  26.014  1.00  0.00    -0.013 A 
ATOM     10  C   UNL A   1      33.135  28.791  27.148  1.00  0.00     0.041 A 
ATOM     11  C   UNL A   1      31.947  28.112  27.421  1.00  0.00     0.027 A 
ATOM     12  C   UNL A   1      34.123  28.109  26.461  1.00  0.00     0.027 A 
ATOM     13  C   UNL A   1      31.712  26.830  26.888  1.00  0.00     0.011 A 
ATOM     14  C   UNL A   1      33.858  26.864  25.880  1.00  0.00     0.011 A 
BRANCH  10  15
ATOM     15  N   UNL A   1      33.259  30.118  27.592  1.00  0.00    -0.326 N 
ATOM     16  C   UNL A   1      31.529  31.262  26.184  1.00  0.00     0.114 C 
ATOM     17  C   UNL A   1      32.654  31.275  27.185  1.00  0.00     0.221 C 
ATOM     18  O   UNL A   1      33.016  32.340  27.693  1.00  0.00    -0.275 OA
ATOM     19  H   UNL A   1      33.898  30.237  28.331  1.00  0.00     0.169 HD
ENDBRANCH  10  15
ENDBRANCH   7   9
BRANCH   8  20
ATOM     20  C   UNL A   1      30.713  26.171  23.549  1.00  0.00    -0.025 A 
ATOM     21  C   UNL A   1      29.368  26.192  23.960  1.00  0.00     0.009 A 
ATOM     22  C   UNL A   1      31.207  27.202  22.744  1.00  0.00     0.009 A 
ATOM     23  C   UNL A   1      28.542  27.263  23.623  1.00  0.00     0.021 A 
ATOM     24  C   UNL A   1      30.384  28.280  22.406  1.00  0.00     0.021 A 
ATOM     25  C   UNL A   1      29.060  28.308  22.856  1.00  0.00     0.067 A 
BRANCH  25  26
ATOM     26  S   UNL A   1      28.048  29.742  22.562  1.00  0.00     0.175 S 
ATOM     27  C   UNL A   1      28.895  31.043  23.416  1.00  0.00     0.163 C 
ATOM     28  O   UNL A   1      28.108  30.018  21.140  1.00  0.00    -0.224 OA
ATOM     29  O   UNL A   1      26.777  29.525  23.225  1.00  0.00    -0.224 OA
ENDBRANCH  25  26
ENDBRANCH   8  20
ENDBRANCH   4   7
ENDBRANCH   2   3
ENDBRANCH   1   2
BRANCH   1  30
ATOM     30  C   UNL A   1      36.717  23.227  25.724  1.00  0.00     0.118 C 
BRANCH  30  31
ATOM     31  N   UNL A   1      37.864  22.383  26.018  1.00  0.00    -0.352 N 
ATOM     32  C   UNL A   1      39.137  22.715  26.398  1.00  0.00     0.251 C 
ATOM     33  H   UNL A   1      37.698  21.418  25.929  1.00  0.00     0.163 HD
ATOM     34  O   UNL A   1      40.020  21.863  26.322  1.00  0.00    -0.269 OA
BRANCH  32  35
ATOM     35  C   UNL A   1      39.466  24.066  26.906  1.00  0.00     0.039 A 
ATOM     36  C   UNL A   1      40.042  24.985  26.022  1.00  0.00     0.014 A 
ATOM     37  C   UNL A   1      39.315  24.403  28.254  1.00  0.00     0.014 A 
ATOM     38  C   UNL A   1      40.454  26.236  26.485  1.00  0.00     0.010 A 
ATOM     39  C   UNL A   1      39.654  25.681  28.699  1.00  0.00     0.010 A 
ATOM     40  C   UNL A   1      40.254  26.599  27.827  1.00  0.00    -0.014 A 
BRANCH  40  41
ATOM     41  C   UNL A   1      40.725  27.914  28.332  1.00  0.00     0.031 A 
ATOM     42  C   UNL A   1      42.194  28.246  28.326  1.00  0.00     0.074 A 
ATOM     43  C   UNL A   1      39.832  28.805  28.806  1.00  0.00     0.049 A 
ATOM     44  N   UNL A   1      42.798  29.340  28.724  1.00  0.00    -0.248 NA
ATOM     45  C   UNL A   1      43.109  27.207  27.830  1.00  0.00     0.031 C 
ATOM     46  C   UNL A   1      38.388  28.586  28.903  1.00  0.00     0.029 A 
ATOM     47  N   UNL A   1      40.009  30.076  29.290  1.00  0.00    -0.354 N 
ATOM     48  C   UNL A   1      44.155  29.114  28.532  1.00  0.00     0.074 A 
ATOM     49  C   UNL A   1      44.294  27.760  28.045  1.00  0.00     0.031 C 
ATOM     50  C   UNL A   1      37.806  29.697  29.381  1.00  0.00     0.029 A 
ATOM     51  C   UNL A   1      38.836  30.693  29.654  1.00  0.00     0.049 A 
ATOM     52  H   UNL A   1      40.891  30.505  29.371  1.00  0.00     0.167 HD
ATOM     53  C   UNL A   1      45.192  29.967  28.714  1.00  0.00     0.037 A 
ATOM     54  C   UNL A   1      38.618  31.927  30.148  1.00  0.00     0.037 A 
ATOM     55  C   UNL A   1      45.050  31.322  29.177  1.00  0.00     0.049 A 
ATOM     56  C   UNL A   1      39.789  32.851  30.351  1.00  0.00     0.074 A 
ATOM     57  C   UNL A   1      46.031  32.282  29.353  1.00  0.00     0.029 A 
ATOM     58  N   UNL A   1      43.845  31.911  29.534  1.00  0.00    -0.354 N 
ATOM     59  N   UNL A   1      41.060  32.645  30.103  1.00  0.00    -0.248 NA
ATOM     60  C   UNL A   1      39.490  34.184  30.892  1.00  0.00     0.031 C 
ATOM     61  C   UNL A   1      45.426  33.439  29.856  1.00  0.00     0.029 A 
ATOM     62  C   UNL A   1      44.061  33.216  29.947  1.00  0.00     0.049 A 
ATOM     63  H   UNL A   1      42.968  31.467  29.498  1.00  0.00     0.167 HD
ATOM     64  C   UNL A   1      41.708  33.828  30.432  1.00  0.00     0.074 A 
ATOM     65  C   UNL A   1      40.685  34.755  30.874  1.00  0.00     0.031 C 
ATOM     66  C   UNL A   1      43.030  34.124  30.378  1.00  0.00     0.037 A 
BRANCH  53  67
ATOM     67  C   UNL A   1      46.570  29.459  28.398  1.00  0.00     0.057 A 
ATOM     68  C   UNL A   1      47.366  28.833  29.367  1.00  0.00     0.134 A 
ATOM     69  C   UNL A   1      47.097  29.566  27.104  1.00  0.00     0.134 A 
ATOM     70  F   UNL A   1      46.928  28.709  30.629  1.00  0.00    -0.206 F 
ATOM     71  C   UNL A   1      48.646  28.360  29.069  1.00  0.00     0.040 A 
ATOM     72  C   UNL A   1      48.363  29.070  26.788  1.00  0.00     0.040 A 
ATOM     73  F   UNL A   1      46.387  30.147  26.125  1.00  0.00    -0.206 F 
ATOM     74  C   UNL A   1      49.145  28.472  27.774  1.00  0.00     0.006 A 
ENDBRANCH  53  67
BRANCH  54  75
ATOM     75  C   UNL A   1      37.238  32.378  30.458  1.00  0.00     0.057 A 
ATOM     76  C   UNL A   1      36.509  33.150  29.546  1.00  0.00     0.134 A 
ATOM     77  C   UNL A   1      36.624  32.073  31.679  1.00  0.00     0.134 A 
ATOM     78  F   UNL A   1      37.049  33.489  28.366  1.00  0.00    -0.206 F 
ATOM     79  C   UNL A   1      35.232  33.628  29.847  1.00  0.00     0.040 A 
ATOM     80  C   UNL A   1      35.338  32.521  31.982  1.00  0.00     0.040 A 
ATOM     81  F   UNL A   1      37.266  31.329  32.593  1.00  0.00    -0.206 F 
ATOM     82  C   UNL A   1      34.642  33.310  31.069  1.00  0.00     0.006 A 
ENDBRANCH  54  75
BRANCH  66  83
ATOM     83  C   UNL A   1      43.435  35.513  30.779  1.00  0.00     0.057 A 
ATOM     84  C   UNL A   1      43.759  35.836  32.102  1.00  0.00     0.134 A 
ATOM     85  C   UNL A   1      43.518  36.534  29.823  1.00  0.00     0.134 A 
ATOM     86  F   UNL A   1      43.688  34.906  33.066  1.00  0.00    -0.206 F 
ATOM     87  C   UNL A   1      44.120  37.134  32.467  1.00  0.00     0.040 A 
ATOM     88  C   UNL A   1      43.906  37.829  30.171  1.00  0.00     0.040 A 
ATOM     89  F   UNL A   1      43.230  36.289  28.536  1.00  0.00    -0.206 F 
ATOM     90  C   UNL A   1      44.199  38.133  31.499  1.00  0.00     0.006 A 
ENDBRANCH  66  83
ENDBRANCH  40  41
ENDBRANCH  32  35
ENDBRANCH  30  31
ENDBRANCH   1  30
TORSDOF 14
ENDMDL
MODEL 2
REMARK VINA RESULT:     -12.7      1.838      2.838
REMARK SMILES CC(=O)Nc1ccc(/C(=C\c2ccc(S(C)(=O)=O)cc2)C(=O)NCCCNC(=O)c2ccc(-c3c4nc(c(-c5c(F)cccc5F)c5ccc([nH]5)c(-c5c(F)cccc5F)c5nc(c(-c6c(F)cccc6F)c6ccc3[nH]6)C=C5)C=C4)cc2)cc1
REMARK SMILES IDX 25 1 24 2 23 3 21 4 22 5 9 7 10 8 8 9 5 10 6 11 85 12 7 13
REMARK SMILES IDX 84 14 4 15 1 16 2 17 3 18 11 20 12 21 20 22 13 23 19 24
REMARK SMILES IDX 14 25 15 26 16 27 17 28 18 29 26 30 27 31 28 32 29 34 30 35
REMARK SMILES IDX 31 36 83 37 32 38 82 39 33 40 34 41 35 42 76 43 36 44 81 45
REMARK SMILES IDX 75 46 77 47 37 48 80 49 74 50 73 51 38 53 64 54 47 55 63 56
REMARK SMILES IDX 48 57 51 58 62 59 78 60 49 61 50 62 61 64 79 65 52 66 39 67
REMARK SMILES IDX 40 68 45 69 41 70 42 71 44 72 46 73 43 74 65 75 66 76 71 77
REMARK SMILES IDX 67 78 68 79 70 80 72 81 69 82 53 83 54 84 59 85 55 86 56 87
REMARK SMILES IDX 58 88 60 89 57 90
REMARK H PARENT 23 6 4 19 27 33 77 52 51 63
REMARK Flexibility Score: inf
ROOT
ATOM      1  C   UNL A   1      34.776  22.083  25.620  1.00  0.00     0.042 C 
ENDROOT
BRANCH   1   2
ATOM      2  C   UNL A   1      33.743  23.167  25.299  1.00  0.00     0.118 C 
BRANCH   2   3
ATOM      3  N   UNL A   1      32.628  23.102  26.223  1.00  0.00    -0.352 N 
ATOM      4  C   UNL A   1      31.612  23.929  26.584  1.00  0.00     0.251 C 
ATOM      5  O   UNL A   1      30.898  23.457  27.471  1.00  0.00    -0.269 OA
ATOM      6  H   UNL A   1      32.599  22.247  26.710  1.00  0.00     0.163 HD
BRANCH   4   7
ATOM      7  C   UNL A   1      31.319  25.286  25.944  1.00  0.00     0.047 C 
ATOM      8  C   UNL A   1      30.515  25.306  24.855  1.00  0.00     0.022 C 
BRANCH   7   9
ATOM      9  C   UNL A   1      32.080  26.513  26.399  1.00  0.00    -0.013 A 
ATOM     10  C   UNL A   1      33.427  29.012  26.763  1.00  0.00     0.041 A 
ATOM     11  C   UNL A   1      32.161  28.795  27.306  1.00  0.00     0.027 A 
ATOM     12  C   UNL A   1      34.079  27.930  26.198  1.00  0.00     0.027 A 
ATOM     13  C   UNL A   1      31.514  27.554  27.154  1.00  0.00     0.011 A 
ATOM     14  C   UNL A   1      33.406  26.720  25.992  1.00  0.00     0.011 A 
BRANCH  10  15
ATOM     15  N   UNL A   1      33.966  30.308  26.827  1.00  0.00    -0.326 N 
ATOM     16  C   UNL A   1      35.844  29.972  28.452  1.00  0.00     0.114 C 
ATOM     17  C   UNL A   1      34.972  30.840  27.585  1.00  0.00     0.221 C 
ATOM     18  O   UNL A   1      35.188  32.052  27.508  1.00  0.00    -0.275 OA
ATOM     19  H   UNL A   1      33.540  30.950  26.215  1.00  0.00     0.169 HD
ENDBRANCH  10  15
ENDBRANCH   7   9
BRANCH   8  20
ATOM     20  C   UNL A   1      29.970  26.445  24.104  1.00  0.00    -0.025 A 
ATOM     21  C   UNL A   1      28.573  26.606  24.076  1.00  0.00     0.009 A 
ATOM     22  C   UNL A   1      30.788  27.388  23.476  1.00  0.00     0.009 A 
ATOM     23  C   UNL A   1      28.002  27.730  23.483  1.00  0.00     0.021 A 
ATOM     24  C   UNL A   1      30.221  28.519  22.881  1.00  0.00     0.021 A 
ATOM     25  C   UNL A   1      28.832  28.688  22.897  1.00  0.00     0.067 A 
BRANCH  25  26
ATOM     26  S   UNL A   1      28.109  30.191  22.280  1.00  0.00     0.175 S 
ATOM     27  C   UNL A   1      29.354  31.417  22.578  1.00  0.00     0.163 C 
ATOM     28  O   UNL A   1      27.960  30.033  20.847  1.00  0.00    -0.224 OA
ATOM     29  O   UNL A   1      26.966  30.504  23.117  1.00  0.00    -0.224 OA
ENDBRANCH  25  26
ENDBRANCH   8  20
ENDBRANCH   4   7
ENDBRANCH   2   3
ENDBRANCH   1   2
BRANCH   1  30
ATOM     30  C   UNL A   1      36.200  22.615  25.780  1.00  0.00     0.118 C 
BRANCH  30  31
ATOM     31  N   UNL A   1      37.176  21.540  25.846  1.00  0.00    -0.352 N 
ATOM     32  C   UNL A   1      38.532  21.580  26.031  1.00  0.00     0.251 C 
ATOM     33  H   UNL A   1      36.801  20.637  25.740  1.00  0.00     0.163 HD
ATOM     34  O   UNL A   1      39.196  20.579  25.774  1.00  0.00    -0.269 OA
BRANCH  32  35
ATOM     35  C   UNL A   1      39.208  22.794  26.543  1.00  0.00     0.039 A 
ATOM     36  C   UNL A   1      38.804  24.037  26.046  1.00  0.00     0.014 A 
ATOM     37  C   UNL A   1      40.295  22.719  27.418  1.00  0.00     0.014 A 
ATOM     38  C   UNL A   1      39.479  25.197  26.431  1.00  0.00     0.010 A 
ATOM     39  C   UNL A   1      40.918  23.884  27.864  1.00  0.00     0.010 A 
ATOM     40  C   UNL A   1      40.538  25.132  27.352  1.00  0.00    -0.014 A 
BRANCH  40  41
ATOM     41  C   UNL A   1      41.282  26.357  27.736  1.00  0.00     0.031 A 
ATOM     42  C   UNL A   1      42.704  26.555  27.279  1.00  0.00     0.074 A 
ATOM     43  C   UNL A   1      40.684  27.289  28.505  1.00  0.00     0.049 A 
ATOM     44  N   UNL A   1      43.517  27.557  27.510  1.00  0.00    -0.248 NA
ATOM     45  C   UNL A   1      43.301  25.476  26.476  1.00  0.00     0.031 C 
ATOM     46  C   UNL A   1      39.327  27.195  29.044  1.00  0.00     0.029 A 
ATOM     47  N   UNL A   1      41.140  28.500  28.960  1.00  0.00    -0.354 N 
ATOM     48  C   UNL A   1      44.714  27.224  26.888  1.00  0.00     0.074 A 
ATOM     49  C   UNL A   1      44.546  25.902  26.328  1.00  0.00     0.031 C 
ATOM     50  C   UNL A   1      39.046  28.316  29.727  1.00  0.00     0.029 A 
ATOM     51  C   UNL A   1      40.213  29.192  29.701  1.00  0.00     0.049 A 
ATOM     52  H   UNL A   1      42.045  28.840  28.774  1.00  0.00     0.167 HD
ATOM     53  C   UNL A   1      45.843  27.964  26.768  1.00  0.00     0.037 A 
ATOM     54  C   UNL A   1      40.296  30.401  30.289  1.00  0.00     0.037 A 
ATOM     55  C   UNL A   1      46.001  29.289  27.308  1.00  0.00     0.049 A 
ATOM     56  C   UNL A   1      41.565  31.197  30.149  1.00  0.00     0.074 A 
ATOM     57  C   UNL A   1      47.087  30.140  27.204  1.00  0.00     0.029 A 
ATOM     58  N   UNL A   1      45.039  29.956  28.051  1.00  0.00    -0.354 N 
ATOM     59  N   UNL A   1      42.666  30.896  29.503  1.00  0.00    -0.248 NA
ATOM     60  C   UNL A   1      41.596  32.508  30.812  1.00  0.00     0.031 C 
ATOM     61  C   UNL A   1      46.798  31.306  27.920  1.00  0.00     0.029 A 
ATOM     62  C   UNL A   1      45.513  31.202  28.429  1.00  0.00     0.049 A 
ATOM     63  H   UNL A   1      44.150  29.597  28.278  1.00  0.00     0.167 HD
ATOM     64  C   UNL A   1      43.509  31.988  29.659  1.00  0.00     0.074 A 
ATOM     65  C   UNL A   1      42.782  32.969  30.440  1.00  0.00     0.031 C 
ATOM     66  C   UNL A   1      44.773  32.165  29.201  1.00  0.00     0.037 A 
BRANCH  53  67
ATOM     67  C   UNL A   1      46.991  27.357  26.011  1.00  0.00     0.057 A 
ATOM     68  C   UNL A   1      47.116  27.501  24.622  1.00  0.00     0.134 A 
ATOM     69  C   UNL A   1      48.000  26.651  26.679  1.00  0.00     0.134 A 
ATOM     70  F   UNL A   1      46.179  28.155  23.920  1.00  0.00    -0.206 F 
ATOM     71  C   UNL A   1      48.185  26.938  23.922  1.00  0.00     0.040 A 
ATOM     72  C   UNL A   1      49.088  26.109  25.993  1.00  0.00     0.040 A 
ATOM     73  F   UNL A   1      47.947  26.482  28.008  1.00  0.00    -0.206 F 
ATOM     74  C   UNL A   1      49.179  26.246  24.609  1.00  0.00     0.006 A 
ENDBRANCH  53  67
BRANCH  54  75
ATOM     75  C   UNL A   1      39.138  30.951  31.039  1.00  0.00     0.057 A 
ATOM     76  C   UNL A   1      38.937  30.637  32.388  1.00  0.00     0.134 A 
ATOM     77  C   UNL A   1      38.193  31.780  30.423  1.00  0.00     0.134 A 
ATOM     78  F   UNL A   1      39.798  29.833  33.029  1.00  0.00    -0.206 F 
ATOM     79  C   UNL A   1      37.823  31.102  33.090  1.00  0.00     0.040 A 
ATOM     80  C   UNL A   1      37.089  32.275  31.119  1.00  0.00     0.040 A 
ATOM     81  F   UNL A   1      38.333  32.127  29.134  1.00  0.00    -0.206 F 
ATOM     82  C   UNL A   1      36.896  31.926  32.455  1.00  0.00     0.006 A 
ENDBRANCH  54  75
BRANCH  66  83
ATOM     83  C   UNL A   1      45.431  33.479  29.510  1.00  0.00     0.057 A 
ATOM     84  C   UNL A   1      45.300  34.588  28.665  1.00  0.00     0.134 A 
ATOM     85  C   UNL A   1      46.190  33.639  30.676  1.00  0.00     0.134 A 
ATOM     86  F   UNL A   1      44.597  34.496  27.526  1.00  0.00    -0.206 F 
ATOM     87  C   UNL A   1      45.928  35.801  28.953  1.00  0.00     0.040 A 
ATOM     88  C   UNL A   1      46.798  34.855  30.989  1.00  0.00     0.040 A 
ATOM     89  F   UNL A   1      46.348  32.619  31.533  1.00  0.00    -0.206 F 
ATOM     90  C   UNL A   1      46.675  35.938  30.121  1.00  0.00     0.006 A 
ENDBRANCH  66  83
ENDBRANCH  40  41
ENDBRANCH  32  35
ENDBRANCH  30  31
ENDBRANCH   1  30
TORSDOF 14
ENDMDL
MODEL 3
REMARK VINA RESULT:     -12.6      3.982      8.872
REMARK SMILES CC(=O)Nc1ccc(/C(=C\c2ccc(S(C)(=O)=O)cc2)C(=O)NCCCNC(=O)c2ccc(-c3c4nc(c(-c5c(F)cccc5F)c5ccc([nH]5)c(-c5c(F)cccc5F)c5nc(c(-c6c(F)cccc6F)c6ccc3[nH]6)C=C5)C=C4)cc2)cc1
REMARK SMILES IDX 25 1 24 2 23 3 21 4 22 5 9 7 10 8 8 9 5 10 6 11 85 12 7 13
REMARK SMILES IDX 84 14 4 15 1 16 2 17 3 18 11 20 12 21 20 22 13 23 19 24
REMARK SMILES IDX 14 25 15 26 16 27 17 28 18 29 26 30 27 31 28 32 29 34 30 35
REMARK SMILES IDX 31 36 83 37 32 38 82 39 33 40 34 41 35 42 76 43 36 44 81 45
REMARK SMILES IDX 75 46 77 47 37 48 80 49 74 50 73 51 38 53 64 54 47 55 63 56
REMARK SMILES IDX 48 57 51 58 62 59 78 60 49 61 50 62 61 64 79 65 52 66 39 67
REMARK SMILES IDX 40 68 45 69 41 70 42 71 44 72 46 73 43 74 65 75 66 76 71 77
REMARK SMILES IDX 67 78 68 79 70 80 72 81 69 82 53 83 54 84 59 85 55 86 56 87
REMARK SMILES IDX 58 88 60 89 57 90
REMARK H PARENT 23 6 4 19 27 33 77 52 51 63
REMARK Flexibility Score: inf
ROOT
ATOM      1  C   UNL A   1      33.416  27.794  26.704  1.00  0.00     0.042 C 
ENDROOT
BRANCH   1   2
ATOM      2  C   UNL A   1      32.310  26.984  26.020  1.00  0.00     0.118 C 
BRANCH   2   3
ATOM      3  N   UNL A   1      32.436  27.061  24.577  1.00  0.00    -0.352 N 
ATOM      4  C   UNL A   1      32.817  26.214  23.587  1.00  0.00     0.251 C 
ATOM      5  O   UNL A   1      32.808  26.740  22.472  1.00  0.00    -0.269 OA
ATOM      6  H   UNL A   1      32.183  27.946  24.230  1.00  0.00     0.163 HD
BRANCH   4   7
ATOM      7  C   UNL A   1      33.174  24.740  23.784  1.00  0.00     0.047 C 
ATOM      8  C   UNL A   1      32.154  23.852  23.865  1.00  0.00     0.022 C 
BRANCH   7   9
ATOM      9  C   UNL A   1      34.603  24.345  24.087  1.00  0.00    -0.013 A 
ATOM     10  C   UNL A   1      37.084  23.192  24.927  1.00  0.00     0.041 A 
ATOM     11  C   UNL A   1      36.636  23.048  23.615  1.00  0.00     0.027 A 
ATOM     12  C   UNL A   1      36.384  24.052  25.755  1.00  0.00     0.027 A 
ATOM     13  C   UNL A   1      35.432  23.644  23.195  1.00  0.00     0.011 A 
ATOM     14  C   UNL A   1      35.156  24.587  25.354  1.00  0.00     0.011 A 
BRANCH  10  15
ATOM     15  N   UNL A   1      38.219  22.466  25.326  1.00  0.00    -0.326 N 
ATOM     16  C   UNL A   1      37.468  20.115  24.882  1.00  0.00     0.114 C 
ATOM     17  C   UNL A   1      38.457  21.122  25.409  1.00  0.00     0.221 C 
ATOM     18  O   UNL A   1      39.530  20.742  25.886  1.00  0.00    -0.275 OA
ATOM     19  H   UNL A   1      38.981  23.027  25.596  1.00  0.00     0.169 HD
ENDBRANCH  10  15
ENDBRANCH   7   9
BRANCH   8  20
ATOM     20  C   UNL A   1      32.182  22.386  23.939  1.00  0.00    -0.025 A 
ATOM     21  C   UNL A   1      32.112  21.666  22.733  1.00  0.00     0.009 A 
ATOM     22  C   UNL A   1      32.333  21.700  25.147  1.00  0.00     0.009 A 
ATOM     23  C   UNL A   1      32.254  20.279  22.727  1.00  0.00     0.021 A 
ATOM     24  C   UNL A   1      32.478  20.309  25.147  1.00  0.00     0.021 A 
ATOM     25  C   UNL A   1      32.447  19.609  23.936  1.00  0.00     0.067 A 
BRANCH  25  26
ATOM     26  S   UNL A   1      32.782  17.862  23.907  1.00  0.00     0.175 S 
ATOM     27  C   UNL A   1      34.486  17.746  24.377  1.00  0.00     0.163 C 
ATOM     28  O   UNL A   1      31.980  17.260  24.953  1.00  0.00    -0.224 OA
ATOM     29  O   UNL A   1      32.667  17.416  22.531  1.00  0.00    -0.224 OA
ENDBRANCH  25  26
ENDBRANCH   8  20
ENDBRANCH   4   7
ENDBRANCH   2   3
ENDBRANCH   1   2
BRANCH   1  30
ATOM     30  C   UNL A   1      33.953  28.945  25.854  1.00  0.00     0.118 C 
BRANCH  30  31
ATOM     31  N   UNL A   1      33.809  30.226  26.524  1.00  0.00    -0.352 N 
ATOM     32  C   UNL A   1      34.488  30.754  27.589  1.00  0.00     0.251 C 
ATOM     33  H   UNL A   1      33.109  30.809  26.152  1.00  0.00     0.163 HD
ATOM     34  O   UNL A   1      34.019  31.732  28.167  1.00  0.00    -0.269 OA
BRANCH  32  35
ATOM     35  C   UNL A   1      35.774  30.181  28.048  1.00  0.00     0.039 A 
ATOM     36  C   UNL A   1      35.807  29.531  29.286  1.00  0.00     0.014 A 
ATOM     37  C   UNL A   1      36.960  30.366  27.332  1.00  0.00     0.014 A 
ATOM     38  C   UNL A   1      37.019  29.061  29.797  1.00  0.00     0.010 A 
ATOM     39  C   UNL A   1      38.156  29.827  27.805  1.00  0.00     0.010 A 
ATOM     40  C   UNL A   1      38.204  29.197  29.056  1.00  0.00    -0.014 A 
BRANCH  40  41
ATOM     41  C   UNL A   1      39.500  28.732  29.611  1.00  0.00     0.031 A 
ATOM     42  C   UNL A   1      40.079  29.390  30.837  1.00  0.00     0.074 A 
ATOM     43  C   UNL A   1      40.162  27.726  29.008  1.00  0.00     0.049 A 
ATOM     44  N   UNL A   1      41.195  29.125  31.471  1.00  0.00    -0.248 NA
ATOM     45  C   UNL A   1      39.316  30.508  31.415  1.00  0.00     0.031 C 
ATOM     46  C   UNL A   1      39.727  27.035  27.793  1.00  0.00     0.029 A 
ATOM     47  N   UNL A   1      41.340  27.105  29.339  1.00  0.00    -0.354 N 
ATOM     48  C   UNL A   1      41.267  30.044  32.511  1.00  0.00     0.074 A 
ATOM     49  C   UNL A   1      40.120  30.915  32.386  1.00  0.00     0.031 C 
ATOM     50  C   UNL A   1      40.606  26.064  27.501  1.00  0.00     0.029 A 
ATOM     51  C   UNL A   1      41.681  26.084  28.487  1.00  0.00     0.049 A 
ATOM     52  H   UNL A   1      41.889  27.368  30.114  1.00  0.00     0.167 HD
ATOM     53  C   UNL A   1      42.189  30.137  33.499  1.00  0.00     0.037 A 
ATOM     54  C   UNL A   1      42.741  25.252  28.504  1.00  0.00     0.037 A 
ATOM     55  C   UNL A   1      43.318  29.255  33.634  1.00  0.00     0.049 A 
ATOM     56  C   UNL A   1      43.756  25.384  29.607  1.00  0.00     0.074 A 
ATOM     57  C   UNL A   1      44.286  29.236  34.624  1.00  0.00     0.029 A 
ATOM     58  N   UNL A   1      43.629  28.231  32.751  1.00  0.00    -0.354 N 
ATOM     59  N   UNL A   1      43.776  26.216  30.621  1.00  0.00    -0.248 NA
ATOM     60  C   UNL A   1      44.890  24.450  29.574  1.00  0.00     0.031 C 
ATOM     61  C   UNL A   1      45.205  28.227  34.317  1.00  0.00     0.029 A 
ATOM     62  C   UNL A   1      44.784  27.586  33.163  1.00  0.00     0.049 A 
ATOM     63  H   UNL A   1      43.106  27.998  31.951  1.00  0.00     0.167 HD
ATOM     64  C   UNL A   1      44.906  25.890  31.358  1.00  0.00     0.074 A 
ATOM     65  C   UNL A   1      45.532  24.768  30.689  1.00  0.00     0.031 C 
ATOM     66  C   UNL A   1      45.388  26.468  32.487  1.00  0.00     0.037 A 
BRANCH  53  67
ATOM     67  C   UNL A   1      42.003  31.224  34.519  1.00  0.00     0.057 A 
ATOM     68  C   UNL A   1      41.262  31.017  35.691  1.00  0.00     0.134 A 
ATOM     69  C   UNL A   1      42.597  32.481  34.347  1.00  0.00     0.134 A 
ATOM     70  F   UNL A   1      40.657  29.840  35.913  1.00  0.00    -0.206 F 
ATOM     71  C   UNL A   1      41.093  32.028  36.638  1.00  0.00     0.040 A 
ATOM     72  C   UNL A   1      42.459  33.491  35.302  1.00  0.00     0.040 A 
ATOM     73  F   UNL A   1      43.325  32.747  33.253  1.00  0.00    -0.206 F 
ATOM     74  C   UNL A   1      41.699  33.268  36.448  1.00  0.00     0.006 A 
ENDBRANCH  53  67
BRANCH  54  75
ATOM     75  C   UNL A   1      42.888  24.202  27.465  1.00  0.00     0.057 A 
ATOM     76  C   UNL A   1      43.445  24.497  26.215  1.00  0.00     0.134 A 
ATOM     77  C   UNL A   1      42.453  22.889  27.683  1.00  0.00     0.134 A 
ATOM     78  F   UNL A   1      43.865  25.741  25.940  1.00  0.00    -0.206 F 
ATOM     79  C   UNL A   1      43.538  23.533  25.209  1.00  0.00     0.040 A 
ATOM     80  C   UNL A   1      42.565  21.909  26.696  1.00  0.00     0.040 A 
ATOM     81  F   UNL A   1      41.918  22.540  28.862  1.00  0.00    -0.206 F 
ATOM     82  C   UNL A   1      43.099  22.233  25.450  1.00  0.00     0.006 A 
ENDBRANCH  54  75
BRANCH  66  83
ATOM     83  C   UNL A   1      46.633  25.873  33.078  1.00  0.00     0.057 A 
ATOM     84  C   UNL A   1      47.910  26.313  32.709  1.00  0.00     0.134 A 
ATOM     85  C   UNL A   1      46.551  24.861  34.042  1.00  0.00     0.134 A 
ATOM     86  F   UNL A   1      48.058  27.271  31.782  1.00  0.00    -0.206 F 
ATOM     87  C   UNL A   1      49.062  25.744  33.254  1.00  0.00     0.040 A 
ATOM     88  C   UNL A   1      47.695  24.304  34.616  1.00  0.00     0.040 A 
ATOM     89  F   UNL A   1      45.357  24.400  34.448  1.00  0.00    -0.206 F 
ATOM     90  C   UNL A   1      48.956  24.740  34.214  1.00  0.00     0.006 A 
ENDBRANCH  66  83
ENDBRANCH  40  41
ENDBRANCH  32  35
ENDBRANCH  30  31
ENDBRANCH   1  30
TORSDOF 14
ENDMDL
