MODEL 1
REMARK VINA RESULT:     -12.1      0.000      0.000
REMARK SMILES Cc1cc(Nc2ccc(C(=O)NCCCNC(=O)c3ccc(-c4c5nc(c(-c6c(F)cccc6F)c6ccc([nH]6)c(-c6c(F)cccc6F)c6nc(c(-c7c(F)cccc7F)c7ccc4[nH]7)C=C6)C=C5)cc3)cc2)nc(C(C)C)n1
REMARK SMILES IDX 13 1 12 2 10 3 11 4 9 6 6 7 7 8 74 9 8 10 73 11 5 12 4 14
REMARK SMILES IDX 1 15 2 16 3 17 80 18 76 19 75 20 77 21 78 22 79 23 14 24
REMARK SMILES IDX 15 25 16 26 17 27 18 29 19 30 20 31 72 32 21 33 71 34 22 35
REMARK SMILES IDX 23 36 24 37 65 38 25 39 70 40 64 41 66 42 26 43 69 44 63 45
REMARK SMILES IDX 62 46 27 48 53 49 36 50 52 51 37 52 40 53 51 54 67 55 38 56
REMARK SMILES IDX 39 57 50 59 68 60 41 61 28 62 29 63 34 64 30 65 31 66 33 67
REMARK SMILES IDX 35 68 32 69 54 70 55 71 60 72 56 73 57 74 59 75 61 76 58 77
REMARK SMILES IDX 42 78 43 79 48 80 44 81 45 82 47 83 49 84 46 85
REMARK H PARENT 12 5 5 13 16 28 66 47 40 58
REMARK Flexibility Score: inf
ROOT
ATOM      1  C   UNL A   1      33.084  28.038  25.116  1.00  0.00     0.118 C 
ENDROOT
BRANCH   1   2
ATOM      2  N   UNL A   1      31.770  28.224  24.528  1.00  0.00    -0.352 N 
ATOM      3  C   UNL A   1      30.736  27.353  24.295  1.00  0.00     0.251 C 
ATOM      4  O   UNL A   1      29.687  27.818  23.847  1.00  0.00    -0.269 OA
ATOM      5  H   UNL A   1      31.587  29.149  24.244  1.00  0.00     0.163 HD
BRANCH   3   6
ATOM      6  C   UNL A   1      30.809  25.899  24.603  1.00  0.00     0.039 A 
ATOM      7  C   UNL A   1      30.993  23.185  25.369  1.00  0.00     0.040 A 
ATOM      8  C   UNL A   1      30.887  24.190  26.336  1.00  0.00     0.027 A 
ATOM      9  C   UNL A   1      30.981  23.552  24.020  1.00  0.00     0.027 A 
ATOM     10  C   UNL A   1      30.802  25.533  25.956  1.00  0.00     0.016 A 
ATOM     11  C   UNL A   1      30.848  24.891  23.639  1.00  0.00     0.016 A 
BRANCH   7  12
ATOM     12  N   UNL A   1      31.207  21.853  25.757  1.00  0.00    -0.340 N 
ATOM     13  H   UNL A   1      30.524  21.439  26.332  1.00  0.00     0.168 HD
BRANCH  12  14
ATOM     14  C   UNL A   1      32.312  21.053  25.397  1.00  0.00     0.134 A 
ATOM     15  C   UNL A   1      36.058  21.214  25.385  1.00  0.00     0.067 C 
ATOM     16  C   UNL A   1      34.643  20.756  25.215  1.00  0.00     0.043 A 
ATOM     17  C   UNL A   1      33.583  21.549  25.609  1.00  0.00     0.070 A 
ATOM     18  N   UNL A   1      34.462  19.554  24.635  1.00  0.00    -0.238 NA
ATOM     19  C   UNL A   1      33.193  19.139  24.474  1.00  0.00     0.133 A 
ATOM     20  N   UNL A   1      32.111  19.840  24.855  1.00  0.00    -0.216 NA
BRANCH  19  21
ATOM     21  C   UNL A   1      32.951  17.820  23.775  1.00  0.00     0.051 C 
ATOM     22  C   UNL A   1      32.445  18.049  22.350  1.00  0.00     0.016 C 
ATOM     23  C   UNL A   1      34.208  16.952  23.780  1.00  0.00     0.016 C 
ENDBRANCH  19  21
ENDBRANCH  12  14
ENDBRANCH   7  12
ENDBRANCH   3   6
ENDBRANCH   1   2
BRANCH   1  24
ATOM     24  C   UNL A   1      33.095  28.442  26.591  1.00  0.00     0.042 C 
BRANCH  24  25
ATOM     25  C   UNL A   1      34.495  28.689  27.150  1.00  0.00     0.118 C 
BRANCH  25  26
ATOM     26  N   UNL A   1      34.527  29.821  28.062  1.00  0.00    -0.352 N 
ATOM     27  C   UNL A   1      35.552  30.322  28.822  1.00  0.00     0.251 C 
ATOM     28  H   UNL A   1      33.675  30.307  28.145  1.00  0.00     0.163 HD
ATOM     29  O   UNL A   1      35.300  31.178  29.667  1.00  0.00    -0.269 OA
BRANCH  27  30
ATOM     30  C   UNL A   1      36.947  29.852  28.656  1.00  0.00     0.039 A 
ATOM     31  C   UNL A   1      37.604  29.338  29.781  1.00  0.00     0.014 A 
ATOM     32  C   UNL A   1      37.641  29.982  27.450  1.00  0.00     0.014 A 
ATOM     33  C   UNL A   1      38.937  28.932  29.689  1.00  0.00     0.010 A 
ATOM     34  C   UNL A   1      38.956  29.520  27.343  1.00  0.00     0.010 A 
ATOM     35  C   UNL A   1      39.621  29.005  28.465  1.00  0.00    -0.014 A 
BRANCH  35  36
ATOM     36  C   UNL A   1      41.032  28.553  28.368  1.00  0.00     0.031 A 
ATOM     37  C   UNL A   1      41.360  27.122  28.042  1.00  0.00     0.074 A 
ATOM     38  C   UNL A   1      42.026  29.436  28.587  1.00  0.00     0.049 A 
ATOM     39  N   UNL A   1      42.532  26.558  27.884  1.00  0.00    -0.248 NA
ATOM     40  C   UNL A   1      40.226  26.198  27.892  1.00  0.00     0.031 C 
ATOM     41  C   UNL A   1      41.841  30.838  28.964  1.00  0.00     0.029 A 
ATOM     42  N   UNL A   1      43.388  29.285  28.522  1.00  0.00    -0.354 N 
ATOM     43  C   UNL A   1      42.276  25.216  27.629  1.00  0.00     0.074 A 
ATOM     44  C   UNL A   1      40.842  25.040  27.698  1.00  0.00     0.031 C 
ATOM     45  C   UNL A   1      43.043  31.427  29.065  1.00  0.00     0.029 A 
ATOM     46  C   UNL A   1      44.081  30.440  28.780  1.00  0.00     0.049 A 
ATOM     47  H   UNL A   1      43.825  28.428  28.311  1.00  0.00     0.167 HD
ATOM     48  C   UNL A   1      43.155  24.225  27.342  1.00  0.00     0.037 A 
ATOM     49  C   UNL A   1      45.406  30.683  28.775  1.00  0.00     0.037 A 
ATOM     50  C   UNL A   1      44.581  24.404  27.247  1.00  0.00     0.049 A 
ATOM     51  C   UNL A   1      46.356  29.576  28.419  1.00  0.00     0.074 A 
ATOM     52  C   UNL A   1      45.548  23.473  26.908  1.00  0.00     0.029 A 
ATOM     53  N   UNL A   1      45.243  25.597  27.492  1.00  0.00    -0.354 N 
ATOM     54  N   UNL A   1      46.095  28.329  28.111  1.00  0.00    -0.248 NA
ATOM     55  C   UNL A   1      47.786  29.916  28.394  1.00  0.00     0.031 C 
ATOM     56  C   UNL A   1      46.800  24.096  26.976  1.00  0.00     0.029 A 
ATOM     57  C   UNL A   1      46.607  25.424  27.322  1.00  0.00     0.049 A 
ATOM     58  H   UNL A   1      44.808  26.443  27.747  1.00  0.00     0.167 HD
ATOM     59  C   UNL A   1      47.322  27.741  27.835  1.00  0.00     0.074 A 
ATOM     60  C   UNL A   1      48.326  28.773  27.994  1.00  0.00     0.031 C 
ATOM     61  C   UNL A   1      47.593  26.461  27.483  1.00  0.00     0.037 A 
BRANCH  48  62
ATOM     62  C   UNL A   1      42.593  22.854  27.101  1.00  0.00     0.057 A 
ATOM     63  C   UNL A   1      42.492  22.317  25.811  1.00  0.00     0.134 A 
ATOM     64  C   UNL A   1      42.177  22.052  28.170  1.00  0.00     0.134 A 
ATOM     65  F   UNL A   1      42.863  23.039  24.744  1.00  0.00    -0.206 F 
ATOM     66  C   UNL A   1      41.975  21.039  25.591  1.00  0.00     0.040 A 
ATOM     67  C   UNL A   1      41.680  20.763  27.965  1.00  0.00     0.040 A 
ATOM     68  F   UNL A   1      42.252  22.504  29.432  1.00  0.00    -0.206 F 
ATOM     69  C   UNL A   1      41.572  20.256  26.671  1.00  0.00     0.006 A 
ENDBRANCH  48  62
BRANCH  49  70
ATOM     70  C   UNL A   1      45.907  32.046  29.074  1.00  0.00     0.057 A 
ATOM     71  C   UNL A   1      46.236  32.420  30.382  1.00  0.00     0.134 A 
ATOM     72  C   UNL A   1      46.071  33.002  28.067  1.00  0.00     0.134 A 
ATOM     73  F   UNL A   1      46.083  31.550  31.391  1.00  0.00    -0.206 F 
ATOM     74  C   UNL A   1      46.696  33.704  30.680  1.00  0.00     0.040 A 
ATOM     75  C   UNL A   1      46.550  34.283  28.347  1.00  0.00     0.040 A 
ATOM     76  F   UNL A   1      45.780  32.701  26.792  1.00  0.00    -0.206 F 
ATOM     77  C   UNL A   1      46.858  34.638  29.659  1.00  0.00     0.006 A 
ENDBRANCH  49  70
BRANCH  61  78
ATOM     78  C   UNL A   1      49.029  26.118  27.223  1.00  0.00     0.057 A 
ATOM     79  C   UNL A   1      49.891  25.721  28.254  1.00  0.00     0.134 A 
ATOM     80  C   UNL A   1      49.554  26.172  25.926  1.00  0.00     0.134 A 
ATOM     81  F   UNL A   1      49.452  25.664  29.522  1.00  0.00    -0.206 F 
ATOM     82  C   UNL A   1      51.230  25.417  28.009  1.00  0.00     0.040 A 
ATOM     83  C   UNL A   1      50.886  25.848  25.664  1.00  0.00     0.040 A 
ATOM     84  F   UNL A   1      48.780  26.538  24.893  1.00  0.00    -0.206 F 
ATOM     85  C   UNL A   1      51.730  25.477  26.710  1.00  0.00     0.006 A 
ENDBRANCH  61  78
ENDBRANCH  35  36
ENDBRANCH  27  30
ENDBRANCH  25  26
ENDBRANCH  24  25
ENDBRANCH   1  24
TORSDOF 13
ENDMDL
MODEL 2
REMARK VINA RESULT:     -12.0      2.948      8.040
REMARK SMILES Cc1cc(Nc2ccc(C(=O)NCCCNC(=O)c3ccc(-c4c5nc(c(-c6c(F)cccc6F)c6ccc([nH]6)c(-c6c(F)cccc6F)c6nc(c(-c7c(F)cccc7F)c7ccc4[nH]7)C=C6)C=C5)cc3)cc2)nc(C(C)C)n1
REMARK SMILES IDX 13 1 12 2 10 3 11 4 9 6 6 7 7 8 74 9 8 10 73 11 5 12 4 14
REMARK SMILES IDX 1 15 2 16 3 17 80 18 76 19 75 20 77 21 78 22 79 23 14 24
REMARK SMILES IDX 15 25 16 26 17 27 18 29 19 30 20 31 72 32 21 33 71 34 22 35
REMARK SMILES IDX 23 36 24 37 65 38 25 39 70 40 64 41 66 42 26 43 69 44 63 45
REMARK SMILES IDX 62 46 27 48 53 49 36 50 52 51 37 52 40 53 51 54 67 55 38 56
REMARK SMILES IDX 39 57 50 59 68 60 41 61 28 62 29 63 34 64 30 65 31 66 33 67
REMARK SMILES IDX 35 68 32 69 54 70 55 71 60 72 56 73 57 74 59 75 61 76 58 77
REMARK SMILES IDX 42 78 43 79 48 80 44 81 45 82 47 83 49 84 46 85
REMARK H PARENT 12 5 5 13 16 28 66 47 40 58
REMARK Flexibility Score: inf
ROOT
ATOM      1  C   UNL A   1      36.075  20.271  24.946  1.00  0.00     0.118 C 
ENDROOT
BRANCH   1   2
ATOM      2  N   UNL A   1      34.908  19.409  24.967  1.00  0.00    -0.352 N 
ATOM      3  C   UNL A   1      33.598  19.645  25.299  1.00  0.00     0.251 C 
ATOM      4  O   UNL A   1      32.794  18.726  25.141  1.00  0.00    -0.269 OA
ATOM      5  H   UNL A   1      35.091  18.482  24.691  1.00  0.00     0.163 HD
BRANCH   3   6
ATOM      6  C   UNL A   1      33.104  20.962  25.785  1.00  0.00     0.039 A 
ATOM      7  C   UNL A   1      32.045  23.465  26.560  1.00  0.00     0.040 A 
ATOM      8  C   UNL A   1      31.359  22.656  25.649  1.00  0.00     0.027 A 
ATOM      9  C   UNL A   1      33.248  22.997  27.096  1.00  0.00     0.027 A 
ATOM     10  C   UNL A   1      31.887  21.420  25.261  1.00  0.00     0.016 A 
ATOM     11  C   UNL A   1      33.752  21.740  26.745  1.00  0.00     0.016 A 
BRANCH   7  12
ATOM     12  N   UNL A   1      31.576  24.757  26.847  1.00  0.00    -0.340 N 
ATOM     13  H   UNL A   1      30.907  24.841  27.564  1.00  0.00     0.168 HD
BRANCH  12  14
ATOM     14  C   UNL A   1      31.977  25.945  26.202  1.00  0.00     0.134 A 
ATOM     15  C   UNL A   1      31.962  29.649  26.792  1.00  0.00     0.067 C 
ATOM     16  C   UNL A   1      32.152  28.295  26.179  1.00  0.00     0.043 A 
ATOM     17  C   UNL A   1      31.781  27.148  26.852  1.00  0.00     0.070 A 
ATOM     18  N   UNL A   1      32.673  28.262  24.937  1.00  0.00    -0.238 NA
ATOM     19  C   UNL A   1      32.841  27.050  24.379  1.00  0.00     0.133 A 
ATOM     20  N   UNL A   1      32.530  25.889  24.978  1.00  0.00    -0.216 NA
BRANCH  19  21
ATOM     21  C   UNL A   1      33.369  26.978  22.963  1.00  0.00     0.051 C 
ATOM     22  C   UNL A   1      32.281  26.491  22.005  1.00  0.00     0.016 C 
ATOM     23  C   UNL A   1      33.935  28.324  22.515  1.00  0.00     0.016 C 
ENDBRANCH  19  21
ENDBRANCH  12  14
ENDBRANCH   7  12
ENDBRANCH   3   6
ENDBRANCH   1   2
BRANCH   1  24
ATOM     24  C   UNL A   1      37.368  19.456  24.913  1.00  0.00     0.042 C 
BRANCH  24  25
ATOM     25  C   UNL A   1      38.569  20.182  25.521  1.00  0.00     0.118 C 
BRANCH  25  26
ATOM     26  N   UNL A   1      39.718  19.304  25.669  1.00  0.00    -0.352 N 
ATOM     27  C   UNL A   1      41.011  19.586  26.029  1.00  0.00     0.251 C 
ATOM     28  H   UNL A   1      39.539  18.354  25.482  1.00  0.00     0.163 HD
ATOM     29  O   UNL A   1      41.865  18.710  25.906  1.00  0.00    -0.269 OA
BRANCH  27  30
ATOM     30  C   UNL A   1      41.403  20.916  26.551  1.00  0.00     0.039 A 
ATOM     31  C   UNL A   1      41.213  21.167  27.915  1.00  0.00     0.014 A 
ATOM     32  C   UNL A   1      41.871  21.937  25.719  1.00  0.00     0.014 A 
ATOM     33  C   UNL A   1      41.515  22.422  28.445  1.00  0.00     0.010 A 
ATOM     34  C   UNL A   1      42.231  23.174  26.260  1.00  0.00     0.010 A 
ATOM     35  C   UNL A   1      42.042  23.434  27.625  1.00  0.00    -0.014 A 
BRANCH  35  36
ATOM     36  C   UNL A   1      42.381  24.761  28.198  1.00  0.00     0.031 A 
ATOM     37  C   UNL A   1      43.797  25.093  28.583  1.00  0.00     0.074 A 
ATOM     38  C   UNL A   1      41.404  25.670  28.385  1.00  0.00     0.049 A 
ATOM     39  N   UNL A   1      44.282  26.210  29.065  1.00  0.00    -0.248 NA
ATOM     40  C   UNL A   1      44.796  24.026  28.424  1.00  0.00     0.031 C 
ATOM     41  C   UNL A   1      39.985  25.453  28.103  1.00  0.00     0.029 A 
ATOM     42  N   UNL A   1      41.459  26.959  28.852  1.00  0.00    -0.354 N 
ATOM     43  C   UNL A   1      45.635  25.977  29.276  1.00  0.00     0.074 A 
ATOM     44  C   UNL A   1      45.886  24.599  28.914  1.00  0.00     0.031 C 
ATOM     45  C   UNL A   1      39.307  26.580  28.373  1.00  0.00     0.029 A 
ATOM     46  C   UNL A   1      40.240  27.590  28.864  1.00  0.00     0.049 A 
ATOM     47  H   UNL A   1      42.293  27.389  29.151  1.00  0.00     0.167 HD
ATOM     48  C   UNL A   1      46.586  26.838  29.713  1.00  0.00     0.037 A 
ATOM     49  C   UNL A   1      39.912  28.847  29.218  1.00  0.00     0.037 A 
ATOM     50  C   UNL A   1      46.343  28.217  30.049  1.00  0.00     0.049 A 
ATOM     51  C   UNL A   1      40.990  29.793  29.664  1.00  0.00     0.074 A 
ATOM     52  C   UNL A   1      47.251  29.183  30.448  1.00  0.00     0.029 A 
ATOM     53  N   UNL A   1      45.097  28.826  30.024  1.00  0.00    -0.354 N 
ATOM     54  N   UNL A   1      42.277  29.577  29.792  1.00  0.00    -0.248 NA
ATOM     55  C   UNL A   1      40.572  31.161  29.999  1.00  0.00     0.031 C 
ATOM     56  C   UNL A   1      46.551  30.369  30.693  1.00  0.00     0.029 A 
ATOM     57  C   UNL A   1      45.211  30.152  30.411  1.00  0.00     0.049 A 
ATOM     58  H   UNL A   1      44.257  28.383  29.769  1.00  0.00     0.167 HD
ATOM     59  C   UNL A   1      42.825  30.785  30.201  1.00  0.00     0.074 A 
ATOM     60  C   UNL A   1      41.734  31.734  30.282  1.00  0.00     0.031 C 
ATOM     61  C   UNL A   1      44.116  31.083  30.486  1.00  0.00     0.037 A 
BRANCH  48  62
ATOM     62  C   UNL A   1      47.985  26.311  29.843  1.00  0.00     0.057 A 
ATOM     63  C   UNL A   1      48.897  26.372  28.780  1.00  0.00     0.134 A 
ATOM     64  C   UNL A   1      48.437  25.765  31.051  1.00  0.00     0.134 A 
ATOM     65  F   UNL A   1      48.524  26.872  27.594  1.00  0.00    -0.206 F 
ATOM     66  C   UNL A   1      50.200  25.886  28.908  1.00  0.00     0.040 A 
ATOM     67  C   UNL A   1      49.744  25.298  31.198  1.00  0.00     0.040 A 
ATOM     68  F   UNL A   1      47.617  25.682  32.110  1.00  0.00    -0.206 F 
ATOM     69  C   UNL A   1      50.628  25.352  30.121  1.00  0.00     0.006 A 
ENDBRANCH  48  62
BRANCH  49  70
ATOM     70  C   UNL A   1      38.503  29.297  29.120  1.00  0.00     0.057 A 
ATOM     71  C   UNL A   1      37.971  29.735  27.902  1.00  0.00     0.134 A 
ATOM     72  C   UNL A   1      37.656  29.300  30.233  1.00  0.00     0.134 A 
ATOM     73  F   UNL A   1      38.741  29.770  26.804  1.00  0.00    -0.206 F 
ATOM     74  C   UNL A   1      36.651  30.175  27.797  1.00  0.00     0.040 A 
ATOM     75  C   UNL A   1      36.328  29.718  30.140  1.00  0.00     0.040 A 
ATOM     76  F   UNL A   1      38.106  28.885  31.427  1.00  0.00    -0.206 F 
ATOM     77  C   UNL A   1      35.824  30.162  28.918  1.00  0.00     0.006 A 
ENDBRANCH  49  70
BRANCH  61  78
ATOM     78  C   UNL A   1      44.415  32.496  30.885  1.00  0.00     0.057 A 
ATOM     79  C   UNL A   1      44.412  32.899  32.227  1.00  0.00     0.134 A 
ATOM     80  C   UNL A   1      44.723  33.463  29.920  1.00  0.00     0.134 A 
ATOM     81  F   UNL A   1      44.110  32.024  33.199  1.00  0.00    -0.206 F 
ATOM     82  C   UNL A   1      44.677  34.220  32.592  1.00  0.00     0.040 A 
ATOM     83  C   UNL A   1      45.013  34.781  30.273  1.00  0.00     0.040 A 
ATOM     84  F   UNL A   1      44.750  33.140  28.618  1.00  0.00    -0.206 F 
ATOM     85  C   UNL A   1      44.982  35.164  31.614  1.00  0.00     0.006 A 
ENDBRANCH  61  78
ENDBRANCH  35  36
ENDBRANCH  27  30
ENDBRANCH  25  26
ENDBRANCH  24  25
ENDBRANCH   1  24
TORSDOF 13
ENDMDL
MODEL 3
REMARK VINA RESULT:     -12.0      2.862      7.910
REMARK SMILES Cc1cc(Nc2ccc(C(=O)NCCCNC(=O)c3ccc(-c4c5nc(c(-c6c(F)cccc6F)c6ccc([nH]6)c(-c6c(F)cccc6F)c6nc(c(-c7c(F)cccc7F)c7ccc4[nH]7)C=C6)C=C5)cc3)cc2)nc(C(C)C)n1
REMARK SMILES IDX 13 1 12 2 10 3 11 4 9 6 6 7 7 8 74 9 8 10 73 11 5 12 4 14
REMARK SMILES IDX 1 15 2 16 3 17 80 18 76 19 75 20 77 21 78 22 79 23 14 24
REMARK SMILES IDX 15 25 16 26 17 27 18 29 19 30 20 31 72 32 21 33 71 34 22 35
REMARK SMILES IDX 23 36 24 37 65 38 25 39 70 40 64 41 66 42 26 43 69 44 63 45
REMARK SMILES IDX 62 46 27 48 53 49 36 50 52 51 37 52 40 53 51 54 67 55 38 56
REMARK SMILES IDX 39 57 50 59 68 60 41 61 28 62 29 63 34 64 30 65 31 66 33 67
REMARK SMILES IDX 35 68 32 69 54 70 55 71 60 72 56 73 57 74 59 75 61 76 58 77
REMARK SMILES IDX 42 78 43 79 48 80 44 81 45 82 47 83 49 84 46 85
REMARK H PARENT 12 5 5 13 16 28 66 47 40 58
REMARK Flexibility Score: inf
ROOT
ATOM      1  C   UNL A   1      36.275  20.226  25.006  1.00  0.00     0.118 C 
ENDROOT
BRANCH   1   2
ATOM      2  N   UNL A   1      35.175  19.282  24.935  1.00  0.00    -0.352 N 
ATOM      3  C   UNL A   1      33.838  19.408  25.214  1.00  0.00     0.251 C 
ATOM      4  O   UNL A   1      33.111  18.442  24.979  1.00  0.00    -0.269 OA
ATOM      5  H   UNL A   1      35.437  18.384  24.628  1.00  0.00     0.163 HD
BRANCH   3   6
ATOM      6  C   UNL A   1      33.227  20.662  25.733  1.00  0.00     0.039 A 
ATOM      7  C   UNL A   1      31.974  23.059  26.552  1.00  0.00     0.040 A 
ATOM      8  C   UNL A   1      31.478  22.335  25.464  1.00  0.00     0.027 A 
ATOM      9  C   UNL A   1      33.085  22.559  27.238  1.00  0.00     0.027 A 
ATOM     10  C   UNL A   1      32.102  21.152  25.056  1.00  0.00     0.016 A 
ATOM     11  C   UNL A   1      33.680  21.351  26.859  1.00  0.00     0.016 A 
BRANCH   7  12
ATOM     12  N   UNL A   1      31.423  24.309  26.878  1.00  0.00    -0.340 N 
ATOM     13  H   UNL A   1      30.922  24.371  27.722  1.00  0.00     0.168 HD
BRANCH  12  14
ATOM     14  C   UNL A   1      31.522  25.484  26.104  1.00  0.00     0.134 A 
ATOM     15  C   UNL A   1      33.590  28.608  25.926  1.00  0.00     0.067 C 
ATOM     16  C   UNL A   1      32.563  27.551  25.658  1.00  0.00     0.043 A 
ATOM     17  C   UNL A   1      32.514  26.395  26.411  1.00  0.00     0.070 A 
ATOM     18  N   UNL A   1      31.681  27.802  24.671  1.00  0.00    -0.238 NA
ATOM     19  C   UNL A   1      30.753  26.860  24.428  1.00  0.00     0.133 A 
ATOM     20  N   UNL A   1      30.657  25.699  25.099  1.00  0.00    -0.216 NA
BRANCH  19  21
ATOM     21  C   UNL A   1      29.711  27.132  23.366  1.00  0.00     0.051 C 
ATOM     22  C   UNL A   1      28.316  26.764  23.871  1.00  0.00     0.016 C 
ATOM     23  C   UNL A   1      29.763  28.587  22.902  1.00  0.00     0.016 C 
ENDBRANCH  19  21
ENDBRANCH  12  14
ENDBRANCH   7  12
ENDBRANCH   3   6
ENDBRANCH   1   2
BRANCH   1  24
ATOM     24  C   UNL A   1      37.624  19.520  24.859  1.00  0.00     0.042 C 
BRANCH  24  25
ATOM     25  C   UNL A   1      38.747  20.164  25.671  1.00  0.00     0.118 C 
BRANCH  25  26
ATOM     26  N   UNL A   1      39.887  19.275  25.827  1.00  0.00    -0.352 N 
ATOM     27  C   UNL A   1      41.196  19.551  26.127  1.00  0.00     0.251 C 
ATOM     28  H   UNL A   1      39.686  18.320  25.696  1.00  0.00     0.163 HD
ATOM     29  O   UNL A   1      42.030  18.655  26.021  1.00  0.00    -0.269 OA
BRANCH  27  30
ATOM     30  C   UNL A   1      41.627  20.899  26.565  1.00  0.00     0.039 A 
ATOM     31  C   UNL A   1      41.529  21.210  27.927  1.00  0.00     0.014 A 
ATOM     32  C   UNL A   1      42.044  21.881  25.661  1.00  0.00     0.014 A 
ATOM     33  C   UNL A   1      41.872  22.484  28.381  1.00  0.00     0.010 A 
ATOM     34  C   UNL A   1      42.444  23.137  26.124  1.00  0.00     0.010 A 
ATOM     35  C   UNL A   1      42.347  23.456  27.486  1.00  0.00    -0.014 A 
BRANCH  35  36
ATOM     36  C   UNL A   1      42.730  24.804  27.978  1.00  0.00     0.031 A 
ATOM     37  C   UNL A   1      41.683  25.851  28.240  1.00  0.00     0.074 A 
ATOM     38  C   UNL A   1      44.031  25.091  28.176  1.00  0.00     0.049 A 
ATOM     39  N   UNL A   1      41.830  27.069  28.701  1.00  0.00    -0.248 NA
ATOM     40  C   UNL A   1      40.291  25.494  27.926  1.00  0.00     0.031 C 
ATOM     41  C   UNL A   1      45.146  24.181  27.909  1.00  0.00     0.029 A 
ATOM     42  N   UNL A   1      44.634  26.227  28.654  1.00  0.00    -0.354 N 
ATOM     43  C   UNL A   1      40.556  27.623  28.722  1.00  0.00     0.074 A 
ATOM     44  C   UNL A   1      39.654  26.628  28.184  1.00  0.00     0.031 C 
ATOM     45  C   UNL A   1      46.295  24.783  28.255  1.00  0.00     0.029 A 
ATOM     46  C   UNL A   1      45.999  26.124  28.750  1.00  0.00     0.049 A 
ATOM     47  H   UNL A   1      44.135  27.038  28.903  1.00  0.00     0.167 HD
ATOM     48  C   UNL A   1      40.170  28.843  29.168  1.00  0.00     0.037 A 
ATOM     49  C   UNL A   1      46.911  27.007  29.199  1.00  0.00     0.037 A 
ATOM     50  C   UNL A   1      41.061  29.825  29.728  1.00  0.00     0.049 A 
ATOM     51  C   UNL A   1      46.453  28.339  29.722  1.00  0.00     0.074 A 
ATOM     52  C   UNL A   1      40.757  31.068  30.257  1.00  0.00     0.029 A 
ATOM     53  N   UNL A   1      42.436  29.674  29.831  1.00  0.00    -0.354 N 
ATOM     54  N   UNL A   1      45.236  28.822  29.799  1.00  0.00    -0.248 NA
ATOM     55  C   UNL A   1      47.493  29.241  30.233  1.00  0.00     0.031 C 
ATOM     56  C   UNL A   1      41.950  31.681  30.654  1.00  0.00     0.029 A 
ATOM     57  C   UNL A   1      42.994  30.804  30.405  1.00  0.00     0.049 A 
ATOM     58  H   UNL A   1      42.940  28.880  29.540  1.00  0.00     0.167 HD
ATOM     59  C   UNL A   1      45.362  30.073  30.387  1.00  0.00     0.074 A 
ATOM     60  C   UNL A   1      46.771  30.267  30.663  1.00  0.00     0.031 C 
ATOM     61  C   UNL A   1      44.398  30.981  30.672  1.00  0.00     0.037 A 
BRANCH  48  62
ATOM     62  C   UNL A   1      38.709  29.180  29.075  1.00  0.00     0.057 A 
ATOM     63  C   UNL A   1      37.865  29.109  30.192  1.00  0.00     0.134 A 
ATOM     64  C   UNL A   1      38.147  29.608  27.867  1.00  0.00     0.134 A 
ATOM     65  F   UNL A   1      38.339  28.696  31.376  1.00  0.00    -0.206 F 
ATOM     66  C   UNL A   1      36.509  29.429  30.103  1.00  0.00     0.040 A 
ATOM     67  C   UNL A   1      36.798  29.953  27.770  1.00  0.00     0.040 A 
ATOM     68  F   UNL A   1      38.902  29.703  26.760  1.00  0.00    -0.206 F 
ATOM     69  C   UNL A   1      35.974  29.858  28.890  1.00  0.00     0.006 A 
ENDBRANCH  48  62
BRANCH  49  70
ATOM     70  C   UNL A   1      48.347  26.640  29.218  1.00  0.00     0.057 A 
ATOM     71  C   UNL A   1      49.189  26.974  28.150  1.00  0.00     0.134 A 
ATOM     72  C   UNL A   1      48.912  25.951  30.296  1.00  0.00     0.134 A 
ATOM     73  F   UNL A   1      48.699  27.620  27.082  1.00  0.00    -0.206 F 
ATOM     74  C   UNL A   1      50.539  26.623  28.148  1.00  0.00     0.040 A 
ATOM     75  C   UNL A   1      50.266  25.610  30.316  1.00  0.00     0.040 A 
ATOM     76  F   UNL A   1      48.158  25.608  31.351  1.00  0.00    -0.206 F 
ATOM     77  C   UNL A   1      51.082  25.942  29.236  1.00  0.00     0.006 A 
ENDBRANCH  49  70
BRANCH  61  78
ATOM     78  C   UNL A   1      44.836  32.252  31.337  1.00  0.00     0.057 A 
ATOM     79  C   UNL A   1      44.911  32.367  32.731  1.00  0.00     0.134 A 
ATOM     80  C   UNL A   1      45.199  33.369  30.574  1.00  0.00     0.134 A 
ATOM     81  F   UNL A   1      44.562  31.336  33.517  1.00  0.00    -0.206 F 
ATOM     82  C   UNL A   1      45.306  33.557  33.344  1.00  0.00     0.040 A 
ATOM     83  C   UNL A   1      45.618  34.557  31.174  1.00  0.00     0.040 A 
ATOM     84  F   UNL A   1      45.157  33.322  29.234  1.00  0.00    -0.206 F 
ATOM     85  C   UNL A   1      45.664  34.655  32.565  1.00  0.00     0.006 A 
ENDBRANCH  61  78
ENDBRANCH  35  36
ENDBRANCH  27  30
ENDBRANCH  25  26
ENDBRANCH  24  25
ENDBRANCH   1  24
TORSDOF 13
ENDMDL
