MODEL 1
REMARK VINA RESULT:     -12.2      0.000      0.000
REMARK SMILES O=C(NCCCNC(=O)c1ccc(-c2c3nc(c(-c4c(F)cccc4F)c4ccc([nH]4)c(-c4c(F)cccc4F)c4nc(c(-c5c(F)cccc5F)c5ccc2[nH]5)C=C4)C=C3)cc1)C1=Cc2cc(Cl)cc(Cl)c2O[C@@H]1C(F)(F)F
REMARK SMILES IDX 5 1 4 2 3 3 1 4 2 5 64 7 65 8 75 9 66 10 74 11 67 12 73 13
REMARK SMILES IDX 68 14 71 15 69 16 70 17 72 18 76 19 77 20 78 21 79 22 6 23
REMARK SMILES IDX 7 24 8 25 9 27 10 28 11 29 63 30 12 31 62 32 13 33 14 34
REMARK SMILES IDX 15 35 56 36 16 37 61 38 55 39 57 40 17 41 60 42 54 43 53 44
REMARK SMILES IDX 18 46 44 47 27 48 43 49 28 50 31 51 42 52 58 53 29 54 30 55
REMARK SMILES IDX 41 57 59 58 32 59 19 60 20 61 25 62 21 63 22 64 24 65 26 66
REMARK SMILES IDX 23 67 45 68 46 69 51 70 47 71 48 72 50 73 52 74 49 75 33 76
REMARK SMILES IDX 34 77 39 78 35 79 36 80 38 81 40 82 37 83
REMARK H PARENT 3 6 7 26 57 45 31 56
REMARK Flexibility Score: inf
ROOT
ATOM      1  C   UNL A   1      32.058  28.259  27.077  1.00  0.00     0.042 C 
ENDROOT
BRANCH   1   2
ATOM      2  C   UNL A   1      31.976  27.014  26.198  1.00  0.00     0.118 C 
BRANCH   2   3
ATOM      3  N   UNL A   1      31.546  25.822  26.935  1.00  0.00    -0.352 N 
ATOM      4  O   UNL A   1      31.604  23.654  27.601  1.00  0.00    -0.270 OA
ATOM      5  C   UNL A   1      31.899  24.504  26.775  1.00  0.00     0.251 C 
ATOM      6  H   UNL A   1      30.903  25.994  27.661  1.00  0.00     0.163 HD
BRANCH   5   7
ATOM      7  C   UNL A   1      32.686  24.173  25.577  1.00  0.00     0.067 C 
ATOM      8  C   UNL A   1      33.968  24.559  25.590  1.00  0.00     0.025 C 
ATOM      9  C   UNL A   1      32.149  23.114  24.670  1.00  0.00     0.314 C 
ATOM     10  C   UNL A   1      34.900  23.519  25.146  1.00  0.00     0.020 A 
ATOM     11  O   UNL A   1      33.081  22.017  24.496  1.00  0.00    -0.474 OA
ATOM     12  C   UNL A   1      36.241  23.670  25.515  1.00  0.00     0.032 A 
ATOM     13  C   UNL A   1      34.407  22.253  24.773  1.00  0.00     0.146 A 
ATOM     14  C   UNL A   1      37.052  22.544  25.628  1.00  0.00     0.043 A 
ATOM     15  C   UNL A   1      35.250  21.136  24.869  1.00  0.00     0.085 A 
ATOM     16  Cl  UNL A   1      38.634  22.712  26.286  1.00  0.00    -0.084 Cl
ATOM     17  C   UNL A   1      36.560  21.277  25.326  1.00  0.00     0.045 A 
ATOM     18  Cl  UNL A   1      34.645  19.539  24.602  1.00  0.00    -0.080 Cl
BRANCH   9  19
ATOM     19  C   UNL A   1      31.723  23.689  23.310  1.00  0.00     0.429 C 
ATOM     20  F   UNL A   1      30.403  23.481  23.086  1.00  0.00    -0.167 F 
ATOM     21  F   UNL A   1      31.924  25.026  23.242  1.00  0.00    -0.167 F 
ATOM     22  F   UNL A   1      32.400  23.127  22.282  1.00  0.00    -0.167 F 
ENDBRANCH   9  19
ENDBRANCH   5   7
ENDBRANCH   2   3
ENDBRANCH   1   2
BRANCH   1  23
ATOM     23  C   UNL A   1      33.478  28.801  27.194  1.00  0.00     0.118 C 
BRANCH  23  24
ATOM     24  N   UNL A   1      33.566  30.150  27.742  1.00  0.00    -0.352 N 
ATOM     25  C   UNL A   1      34.633  30.802  28.321  1.00  0.00     0.251 C 
ATOM     26  H   UNL A   1      32.735  30.676  27.689  1.00  0.00     0.163 HD
ATOM     27  O   UNL A   1      34.477  31.933  28.778  1.00  0.00    -0.269 OA
BRANCH  25  28
ATOM     28  C   UNL A   1      35.952  30.137  28.446  1.00  0.00     0.039 A 
ATOM     29  C   UNL A   1      36.855  30.209  27.381  1.00  0.00     0.014 A 
ATOM     30  C   UNL A   1      36.319  29.475  29.616  1.00  0.00     0.014 A 
ATOM     31  C   UNL A   1      38.155  29.715  27.534  1.00  0.00     0.010 A 
ATOM     32  C   UNL A   1      37.642  29.097  29.811  1.00  0.00     0.010 A 
ATOM     33  C   UNL A   1      38.579  29.211  28.773  1.00  0.00    -0.014 A 
BRANCH  33  34
ATOM     34  C   UNL A   1      39.985  28.790  29.020  1.00  0.00     0.031 A 
ATOM     35  C   UNL A   1      40.962  29.758  29.635  1.00  0.00     0.074 A 
ATOM     36  C   UNL A   1      40.414  27.584  28.594  1.00  0.00     0.049 A 
ATOM     37  N   UNL A   1      42.258  29.649  29.783  1.00  0.00    -0.248 NA
ATOM     38  C   UNL A   1      40.415  31.045  30.097  1.00  0.00     0.031 C 
ATOM     39  C   UNL A   1      39.593  26.579  27.915  1.00  0.00     0.029 A 
ATOM     40  N   UNL A   1      41.658  27.006  28.653  1.00  0.00    -0.354 N 
ATOM     41  C   UNL A   1      42.682  30.866  30.304  1.00  0.00     0.074 A 
ATOM     42  C   UNL A   1      41.516  31.718  30.392  1.00  0.00     0.031 C 
ATOM     43  C   UNL A   1      40.345  25.498  27.651  1.00  0.00     0.029 A 
ATOM     44  C   UNL A   1      41.709  25.747  28.102  1.00  0.00     0.049 A 
ATOM     45  H   UNL A   1      42.440  27.451  29.053  1.00  0.00     0.167 HD
ATOM     46  C   UNL A   1      43.922  31.233  30.703  1.00  0.00     0.037 A 
ATOM     47  C   UNL A   1      42.742  24.894  27.971  1.00  0.00     0.037 A 
ATOM     48  C   UNL A   1      45.064  30.359  30.684  1.00  0.00     0.049 A 
ATOM     49  C   UNL A   1      44.096  25.295  28.483  1.00  0.00     0.074 A 
ATOM     50  C   UNL A   1      46.342  30.599  31.155  1.00  0.00     0.029 A 
ATOM     51  N   UNL A   1      45.057  29.067  30.182  1.00  0.00    -0.354 N 
ATOM     52  N   UNL A   1      44.467  26.426  29.034  1.00  0.00    -0.248 NA
ATOM     53  C   UNL A   1      45.173  24.303  28.363  1.00  0.00     0.031 C 
ATOM     54  C   UNL A   1      47.117  29.460  30.911  1.00  0.00     0.029 A 
ATOM     55  C   UNL A   1      46.311  28.499  30.324  1.00  0.00     0.049 A 
ATOM     56  H   UNL A   1      44.276  28.619  29.784  1.00  0.00     0.167 HD
ATOM     57  C   UNL A   1      45.811  26.273  29.347  1.00  0.00     0.074 A 
ATOM     58  C   UNL A   1      46.186  24.935  28.939  1.00  0.00     0.031 C 
ATOM     59  C   UNL A   1      46.659  27.161  29.920  1.00  0.00     0.037 A 
BRANCH  46  60
ATOM     60  C   UNL A   1      44.100  32.636  31.209  1.00  0.00     0.057 A 
ATOM     61  C   UNL A   1      44.433  33.695  30.353  1.00  0.00     0.134 A 
ATOM     62  C   UNL A   1      43.923  32.934  32.566  1.00  0.00     0.134 A 
ATOM     63  F   UNL A   1      44.630  33.476  29.045  1.00  0.00    -0.206 F 
ATOM     64  C   UNL A   1      44.620  34.992  30.835  1.00  0.00     0.040 A 
ATOM     65  C   UNL A   1      44.078  34.234  33.054  1.00  0.00     0.040 A 
ATOM     66  F   UNL A   1      43.598  31.971  33.440  1.00  0.00    -0.206 F 
ATOM     67  C   UNL A   1      44.437  35.265  32.189  1.00  0.00     0.006 A 
ENDBRANCH  46  60
BRANCH  47  68
ATOM     68  C   UNL A   1      42.527  23.555  27.363  1.00  0.00     0.057 A 
ATOM     69  C   UNL A   1      42.162  22.459  28.153  1.00  0.00     0.134 A 
ATOM     70  C   UNL A   1      42.677  23.339  25.988  1.00  0.00     0.134 A 
ATOM     71  F   UNL A   1      42.021  22.601  29.479  1.00  0.00    -0.206 F 
ATOM     72  C   UNL A   1      41.971  21.191  27.602  1.00  0.00     0.040 A 
ATOM     73  C   UNL A   1      42.466  22.081  25.420  1.00  0.00     0.040 A 
ATOM     74  F   UNL A   1      43.015  24.350  25.176  1.00  0.00    -0.206 F 
ATOM     75  C   UNL A   1      42.119  21.000  26.230  1.00  0.00     0.006 A 
ENDBRANCH  47  68
BRANCH  59  76
ATOM     76  C   UNL A   1      48.065  26.702  30.170  1.00  0.00     0.057 A 
ATOM     77  C   UNL A   1      48.424  26.035  31.347  1.00  0.00     0.134 A 
ATOM     78  C   UNL A   1      49.057  26.889  29.199  1.00  0.00     0.134 A 
ATOM     79  F   UNL A   1      47.520  25.837  32.319  1.00  0.00    -0.206 F 
ATOM     80  C   UNL A   1      49.729  25.587  31.559  1.00  0.00     0.040 A 
ATOM     81  C   UNL A   1      50.358  26.425  29.390  1.00  0.00     0.040 A 
ATOM     82  F   UNL A   1      48.773  27.514  28.047  1.00  0.00    -0.206 F 
ATOM     83  C   UNL A   1      50.698  25.775  30.575  1.00  0.00     0.006 A 
ENDBRANCH  59  76
ENDBRANCH  33  34
ENDBRANCH  25  28
ENDBRANCH  23  24
ENDBRANCH   1  23
TORSDOF 11
ENDMDL
MODEL 2
REMARK VINA RESULT:     -12.1      2.742      7.310
REMARK SMILES O=C(NCCCNC(=O)c1ccc(-c2c3nc(c(-c4c(F)cccc4F)c4ccc([nH]4)c(-c4c(F)cccc4F)c4nc(c(-c5c(F)cccc5F)c5ccc2[nH]5)C=C4)C=C3)cc1)C1=Cc2cc(Cl)cc(Cl)c2O[C@@H]1C(F)(F)F
REMARK SMILES IDX 5 1 4 2 3 3 1 4 2 5 64 7 65 8 75 9 66 10 74 11 67 12 73 13
REMARK SMILES IDX 68 14 71 15 69 16 70 17 72 18 76 19 77 20 78 21 79 22 6 23
REMARK SMILES IDX 7 24 8 25 9 27 10 28 11 29 63 30 12 31 62 32 13 33 14 34
REMARK SMILES IDX 15 35 56 36 16 37 61 38 55 39 57 40 17 41 60 42 54 43 53 44
REMARK SMILES IDX 18 46 44 47 27 48 43 49 28 50 31 51 42 52 58 53 29 54 30 55
REMARK SMILES IDX 41 57 59 58 32 59 19 60 20 61 25 62 21 63 22 64 24 65 26 66
REMARK SMILES IDX 23 67 45 68 46 69 51 70 47 71 48 72 50 73 52 74 49 75 33 76
REMARK SMILES IDX 34 77 39 78 35 79 36 80 38 81 40 82 37 83
REMARK H PARENT 3 6 7 26 57 45 31 56
REMARK Flexibility Score: inf
ROOT
ATOM      1  C   UNL A   1      37.408  21.105  24.616  1.00  0.00     0.042 C 
ENDROOT
BRANCH   1   2
ATOM      2  C   UNL A   1      37.066  22.568  24.349  1.00  0.00     0.118 C 
BRANCH   2   3
ATOM      3  N   UNL A   1      35.982  22.733  23.377  1.00  0.00    -0.352 N 
ATOM      4  O   UNL A   1      34.081  23.618  22.509  1.00  0.00    -0.270 OA
ATOM      5  C   UNL A   1      34.790  23.408  23.482  1.00  0.00     0.251 C 
ATOM      6  H   UNL A   1      36.132  22.289  22.510  1.00  0.00     0.163 HD
BRANCH   5   7
ATOM      7  C   UNL A   1      34.429  23.904  24.819  1.00  0.00     0.067 C 
ATOM      8  C   UNL A   1      34.764  25.172  25.087  1.00  0.00     0.025 C 
ATOM      9  C   UNL A   1      33.392  23.142  25.580  1.00  0.00     0.314 C 
ATOM     10  C   UNL A   1      33.687  25.944  25.714  1.00  0.00     0.020 A 
ATOM     11  O   UNL A   1      32.260  23.970  25.943  1.00  0.00    -0.474 OA
ATOM     12  C   UNL A   1      33.784  27.338  25.646  1.00  0.00     0.032 A 
ATOM     13  C   UNL A   1      32.442  25.334  25.961  1.00  0.00     0.146 A 
ATOM     14  C   UNL A   1      32.627  28.110  25.702  1.00  0.00     0.043 A 
ATOM     15  C   UNL A   1      31.293  26.132  26.042  1.00  0.00     0.085 A 
ATOM     16  Cl  UNL A   1      32.732  29.802  25.404  1.00  0.00    -0.084 Cl
ATOM     17  C   UNL A   1      31.381  27.515  25.881  1.00  0.00     0.045 A 
ATOM     18  Cl  UNL A   1      29.721  25.423  26.159  1.00  0.00    -0.080 Cl
BRANCH   9  19
ATOM     19  C   UNL A   1      33.985  22.454  26.820  1.00  0.00     0.429 C 
ATOM     20  F   UNL A   1      34.259  21.151  26.568  1.00  0.00    -0.167 F 
ATOM     21  F   UNL A   1      35.147  23.029  27.209  1.00  0.00    -0.167 F 
ATOM     22  F   UNL A   1      33.142  22.491  27.878  1.00  0.00    -0.167 F 
ENDBRANCH   9  19
ENDBRANCH   5   7
ENDBRANCH   2   3
ENDBRANCH   1   2
BRANCH   1  23
ATOM     23  C   UNL A   1      38.344  20.930  25.807  1.00  0.00     0.118 C 
BRANCH  23  24
ATOM     24  N   UNL A   1      39.323  19.860  25.653  1.00  0.00    -0.352 N 
ATOM     25  C   UNL A   1      40.666  19.836  25.965  1.00  0.00     0.251 C 
ATOM     26  H   UNL A   1      38.971  19.026  25.266  1.00  0.00     0.163 HD
ATOM     27  O   UNL A   1      41.334  18.840  25.696  1.00  0.00    -0.269 OA
BRANCH  25  28
ATOM     28  C   UNL A   1      41.324  21.017  26.574  1.00  0.00     0.039 A 
ATOM     29  C   UNL A   1      41.888  21.988  25.740  1.00  0.00     0.014 A 
ATOM     30  C   UNL A   1      41.355  21.194  27.955  1.00  0.00     0.014 A 
ATOM     31  C   UNL A   1      42.382  23.177  26.288  1.00  0.00     0.010 A 
ATOM     32  C   UNL A   1      41.730  22.423  28.487  1.00  0.00     0.010 A 
ATOM     33  C   UNL A   1      42.250  23.431  27.661  1.00  0.00    -0.014 A 
BRANCH  33  34
ATOM     34  C   UNL A   1      42.646  24.730  28.270  1.00  0.00     0.031 A 
ATOM     35  C   UNL A   1      41.607  25.795  28.510  1.00  0.00     0.074 A 
ATOM     36  C   UNL A   1      43.946  24.997  28.504  1.00  0.00     0.049 A 
ATOM     37  N   UNL A   1      41.764  27.042  28.874  1.00  0.00    -0.248 NA
ATOM     38  C   UNL A   1      40.205  25.421  28.252  1.00  0.00     0.031 C 
ATOM     39  C   UNL A   1      45.063  24.086  28.248  1.00  0.00     0.029 A 
ATOM     40  N   UNL A   1      44.552  26.128  28.997  1.00  0.00    -0.354 N 
ATOM     41  C   UNL A   1      40.495  27.608  28.838  1.00  0.00     0.074 A 
ATOM     42  C   UNL A   1      39.589  26.587  28.363  1.00  0.00     0.031 C 
ATOM     43  C   UNL A   1      46.212  24.678  28.615  1.00  0.00     0.029 A 
ATOM     44  C   UNL A   1      45.919  26.025  29.092  1.00  0.00     0.049 A 
ATOM     45  H   UNL A   1      44.053  26.936  29.258  1.00  0.00     0.167 HD
ATOM     46  C   UNL A   1      40.112  28.856  29.199  1.00  0.00     0.037 A 
ATOM     47  C   UNL A   1      46.835  26.919  29.512  1.00  0.00     0.037 A 
ATOM     48  C   UNL A   1      41.003  29.845  29.743  1.00  0.00     0.049 A 
ATOM     49  C   UNL A   1      46.379  28.274  29.972  1.00  0.00     0.074 A 
ATOM     50  C   UNL A   1      40.700  31.104  30.229  1.00  0.00     0.029 A 
ATOM     51  N   UNL A   1      42.371  29.675  29.888  1.00  0.00    -0.354 N 
ATOM     52  N   UNL A   1      45.166  28.773  29.995  1.00  0.00    -0.248 NA
ATOM     53  C   UNL A   1      47.415  29.189  30.471  1.00  0.00     0.031 C 
ATOM     54  C   UNL A   1      41.892  31.708  30.643  1.00  0.00     0.029 A 
ATOM     55  C   UNL A   1      42.930  30.811  30.449  1.00  0.00     0.049 A 
ATOM     56  H   UNL A   1      42.871  28.868  29.630  1.00  0.00     0.167 HD
ATOM     57  C   UNL A   1      45.290  30.047  30.532  1.00  0.00     0.074 A 
ATOM     58  C   UNL A   1      46.692  30.240  30.834  1.00  0.00     0.031 C 
ATOM     59  C   UNL A   1      44.328  30.977  30.752  1.00  0.00     0.037 A 
BRANCH  46  60
ATOM     60  C   UNL A   1      38.662  29.210  29.031  1.00  0.00     0.057 A 
ATOM     61  C   UNL A   1      37.758  29.156  30.102  1.00  0.00     0.134 A 
ATOM     62  C   UNL A   1      38.165  29.622  27.788  1.00  0.00     0.134 A 
ATOM     63  F   UNL A   1      38.166  28.756  31.316  1.00  0.00    -0.206 F 
ATOM     64  C   UNL A   1      36.407  29.463  29.933  1.00  0.00     0.040 A 
ATOM     65  C   UNL A   1      36.821  29.961  27.615  1.00  0.00     0.040 A 
ATOM     66  F   UNL A   1      38.974  29.702  26.722  1.00  0.00    -0.206 F 
ATOM     67  C   UNL A   1      35.937  29.873  28.688  1.00  0.00     0.006 A 
ENDBRANCH  46  60
BRANCH  47  68
ATOM     68  C   UNL A   1      48.272  26.546  29.555  1.00  0.00     0.057 A 
ATOM     69  C   UNL A   1      49.128  26.867  28.495  1.00  0.00     0.134 A 
ATOM     70  C   UNL A   1      48.825  25.869  30.648  1.00  0.00     0.134 A 
ATOM     71  F   UNL A   1      48.653  27.500  27.413  1.00  0.00    -0.206 F 
ATOM     72  C   UNL A   1      50.478  26.513  28.511  1.00  0.00     0.040 A 
ATOM     73  C   UNL A   1      50.178  25.529  30.688  1.00  0.00     0.040 A 
ATOM     74  F   UNL A   1      48.060  25.542  31.700  1.00  0.00    -0.206 F 
ATOM     75  C   UNL A   1      51.008  25.845  29.613  1.00  0.00     0.006 A 
ENDBRANCH  47  68
BRANCH  59  76
ATOM     76  C   UNL A   1      44.756  32.269  31.381  1.00  0.00     0.057 A 
ATOM     77  C   UNL A   1      45.138  33.372  30.610  1.00  0.00     0.134 A 
ATOM     78  C   UNL A   1      44.740  32.422  32.773  1.00  0.00     0.134 A 
ATOM     79  F   UNL A   1      45.185  33.284  29.271  1.00  0.00    -0.206 F 
ATOM     80  C   UNL A   1      45.509  34.580  31.202  1.00  0.00     0.040 A 
ATOM     81  C   UNL A   1      45.085  33.631  33.376  1.00  0.00     0.040 A 
ATOM     82  F   UNL A   1      44.375  31.403  33.567  1.00  0.00    -0.206 F 
ATOM     83  C   UNL A   1      45.476  34.713  32.590  1.00  0.00     0.006 A 
ENDBRANCH  59  76
ENDBRANCH  33  34
ENDBRANCH  25  28
ENDBRANCH  23  24
ENDBRANCH   1  23
TORSDOF 11
ENDMDL
MODEL 3
REMARK VINA RESULT:     -12.0      2.743      7.173
REMARK SMILES O=C(NCCCNC(=O)c1ccc(-c2c3nc(c(-c4c(F)cccc4F)c4ccc([nH]4)c(-c4c(F)cccc4F)c4nc(c(-c5c(F)cccc5F)c5ccc2[nH]5)C=C4)C=C3)cc1)C1=Cc2cc(Cl)cc(Cl)c2O[C@@H]1C(F)(F)F
REMARK SMILES IDX 5 1 4 2 3 3 1 4 2 5 64 7 65 8 75 9 66 10 74 11 67 12 73 13
REMARK SMILES IDX 68 14 71 15 69 16 70 17 72 18 76 19 77 20 78 21 79 22 6 23
REMARK SMILES IDX 7 24 8 25 9 27 10 28 11 29 63 30 12 31 62 32 13 33 14 34
REMARK SMILES IDX 15 35 56 36 16 37 61 38 55 39 57 40 17 41 60 42 54 43 53 44
REMARK SMILES IDX 18 46 44 47 27 48 43 49 28 50 31 51 42 52 58 53 29 54 30 55
REMARK SMILES IDX 41 57 59 58 32 59 19 60 20 61 25 62 21 63 22 64 24 65 26 66
REMARK SMILES IDX 23 67 45 68 46 69 51 70 47 71 48 72 50 73 52 74 49 75 33 76
REMARK SMILES IDX 34 77 39 78 35 79 36 80 38 81 40 82 37 83
REMARK H PARENT 3 6 7 26 57 45 31 56
REMARK Flexibility Score: inf
ROOT
ATOM      1  C   UNL A   1      37.404  21.082  24.622  1.00  0.00     0.042 C 
ENDROOT
BRANCH   1   2
ATOM      2  C   UNL A   1      37.062  22.539  24.321  1.00  0.00     0.118 C 
BRANCH   2   3
ATOM      3  N   UNL A   1      35.967  22.680  23.357  1.00  0.00    -0.352 N 
ATOM      4  O   UNL A   1      34.040  23.525  22.505  1.00  0.00    -0.270 OA
ATOM      5  C   UNL A   1      34.762  23.330  23.472  1.00  0.00     0.251 C 
ATOM      6  H   UNL A   1      36.119  22.240  22.490  1.00  0.00     0.163 HD
BRANCH   5   7
ATOM      7  C   UNL A   1      34.401  23.818  24.813  1.00  0.00     0.067 C 
ATOM      8  C   UNL A   1      34.748  25.080  25.092  1.00  0.00     0.025 C 
ATOM      9  C   UNL A   1      33.353  23.061  25.563  1.00  0.00     0.314 C 
ATOM     10  C   UNL A   1      33.677  25.858  25.722  1.00  0.00     0.020 A 
ATOM     11  O   UNL A   1      32.228  23.897  25.929  1.00  0.00    -0.474 OA
ATOM     12  C   UNL A   1      33.789  27.251  25.667  1.00  0.00     0.032 A 
ATOM     13  C   UNL A   1      32.425  25.258  25.960  1.00  0.00     0.146 A 
ATOM     14  C   UNL A   1      32.639  28.035  25.726  1.00  0.00     0.043 A 
ATOM     15  C   UNL A   1      31.284  26.068  26.043  1.00  0.00     0.085 A 
ATOM     16  Cl  UNL A   1      32.763  29.728  25.443  1.00  0.00    -0.084 Cl
ATOM     17  C   UNL A   1      31.387  27.452  25.895  1.00  0.00     0.045 A 
ATOM     18  Cl  UNL A   1      29.704  25.374  26.148  1.00  0.00    -0.080 Cl
BRANCH   9  19
ATOM     19  C   UNL A   1      33.935  22.355  26.799  1.00  0.00     0.429 C 
ATOM     20  F   UNL A   1      34.828  23.150  27.437  1.00  0.00    -0.167 F 
ATOM     21  F   UNL A   1      32.975  22.043  27.701  1.00  0.00    -0.167 F 
ATOM     22  F   UNL A   1      34.576  21.207  26.478  1.00  0.00    -0.167 F 
ENDBRANCH   9  19
ENDBRANCH   5   7
ENDBRANCH   2   3
ENDBRANCH   1   2
BRANCH   1  23
ATOM     23  C   UNL A   1      38.344  20.936  25.813  1.00  0.00     0.118 C 
BRANCH  23  24
ATOM     24  N   UNL A   1      39.315  19.854  25.686  1.00  0.00    -0.352 N 
ATOM     25  C   UNL A   1      40.656  19.826  26.005  1.00  0.00     0.251 C 
ATOM     26  H   UNL A   1      38.958  19.015  25.315  1.00  0.00     0.163 HD
ATOM     27  O   UNL A   1      41.317  18.818  25.760  1.00  0.00    -0.269 OA
BRANCH  25  28
ATOM     28  C   UNL A   1      41.321  21.014  26.593  1.00  0.00     0.039 A 
ATOM     29  C   UNL A   1      41.822  22.004  25.743  1.00  0.00     0.014 A 
ATOM     30  C   UNL A   1      41.421  21.176  27.973  1.00  0.00     0.014 A 
ATOM     31  C   UNL A   1      42.320  23.197  26.278  1.00  0.00     0.010 A 
ATOM     32  C   UNL A   1      41.798  22.406  28.499  1.00  0.00     0.010 A 
ATOM     33  C   UNL A   1      42.254  23.434  27.659  1.00  0.00    -0.014 A 
BRANCH  33  34
ATOM     34  C   UNL A   1      42.655  24.734  28.262  1.00  0.00     0.031 A 
ATOM     35  C   UNL A   1      41.619  25.801  28.505  1.00  0.00     0.074 A 
ATOM     36  C   UNL A   1      43.957  25.001  28.488  1.00  0.00     0.049 A 
ATOM     37  N   UNL A   1      41.780  27.049  28.864  1.00  0.00    -0.248 NA
ATOM     38  C   UNL A   1      40.215  25.428  28.256  1.00  0.00     0.031 C 
ATOM     39  C   UNL A   1      45.072  24.087  28.227  1.00  0.00     0.029 A 
ATOM     40  N   UNL A   1      44.567  26.132  28.973  1.00  0.00    -0.354 N 
ATOM     41  C   UNL A   1      40.511  27.617  28.834  1.00  0.00     0.074 A 
ATOM     42  C   UNL A   1      39.601  26.595  28.368  1.00  0.00     0.031 C 
ATOM     43  C   UNL A   1      46.223  24.679  28.586  1.00  0.00     0.029 A 
ATOM     44  C   UNL A   1      45.935  26.027  29.061  1.00  0.00     0.049 A 
ATOM     45  H   UNL A   1      44.071  26.941  29.235  1.00  0.00     0.167 HD
ATOM     46  C   UNL A   1      40.131  28.866  29.193  1.00  0.00     0.037 A 
ATOM     47  C   UNL A   1      46.854  26.921  29.473  1.00  0.00     0.037 A 
ATOM     48  C   UNL A   1      41.027  29.855  29.730  1.00  0.00     0.049 A 
ATOM     49  C   UNL A   1      46.402  28.279  29.932  1.00  0.00     0.074 A 
ATOM     50  C   UNL A   1      40.729  31.116  30.214  1.00  0.00     0.029 A 
ATOM     51  N   UNL A   1      42.396  29.684  29.867  1.00  0.00    -0.354 N 
ATOM     52  N   UNL A   1      45.191  28.779  29.960  1.00  0.00    -0.248 NA
ATOM     53  C   UNL A   1      47.442  29.194  30.422  1.00  0.00     0.031 C 
ATOM     54  C   UNL A   1      41.924  31.720  30.619  1.00  0.00     0.029 A 
ATOM     55  C   UNL A   1      42.959  30.821  30.422  1.00  0.00     0.049 A 
ATOM     56  H   UNL A   1      42.894  28.876  29.608  1.00  0.00     0.167 HD
ATOM     57  C   UNL A   1      45.319  30.055  30.492  1.00  0.00     0.074 A 
ATOM     58  C   UNL A   1      46.723  30.247  30.786  1.00  0.00     0.031 C 
ATOM     59  C   UNL A   1      44.359  30.986  30.716  1.00  0.00     0.037 A 
BRANCH  46  60
ATOM     60  C   UNL A   1      38.681  29.221  29.034  1.00  0.00     0.057 A 
ATOM     61  C   UNL A   1      38.150  29.630  27.802  1.00  0.00     0.134 A 
ATOM     62  C   UNL A   1      37.801  29.141  30.121  1.00  0.00     0.134 A 
ATOM     63  F   UNL A   1      38.941  29.741  26.725  1.00  0.00    -0.206 F 
ATOM     64  C   UNL A   1      36.806  29.981  27.667  1.00  0.00     0.040 A 
ATOM     65  C   UNL A   1      36.448  29.462  29.989  1.00  0.00     0.040 A 
ATOM     66  F   UNL A   1      38.239  28.751  31.326  1.00  0.00    -0.206 F 
ATOM     67  C   UNL A   1      35.950  29.892  28.762  1.00  0.00     0.006 A 
ENDBRANCH  46  60
BRANCH  47  68
ATOM     68  C   UNL A   1      48.291  26.547  29.509  1.00  0.00     0.057 A 
ATOM     69  C   UNL A   1      49.138  26.852  28.436  1.00  0.00     0.134 A 
ATOM     70  C   UNL A   1      48.852  25.884  30.606  1.00  0.00     0.134 A 
ATOM     71  F   UNL A   1      48.654  27.471  27.350  1.00  0.00    -0.206 F 
ATOM     72  C   UNL A   1      50.488  26.496  28.446  1.00  0.00     0.040 A 
ATOM     73  C   UNL A   1      50.205  25.542  30.638  1.00  0.00     0.040 A 
ATOM     74  F   UNL A   1      48.096  25.573  31.669  1.00  0.00    -0.206 F 
ATOM     75  C   UNL A   1      51.026  25.842  29.552  1.00  0.00     0.006 A 
ENDBRANCH  47  68
BRANCH  59  76
ATOM     76  C   UNL A   1      44.792  32.279  31.338  1.00  0.00     0.057 A 
ATOM     77  C   UNL A   1      44.849  32.447  32.726  1.00  0.00     0.134 A 
ATOM     78  C   UNL A   1      45.201  33.352  30.536  1.00  0.00     0.134 A 
ATOM     79  F   UNL A   1      44.459  31.459  33.547  1.00  0.00    -0.206 F 
ATOM     80  C   UNL A   1      45.279  33.646  33.297  1.00  0.00     0.040 A 
ATOM     81  C   UNL A   1      45.656  34.547  31.094  1.00  0.00     0.040 A 
ATOM     82  F   UNL A   1      45.177  33.251  29.198  1.00  0.00    -0.206 F 
ATOM     83  C   UNL A   1      45.691  34.697  32.480  1.00  0.00     0.006 A 
ENDBRANCH  59  76
ENDBRANCH  33  34
ENDBRANCH  25  28
ENDBRANCH  23  24
ENDBRANCH   1  23
TORSDOF 11
ENDMDL
