MODEL 1
REMARK VINA RESULT:     -12.4      0.000      0.000
REMARK SMILES CCn1c(CC2CC[NH+](Cc3cn[nH]c3C(=O)NCCCNC(=O)c3ccc(-c4c5nc(c(-c6c(F)cccc6F)c6ccc([nH]6)c(-c6c(F)cccc6F)c6nc(c(-c7c(F)cccc7F)c7ccc4[nH]7)C=C6)C=C5)cc3)CC2)nn(C)c1=O
REMARK SMILES IDX 16 1 17 2 18 3 15 5 11 6 12 7 13 8 14 9 10 11 9 12 6 13 7 14
REMARK SMILES IDX 80 15 8 16 79 17 5 19 4 20 3 21 84 22 81 23 82 24 85 25
REMARK SMILES IDX 83 26 2 27 1 28 19 29 20 30 21 31 22 32 23 33 24 35 25 36
REMARK SMILES IDX 26 37 78 38 27 39 77 40 28 41 29 42 30 43 71 44 31 45 76 46
REMARK SMILES IDX 70 47 72 48 32 49 75 50 69 51 68 52 33 54 59 55 42 56 58 57
REMARK SMILES IDX 43 58 46 59 57 60 73 61 44 62 45 63 56 65 74 66 47 67 34 68
REMARK SMILES IDX 35 69 40 70 36 71 37 72 39 73 41 74 38 75 60 76 61 77 66 78
REMARK SMILES IDX 62 79 63 80 65 81 67 82 64 83 48 84 49 85 54 86 50 87 51 88
REMARK SMILES IDX 53 89 55 90 52 91
REMARK H PARENT 18 4 14 10 9 18 22 34 72 53 46 64
REMARK Flexibility Score: inf
ROOT
ATOM      1  C   UNL A   1      33.158  29.052  23.385  1.00  0.00     0.269 C 
ATOM      2  O   UNL A   1      34.203  28.864  22.760  1.00  0.00    -0.268 OA
ATOM      3  N   UNL A   1      33.261  29.685  24.597  1.00  0.00    -0.351 N 
ATOM      4  H   UNL A   1      34.170  29.966  24.849  1.00  0.00     0.163 HD
ENDROOT
BRANCH   1   5
ATOM      5  C   UNL A   1      31.869  28.796  22.797  1.00  0.00     0.131 A 
ATOM      6  C   UNL A   1      30.929  27.764  22.735  1.00  0.00     0.057 A 
ATOM      7  C   UNL A   1      29.771  28.426  22.253  1.00  0.00     0.145 A 
ATOM      8  N   UNL A   1      29.992  29.677  21.871  1.00  0.00    -0.183 NA
ATOM      9  N   UNL A   1      31.310  29.811  22.048  1.00  0.00    -0.272 N 
ATOM     10  H   UNL A   1      31.831  30.559  21.680  1.00  0.00     0.190 HD
BRANCH   6  11
ATOM     11  C   UNL A   1      30.863  26.343  23.188  1.00  0.00     0.303 C 
BRANCH  11  12
ATOM     12  N   UNL A   1      31.411  25.984  24.509  1.00  0.00    -0.331 N 
ATOM     13  C   UNL A   1      32.576  24.059  26.443  1.00  0.00     0.008 C 
ATOM     14  C   UNL A   1      31.078  24.354  26.433  1.00  0.00     0.065 C 
ATOM     15  C   UNL A   1      33.304  25.332  26.016  1.00  0.00     0.065 C 
ATOM     16  C   UNL A   1      30.578  24.944  25.120  1.00  0.00     0.262 C 
ATOM     17  C   UNL A   1      32.855  25.840  24.643  1.00  0.00     0.262 C 
ATOM     18  H   UNL A   1      31.335  26.824  25.084  1.00  0.00     0.348 HD
BRANCH  13  19
ATOM     19  C   UNL A   1      33.017  22.763  25.725  1.00  0.00     0.081 C 
BRANCH  19  20
ATOM     20  C   UNL A   1      34.410  22.639  25.144  1.00  0.00     0.133 A 
ATOM     21  N   UNL A   1      34.698  22.840  23.841  1.00  0.00    -0.279 N 
ATOM     22  C   UNL A   1      36.063  22.687  23.724  1.00  0.00     0.345 A 
ATOM     23  N   UNL A   1      35.450  22.380  25.889  1.00  0.00    -0.155 NA
ATOM     24  N   UNL A   1      36.505  22.388  25.010  1.00  0.00    -0.216 N 
ATOM     25  O   UNL A   1      36.726  22.825  22.708  1.00  0.00    -0.246 OA
ATOM     26  C   UNL A   1      37.863  22.137  25.408  1.00  0.00     0.179 C 
BRANCH  21  27
ATOM     27  C   UNL A   1      33.856  23.170  22.705  1.00  0.00     0.125 C 
ATOM     28  C   UNL A   1      32.643  22.254  22.619  1.00  0.00     0.028 C 
ENDBRANCH  21  27
ENDBRANCH  19  20
ENDBRANCH  13  19
ENDBRANCH  11  12
ENDBRANCH   6  11
ENDBRANCH   1   5
BRANCH   3  29
ATOM     29  C   UNL A   1      32.225  29.998  25.563  1.00  0.00     0.118 C 
BRANCH  29  30
ATOM     30  C   UNL A   1      32.767  29.835  26.985  1.00  0.00     0.042 C 
BRANCH  30  31
ATOM     31  C   UNL A   1      34.127  30.424  27.194  1.00  0.00     0.118 C 
BRANCH  31  32
ATOM     32  N   UNL A   1      34.083  31.439  28.249  1.00  0.00    -0.352 N 
ATOM     33  C   UNL A   1      34.973  31.619  29.293  1.00  0.00     0.251 C 
ATOM     34  H   UNL A   1      33.329  32.071  28.210  1.00  0.00     0.163 HD
ATOM     35  O   UNL A   1      34.660  32.198  30.311  1.00  0.00    -0.269 OA
BRANCH  33  36
ATOM     36  C   UNL A   1      36.321  31.069  29.099  1.00  0.00     0.039 A 
ATOM     37  C   UNL A   1      37.452  31.878  29.014  1.00  0.00     0.014 A 
ATOM     38  C   UNL A   1      36.419  29.688  29.178  1.00  0.00     0.014 A 
ATOM     39  C   UNL A   1      38.693  31.258  29.080  1.00  0.00     0.010 A 
ATOM     40  C   UNL A   1      37.594  29.160  29.605  1.00  0.00     0.010 A 
ATOM     41  C   UNL A   1      38.746  29.891  29.401  1.00  0.00    -0.014 A 
BRANCH  41  42
ATOM     42  C   UNL A   1      39.991  29.177  29.596  1.00  0.00     0.031 A 
ATOM     43  C   UNL A   1      40.420  29.098  31.006  1.00  0.00     0.074 A 
ATOM     44  C   UNL A   1      40.595  28.482  28.606  1.00  0.00     0.049 A 
ATOM     45  N   UNL A   1      41.344  29.800  31.569  1.00  0.00    -0.248 NA
ATOM     46  C   UNL A   1      39.612  28.306  31.946  1.00  0.00     0.031 C 
ATOM     47  C   UNL A   1      40.129  28.187  27.244  1.00  0.00     0.029 A 
ATOM     48  N   UNL A   1      41.763  27.796  28.667  1.00  0.00    -0.354 N 
ATOM     49  C   UNL A   1      41.407  29.349  32.880  1.00  0.00     0.074 A 
ATOM     50  C   UNL A   1      40.187  28.620  33.110  1.00  0.00     0.031 C 
ATOM     51  C   UNL A   1      40.875  27.197  26.710  1.00  0.00     0.029 A 
ATOM     52  C   UNL A   1      41.979  26.924  27.605  1.00  0.00     0.049 A 
ATOM     53  H   UNL A   1      42.407  27.906  29.404  1.00  0.00     0.167 HD
ATOM     54  C   UNL A   1      42.588  29.374  33.557  1.00  0.00     0.037 A 
ATOM     55  C   UNL A   1      42.988  26.022  27.522  1.00  0.00     0.037 A 
ATOM     56  C   UNL A   1      43.549  30.224  32.887  1.00  0.00     0.049 A 
ATOM     57  C   UNL A   1      44.048  26.486  28.462  1.00  0.00     0.074 A 
ATOM     58  C   UNL A   1      43.537  31.543  32.468  1.00  0.00     0.029 A 
ATOM     59  N   UNL A   1      44.548  29.619  32.159  1.00  0.00    -0.354 N 
ATOM     60  N   UNL A   1      44.737  27.582  28.283  1.00  0.00    -0.248 NA
ATOM     61  C   UNL A   1      43.969  26.017  29.840  1.00  0.00     0.031 C 
ATOM     62  C   UNL A   1      44.132  31.518  31.171  1.00  0.00     0.029 A 
ATOM     63  C   UNL A   1      44.564  30.215  30.921  1.00  0.00     0.049 A 
ATOM     64  H   UNL A   1      45.139  28.894  32.466  1.00  0.00     0.167 HD
ATOM     65  C   UNL A   1      44.811  28.167  29.541  1.00  0.00     0.074 A 
ATOM     66  C   UNL A   1      44.371  27.125  30.470  1.00  0.00     0.031 C 
ATOM     67  C   UNL A   1      44.912  29.522  29.701  1.00  0.00     0.037 A 
BRANCH  54  68
ATOM     68  C   UNL A   1      42.999  28.337  34.570  1.00  0.00     0.057 A 
ATOM     69  C   UNL A   1      43.416  28.761  35.844  1.00  0.00     0.134 A 
ATOM     70  C   UNL A   1      43.275  26.986  34.270  1.00  0.00     0.134 A 
ATOM     71  F   UNL A   1      43.222  30.027  36.244  1.00  0.00    -0.206 F 
ATOM     72  C   UNL A   1      44.125  27.929  36.716  1.00  0.00     0.040 A 
ATOM     73  C   UNL A   1      43.934  26.132  35.155  1.00  0.00     0.040 A 
ATOM     74  F   UNL A   1      43.021  26.443  33.075  1.00  0.00    -0.206 F 
ATOM     75  C   UNL A   1      44.394  26.611  36.370  1.00  0.00     0.006 A 
ENDBRANCH  54  68
BRANCH  55  76
ATOM     76  C   UNL A   1      42.939  24.650  26.964  1.00  0.00     0.057 A 
ATOM     77  C   UNL A   1      42.169  23.651  27.578  1.00  0.00     0.134 A 
ATOM     78  C   UNL A   1      43.418  24.347  25.675  1.00  0.00     0.134 A 
ATOM     79  F   UNL A   1      41.637  23.853  28.792  1.00  0.00    -0.206 F 
ATOM     80  C   UNL A   1      41.864  22.442  26.936  1.00  0.00     0.040 A 
ATOM     81  C   UNL A   1      43.127  23.142  25.026  1.00  0.00     0.040 A 
ATOM     82  F   UNL A   1      44.111  25.245  24.961  1.00  0.00    -0.206 F 
ATOM     83  C   UNL A   1      42.332  22.190  25.651  1.00  0.00     0.006 A 
ENDBRANCH  55  76
BRANCH  67  84
ATOM     84  C   UNL A   1      45.163  30.380  28.487  1.00  0.00     0.057 A 
ATOM     85  C   UNL A   1      44.154  30.926  27.677  1.00  0.00     0.134 A 
ATOM     86  C   UNL A   1      46.468  30.821  28.239  1.00  0.00     0.134 A 
ATOM     87  F   UNL A   1      42.863  30.652  27.894  1.00  0.00    -0.206 F 
ATOM     88  C   UNL A   1      44.437  31.834  26.649  1.00  0.00     0.040 A 
ATOM     89  C   UNL A   1      46.760  31.754  27.240  1.00  0.00     0.040 A 
ATOM     90  F   UNL A   1      47.483  30.391  29.005  1.00  0.00    -0.206 F 
ATOM     91  C   UNL A   1      45.744  32.258  26.434  1.00  0.00     0.006 A 
ENDBRANCH  67  84
ENDBRANCH  41  42
ENDBRANCH  33  36
ENDBRANCH  31  32
ENDBRANCH  30  31
ENDBRANCH  29  30
ENDBRANCH   3  29
TORSDOF 15
ENDMDL
MODEL 2
REMARK VINA RESULT:     -12.2      2.379      7.845
REMARK SMILES CCn1c(CC2CC[NH+](Cc3cn[nH]c3C(=O)NCCCNC(=O)c3ccc(-c4c5nc(c(-c6c(F)cccc6F)c6ccc([nH]6)c(-c6c(F)cccc6F)c6nc(c(-c7c(F)cccc7F)c7ccc4[nH]7)C=C6)C=C5)cc3)CC2)nn(C)c1=O
REMARK SMILES IDX 16 1 17 2 18 3 15 5 11 6 12 7 13 8 14 9 10 11 9 12 6 13 7 14
REMARK SMILES IDX 80 15 8 16 79 17 5 19 4 20 3 21 84 22 81 23 82 24 85 25
REMARK SMILES IDX 83 26 2 27 1 28 19 29 20 30 21 31 22 32 23 33 24 35 25 36
REMARK SMILES IDX 26 37 78 38 27 39 77 40 28 41 29 42 30 43 71 44 31 45 76 46
REMARK SMILES IDX 70 47 72 48 32 49 75 50 69 51 68 52 33 54 59 55 42 56 58 57
REMARK SMILES IDX 43 58 46 59 57 60 73 61 44 62 45 63 56 65 74 66 47 67 34 68
REMARK SMILES IDX 35 69 40 70 36 71 37 72 39 73 41 74 38 75 60 76 61 77 66 78
REMARK SMILES IDX 62 79 63 80 65 81 67 82 64 83 48 84 49 85 54 86 50 87 51 88
REMARK SMILES IDX 53 89 55 90 52 91
REMARK H PARENT 18 4 14 10 9 18 22 34 72 53 46 64
REMARK Flexibility Score: inf
ROOT
ATOM      1  C   UNL A   1      36.714  23.123  25.696  1.00  0.00     0.269 C 
ATOM      2  O   UNL A   1      37.154  24.177  26.156  1.00  0.00    -0.268 OA
ATOM      3  N   UNL A   1      37.612  22.281  25.092  1.00  0.00    -0.351 N 
ATOM      4  H   UNL A   1      38.548  22.583  25.109  1.00  0.00     0.163 HD
ENDROOT
BRANCH   1   5
ATOM      5  C   UNL A   1      35.360  22.698  25.942  1.00  0.00     0.131 A 
ATOM      6  C   UNL A   1      34.171  22.511  25.233  1.00  0.00     0.057 A 
ATOM      7  C   UNL A   1      33.390  21.738  26.129  1.00  0.00     0.145 A 
ATOM      8  N   UNL A   1      33.932  21.609  27.333  1.00  0.00    -0.183 NA
ATOM      9  N   UNL A   1      35.039  22.352  27.239  1.00  0.00    -0.272 N 
ATOM     10  H   UNL A   1      35.573  22.626  28.018  1.00  0.00     0.190 HD
BRANCH   6  11
ATOM     11  C   UNL A   1      33.701  22.772  23.840  1.00  0.00     0.303 C 
BRANCH  11  12
ATOM     12  N   UNL A   1      33.797  24.137  23.292  1.00  0.00    -0.331 N 
ATOM     13  C   UNL A   1      32.614  26.712  22.414  1.00  0.00     0.008 C 
ATOM     14  C   UNL A   1      32.912  25.601  21.409  1.00  0.00     0.065 C 
ATOM     15  C   UNL A   1      33.658  26.629  23.525  1.00  0.00     0.065 C 
ATOM     16  C   UNL A   1      33.035  24.220  22.043  1.00  0.00     0.262 C 
ATOM     17  C   UNL A   1      33.683  25.262  24.214  1.00  0.00     0.262 C 
ATOM     18  H   UNL A   1      34.782  24.283  23.069  1.00  0.00     0.348 HD
BRANCH  13  19
ATOM     19  C   UNL A   1      31.145  26.827  22.882  1.00  0.00     0.081 C 
BRANCH  19  20
ATOM     20  C   UNL A   1      30.445  28.169  22.903  1.00  0.00     0.133 A 
ATOM     21  N   UNL A   1      30.523  29.037  23.933  1.00  0.00    -0.279 N 
ATOM     22  C   UNL A   1      29.802  30.148  23.551  1.00  0.00     0.345 A 
ATOM     23  N   UNL A   1      29.754  28.606  21.885  1.00  0.00    -0.155 NA
ATOM     24  N   UNL A   1      29.323  29.849  22.278  1.00  0.00    -0.216 N 
ATOM     25  O   UNL A   1      29.658  31.178  24.191  1.00  0.00    -0.246 OA
ATOM     26  C   UNL A   1      28.508  30.697  21.452  1.00  0.00     0.179 C 
BRANCH  21  27
ATOM     27  C   UNL A   1      31.199  28.958  25.215  1.00  0.00     0.125 C 
ATOM     28  C   UNL A   1      32.511  29.729  25.208  1.00  0.00     0.028 C 
ENDBRANCH  21  27
ENDBRANCH  19  20
ENDBRANCH  13  19
ENDBRANCH  11  12
ENDBRANCH   6  11
ENDBRANCH   1   5
BRANCH   3  29
ATOM     29  C   UNL A   1      37.382  21.011  24.430  1.00  0.00     0.118 C 
BRANCH  29  30
ATOM     30  C   UNL A   1      38.153  19.900  25.146  1.00  0.00     0.042 C 
BRANCH  30  31
ATOM     31  C   UNL A   1      39.349  20.377  25.910  1.00  0.00     0.118 C 
BRANCH  31  32
ATOM     32  N   UNL A   1      40.421  19.380  25.848  1.00  0.00    -0.352 N 
ATOM     33  C   UNL A   1      41.786  19.600  25.866  1.00  0.00     0.251 C 
ATOM     34  H   UNL A   1      40.134  18.440  25.787  1.00  0.00     0.163 HD
ATOM     35  O   UNL A   1      42.573  18.792  25.421  1.00  0.00    -0.269 OA
BRANCH  33  36
ATOM     36  C   UNL A   1      42.232  20.869  26.456  1.00  0.00     0.039 A 
ATOM     37  C   UNL A   1      42.516  21.993  25.682  1.00  0.00     0.014 A 
ATOM     38  C   UNL A   1      42.189  20.932  27.841  1.00  0.00     0.014 A 
ATOM     39  C   UNL A   1      42.688  23.201  26.342  1.00  0.00     0.010 A 
ATOM     40  C   UNL A   1      41.994  22.147  28.413  1.00  0.00     0.010 A 
ATOM     41  C   UNL A   1      42.399  23.266  27.716  1.00  0.00    -0.014 A 
BRANCH  41  42
ATOM     42  C   UNL A   1      42.445  24.500  28.473  1.00  0.00     0.031 A 
ATOM     43  C   UNL A   1      41.281  25.380  28.254  1.00  0.00     0.074 A 
ATOM     44  C   UNL A   1      43.368  24.730  29.434  1.00  0.00     0.049 A 
ATOM     45  N   UNL A   1      41.248  26.443  27.525  1.00  0.00    -0.248 NA
ATOM     46  C   UNL A   1      39.961  24.933  28.725  1.00  0.00     0.031 C 
ATOM     47  C   UNL A   1      44.382  23.829  30.000  1.00  0.00     0.029 A 
ATOM     48  N   UNL A   1      43.519  25.847  30.189  1.00  0.00    -0.354 N 
ATOM     49  C   UNL A   1      39.960  26.944  27.657  1.00  0.00     0.074 A 
ATOM     50  C   UNL A   1      39.168  25.869  28.197  1.00  0.00     0.031 C 
ATOM     51  C   UNL A   1      44.860  24.346  31.152  1.00  0.00     0.029 A 
ATOM     52  C   UNL A   1      44.336  25.686  31.304  1.00  0.00     0.049 A 
ATOM     53  H   UNL A   1      43.085  26.702  29.966  1.00  0.00     0.167 HD
ATOM     54  C   UNL A   1      39.734  28.284  27.579  1.00  0.00     0.037 A 
ATOM     55  C   UNL A   1      44.511  26.603  32.287  1.00  0.00     0.037 A 
ATOM     56  C   UNL A   1      40.873  28.966  27.002  1.00  0.00     0.049 A 
ATOM     57  C   UNL A   1      44.118  27.921  31.711  1.00  0.00     0.074 A 
ATOM     58  C   UNL A   1      41.585  28.820  25.824  1.00  0.00     0.029 A 
ATOM     59  N   UNL A   1      41.708  29.657  27.850  1.00  0.00    -0.354 N 
ATOM     60  N   UNL A   1      44.784  28.515  30.756  1.00  0.00    -0.248 NA
ATOM     61  C   UNL A   1      42.719  28.310  31.831  1.00  0.00     0.031 C 
ATOM     62  C   UNL A   1      42.954  28.941  26.209  1.00  0.00     0.029 A 
ATOM     63  C   UNL A   1      42.992  29.257  27.568  1.00  0.00     0.049 A 
ATOM     64  H   UNL A   1      41.438  30.313  28.531  1.00  0.00     0.167 HD
ATOM     65  C   UNL A   1      43.810  29.012  29.899  1.00  0.00     0.074 A 
ATOM     66  C   UNL A   1      42.557  28.907  30.647  1.00  0.00     0.031 C 
ATOM     67  C   UNL A   1      44.041  29.168  28.559  1.00  0.00     0.037 A 
BRANCH  54  68
ATOM     68  C   UNL A   1      38.683  29.008  28.379  1.00  0.00     0.057 A 
ATOM     69  C   UNL A   1      38.632  28.808  29.770  1.00  0.00     0.134 A 
ATOM     70  C   UNL A   1      37.557  29.655  27.828  1.00  0.00     0.134 A 
ATOM     71  F   UNL A   1      39.636  28.193  30.413  1.00  0.00    -0.206 F 
ATOM     72  C   UNL A   1      37.514  29.151  30.537  1.00  0.00     0.040 A 
ATOM     73  C   UNL A   1      36.459  30.050  28.593  1.00  0.00     0.040 A 
ATOM     74  F   UNL A   1      37.404  29.848  26.513  1.00  0.00    -0.206 F 
ATOM     75  C   UNL A   1      36.418  29.768  29.947  1.00  0.00     0.006 A 
ENDBRANCH  54  68
BRANCH  55  76
ATOM     76  C   UNL A   1      44.656  26.361  33.742  1.00  0.00     0.057 A 
ATOM     77  C   UNL A   1      45.892  26.531  34.380  1.00  0.00     0.134 A 
ATOM     78  C   UNL A   1      43.542  26.226  34.593  1.00  0.00     0.134 A 
ATOM     79  F   UNL A   1      47.011  26.703  33.660  1.00  0.00    -0.206 F 
ATOM     80  C   UNL A   1      46.011  26.598  35.775  1.00  0.00     0.040 A 
ATOM     81  C   UNL A   1      43.647  26.283  35.987  1.00  0.00     0.040 A 
ATOM     82  F   UNL A   1      42.299  26.122  34.102  1.00  0.00    -0.206 F 
ATOM     83  C   UNL A   1      44.884  26.487  36.583  1.00  0.00     0.006 A 
ENDBRANCH  55  76
BRANCH  67  84
ATOM     84  C   UNL A   1      45.446  28.999  28.039  1.00  0.00     0.057 A 
ATOM     85  C   UNL A   1      46.423  30.008  28.044  1.00  0.00     0.134 A 
ATOM     86  C   UNL A   1      45.880  27.714  27.693  1.00  0.00     0.134 A 
ATOM     87  F   UNL A   1      46.139  31.248  28.457  1.00  0.00    -0.206 F 
ATOM     88  C   UNL A   1      47.753  29.757  27.685  1.00  0.00     0.040 A 
ATOM     89  C   UNL A   1      47.212  27.442  27.366  1.00  0.00     0.040 A 
ATOM     90  F   UNL A   1      45.021  26.682  27.719  1.00  0.00    -0.206 F 
ATOM     91  C   UNL A   1      48.153  28.467  27.352  1.00  0.00     0.006 A 
ENDBRANCH  67  84
ENDBRANCH  41  42
ENDBRANCH  33  36
ENDBRANCH  31  32
ENDBRANCH  30  31
ENDBRANCH  29  30
ENDBRANCH   3  29
TORSDOF 15
ENDMDL
MODEL 3
REMARK VINA RESULT:     -12.2      2.306      7.580
REMARK SMILES CCn1c(CC2CC[NH+](Cc3cn[nH]c3C(=O)NCCCNC(=O)c3ccc(-c4c5nc(c(-c6c(F)cccc6F)c6ccc([nH]6)c(-c6c(F)cccc6F)c6nc(c(-c7c(F)cccc7F)c7ccc4[nH]7)C=C6)C=C5)cc3)CC2)nn(C)c1=O
REMARK SMILES IDX 16 1 17 2 18 3 15 5 11 6 12 7 13 8 14 9 10 11 9 12 6 13 7 14
REMARK SMILES IDX 80 15 8 16 79 17 5 19 4 20 3 21 84 22 81 23 82 24 85 25
REMARK SMILES IDX 83 26 2 27 1 28 19 29 20 30 21 31 22 32 23 33 24 35 25 36
REMARK SMILES IDX 26 37 78 38 27 39 77 40 28 41 29 42 30 43 71 44 31 45 76 46
REMARK SMILES IDX 70 47 72 48 32 49 75 50 69 51 68 52 33 54 59 55 42 56 58 57
REMARK SMILES IDX 43 58 46 59 57 60 73 61 44 62 45 63 56 65 74 66 47 67 34 68
REMARK SMILES IDX 35 69 40 70 36 71 37 72 39 73 41 74 38 75 60 76 61 77 66 78
REMARK SMILES IDX 62 79 63 80 65 81 67 82 64 83 48 84 49 85 54 86 50 87 51 88
REMARK SMILES IDX 53 89 55 90 52 91
REMARK H PARENT 18 4 14 10 9 18 22 34 72 53 46 64
REMARK Flexibility Score: inf
ROOT
ATOM      1  C   UNL A   1      36.875  22.850  25.589  1.00  0.00     0.269 C 
ATOM      2  O   UNL A   1      37.403  23.940  25.811  1.00  0.00    -0.268 OA
ATOM      3  N   UNL A   1      37.702  21.816  25.233  1.00  0.00    -0.351 N 
ATOM      4  H   UNL A   1      38.662  22.031  25.219  1.00  0.00     0.163 HD
ENDROOT
BRANCH   1   5
ATOM      5  C   UNL A   1      35.483  22.613  25.871  1.00  0.00     0.131 A 
ATOM      6  C   UNL A   1      34.270  22.535  25.182  1.00  0.00     0.057 A 
ATOM      7  C   UNL A   1      33.412  21.921  26.129  1.00  0.00     0.145 A 
ATOM      8  N   UNL A   1      33.950  21.797  27.335  1.00  0.00    -0.183 NA
ATOM      9  N   UNL A   1      35.140  22.388  27.188  1.00  0.00    -0.272 N 
ATOM     10  H   UNL A   1      35.716  22.639  27.945  1.00  0.00     0.190 HD
BRANCH   6  11
ATOM     11  C   UNL A   1      33.815  22.769  23.779  1.00  0.00     0.303 C 
BRANCH  11  12
ATOM     12  N   UNL A   1      33.923  24.123  23.205  1.00  0.00    -0.331 N 
ATOM     13  C   UNL A   1      32.832  26.807  22.563  1.00  0.00     0.008 C 
ATOM     14  C   UNL A   1      32.802  25.679  21.534  1.00  0.00     0.065 C 
ATOM     15  C   UNL A   1      34.076  26.615  23.428  1.00  0.00     0.065 C 
ATOM     16  C   UNL A   1      32.925  24.289  22.145  1.00  0.00     0.262 C 
ATOM     17  C   UNL A   1      34.115  25.247  24.115  1.00  0.00     0.262 C 
ATOM     18  H   UNL A   1      34.847  24.175  22.776  1.00  0.00     0.348 HD
BRANCH  13  19
ATOM     19  C   UNL A   1      31.515  27.059  23.332  1.00  0.00     0.081 C 
BRANCH  19  20
ATOM     20  C   UNL A   1      31.527  27.762  24.673  1.00  0.00     0.133 A 
ATOM     21  N   UNL A   1      31.375  27.125  25.853  1.00  0.00    -0.279 N 
ATOM     22  C   UNL A   1      31.497  28.093  26.827  1.00  0.00     0.345 A 
ATOM     23  N   UNL A   1      31.744  29.045  24.780  1.00  0.00    -0.155 NA
ATOM     24  N   UNL A   1      31.712  29.280  26.132  1.00  0.00    -0.216 N 
ATOM     25  O   UNL A   1      31.458  27.918  28.035  1.00  0.00    -0.246 OA
ATOM     26  C   UNL A   1      31.900  30.583  26.709  1.00  0.00     0.179 C 
BRANCH  21  27
ATOM     27  C   UNL A   1      31.148  25.728  26.175  1.00  0.00     0.125 C 
ATOM     28  C   UNL A   1      29.668  25.373  26.125  1.00  0.00     0.028 C 
ENDBRANCH  21  27
ENDBRANCH  19  20
ENDBRANCH  13  19
ENDBRANCH  11  12
ENDBRANCH   6  11
ENDBRANCH   1   5
BRANCH   3  29
ATOM     29  C   UNL A   1      37.368  20.451  24.874  1.00  0.00     0.118 C 
BRANCH  29  30
ATOM     30  C   UNL A   1      38.454  19.496  25.372  1.00  0.00     0.042 C 
BRANCH  30  31
ATOM     31  C   UNL A   1      39.673  20.179  25.908  1.00  0.00     0.118 C 
BRANCH  31  32
ATOM     32  N   UNL A   1      40.851  19.325  25.735  1.00  0.00    -0.352 N 
ATOM     33  C   UNL A   1      42.178  19.709  25.674  1.00  0.00     0.251 C 
ATOM     34  H   UNL A   1      40.676  18.359  25.653  1.00  0.00     0.163 HD
ATOM     35  O   UNL A   1      43.023  19.020  25.146  1.00  0.00    -0.269 OA
BRANCH  33  36
ATOM     36  C   UNL A   1      42.508  21.003  26.287  1.00  0.00     0.039 A 
ATOM     37  C   UNL A   1      42.599  22.179  25.543  1.00  0.00     0.014 A 
ATOM     38  C   UNL A   1      42.554  21.014  27.672  1.00  0.00     0.014 A 
ATOM     39  C   UNL A   1      42.669  23.377  26.241  1.00  0.00     0.010 A 
ATOM     40  C   UNL A   1      42.254  22.175  28.307  1.00  0.00     0.010 A 
ATOM     41  C   UNL A   1      42.471  23.359  27.632  1.00  0.00    -0.014 A 
BRANCH  41  42
ATOM     42  C   UNL A   1      42.421  24.563  28.436  1.00  0.00     0.031 A 
ATOM     43  C   UNL A   1      41.176  25.339  28.273  1.00  0.00     0.074 A 
ATOM     44  C   UNL A   1      43.340  24.842  29.388  1.00  0.00     0.049 A 
ATOM     45  N   UNL A   1      41.030  26.421  27.587  1.00  0.00    -0.248 NA
ATOM     46  C   UNL A   1      39.914  24.755  28.750  1.00  0.00     0.031 C 
ATOM     47  C   UNL A   1      44.444  24.018  29.899  1.00  0.00     0.029 A 
ATOM     48  N   UNL A   1      43.405  25.938  30.183  1.00  0.00    -0.354 N 
ATOM     49  C   UNL A   1      39.705  26.796  27.762  1.00  0.00     0.074 A 
ATOM     50  C   UNL A   1      39.027  25.633  28.274  1.00  0.00     0.031 C 
ATOM     51  C   UNL A   1      44.899  24.533  31.061  1.00  0.00     0.029 A 
ATOM     52  C   UNL A   1      44.257  25.812  31.275  1.00  0.00     0.049 A 
ATOM     53  H   UNL A   1      42.890  26.758  30.002  1.00  0.00     0.167 HD
ATOM     54  C   UNL A   1      39.356  28.111  27.740  1.00  0.00     0.037 A 
ATOM     55  C   UNL A   1      44.370  26.705  32.289  1.00  0.00     0.037 A 
ATOM     56  C   UNL A   1      40.414  28.917  27.169  1.00  0.00     0.049 A 
ATOM     57  C   UNL A   1      43.845  28.001  31.773  1.00  0.00     0.074 A 
ATOM     58  C   UNL A   1      41.111  28.881  25.974  1.00  0.00     0.029 A 
ATOM     59  N   UNL A   1      41.202  29.649  28.028  1.00  0.00    -0.354 N 
ATOM     60  N   UNL A   1      44.432  28.689  30.830  1.00  0.00    -0.248 NA
ATOM     61  C   UNL A   1      42.419  28.255  31.935  1.00  0.00     0.031 C 
ATOM     62  C   UNL A   1      42.471  29.113  26.338  1.00  0.00     0.029 A 
ATOM     63  C   UNL A   1      42.510  29.380  27.707  1.00  0.00     0.049 A 
ATOM     64  H   UNL A   1      40.887  30.252  28.739  1.00  0.00     0.167 HD
ATOM     65  C   UNL A   1      43.398  29.126  30.011  1.00  0.00     0.074 A 
ATOM     66  C   UNL A   1      42.177  28.878  30.777  1.00  0.00     0.031 C 
ATOM     67  C   UNL A   1      43.585  29.352  28.674  1.00  0.00     0.037 A 
BRANCH  54  68
ATOM     68  C   UNL A   1      38.260  28.704  28.588  1.00  0.00     0.057 A 
ATOM     69  C   UNL A   1      37.400  29.657  28.014  1.00  0.00     0.134 A 
ATOM     70  C   UNL A   1      38.188  28.605  29.993  1.00  0.00     0.134 A 
ATOM     71  F   UNL A   1      37.383  29.857  26.687  1.00  0.00    -0.206 F 
ATOM     72  C   UNL A   1      36.593  30.500  28.785  1.00  0.00     0.040 A 
ATOM     73  C   UNL A   1      37.346  29.403  30.768  1.00  0.00     0.040 A 
ATOM     74  F   UNL A   1      38.994  27.810  30.705  1.00  0.00    -0.206 F 
ATOM     75  C   UNL A   1      36.570  30.380  30.169  1.00  0.00     0.006 A 
ENDBRANCH  54  68
BRANCH  55  76
ATOM     76  C   UNL A   1      44.568  26.424  33.731  1.00  0.00     0.057 A 
ATOM     77  C   UNL A   1      43.487  26.064  34.549  1.00  0.00     0.134 A 
ATOM     78  C   UNL A   1      45.846  26.232  34.289  1.00  0.00     0.134 A 
ATOM     79  F   UNL A   1      42.228  26.176  34.099  1.00  0.00    -0.206 F 
ATOM     80  C   UNL A   1      43.665  25.514  35.826  1.00  0.00     0.040 A 
ATOM     81  C   UNL A   1      46.039  25.691  35.565  1.00  0.00     0.040 A 
ATOM     82  F   UNL A   1      46.958  26.478  33.582  1.00  0.00    -0.206 F 
ATOM     83  C   UNL A   1      44.946  25.315  36.333  1.00  0.00     0.006 A 
ENDBRANCH  55  76
BRANCH  67  84
ATOM     84  C   UNL A   1      44.987  29.332  28.122  1.00  0.00     0.057 A 
ATOM     85  C   UNL A   1      45.626  28.189  27.614  1.00  0.00     0.134 A 
ATOM     86  C   UNL A   1      45.646  30.552  27.928  1.00  0.00     0.134 A 
ATOM     87  F   UNL A   1      45.038  26.989  27.655  1.00  0.00    -0.206 F 
ATOM     88  C   UNL A   1      46.872  28.254  26.980  1.00  0.00     0.040 A 
ATOM     89  C   UNL A   1      46.874  30.635  27.265  1.00  0.00     0.040 A 
ATOM     90  F   UNL A   1      45.077  31.698  28.333  1.00  0.00    -0.206 F 
ATOM     91  C   UNL A   1      47.497  29.483  26.796  1.00  0.00     0.006 A 
ENDBRANCH  67  84
ENDBRANCH  41  42
ENDBRANCH  33  36
ENDBRANCH  31  32
ENDBRANCH  30  31
ENDBRANCH  29  30
ENDBRANCH   3  29
TORSDOF 15
ENDMDL
