MODEL 1
REMARK VINA RESULT:     -11.8      0.000      0.000
REMARK SMILES Cc1ccc([C@@](C)(O)[C@H](F)C(=O)NCCCNC(=O)c2ccc(-c3c4nc(c(-c5c(F)cccc5F)c5ccc([nH]5)c(-c5c(F)cccc5F)c5nc(c(-c6c(F)cccc6F)c6ccc3[nH]6)C=C5)C=C4)cc2)cc1F
REMARK SMILES IDX 15 1 14 2 13 3 11 4 12 5 9 7 10 8 6 9 7 10 5 11 1 12 2 13
REMARK SMILES IDX 3 14 75 15 4 16 74 17 76 18 8 19 16 21 17 22 18 23 19 25
REMARK SMILES IDX 20 26 21 27 73 28 22 29 72 30 23 31 24 32 25 33 66 34 26 35
REMARK SMILES IDX 71 36 65 37 67 38 27 39 70 40 64 41 63 42 28 44 54 45 37 46
REMARK SMILES IDX 53 47 38 48 41 49 52 50 68 51 39 52 40 53 51 55 69 56 42 57
REMARK SMILES IDX 29 58 30 59 35 60 31 61 32 62 34 63 36 64 33 65 55 66 56 67
REMARK SMILES IDX 61 68 57 69 58 70 60 71 62 72 59 73 43 74 44 75 49 76 45 77
REMARK SMILES IDX 46 78 48 79 50 80 47 81
REMARK H PARENT 13 6 8 20 17 24 67 43 41 54
REMARK Flexibility Score: inf
ROOT
ATOM      1  C   UNL A   1      33.545  29.655  26.070  1.00  0.00     0.042 C 
ENDROOT
BRANCH   1   2
ATOM      2  C   UNL A   1      32.051  29.792  26.250  1.00  0.00     0.117 C 
BRANCH   2   3
ATOM      3  N   UNL A   1      31.327  30.222  25.062  1.00  0.00    -0.353 N 
ATOM      4  C   UNL A   1      30.776  29.383  24.121  1.00  0.00     0.257 C 
ATOM      5  O   UNL A   1      30.023  29.837  23.260  1.00  0.00    -0.272 OA
ATOM      6  H   UNL A   1      31.223  31.191  24.922  1.00  0.00     0.163 HD
BRANCH   4   7
ATOM      7  C   UNL A   1      31.170  27.914  24.178  1.00  0.00     0.291 C 
ATOM      8  F   UNL A   1      30.019  27.175  24.303  1.00  0.00    -0.233 F 
BRANCH   7   9
ATOM      9  C   UNL A   1      32.026  27.442  22.943  1.00  0.00     0.127 C 
ATOM     10  C   UNL A   1      32.991  28.569  22.557  1.00  0.00     0.051 C 
BRANCH   9  11
ATOM     11  C   UNL A   1      32.778  26.117  23.163  1.00  0.00    -0.010 A 
ATOM     12  C   UNL A   1      35.212  22.558  23.671  1.00  0.00     0.047 C 
ATOM     13  C   UNL A   1      34.366  23.778  23.491  1.00  0.00    -0.015 A 
ATOM     14  C   UNL A   1      33.466  23.882  22.432  1.00  0.00     0.007 A 
ATOM     15  C   UNL A   1      34.447  24.834  24.396  1.00  0.00     0.126 A 
ATOM     16  C   UNL A   1      32.673  25.025  22.285  1.00  0.00     0.007 A 
ATOM     17  C   UNL A   1      33.667  25.980  24.248  1.00  0.00     0.046 A 
ATOM     18  F   UNL A   1      35.304  24.766  25.425  1.00  0.00    -0.207 F 
ENDBRANCH   9  11
BRANCH   9  19
ATOM     19  O   UNL A   1      31.218  27.290  21.752  1.00  0.00    -0.382 OA
ATOM     20  H   UNL A   1      30.445  27.875  21.810  1.00  0.00     0.212 HD
ENDBRANCH   9  19
ENDBRANCH   7   9
ENDBRANCH   4   7
ENDBRANCH   2   3
ENDBRANCH   1   2
BRANCH   1  21
ATOM     21  C   UNL A   1      34.213  29.596  27.410  1.00  0.00     0.118 C 
BRANCH  21  22
ATOM     22  N   UNL A   1      34.143  30.876  28.137  1.00  0.00    -0.352 N 
ATOM     23  C   UNL A   1      34.995  31.328  29.122  1.00  0.00     0.251 C 
ATOM     24  H   UNL A   1      33.404  31.477  27.889  1.00  0.00     0.163 HD
ATOM     25  O   UNL A   1      34.770  32.321  29.785  1.00  0.00    -0.269 OA
BRANCH  23  26
ATOM     26  C   UNL A   1      36.242  30.583  29.282  1.00  0.00     0.039 A 
ATOM     27  C   UNL A   1      36.411  29.570  30.228  1.00  0.00     0.014 A 
ATOM     28  C   UNL A   1      37.248  30.938  28.393  1.00  0.00     0.014 A 
ATOM     29  C   UNL A   1      37.637  28.920  30.271  1.00  0.00     0.010 A 
ATOM     30  C   UNL A   1      38.294  30.104  28.230  1.00  0.00     0.010 A 
ATOM     31  C   UNL A   1      38.561  29.218  29.268  1.00  0.00    -0.014 A 
BRANCH  31  32
ATOM     32  C   UNL A   1      39.930  28.765  29.203  1.00  0.00     0.031 A 
ATOM     33  C   UNL A   1      40.192  27.383  28.833  1.00  0.00     0.074 A 
ATOM     34  C   UNL A   1      40.841  29.765  29.253  1.00  0.00     0.049 A 
ATOM     35  N   UNL A   1      41.290  26.781  29.087  1.00  0.00    -0.248 NA
ATOM     36  C   UNL A   1      39.210  26.547  28.149  1.00  0.00     0.031 C 
ATOM     37  C   UNL A   1      42.238  29.821  28.873  1.00  0.00     0.029 A 
ATOM     38  N   UNL A   1      40.604  31.038  29.793  1.00  0.00    -0.354 N 
ATOM     39  C   UNL A   1      41.304  25.638  28.323  1.00  0.00     0.074 A 
ATOM     40  C   UNL A   1      39.940  25.458  27.884  1.00  0.00     0.031 C 
ATOM     41  C   UNL A   1      42.800  30.888  29.482  1.00  0.00     0.029 A 
ATOM     42  C   UNL A   1      41.801  31.474  30.369  1.00  0.00     0.049 A 
ATOM     43  H   UNL A   1      39.752  31.532  29.770  1.00  0.00     0.167 HD
ATOM     44  C   UNL A   1      42.517  25.095  28.020  1.00  0.00     0.037 A 
ATOM     45  C   UNL A   1      41.827  31.493  31.738  1.00  0.00     0.037 A 
ATOM     46  C   UNL A   1      43.581  25.922  28.603  1.00  0.00     0.049 A 
ATOM     47  C   UNL A   1      42.613  30.323  32.296  1.00  0.00     0.074 A 
ATOM     48  C   UNL A   1      44.353  26.971  28.128  1.00  0.00     0.029 A 
ATOM     49  N   UNL A   1      43.660  25.996  29.978  1.00  0.00    -0.354 N 
ATOM     50  N   UNL A   1      43.099  29.356  31.564  1.00  0.00    -0.248 NA
ATOM     51  C   UNL A   1      42.900  30.138  33.714  1.00  0.00     0.031 C 
ATOM     52  C   UNL A   1      44.833  27.712  29.260  1.00  0.00     0.029 A 
ATOM     53  C   UNL A   1      44.360  27.104  30.411  1.00  0.00     0.049 A 
ATOM     54  H   UNL A   1      43.261  25.331  30.584  1.00  0.00     0.167 HD
ATOM     55  C   UNL A   1      43.759  28.459  32.347  1.00  0.00     0.074 A 
ATOM     56  C   UNL A   1      43.582  28.977  33.695  1.00  0.00     0.031 C 
ATOM     57  C   UNL A   1      44.404  27.362  31.845  1.00  0.00     0.037 A 
BRANCH  44  58
ATOM     58  C   UNL A   1      42.771  23.981  27.039  1.00  0.00     0.057 A 
ATOM     59  C   UNL A   1      42.567  22.643  27.427  1.00  0.00     0.134 A 
ATOM     60  C   UNL A   1      43.186  24.141  25.704  1.00  0.00     0.134 A 
ATOM     61  F   UNL A   1      42.118  22.326  28.649  1.00  0.00    -0.206 F 
ATOM     62  C   UNL A   1      42.805  21.555  26.579  1.00  0.00     0.040 A 
ATOM     63  C   UNL A   1      43.467  23.059  24.856  1.00  0.00     0.040 A 
ATOM     64  F   UNL A   1      43.282  25.345  25.128  1.00  0.00    -0.206 F 
ATOM     65  C   UNL A   1      43.274  21.758  25.292  1.00  0.00     0.006 A 
ENDBRANCH  44  58
BRANCH  45  66
ATOM     66  C   UNL A   1      40.537  32.062  32.275  1.00  0.00     0.057 A 
ATOM     67  C   UNL A   1      40.274  33.417  31.974  1.00  0.00     0.134 A 
ATOM     68  C   UNL A   1      39.422  31.250  32.519  1.00  0.00     0.134 A 
ATOM     69  F   UNL A   1      41.292  34.268  31.769  1.00  0.00    -0.206 F 
ATOM     70  C   UNL A   1      38.982  33.880  31.698  1.00  0.00     0.040 A 
ATOM     71  C   UNL A   1      38.120  31.718  32.282  1.00  0.00     0.040 A 
ATOM     72  F   UNL A   1      39.575  29.956  32.838  1.00  0.00    -0.206 F 
ATOM     73  C   UNL A   1      37.904  33.011  31.802  1.00  0.00     0.006 A 
ENDBRANCH  45  66
BRANCH  57  74
ATOM     74  C   UNL A   1      45.132  26.407  32.741  1.00  0.00     0.057 A 
ATOM     75  C   UNL A   1      46.519  26.238  32.661  1.00  0.00     0.134 A 
ATOM     76  C   UNL A   1      44.462  25.568  33.653  1.00  0.00     0.134 A 
ATOM     77  F   UNL A   1      47.245  26.913  31.757  1.00  0.00    -0.206 F 
ATOM     78  C   UNL A   1      47.206  25.365  33.506  1.00  0.00     0.040 A 
ATOM     79  C   UNL A   1      45.129  24.641  34.450  1.00  0.00     0.040 A 
ATOM     80  F   UNL A   1      43.137  25.630  33.843  1.00  0.00    -0.206 F 
ATOM     81  C   UNL A   1      46.511  24.561  34.402  1.00  0.00     0.006 A 
ENDBRANCH  57  74
ENDBRANCH  31  32
ENDBRANCH  23  26
ENDBRANCH  21  22
ENDBRANCH   1  21
TORSDOF 13
ENDMDL
MODEL 2
REMARK VINA RESULT:     -11.7      1.836      2.800
REMARK SMILES Cc1ccc([C@@](C)(O)[C@H](F)C(=O)NCCCNC(=O)c2ccc(-c3c4nc(c(-c5c(F)cccc5F)c5ccc([nH]5)c(-c5c(F)cccc5F)c5nc(c(-c6c(F)cccc6F)c6ccc3[nH]6)C=C5)C=C4)cc2)cc1F
REMARK SMILES IDX 15 1 14 2 13 3 11 4 12 5 9 7 10 8 6 9 7 10 5 11 1 12 2 13
REMARK SMILES IDX 3 14 75 15 4 16 74 17 76 18 8 19 16 21 17 22 18 23 19 25
REMARK SMILES IDX 20 26 21 27 73 28 22 29 72 30 23 31 24 32 25 33 66 34 26 35
REMARK SMILES IDX 71 36 65 37 67 38 27 39 70 40 64 41 63 42 28 44 54 45 37 46
REMARK SMILES IDX 53 47 38 48 41 49 52 50 68 51 39 52 40 53 51 55 69 56 42 57
REMARK SMILES IDX 29 58 30 59 35 60 31 61 32 62 34 63 36 64 33 65 55 66 56 67
REMARK SMILES IDX 61 68 57 69 58 70 60 71 62 72 59 73 43 74 44 75 49 76 45 77
REMARK SMILES IDX 46 78 48 79 50 80 47 81
REMARK H PARENT 13 6 8 20 17 24 67 43 41 54
REMARK Flexibility Score: inf
ROOT
ATOM      1  C   UNL A   1      32.789  28.385  26.784  1.00  0.00     0.042 C 
ENDROOT
BRANCH   1   2
ATOM      2  C   UNL A   1      32.988  26.976  26.276  1.00  0.00     0.117 C 
BRANCH   2   3
ATOM      3  N   UNL A   1      31.906  26.053  26.589  1.00  0.00    -0.353 N 
ATOM      4  C   UNL A   1      32.047  24.697  26.772  1.00  0.00     0.257 C 
ATOM      5  O   UNL A   1      31.109  24.036  27.218  1.00  0.00    -0.272 OA
ATOM      6  H   UNL A   1      31.001  26.430  26.675  1.00  0.00     0.163 HD
BRANCH   4   7
ATOM      7  C   UNL A   1      33.374  24.071  26.365  1.00  0.00     0.291 C 
ATOM      8  F   UNL A   1      33.695  23.121  27.305  1.00  0.00    -0.233 F 
BRANCH   7   9
ATOM      9  C   UNL A   1      33.365  23.464  24.912  1.00  0.00     0.127 C 
ATOM     10  C   UNL A   1      34.416  24.195  24.069  1.00  0.00     0.051 C 
BRANCH   9  11
ATOM     11  C   UNL A   1      33.574  21.939  24.861  1.00  0.00    -0.010 A 
ATOM     12  C   UNL A   1      34.321  17.690  24.380  1.00  0.00     0.047 C 
ATOM     13  C   UNL A   1      34.054  19.152  24.550  1.00  0.00    -0.015 A 
ATOM     14  C   UNL A   1      32.762  19.664  24.454  1.00  0.00     0.007 A 
ATOM     15  C   UNL A   1      35.097  20.033  24.828  1.00  0.00     0.126 A 
ATOM     16  C   UNL A   1      32.527  21.033  24.627  1.00  0.00     0.007 A 
ATOM     17  C   UNL A   1      34.869  21.399  24.990  1.00  0.00     0.046 A 
ATOM     18  F   UNL A   1      36.352  19.573  24.925  1.00  0.00    -0.207 F 
ENDBRANCH   9  11
BRANCH   9  19
ATOM     19  O   UNL A   1      32.132  23.756  24.212  1.00  0.00    -0.382 OA
ATOM     20  H   UNL A   1      31.406  23.826  24.852  1.00  0.00     0.212 HD
ENDBRANCH   9  19
ENDBRANCH   7   9
ENDBRANCH   4   7
ENDBRANCH   2   3
ENDBRANCH   1   2
BRANCH   1  21
ATOM     21  C   UNL A   1      34.098  28.941  27.257  1.00  0.00     0.118 C 
BRANCH  21  22
ATOM     22  N   UNL A   1      34.006  30.359  27.648  1.00  0.00    -0.352 N 
ATOM     23  C   UNL A   1      34.850  31.054  28.488  1.00  0.00     0.251 C 
ATOM     24  H   UNL A   1      33.256  30.868  27.264  1.00  0.00     0.163 HD
ATOM     25  O   UNL A   1      34.608  32.175  28.889  1.00  0.00    -0.269 OA
BRANCH  23  26
ATOM     26  C   UNL A   1      36.110  30.391  28.820  1.00  0.00     0.039 A 
ATOM     27  C   UNL A   1      36.284  29.608  29.963  1.00  0.00     0.014 A 
ATOM     28  C   UNL A   1      37.125  30.575  27.890  1.00  0.00     0.014 A 
ATOM     29  C   UNL A   1      37.522  29.014  30.160  1.00  0.00     0.010 A 
ATOM     30  C   UNL A   1      38.191  29.752  27.923  1.00  0.00     0.010 A 
ATOM     31  C   UNL A   1      38.459  29.114  29.129  1.00  0.00    -0.014 A 
BRANCH  31  32
ATOM     32  C   UNL A   1      39.838  28.693  29.181  1.00  0.00     0.031 A 
ATOM     33  C   UNL A   1      40.173  27.343  28.756  1.00  0.00     0.074 A 
ATOM     34  C   UNL A   1      40.713  29.706  29.387  1.00  0.00     0.049 A 
ATOM     35  N   UNL A   1      41.254  26.747  29.087  1.00  0.00    -0.248 NA
ATOM     36  C   UNL A   1      39.289  26.533  27.923  1.00  0.00     0.031 C 
ATOM     37  C   UNL A   1      42.140  29.812  29.161  1.00  0.00     0.029 A 
ATOM     38  N   UNL A   1      40.388  30.936  29.977  1.00  0.00    -0.354 N 
ATOM     39  C   UNL A   1      41.377  25.656  28.259  1.00  0.00     0.074 A 
ATOM     40  C   UNL A   1      40.071  25.478  27.669  1.00  0.00     0.031 C 
ATOM     41  C   UNL A   1      42.608  30.849  29.890  1.00  0.00     0.029 A 
ATOM     42  C   UNL A   1      41.507  31.358  30.701  1.00  0.00     0.049 A 
ATOM     43  H   UNL A   1      39.531  31.414  29.895  1.00  0.00     0.167 HD
ATOM     44  C   UNL A   1      42.628  25.157  28.053  1.00  0.00     0.037 A 
ATOM     45  C   UNL A   1      41.391  31.290  32.064  1.00  0.00     0.037 A 
ATOM     46  C   UNL A   1      43.605  25.966  28.794  1.00  0.00     0.049 A 
ATOM     47  C   UNL A   1      42.145  30.102  32.628  1.00  0.00     0.074 A 
ATOM     48  C   UNL A   1      44.394  27.058  28.468  1.00  0.00     0.029 A 
ATOM     49  N   UNL A   1      43.538  25.953  30.172  1.00  0.00    -0.354 N 
ATOM     50  N   UNL A   1      42.729  29.194  31.894  1.00  0.00    -0.248 NA
ATOM     51  C   UNL A   1      42.288  29.832  34.055  1.00  0.00     0.031 C 
ATOM     52  C   UNL A   1      44.734  27.733  29.688  1.00  0.00     0.029 A 
ATOM     53  C   UNL A   1      44.160  27.044  30.743  1.00  0.00     0.049 A 
ATOM     54  H   UNL A   1      43.096  25.243  30.691  1.00  0.00     0.167 HD
ATOM     55  C   UNL A   1      43.328  28.261  32.684  1.00  0.00     0.074 A 
ATOM     56  C   UNL A   1      42.998  28.689  34.036  1.00  0.00     0.031 C 
ATOM     57  C   UNL A   1      44.049  27.212  32.187  1.00  0.00     0.037 A 
BRANCH  44  58
ATOM     58  C   UNL A   1      43.012  24.113  27.038  1.00  0.00     0.057 A 
ATOM     59  C   UNL A   1      43.468  24.507  25.764  1.00  0.00     0.134 A 
ATOM     60  C   UNL A   1      42.989  22.721  27.240  1.00  0.00     0.134 A 
ATOM     61  F   UNL A   1      43.602  25.798  25.434  1.00  0.00    -0.206 F 
ATOM     62  C   UNL A   1      43.820  23.594  24.762  1.00  0.00     0.040 A 
ATOM     63  C   UNL A   1      43.299  21.796  26.232  1.00  0.00     0.040 A 
ATOM     64  F   UNL A   1      42.726  22.181  28.436  1.00  0.00    -0.206 F 
ATOM     65  C   UNL A   1      43.719  22.232  24.986  1.00  0.00     0.006 A 
ENDBRANCH  44  58
BRANCH  45  66
ATOM     66  C   UNL A   1      40.038  31.798  32.496  1.00  0.00     0.057 A 
ATOM     67  C   UNL A   1      39.155  30.844  33.051  1.00  0.00     0.134 A 
ATOM     68  C   UNL A   1      39.845  33.128  32.891  1.00  0.00     0.134 A 
ATOM     69  F   UNL A   1      39.250  29.555  32.689  1.00  0.00    -0.206 F 
ATOM     70  C   UNL A   1      38.293  31.156  34.108  1.00  0.00     0.040 A 
ATOM     71  C   UNL A   1      38.953  33.455  33.925  1.00  0.00     0.040 A 
ATOM     72  F   UNL A   1      40.617  34.107  32.397  1.00  0.00    -0.206 F 
ATOM     73  C   UNL A   1      38.230  32.459  34.583  1.00  0.00     0.006 A 
ENDBRANCH  45  66
BRANCH  57  74
ATOM     74  C   UNL A   1      44.705  26.216  33.094  1.00  0.00     0.057 A 
ATOM     75  C   UNL A   1      46.088  26.008  33.077  1.00  0.00     0.134 A 
ATOM     76  C   UNL A   1      43.967  25.376  33.952  1.00  0.00     0.134 A 
ATOM     77  F   UNL A   1      46.877  26.681  32.226  1.00  0.00    -0.206 F 
ATOM     78  C   UNL A   1      46.708  25.096  33.934  1.00  0.00     0.040 A 
ATOM     79  C   UNL A   1      44.567  24.412  34.758  1.00  0.00     0.040 A 
ATOM     80  F   UNL A   1      42.637  25.472  34.079  1.00  0.00    -0.206 F 
ATOM     81  C   UNL A   1      45.947  24.293  34.775  1.00  0.00     0.006 A 
ENDBRANCH  57  74
ENDBRANCH  31  32
ENDBRANCH  23  26
ENDBRANCH  21  22
ENDBRANCH   1  21
TORSDOF 13
ENDMDL
MODEL 3
REMARK VINA RESULT:     -11.7      1.702      2.332
REMARK SMILES Cc1ccc([C@@](C)(O)[C@H](F)C(=O)NCCCNC(=O)c2ccc(-c3c4nc(c(-c5c(F)cccc5F)c5ccc([nH]5)c(-c5c(F)cccc5F)c5nc(c(-c6c(F)cccc6F)c6ccc3[nH]6)C=C5)C=C4)cc2)cc1F
REMARK SMILES IDX 15 1 14 2 13 3 11 4 12 5 9 7 10 8 6 9 7 10 5 11 1 12 2 13
REMARK SMILES IDX 3 14 75 15 4 16 74 17 76 18 8 19 16 21 17 22 18 23 19 25
REMARK SMILES IDX 20 26 21 27 73 28 22 29 72 30 23 31 24 32 25 33 66 34 26 35
REMARK SMILES IDX 71 36 65 37 67 38 27 39 70 40 64 41 63 42 28 44 54 45 37 46
REMARK SMILES IDX 53 47 38 48 41 49 52 50 68 51 39 52 40 53 51 55 69 56 42 57
REMARK SMILES IDX 29 58 30 59 35 60 31 61 32 62 34 63 36 64 33 65 55 66 56 67
REMARK SMILES IDX 61 68 57 69 58 70 60 71 62 72 59 73 43 74 44 75 49 76 45 77
REMARK SMILES IDX 46 78 48 79 50 80 47 81
REMARK H PARENT 13 6 8 20 17 24 67 43 41 54
REMARK Flexibility Score: inf
ROOT
ATOM      1  C   UNL A   1      32.904  28.483  26.951  1.00  0.00     0.042 C 
ENDROOT
BRANCH   1   2
ATOM      2  C   UNL A   1      33.069  27.132  26.294  1.00  0.00     0.117 C 
BRANCH   2   3
ATOM      3  N   UNL A   1      31.917  26.249  26.409  1.00  0.00    -0.353 N 
ATOM      4  C   UNL A   1      31.976  24.883  26.564  1.00  0.00     0.257 C 
ATOM      5  O   UNL A   1      30.957  24.252  26.841  1.00  0.00    -0.272 OA
ATOM      6  H   UNL A   1      31.025  26.663  26.372  1.00  0.00     0.163 HD
BRANCH   4   7
ATOM      7  C   UNL A   1      33.324  24.212  26.338  1.00  0.00     0.291 C 
ATOM      8  F   UNL A   1      33.486  23.259  27.314  1.00  0.00    -0.233 F 
BRANCH   7   9
ATOM      9  C   UNL A   1      33.488  23.595  24.898  1.00  0.00     0.127 C 
ATOM     10  C   UNL A   1      34.704  24.240  24.225  1.00  0.00     0.051 C 
BRANCH   9  11
ATOM     11  C   UNL A   1      33.589  22.059  24.875  1.00  0.00    -0.010 A 
ATOM     12  C   UNL A   1      34.018  17.758  24.463  1.00  0.00     0.047 C 
ATOM     13  C   UNL A   1      33.861  19.239  24.610  1.00  0.00    -0.015 A 
ATOM     14  C   UNL A   1      32.604  19.838  24.559  1.00  0.00     0.007 A 
ATOM     15  C   UNL A   1      34.973  20.051  24.820  1.00  0.00     0.126 A 
ATOM     16  C   UNL A   1      32.472  21.223  24.710  1.00  0.00     0.007 A 
ATOM     17  C   UNL A   1      34.848  21.432  24.959  1.00  0.00     0.046 A 
ATOM     18  F   UNL A   1      36.196  19.505  24.872  1.00  0.00    -0.207 F 
ENDBRANCH   9  11
BRANCH   9  19
ATOM     19  O   UNL A   1      32.399  23.971  24.022  1.00  0.00    -0.382 OA
ATOM     20  H   UNL A   1      31.625  24.216  24.555  1.00  0.00     0.212 HD
ENDBRANCH   9  19
ENDBRANCH   7   9
ENDBRANCH   4   7
ENDBRANCH   2   3
ENDBRANCH   1   2
BRANCH   1  21
ATOM     21  C   UNL A   1      34.247  29.028  27.332  1.00  0.00     0.118 C 
BRANCH  21  22
ATOM     22  N   UNL A   1      34.170  30.383  27.905  1.00  0.00    -0.352 N 
ATOM     23  C   UNL A   1      35.040  30.965  28.803  1.00  0.00     0.251 C 
ATOM     24  H   UNL A   1      33.411  30.937  27.611  1.00  0.00     0.163 HD
ATOM     25  O   UNL A   1      34.811  32.025  29.351  1.00  0.00    -0.269 OA
BRANCH  23  26
ATOM     26  C   UNL A   1      36.307  30.266  29.010  1.00  0.00     0.039 A 
ATOM     27  C   UNL A   1      36.519  29.364  30.054  1.00  0.00     0.014 A 
ATOM     28  C   UNL A   1      37.285  30.546  28.065  1.00  0.00     0.014 A 
ATOM     29  C   UNL A   1      37.761  28.748  30.136  1.00  0.00     0.010 A 
ATOM     30  C   UNL A   1      38.346  29.721  27.967  1.00  0.00     0.010 A 
ATOM     31  C   UNL A   1      38.656  28.956  29.086  1.00  0.00    -0.014 A 
BRANCH  31  32
ATOM     32  C   UNL A   1      40.033  28.527  29.036  1.00  0.00     0.031 A 
ATOM     33  C   UNL A   1      40.324  27.150  28.670  1.00  0.00     0.074 A 
ATOM     34  C   UNL A   1      40.926  29.544  29.095  1.00  0.00     0.049 A 
ATOM     35  N   UNL A   1      41.430  26.567  28.937  1.00  0.00    -0.248 NA
ATOM     36  C   UNL A   1      39.364  26.295  27.977  1.00  0.00     0.031 C 
ATOM     37  C   UNL A   1      42.326  29.624  28.730  1.00  0.00     0.029 A 
ATOM     38  N   UNL A   1      40.660  30.812  29.631  1.00  0.00    -0.354 N 
ATOM     39  C   UNL A   1      41.472  25.424  28.174  1.00  0.00     0.074 A 
ATOM     40  C   UNL A   1      40.116  25.220  27.721  1.00  0.00     0.031 C 
ATOM     41  C   UNL A   1      42.862  30.701  29.344  1.00  0.00     0.029 A 
ATOM     42  C   UNL A   1      41.844  31.270  30.219  1.00  0.00     0.049 A 
ATOM     43  H   UNL A   1      39.801  31.291  29.598  1.00  0.00     0.167 HD
ATOM     44  C   UNL A   1      42.697  24.903  27.886  1.00  0.00     0.037 A 
ATOM     45  C   UNL A   1      41.854  31.291  31.589  1.00  0.00     0.037 A 
ATOM     46  C   UNL A   1      43.741  25.749  28.479  1.00  0.00     0.049 A 
ATOM     47  C   UNL A   1      42.654  30.135  32.156  1.00  0.00     0.074 A 
ATOM     48  C   UNL A   1      44.499  26.811  28.011  1.00  0.00     0.029 A 
ATOM     49  N   UNL A   1      43.803  25.825  29.855  1.00  0.00    -0.354 N 
ATOM     50  N   UNL A   1      43.166  29.177  31.431  1.00  0.00    -0.248 NA
ATOM     51  C   UNL A   1      42.930  29.957  33.578  1.00  0.00     0.031 C 
ATOM     52  C   UNL A   1      44.953  27.561  29.148  1.00  0.00     0.029 A 
ATOM     53  C   UNL A   1      44.478  26.946  30.294  1.00  0.00     0.049 A 
ATOM     54  H   UNL A   1      43.409  25.154  30.458  1.00  0.00     0.167 HD
ATOM     55  C   UNL A   1      43.833  28.291  32.222  1.00  0.00     0.074 A 
ATOM     56  C   UNL A   1      43.632  28.808  33.567  1.00  0.00     0.031 C 
ATOM     57  C   UNL A   1      44.502  27.206  31.729  1.00  0.00     0.037 A 
BRANCH  44  58
ATOM     58  C   UNL A   1      42.982  23.793  26.909  1.00  0.00     0.057 A 
ATOM     59  C   UNL A   1      42.765  22.453  27.285  1.00  0.00     0.134 A 
ATOM     60  C   UNL A   1      43.438  23.957  25.588  1.00  0.00     0.134 A 
ATOM     61  F   UNL A   1      42.278  22.131  28.491  1.00  0.00    -0.206 F 
ATOM     62  C   UNL A   1      43.029  21.368  26.440  1.00  0.00     0.040 A 
ATOM     63  C   UNL A   1      43.745  22.878  24.745  1.00  0.00     0.040 A 
ATOM     64  F   UNL A   1      43.552  25.163  25.020  1.00  0.00    -0.206 F 
ATOM     65  C   UNL A   1      43.539  21.576  25.169  1.00  0.00     0.006 A 
ENDBRANCH  44  58
BRANCH  45  66
ATOM     66  C   UNL A   1      40.548  31.837  32.111  1.00  0.00     0.057 A 
ATOM     67  C   UNL A   1      40.242  33.172  31.764  1.00  0.00     0.134 A 
ATOM     68  C   UNL A   1      39.461  31.000  32.387  1.00  0.00     0.134 A 
ATOM     69  F   UNL A   1      41.233  34.047  31.526  1.00  0.00    -0.206 F 
ATOM     70  C   UNL A   1      38.935  33.585  31.478  1.00  0.00     0.040 A 
ATOM     71  C   UNL A   1      38.143  31.418  32.140  1.00  0.00     0.040 A 
ATOM     72  F   UNL A   1      39.655  29.723  32.750  1.00  0.00    -0.206 F 
ATOM     73  C   UNL A   1      37.885  32.686  31.616  1.00  0.00     0.006 A 
ENDBRANCH  45  66
BRANCH  57  74
ATOM     74  C   UNL A   1      45.237  26.265  32.633  1.00  0.00     0.057 A 
ATOM     75  C   UNL A   1      46.630  26.139  32.586  1.00  0.00     0.134 A 
ATOM     76  C   UNL A   1      44.571  25.398  33.521  1.00  0.00     0.134 A 
ATOM     77  F   UNL A   1      47.357  26.843  31.706  1.00  0.00    -0.206 F 
ATOM     78  C   UNL A   1      47.323  25.279  33.439  1.00  0.00     0.040 A 
ATOM     79  C   UNL A   1      45.246  24.483  34.325  1.00  0.00     0.040 A 
ATOM     80  F   UNL A   1      43.241  25.417  33.680  1.00  0.00    -0.206 F 
ATOM     81  C   UNL A   1      46.631  24.446  34.311  1.00  0.00     0.006 A 
ENDBRANCH  57  74
ENDBRANCH  31  32
ENDBRANCH  23  26
ENDBRANCH  21  22
ENDBRANCH   1  21
TORSDOF 13
ENDMDL
