MODEL 1
REMARK VINA RESULT:     -12.1      0.000      0.000
REMARK SMILES CC(C)(C)OC(=O)N1CCC[C@H]1C(=O)N[C@@H](Cc1ccccc1)C(=O)NCCCNC(=O)c1ccc(-c2c3nc(c(-c4c(F)cccc4F)c4ccc([nH]4)c(-c4c(F)cccc4F)c4nc(c(-c5c(F)cccc5F)c5ccc2[nH]5)C=C4)C=C3)cc1
REMARK SMILES IDX 24 1 25 2 26 3 16 5 15 6 13 7 14 8 12 10 8 11 9 12 10 13
REMARK SMILES IDX 11 14 6 15 7 16 5 17 2 18 1 19 3 20 4 21 17 22 18 23 19 24
REMARK SMILES IDX 23 25 20 26 22 27 21 28 27 29 28 30 29 31 30 32 31 33 32 35
REMARK SMILES IDX 33 36 34 37 86 38 35 39 85 40 36 41 37 42 38 43 79 44 39 45
REMARK SMILES IDX 84 46 78 47 80 48 40 49 83 50 77 51 76 52 41 54 67 55 50 56
REMARK SMILES IDX 66 57 51 58 54 59 65 60 81 61 52 62 53 63 64 65 82 66 55 67
REMARK SMILES IDX 42 68 43 69 48 70 44 71 45 72 47 73 49 74 46 75 68 76 69 77
REMARK SMILES IDX 74 78 70 79 71 80 73 81 75 82 72 83 56 84 57 85 62 86 58 87
REMARK SMILES IDX 59 88 61 89 63 90 60 91
REMARK H PARENT 26 4 15 9 30 34 80 53 54 64
REMARK Flexibility Score: inf
ROOT
ATOM      1  C   UNL A   1      34.635  22.035  26.904  1.00  0.00     0.242 C 
ATOM      2  O   UNL A   1      34.545  22.734  27.919  1.00  0.00    -0.273 OA
ATOM      3  N   UNL A   1      35.864  22.021  26.336  1.00  0.00    -0.354 N 
ATOM      4  H   UNL A   1      36.606  22.358  26.888  1.00  0.00     0.163 HD
ENDROOT
BRANCH   1   5
ATOM      5  C   UNL A   1      33.384  21.405  26.237  1.00  0.00     0.175 C 
BRANCH   5   6
ATOM      6  N   UNL A   1      32.194  21.945  26.875  1.00  0.00    -0.342 N 
ATOM      7  C   UNL A   1      31.468  23.056  26.572  1.00  0.00     0.243 C 
ATOM      8  O   UNL A   1      30.445  23.193  27.259  1.00  0.00    -0.273 OA
ATOM      9  H   UNL A   1      31.862  21.428  27.645  1.00  0.00     0.164 HD
BRANCH   7  10
ATOM     10  C   UNL A   1      31.962  24.209  25.625  1.00  0.00     0.178 C 
ATOM     11  N   UNL A   1      30.990  24.898  24.767  1.00  0.00    -0.296 N 
ATOM     12  C   UNL A   1      30.574  26.142  25.372  1.00  0.00     0.124 C 
ATOM     13  C   UNL A   1      31.879  26.634  25.973  1.00  0.00     0.024 C 
ATOM     14  C   UNL A   1      32.544  25.355  26.487  1.00  0.00     0.037 C 
BRANCH  11  15
ATOM     15  C   UNL A   1      30.795  24.597  23.434  1.00  0.00     0.410 C 
ATOM     16  O   UNL A   1      30.065  23.686  23.072  1.00  0.00    -0.224 OA
BRANCH  15  17
ATOM     17  O   UNL A   1      31.400  25.491  22.610  1.00  0.00    -0.444 OA
BRANCH  17  18
ATOM     18  C   UNL A   1      32.711  25.300  21.993  1.00  0.00     0.106 C 
ATOM     19  C   UNL A   1      33.634  26.351  22.612  1.00  0.00     0.056 C 
ATOM     20  C   UNL A   1      32.566  25.607  20.493  1.00  0.00     0.056 C 
ATOM     21  C   UNL A   1      33.346  23.911  22.131  1.00  0.00     0.056 C 
ENDBRANCH  17  18
ENDBRANCH  15  17
ENDBRANCH  11  15
ENDBRANCH   7  10
ENDBRANCH   5   6
BRANCH   5  22
ATOM     22  C   UNL A   1      33.289  21.164  24.708  1.00  0.00     0.070 C 
BRANCH  22  23
ATOM     23  C   UNL A   1      33.190  19.767  24.148  1.00  0.00    -0.045 A 
ATOM     24  C   UNL A   1      34.052  18.764  24.622  1.00  0.00     0.004 A 
ATOM     25  C   UNL A   1      32.304  19.460  23.104  1.00  0.00     0.004 A 
ATOM     26  C   UNL A   1      34.120  17.527  23.978  1.00  0.00     0.000 A 
ATOM     27  C   UNL A   1      32.392  18.228  22.447  1.00  0.00     0.000 A 
ATOM     28  C   UNL A   1      33.317  17.273  22.868  1.00  0.00     0.000 A 
ENDBRANCH  22  23
ENDBRANCH   5  22
ENDBRANCH   1   5
BRANCH   3  29
ATOM     29  C   UNL A   1      36.203  21.570  25.021  1.00  0.00     0.117 C 
BRANCH  29  30
ATOM     30  C   UNL A   1      37.213  20.458  24.989  1.00  0.00     0.042 C 
BRANCH  30  31
ATOM     31  C   UNL A   1      38.539  20.883  25.574  1.00  0.00     0.118 C 
BRANCH  31  32
ATOM     32  N   UNL A   1      39.489  19.777  25.695  1.00  0.00    -0.352 N 
ATOM     33  C   UNL A   1      40.819  19.775  26.041  1.00  0.00     0.251 C 
ATOM     34  H   UNL A   1      39.115  18.889  25.497  1.00  0.00     0.163 HD
ATOM     35  O   UNL A   1      41.499  18.768  25.875  1.00  0.00    -0.269 OA
BRANCH  33  36
ATOM     36  C   UNL A   1      41.428  21.002  26.586  1.00  0.00     0.039 A 
ATOM     37  C   UNL A   1      41.950  21.964  25.720  1.00  0.00     0.014 A 
ATOM     38  C   UNL A   1      41.434  21.221  27.962  1.00  0.00     0.014 A 
ATOM     39  C   UNL A   1      42.392  23.181  26.239  1.00  0.00     0.010 A 
ATOM     40  C   UNL A   1      41.704  22.485  28.452  1.00  0.00     0.010 A 
ATOM     41  C   UNL A   1      42.222  23.469  27.603  1.00  0.00    -0.014 A 
BRANCH  41  42
ATOM     42  C   UNL A   1      42.616  24.771  28.188  1.00  0.00     0.031 A 
ATOM     43  C   UNL A   1      41.572  25.833  28.407  1.00  0.00     0.074 A 
ATOM     44  C   UNL A   1      43.914  25.030  28.431  1.00  0.00     0.049 A 
ATOM     45  N   UNL A   1      41.719  27.066  28.820  1.00  0.00    -0.248 NA
ATOM     46  C   UNL A   1      40.183  25.480  28.067  1.00  0.00     0.031 C 
ATOM     47  C   UNL A   1      45.026  24.111  28.176  1.00  0.00     0.029 A 
ATOM     48  N   UNL A   1      44.518  26.152  28.936  1.00  0.00    -0.354 N 
ATOM     49  C   UNL A   1      40.452  27.633  28.758  1.00  0.00     0.074 A 
ATOM     50  C   UNL A   1      39.570  26.646  28.183  1.00  0.00     0.031 C 
ATOM     51  C   UNL A   1      46.173  24.693  28.559  1.00  0.00     0.029 A 
ATOM     52  C   UNL A   1      45.883  26.038  29.042  1.00  0.00     0.049 A 
ATOM     53  H   UNL A   1      44.023  26.961  29.196  1.00  0.00     0.167 HD
ATOM     54  C   UNL A   1      40.049  28.855  29.179  1.00  0.00     0.037 A 
ATOM     55  C   UNL A   1      46.798  26.925  29.476  1.00  0.00     0.037 A 
ATOM     56  C   UNL A   1      40.931  29.819  29.777  1.00  0.00     0.049 A 
ATOM     57  C   UNL A   1      46.333  28.268  29.963  1.00  0.00     0.074 A 
ATOM     58  C   UNL A   1      40.624  31.056  30.313  1.00  0.00     0.029 A 
ATOM     59  N   UNL A   1      42.304  29.652  29.910  1.00  0.00    -0.354 N 
ATOM     60  N   UNL A   1      45.117  28.762  29.989  1.00  0.00    -0.248 NA
ATOM     61  C   UNL A   1      47.362  29.170  30.493  1.00  0.00     0.031 C 
ATOM     62  C   UNL A   1      41.819  31.662  30.717  1.00  0.00     0.029 A 
ATOM     63  C   UNL A   1      42.862  30.777  30.493  1.00  0.00     0.049 A 
ATOM     64  H   UNL A   1      42.805  28.852  29.632  1.00  0.00     0.167 HD
ATOM     65  C   UNL A   1      45.230  30.024  30.556  1.00  0.00     0.074 A 
ATOM     66  C   UNL A   1      46.632  30.211  30.874  1.00  0.00     0.031 C 
ATOM     67  C   UNL A   1      44.263  30.945  30.794  1.00  0.00     0.037 A 
BRANCH  54  68
ATOM     68  C   UNL A   1      38.596  29.197  28.998  1.00  0.00     0.057 A 
ATOM     69  C   UNL A   1      38.086  29.668  27.779  1.00  0.00     0.134 A 
ATOM     70  C   UNL A   1      37.697  29.082  30.065  1.00  0.00     0.134 A 
ATOM     71  F   UNL A   1      38.893  29.819  26.716  1.00  0.00    -0.206 F 
ATOM     72  C   UNL A   1      36.754  30.064  27.644  1.00  0.00     0.040 A 
ATOM     73  C   UNL A   1      36.354  29.437  29.932  1.00  0.00     0.040 A 
ATOM     74  F   UNL A   1      38.110  28.632  31.260  1.00  0.00    -0.206 F 
ATOM     75  C   UNL A   1      35.882  29.945  28.723  1.00  0.00     0.006 A 
ENDBRANCH  54  68
BRANCH  55  76
ATOM     76  C   UNL A   1      48.231  26.543  29.495  1.00  0.00     0.057 A 
ATOM     77  C   UNL A   1      48.766  25.785  30.542  1.00  0.00     0.134 A 
ATOM     78  C   UNL A   1      49.090  26.885  28.443  1.00  0.00     0.134 A 
ATOM     79  F   UNL A   1      47.997  25.437  31.584  1.00  0.00    -0.206 F 
ATOM     80  C   UNL A   1      50.103  25.386  30.548  1.00  0.00     0.040 A 
ATOM     81  C   UNL A   1      50.423  26.471  28.423  1.00  0.00     0.040 A 
ATOM     82  F   UNL A   1      48.634  27.597  27.402  1.00  0.00    -0.206 F 
ATOM     83  C   UNL A   1      50.934  25.722  29.481  1.00  0.00     0.006 A 
ENDBRANCH  55  76
BRANCH  67  84
ATOM     84  C   UNL A   1      44.684  32.226  31.454  1.00  0.00     0.057 A 
ATOM     85  C   UNL A   1      44.740  32.359  32.847  1.00  0.00     0.134 A 
ATOM     86  C   UNL A   1      45.079  33.327  30.683  1.00  0.00     0.134 A 
ATOM     87  F   UNL A   1      44.366  31.346  33.644  1.00  0.00    -0.206 F 
ATOM     88  C   UNL A   1      45.150  33.550  33.449  1.00  0.00     0.040 A 
ATOM     89  C   UNL A   1      45.521  34.511  31.273  1.00  0.00     0.040 A 
ATOM     90  F   UNL A   1      45.060  33.262  29.342  1.00  0.00    -0.206 F 
ATOM     91  C   UNL A   1      45.549  34.627  32.661  1.00  0.00     0.006 A 
ENDBRANCH  67  84
ENDBRANCH  41  42
ENDBRANCH  33  36
ENDBRANCH  31  32
ENDBRANCH  30  31
ENDBRANCH  29  30
ENDBRANCH   3  29
TORSDOF 17
ENDMDL
MODEL 2
REMARK VINA RESULT:     -12.0      0.374      6.129
REMARK SMILES CC(C)(C)OC(=O)N1CCC[C@H]1C(=O)N[C@@H](Cc1ccccc1)C(=O)NCCCNC(=O)c1ccc(-c2c3nc(c(-c4c(F)cccc4F)c4ccc([nH]4)c(-c4c(F)cccc4F)c4nc(c(-c5c(F)cccc5F)c5ccc2[nH]5)C=C4)C=C3)cc1
REMARK SMILES IDX 24 1 25 2 26 3 16 5 15 6 13 7 14 8 12 10 8 11 9 12 10 13
REMARK SMILES IDX 11 14 6 15 7 16 5 17 2 18 1 19 3 20 4 21 17 22 18 23 19 24
REMARK SMILES IDX 23 25 20 26 22 27 21 28 27 29 28 30 29 31 30 32 31 33 32 35
REMARK SMILES IDX 33 36 34 37 86 38 35 39 85 40 36 41 37 42 38 43 79 44 39 45
REMARK SMILES IDX 84 46 78 47 80 48 40 49 83 50 77 51 76 52 41 54 67 55 50 56
REMARK SMILES IDX 66 57 51 58 54 59 65 60 81 61 52 62 53 63 64 65 82 66 55 67
REMARK SMILES IDX 42 68 43 69 48 70 44 71 45 72 47 73 49 74 46 75 68 76 69 77
REMARK SMILES IDX 74 78 70 79 71 80 73 81 75 82 72 83 56 84 57 85 62 86 58 87
REMARK SMILES IDX 59 88 61 89 63 90 60 91
REMARK H PARENT 26 4 15 9 30 34 80 53 54 64
REMARK Flexibility Score: inf
ROOT
ATOM      1  C   UNL A   1      34.634  21.900  26.913  1.00  0.00     0.242 C 
ATOM      2  O   UNL A   1      34.577  22.606  27.925  1.00  0.00    -0.273 OA
ATOM      3  N   UNL A   1      35.862  21.823  26.346  1.00  0.00    -0.354 N 
ATOM      4  H   UNL A   1      36.618  22.126  26.898  1.00  0.00     0.163 HD
ENDROOT
BRANCH   1   5
ATOM      5  C   UNL A   1      33.355  21.329  26.246  1.00  0.00     0.175 C 
BRANCH   5   6
ATOM      6  N   UNL A   1      32.191  21.919  26.889  1.00  0.00    -0.342 N 
ATOM      7  C   UNL A   1      31.505  23.054  26.582  1.00  0.00     0.243 C 
ATOM      8  O   UNL A   1      30.494  23.236  27.276  1.00  0.00    -0.273 OA
ATOM      9  H   UNL A   1      31.847  21.421  27.666  1.00  0.00     0.164 HD
BRANCH   7  10
ATOM     10  C   UNL A   1      32.034  24.179  25.620  1.00  0.00     0.178 C 
ATOM     11  N   UNL A   1      31.079  24.906  24.775  1.00  0.00    -0.296 N 
ATOM     12  C   UNL A   1      30.730  26.171  25.379  1.00  0.00     0.124 C 
ATOM     13  C   UNL A   1      32.066  26.607  25.956  1.00  0.00     0.024 C 
ATOM     14  C   UNL A   1      32.681  25.302  26.465  1.00  0.00     0.037 C 
BRANCH  11  15
ATOM     15  C   UNL A   1      30.849  24.609  23.446  1.00  0.00     0.410 C 
ATOM     16  O   UNL A   1      30.119  23.690  23.103  1.00  0.00    -0.224 OA
BRANCH  15  17
ATOM     17  O   UNL A   1      31.419  25.513  22.608  1.00  0.00    -0.444 OA
BRANCH  17  18
ATOM     18  C   UNL A   1      32.731  25.357  21.984  1.00  0.00     0.106 C 
ATOM     19  C   UNL A   1      33.597  26.501  22.513  1.00  0.00     0.056 C 
ATOM     20  C   UNL A   1      32.547  25.550  20.469  1.00  0.00     0.056 C 
ATOM     21  C   UNL A   1      33.450  24.020  22.205  1.00  0.00     0.056 C 
ENDBRANCH  17  18
ENDBRANCH  15  17
ENDBRANCH  11  15
ENDBRANCH   7  10
ENDBRANCH   5   6
BRANCH   5  22
ATOM     22  C   UNL A   1      33.246  21.098  24.717  1.00  0.00     0.070 C 
BRANCH  22  23
ATOM     23  C   UNL A   1      33.142  19.705  24.148  1.00  0.00    -0.045 A 
ATOM     24  C   UNL A   1      33.980  18.690  24.636  1.00  0.00     0.004 A 
ATOM     25  C   UNL A   1      32.276  19.413  23.082  1.00  0.00     0.004 A 
ATOM     26  C   UNL A   1      34.048  17.454  23.988  1.00  0.00     0.000 A 
ATOM     27  C   UNL A   1      32.363  18.184  22.422  1.00  0.00     0.000 A 
ATOM     28  C   UNL A   1      33.267  17.216  22.859  1.00  0.00     0.000 A 
ENDBRANCH  22  23
ENDBRANCH   5  22
ENDBRANCH   1   5
BRANCH   3  29
ATOM     29  C   UNL A   1      36.179  21.352  25.034  1.00  0.00     0.117 C 
BRANCH  29  30
ATOM     30  C   UNL A   1      37.232  20.280  25.000  1.00  0.00     0.042 C 
BRANCH  30  31
ATOM     31  C   UNL A   1      38.570  20.787  25.485  1.00  0.00     0.118 C 
BRANCH  31  32
ATOM     32  N   UNL A   1      39.557  19.720  25.650  1.00  0.00    -0.352 N 
ATOM     33  C   UNL A   1      40.878  19.774  26.026  1.00  0.00     0.251 C 
ATOM     34  H   UNL A   1      39.221  18.814  25.461  1.00  0.00     0.163 HD
ATOM     35  O   UNL A   1      41.599  18.790  25.896  1.00  0.00    -0.269 OA
BRANCH  33  36
ATOM     36  C   UNL A   1      41.427  21.034  26.559  1.00  0.00     0.039 A 
ATOM     37  C   UNL A   1      41.977  21.977  25.690  1.00  0.00     0.014 A 
ATOM     38  C   UNL A   1      41.351  21.301  27.925  1.00  0.00     0.014 A 
ATOM     39  C   UNL A   1      42.362  23.222  26.189  1.00  0.00     0.010 A 
ATOM     40  C   UNL A   1      41.565  22.587  28.383  1.00  0.00     0.010 A 
ATOM     41  C   UNL A   1      42.108  23.553  27.530  1.00  0.00    -0.014 A 
BRANCH  41  42
ATOM     42  C   UNL A   1      42.439  24.884  28.089  1.00  0.00     0.031 A 
ATOM     43  C   UNL A   1      43.844  25.168  28.549  1.00  0.00     0.074 A 
ATOM     44  C   UNL A   1      41.465  25.795  28.268  1.00  0.00     0.049 A 
ATOM     45  N   UNL A   1      44.320  26.228  29.148  1.00  0.00    -0.248 NA
ATOM     46  C   UNL A   1      44.835  24.095  28.360  1.00  0.00     0.031 C 
ATOM     47  C   UNL A   1      40.050  25.602  27.941  1.00  0.00     0.029 A 
ATOM     48  N   UNL A   1      41.517  27.064  28.783  1.00  0.00    -0.354 N 
ATOM     49  C   UNL A   1      45.648  25.933  29.428  1.00  0.00     0.074 A 
ATOM     50  C   UNL A   1      45.877  24.568  29.021  1.00  0.00     0.031 C 
ATOM     51  C   UNL A   1      39.376  26.725  28.231  1.00  0.00     0.029 A 
ATOM     52  C   UNL A   1      40.299  27.698  28.805  1.00  0.00     0.049 A 
ATOM     53  H   UNL A   1      42.348  27.481  29.108  1.00  0.00     0.167 HD
ATOM     54  C   UNL A   1      46.606  26.741  29.942  1.00  0.00     0.037 A 
ATOM     55  C   UNL A   1      39.965  28.926  29.243  1.00  0.00     0.037 A 
ATOM     56  C   UNL A   1      46.374  28.109  30.317  1.00  0.00     0.049 A 
ATOM     57  C   UNL A   1      41.042  29.819  29.789  1.00  0.00     0.074 A 
ATOM     58  C   UNL A   1      47.281  29.046  30.775  1.00  0.00     0.029 A 
ATOM     59  N   UNL A   1      45.133  28.733  30.283  1.00  0.00    -0.354 N 
ATOM     60  N   UNL A   1      42.318  29.564  29.963  1.00  0.00    -0.248 NA
ATOM     61  C   UNL A   1      40.640  31.173  30.186  1.00  0.00     0.031 C 
ATOM     62  C   UNL A   1      46.580  30.219  31.073  1.00  0.00     0.029 A 
ATOM     63  C   UNL A   1      45.247  30.034  30.740  1.00  0.00     0.049 A 
ATOM     64  H   UNL A   1      44.297  28.312  29.979  1.00  0.00     0.167 HD
ATOM     65  C   UNL A   1      42.875  30.730  30.470  1.00  0.00     0.074 A 
ATOM     66  C   UNL A   1      41.799  31.698  30.559  1.00  0.00     0.031 C 
ATOM     67  C   UNL A   1      44.159  30.980  30.828  1.00  0.00     0.037 A 
BRANCH  54  68
ATOM     68  C   UNL A   1      47.977  26.149  30.124  1.00  0.00     0.057 A 
ATOM     69  C   UNL A   1      48.410  25.632  31.353  1.00  0.00     0.134 A 
ATOM     70  C   UNL A   1      48.888  26.121  29.061  1.00  0.00     0.134 A 
ATOM     71  F   UNL A   1      47.596  25.640  32.421  1.00  0.00    -0.206 F 
ATOM     72  C   UNL A   1      49.713  25.162  31.534  1.00  0.00     0.040 A 
ATOM     73  C   UNL A   1      50.181  25.618  29.219  1.00  0.00     0.040 A 
ATOM     74  F   UNL A   1      48.542  26.592  27.853  1.00  0.00    -0.206 F 
ATOM     75  C   UNL A   1      50.602  25.152  30.462  1.00  0.00     0.006 A 
ENDBRANCH  54  68
BRANCH  55  76
ATOM     76  C   UNL A   1      38.556  29.377  29.145  1.00  0.00     0.057 A 
ATOM     77  C   UNL A   1      38.008  29.787  27.924  1.00  0.00     0.134 A 
ATOM     78  C   UNL A   1      37.707  29.361  30.259  1.00  0.00     0.134 A 
ATOM     79  F   UNL A   1      38.774  29.834  26.824  1.00  0.00    -0.206 F 
ATOM     80  C   UNL A   1      36.672  30.173  27.814  1.00  0.00     0.040 A 
ATOM     81  C   UNL A   1      36.362  29.720  30.158  1.00  0.00     0.040 A 
ATOM     82  F   UNL A   1      38.167  28.964  31.454  1.00  0.00    -0.206 F 
ATOM     83  C   UNL A   1      35.842  30.132  28.933  1.00  0.00     0.006 A 
ENDBRANCH  55  76
BRANCH  67  84
ATOM     84  C   UNL A   1      44.477  32.361  31.323  1.00  0.00     0.057 A 
ATOM     85  C   UNL A   1      44.830  33.399  30.452  1.00  0.00     0.134 A 
ATOM     86  C   UNL A   1      44.386  32.665  32.688  1.00  0.00     0.134 A 
ATOM     87  F   UNL A   1      44.945  33.172  29.134  1.00  0.00    -0.206 F 
ATOM     88  C   UNL A   1      45.106  34.684  30.922  1.00  0.00     0.040 A 
ATOM     89  C   UNL A   1      44.627  33.953  33.166  1.00  0.00     0.040 A 
ATOM     90  F   UNL A   1      44.040  31.720  33.575  1.00  0.00    -0.206 F 
ATOM     91  C   UNL A   1      44.997  34.964  32.283  1.00  0.00     0.006 A 
ENDBRANCH  67  84
ENDBRANCH  41  42
ENDBRANCH  33  36
ENDBRANCH  31  32
ENDBRANCH  30  31
ENDBRANCH  29  30
ENDBRANCH   3  29
TORSDOF 17
ENDMDL
MODEL 3
REMARK VINA RESULT:     -12.0      1.945      2.804
REMARK SMILES CC(C)(C)OC(=O)N1CCC[C@H]1C(=O)N[C@@H](Cc1ccccc1)C(=O)NCCCNC(=O)c1ccc(-c2c3nc(c(-c4c(F)cccc4F)c4ccc([nH]4)c(-c4c(F)cccc4F)c4nc(c(-c5c(F)cccc5F)c5ccc2[nH]5)C=C4)C=C3)cc1
REMARK SMILES IDX 24 1 25 2 26 3 16 5 15 6 13 7 14 8 12 10 8 11 9 12 10 13
REMARK SMILES IDX 11 14 6 15 7 16 5 17 2 18 1 19 3 20 4 21 17 22 18 23 19 24
REMARK SMILES IDX 23 25 20 26 22 27 21 28 27 29 28 30 29 31 30 32 31 33 32 35
REMARK SMILES IDX 33 36 34 37 86 38 35 39 85 40 36 41 37 42 38 43 79 44 39 45
REMARK SMILES IDX 84 46 78 47 80 48 40 49 83 50 77 51 76 52 41 54 67 55 50 56
REMARK SMILES IDX 66 57 51 58 54 59 65 60 81 61 52 62 53 63 64 65 82 66 55 67
REMARK SMILES IDX 42 68 43 69 48 70 44 71 45 72 47 73 49 74 46 75 68 76 69 77
REMARK SMILES IDX 74 78 70 79 71 80 73 81 75 82 72 83 56 84 57 85 62 86 58 87
REMARK SMILES IDX 59 88 61 89 63 90 60 91
REMARK H PARENT 26 4 15 9 30 34 80 53 54 64
REMARK Flexibility Score: inf
ROOT
ATOM      1  C   UNL A   1      35.844  22.668  25.748  1.00  0.00     0.242 C 
ATOM      2  O   UNL A   1      35.874  23.729  26.380  1.00  0.00    -0.273 OA
ATOM      3  N   UNL A   1      37.060  22.174  25.416  1.00  0.00    -0.354 N 
ATOM      4  H   UNL A   1      37.833  22.556  25.891  1.00  0.00     0.163 HD
ENDROOT
BRANCH   1   5
ATOM      5  C   UNL A   1      34.513  22.079  25.210  1.00  0.00     0.175 C 
BRANCH   5   6
ATOM      6  N   UNL A   1      34.410  22.378  23.791  1.00  0.00    -0.342 N 
ATOM      7  C   UNL A   1      33.852  23.449  23.162  1.00  0.00     0.243 C 
ATOM      8  O   UNL A   1      34.009  23.451  21.932  1.00  0.00    -0.273 OA
ATOM      9  H   UNL A   1      34.805  21.703  23.193  1.00  0.00     0.164 HD
BRANCH   7  10
ATOM     10  C   UNL A   1      32.886  24.480  23.851  1.00  0.00     0.178 C 
ATOM     11  N   UNL A   1      32.619  25.764  23.191  1.00  0.00    -0.296 N 
ATOM     12  C   UNL A   1      31.369  25.712  22.468  1.00  0.00     0.124 C 
ATOM     13  C   UNL A   1      30.509  24.894  23.416  1.00  0.00     0.024 C 
ATOM     14  C   UNL A   1      31.478  23.848  23.970  1.00  0.00     0.037 C 
BRANCH  11  15
ATOM     15  C   UNL A   1      33.259  26.942  23.519  1.00  0.00     0.410 C 
ATOM     16  O   UNL A   1      33.760  27.668  22.673  1.00  0.00    -0.224 OA
BRANCH  15  17
ATOM     17  O   UNL A   1      33.154  27.236  24.841  1.00  0.00    -0.444 OA
BRANCH  17  18
ATOM     18  C   UNL A   1      32.230  28.219  25.404  1.00  0.00     0.106 C 
ATOM     19  C   UNL A   1      33.088  29.401  25.859  1.00  0.00     0.056 C 
ATOM     20  C   UNL A   1      31.581  27.585  26.646  1.00  0.00     0.056 C 
ATOM     21  C   UNL A   1      31.107  28.720  24.488  1.00  0.00     0.056 C 
ENDBRANCH  17  18
ENDBRANCH  15  17
ENDBRANCH  11  15
ENDBRANCH   7  10
ENDBRANCH   5   6
BRANCH   5  22
ATOM     22  C   UNL A   1      33.976  20.695  25.657  1.00  0.00     0.070 C 
BRANCH  22  23
ATOM     23  C   UNL A   1      33.773  19.582  24.659  1.00  0.00    -0.045 A 
ATOM     24  C   UNL A   1      32.620  19.569  23.856  1.00  0.00     0.004 A 
ATOM     25  C   UNL A   1      34.676  18.512  24.564  1.00  0.00     0.004 A 
ATOM     26  C   UNL A   1      32.310  18.450  23.080  1.00  0.00     0.000 A 
ATOM     27  C   UNL A   1      34.351  17.384  23.804  1.00  0.00     0.000 A 
ATOM     28  C   UNL A   1      33.158  17.344  23.083  1.00  0.00     0.000 A 
ENDBRANCH  22  23
ENDBRANCH   5  22
ENDBRANCH   1   5
BRANCH   3  29
ATOM     29  C   UNL A   1      37.346  21.159  24.449  1.00  0.00     0.117 C 
BRANCH  29  30
ATOM     30  C   UNL A   1      38.058  19.958  25.006  1.00  0.00     0.042 C 
BRANCH  30  31
ATOM     31  C   UNL A   1      39.287  20.347  25.795  1.00  0.00     0.118 C 
BRANCH  31  32
ATOM     32  N   UNL A   1      40.228  19.239  25.966  1.00  0.00    -0.352 N 
ATOM     33  C   UNL A   1      41.588  19.244  26.159  1.00  0.00     0.251 C 
ATOM     34  H   UNL A   1      39.820  18.344  25.938  1.00  0.00     0.163 HD
ATOM     35  O   UNL A   1      42.230  18.203  26.063  1.00  0.00    -0.269 OA
BRANCH  33  36
ATOM     36  C   UNL A   1      42.273  20.516  26.453  1.00  0.00     0.039 A 
ATOM     37  C   UNL A   1      42.783  21.289  25.409  1.00  0.00     0.014 A 
ATOM     38  C   UNL A   1      42.366  20.966  27.769  1.00  0.00     0.014 A 
ATOM     39  C   UNL A   1      43.301  22.554  25.688  1.00  0.00     0.010 A 
ATOM     40  C   UNL A   1      42.711  22.280  28.018  1.00  0.00     0.010 A 
ATOM     41  C   UNL A   1      43.219  23.079  26.988  1.00  0.00    -0.014 A 
BRANCH  41  42
ATOM     42  C   UNL A   1      43.695  24.442  27.319  1.00  0.00     0.031 A 
ATOM     43  C   UNL A   1      42.705  25.489  27.753  1.00  0.00     0.074 A 
ATOM     44  C   UNL A   1      44.990  24.759  27.139  1.00  0.00     0.049 A 
ATOM     45  N   UNL A   1      42.898  26.759  27.999  1.00  0.00    -0.248 NA
ATOM     46  C   UNL A   1      41.300  25.066  27.875  1.00  0.00     0.031 C 
ATOM     47  C   UNL A   1      46.026  23.852  26.640  1.00  0.00     0.029 A 
ATOM     48  N   UNL A   1      45.654  25.941  27.346  1.00  0.00    -0.354 N 
ATOM     49  C   UNL A   1      41.641  27.282  28.273  1.00  0.00     0.074 A 
ATOM     50  C   UNL A   1      40.685  26.219  28.072  1.00  0.00     0.031 C 
ATOM     51  C   UNL A   1      47.201  24.501  26.612  1.00  0.00     0.029 A 
ATOM     52  C   UNL A   1      46.993  25.877  27.047  1.00  0.00     0.049 A 
ATOM     53  H   UNL A   1      45.213  26.757  27.675  1.00  0.00     0.167 HD
ATOM     54  C   UNL A   1      41.313  28.526  28.694  1.00  0.00     0.037 A 
ATOM     55  C   UNL A   1      47.944  26.827  27.113  1.00  0.00     0.037 A 
ATOM     56  C   UNL A   1      42.278  29.568  28.919  1.00  0.00     0.049 A 
ATOM     57  C   UNL A   1      47.570  28.196  27.604  1.00  0.00     0.074 A 
ATOM     58  C   UNL A   1      42.074  30.840  29.418  1.00  0.00     0.029 A 
ATOM     59  N   UNL A   1      43.635  29.453  28.648  1.00  0.00    -0.354 N 
ATOM     60  N   UNL A   1      46.391  28.656  27.953  1.00  0.00    -0.248 NA
ATOM     61  C   UNL A   1      48.658  29.174  27.726  1.00  0.00     0.031 C 
ATOM     62  C   UNL A   1      43.299  31.516  29.394  1.00  0.00     0.029 A 
ATOM     63  C   UNL A   1      44.277  30.643  28.942  1.00  0.00     0.049 A 
ATOM     64  H   UNL A   1      44.075  28.645  28.299  1.00  0.00     0.167 HD
ATOM     65  C   UNL A   1      46.597  29.969  28.354  1.00  0.00     0.074 A 
ATOM     66  C   UNL A   1      48.017  30.224  28.222  1.00  0.00     0.031 C 
ATOM     67  C   UNL A   1      45.693  30.880  28.794  1.00  0.00     0.037 A 
BRANCH  54  68
ATOM     68  C   UNL A   1      39.854  28.807  28.929  1.00  0.00     0.057 A 
ATOM     69  C   UNL A   1      39.248  28.612  30.178  1.00  0.00     0.134 A 
ATOM     70  C   UNL A   1      39.037  29.252  27.883  1.00  0.00     0.134 A 
ATOM     71  F   UNL A   1      39.966  28.172  31.223  1.00  0.00    -0.206 F 
ATOM     72  C   UNL A   1      37.876  28.794  30.364  1.00  0.00     0.040 A 
ATOM     73  C   UNL A   1      37.671  29.475  28.067  1.00  0.00     0.040 A 
ATOM     74  F   UNL A   1      39.548  29.467  26.661  1.00  0.00    -0.206 F 
ATOM     75  C   UNL A   1      37.084  29.231  29.306  1.00  0.00     0.006 A 
ENDBRANCH  54  68
BRANCH  55  76
ATOM     76  C   UNL A   1      49.338  26.490  26.733  1.00  0.00     0.057 A 
ATOM     77  C   UNL A   1      50.216  25.896  27.647  1.00  0.00     0.134 A 
ATOM     78  C   UNL A   1      49.811  26.707  25.433  1.00  0.00     0.134 A 
ATOM     79  F   UNL A   1      49.825  25.674  28.911  1.00  0.00    -0.206 F 
ATOM     80  C   UNL A   1      51.515  25.538  27.287  1.00  0.00     0.040 A 
ATOM     81  C   UNL A   1      51.100  26.330  25.051  1.00  0.00     0.040 A 
ATOM     82  F   UNL A   1      49.014  27.258  24.506  1.00  0.00    -0.206 F 
ATOM     83  C   UNL A   1      51.958  25.747  25.981  1.00  0.00     0.006 A 
ENDBRANCH  55  76
BRANCH  67  84
ATOM     84  C   UNL A   1      46.218  32.229  29.191  1.00  0.00     0.057 A 
ATOM     85  C   UNL A   1      46.649  32.504  30.495  1.00  0.00     0.134 A 
ATOM     86  C   UNL A   1      46.334  33.253  28.242  1.00  0.00     0.134 A 
ATOM     87  F   UNL A   1      46.556  31.571  31.454  1.00  0.00    -0.206 F 
ATOM     88  C   UNL A   1      47.152  33.758  30.847  1.00  0.00     0.040 A 
ATOM     89  C   UNL A   1      46.865  34.500  28.574  1.00  0.00     0.040 A 
ATOM     90  F   UNL A   1      45.951  33.052  26.971  1.00  0.00    -0.206 F 
ATOM     91  C   UNL A   1      47.268  34.757  29.882  1.00  0.00     0.006 A 
ENDBRANCH  67  84
ENDBRANCH  41  42
ENDBRANCH  33  36
ENDBRANCH  31  32
ENDBRANCH  30  31
ENDBRANCH  29  30
ENDBRANCH   3  29
TORSDOF 17
ENDMDL
