MODEL 1
REMARK VINA RESULT:     -12.3      0.000      0.000
REMARK SMILES CC1(C)S[C@H](c2ccc(-c3ccccc3)o2)[NH2+][C@H]1C(=O)NCCCNC(=O)c1ccc(-c2c3nc(c(-c4c(F)cccc4F)c4ccc([nH]4)c(-c4c(F)cccc4F)c4nc(c(-c5c(F)cccc5F)c5ccc2[nH]5)C=C4)C=C3)cc1
REMARK SMILES IDX 23 1 22 2 21 3 19 4 20 5 18 7 1 8 2 9 3 10 4 11 5 12 17 13
REMARK SMILES IDX 6 16 7 17 16 18 8 19 9 20 10 21 11 22 15 23 12 24 14 25
REMARK SMILES IDX 13 26 24 27 25 28 26 29 27 31 28 32 29 33 81 34 30 35 80 36
REMARK SMILES IDX 31 37 32 38 33 39 74 40 34 41 79 42 73 43 75 44 35 45 78 46
REMARK SMILES IDX 72 47 71 48 36 50 62 51 45 52 61 53 46 54 49 55 60 56 76 57
REMARK SMILES IDX 47 58 48 59 59 61 77 62 50 63 37 64 38 65 43 66 39 67 40 68
REMARK SMILES IDX 42 69 44 70 41 71 63 72 64 73 69 74 65 75 66 76 68 77 70 78
REMARK SMILES IDX 67 79 51 80 52 81 57 82 53 83 54 84 56 85 58 86 55 87
REMARK H PARENT 21 6 17 14 17 15 25 30 75 49 49 60
REMARK Flexibility Score: inf
ROOT
ATOM      1  C   UNL A   1      33.746  28.609  27.199  1.00  0.00     0.042 C 
ENDROOT
BRANCH   1   2
ATOM      2  C   UNL A   1      32.707  29.319  26.332  1.00  0.00     0.118 C 
BRANCH   2   3
ATOM      3  N   UNL A   1      33.149  29.507  24.955  1.00  0.00    -0.351 N 
ATOM      4  C   UNL A   1      33.277  28.711  23.857  1.00  0.00     0.279 C 
ATOM      5  O   UNL A   1      33.794  29.256  22.873  1.00  0.00    -0.268 OA
ATOM      6  H   UNL A   1      33.422  30.436  24.776  1.00  0.00     0.163 HD
BRANCH   4   7
ATOM      7  C   UNL A   1      32.902  27.215  23.789  1.00  0.00     0.289 C 
ATOM      8  C   UNL A   1      30.624  27.829  22.652  1.00  0.00     0.030 C 
ATOM      9  C   UNL A   1      31.390  26.951  23.636  1.00  0.00     0.078 C 
ATOM     10  C   UNL A   1      30.680  26.981  24.996  1.00  0.00     0.030 C 
ATOM     11  S   UNL A   1      31.320  25.257  22.972  1.00  0.00    -0.078 SA
ATOM     12  C   UNL A   1      33.080  25.177  22.555  1.00  0.00     0.311 C 
ATOM     13  N   UNL A   1      33.726  26.461  22.822  1.00  0.00    -0.317 N 
ATOM     14  H   UNL A   1      33.807  26.991  21.954  1.00  0.00     0.348 HD
ATOM     15  H   UNL A   1      34.659  26.307  23.206  1.00  0.00     0.348 HD
BRANCH  12  16
ATOM     16  C   UNL A   1      33.705  23.995  23.220  1.00  0.00     0.172 A 
ATOM     17  C   UNL A   1      33.262  22.689  23.332  1.00  0.00     0.054 A 
ATOM     18  O   UNL A   1      34.903  24.133  23.871  1.00  0.00    -0.454 OA
ATOM     19  C   UNL A   1      34.243  21.989  24.063  1.00  0.00     0.051 A 
ATOM     20  C   UNL A   1      35.234  22.901  24.365  1.00  0.00     0.134 A 
BRANCH  20  21
ATOM     21  C   UNL A   1      36.502  22.779  25.064  1.00  0.00     0.017 A 
ATOM     22  C   UNL A   1      37.273  21.614  24.978  1.00  0.00     0.012 A 
ATOM     23  C   UNL A   1      36.998  23.865  25.801  1.00  0.00     0.012 A 
ATOM     24  C   UNL A   1      38.524  21.547  25.599  1.00  0.00     0.001 A 
ATOM     25  C   UNL A   1      38.240  23.794  26.432  1.00  0.00     0.001 A 
ATOM     26  C   UNL A   1      39.007  22.636  26.324  1.00  0.00     0.000 A 
ENDBRANCH  20  21
ENDBRANCH  12  16
ENDBRANCH   4   7
ENDBRANCH   2   3
ENDBRANCH   1   2
BRANCH   1  27
ATOM     27  C   UNL A   1      35.048  29.373  27.389  1.00  0.00     0.118 C 
BRANCH  27  28
ATOM     28  N   UNL A   1      35.085  30.093  28.651  1.00  0.00    -0.352 N 
ATOM     29  C   UNL A   1      36.111  30.247  29.553  1.00  0.00     0.251 C 
ATOM     30  H   UNL A   1      34.243  30.541  28.898  1.00  0.00     0.163 HD
ATOM     31  O   UNL A   1      35.868  30.710  30.665  1.00  0.00    -0.269 OA
BRANCH  29  32
ATOM     32  C   UNL A   1      37.500  29.847  29.218  1.00  0.00     0.039 A 
ATOM     33  C   UNL A   1      38.360  29.472  30.255  1.00  0.00     0.014 A 
ATOM     34  C   UNL A   1      37.985  29.897  27.908  1.00  0.00     0.014 A 
ATOM     35  C   UNL A   1      39.679  29.099  29.974  1.00  0.00     0.010 A 
ATOM     36  C   UNL A   1      39.271  29.443  27.617  1.00  0.00     0.010 A 
ATOM     37  C   UNL A   1      40.139  29.056  28.649  1.00  0.00    -0.014 A 
BRANCH  37  38
ATOM     38  C   UNL A   1      41.533  28.649  28.326  1.00  0.00     0.031 A 
ATOM     39  C   UNL A   1      41.842  27.219  27.968  1.00  0.00     0.074 A 
ATOM     40  C   UNL A   1      42.532  29.550  28.400  1.00  0.00     0.049 A 
ATOM     41  N   UNL A   1      42.999  26.658  27.723  1.00  0.00    -0.248 NA
ATOM     42  C   UNL A   1      40.701  26.292  27.904  1.00  0.00     0.031 C 
ATOM     43  C   UNL A   1      42.380  30.958  28.774  1.00  0.00     0.029 A 
ATOM     44  N   UNL A   1      43.879  29.412  28.169  1.00  0.00    -0.354 N 
ATOM     45  C   UNL A   1      42.728  25.313  27.499  1.00  0.00     0.074 A 
ATOM     46  C   UNL A   1      41.305  25.132  27.685  1.00  0.00     0.031 C 
ATOM     47  C   UNL A   1      43.580  31.558  28.721  1.00  0.00     0.029 A 
ATOM     48  C   UNL A   1      44.590  30.574  28.343  1.00  0.00     0.049 A 
ATOM     49  H   UNL A   1      44.295  28.561  27.904  1.00  0.00     0.167 HD
ATOM     50  C   UNL A   1      43.580  24.322  27.146  1.00  0.00     0.037 A 
ATOM     51  C   UNL A   1      45.908  30.820  28.215  1.00  0.00     0.037 A 
ATOM     52  C   UNL A   1      44.990  24.503  26.921  1.00  0.00     0.049 A 
ATOM     53  C   UNL A   1      46.832  29.706  27.810  1.00  0.00     0.074 A 
ATOM     54  C   UNL A   1      45.924  23.572  26.503  1.00  0.00     0.029 A 
ATOM     55  N   UNL A   1      45.666  25.702  27.088  1.00  0.00    -0.354 N 
ATOM     56  N   UNL A   1      46.552  28.452  27.553  1.00  0.00    -0.248 NA
ATOM     57  C   UNL A   1      48.257  30.044  27.675  1.00  0.00     0.031 C 
ATOM     58  C   UNL A   1      47.174  24.199  26.447  1.00  0.00     0.029 A 
ATOM     59  C   UNL A   1      47.010  25.531  26.794  1.00  0.00     0.049 A 
ATOM     60  H   UNL A   1      45.253  26.549  27.374  1.00  0.00     0.167 HD
ATOM     61  C   UNL A   1      47.757  27.858  27.202  1.00  0.00     0.074 A 
ATOM     62  C   UNL A   1      48.769  28.891  27.267  1.00  0.00     0.031 C 
ATOM     63  C   UNL A   1      48.002  26.571  26.855  1.00  0.00     0.037 A 
BRANCH  50  64
ATOM     64  C   UNL A   1      43.005  22.947  26.972  1.00  0.00     0.057 A 
ATOM     65  C   UNL A   1      42.795  22.393  25.702  1.00  0.00     0.134 A 
ATOM     66  C   UNL A   1      42.683  22.158  28.082  1.00  0.00     0.134 A 
ATOM     67  F   UNL A   1      43.071  23.102  24.596  1.00  0.00    -0.206 F 
ATOM     68  C   UNL A   1      42.262  21.113  25.543  1.00  0.00     0.040 A 
ATOM     69  C   UNL A   1      42.172  20.866  27.936  1.00  0.00     0.040 A 
ATOM     70  F   UNL A   1      42.864  22.625  29.327  1.00  0.00    -0.206 F 
ATOM     71  C   UNL A   1      41.954  20.343  26.664  1.00  0.00     0.006 A 
ENDBRANCH  50  64
BRANCH  51  72
ATOM     72  C   UNL A   1      46.432  32.189  28.441  1.00  0.00     0.057 A 
ATOM     73  C   UNL A   1      46.461  33.128  27.403  1.00  0.00     0.134 A 
ATOM     74  C   UNL A   1      46.919  32.591  29.691  1.00  0.00     0.134 A 
ATOM     75  F   UNL A   1      46.025  32.793  26.180  1.00  0.00    -0.206 F 
ATOM     76  C   UNL A   1      46.970  34.412  27.593  1.00  0.00     0.040 A 
ATOM     77  C   UNL A   1      47.412  33.880  29.901  1.00  0.00     0.040 A 
ATOM     78  F   UNL A   1      46.913  31.740  30.726  1.00  0.00    -0.206 F 
ATOM     79  C   UNL A   1      47.444  34.793  28.847  1.00  0.00     0.006 A 
ENDBRANCH  51  72
BRANCH  63  80
ATOM     80  C   UNL A   1      49.412  26.217  26.491  1.00  0.00     0.057 A 
ATOM     81  C   UNL A   1      49.927  26.463  25.212  1.00  0.00     0.134 A 
ATOM     82  C   UNL A   1      50.275  25.655  27.441  1.00  0.00     0.134 A 
ATOM     83  F   UNL A   1      49.146  26.987  24.255  1.00  0.00    -0.206 F 
ATOM     84  C   UNL A   1      51.247  26.144  24.884  1.00  0.00     0.040 A 
ATOM     85  C   UNL A   1      51.601  25.353  27.131  1.00  0.00     0.040 A 
ATOM     86  F   UNL A   1      49.845  25.401  28.685  1.00  0.00    -0.206 F 
ATOM     87  C   UNL A   1      52.089  25.594  25.849  1.00  0.00     0.006 A 
ENDBRANCH  63  80
ENDBRANCH  37  38
ENDBRANCH  29  32
ENDBRANCH  27  28
ENDBRANCH   1  27
TORSDOF 12
ENDMDL
MODEL 2
REMARK VINA RESULT:     -12.2      2.037      6.571
REMARK SMILES CC1(C)S[C@H](c2ccc(-c3ccccc3)o2)[NH2+][C@H]1C(=O)NCCCNC(=O)c1ccc(-c2c3nc(c(-c4c(F)cccc4F)c4ccc([nH]4)c(-c4c(F)cccc4F)c4nc(c(-c5c(F)cccc5F)c5ccc2[nH]5)C=C4)C=C3)cc1
REMARK SMILES IDX 23 1 22 2 21 3 19 4 20 5 18 7 1 8 2 9 3 10 4 11 5 12 17 13
REMARK SMILES IDX 6 16 7 17 16 18 8 19 9 20 10 21 11 22 15 23 12 24 14 25
REMARK SMILES IDX 13 26 24 27 25 28 26 29 27 31 28 32 29 33 81 34 30 35 80 36
REMARK SMILES IDX 31 37 32 38 33 39 74 40 34 41 79 42 73 43 75 44 35 45 78 46
REMARK SMILES IDX 72 47 71 48 36 50 62 51 45 52 61 53 46 54 49 55 60 56 76 57
REMARK SMILES IDX 47 58 48 59 59 61 77 62 50 63 37 64 38 65 43 66 39 67 40 68
REMARK SMILES IDX 42 69 44 70 41 71 63 72 64 73 69 74 65 75 66 76 68 77 70 78
REMARK SMILES IDX 67 79 51 80 52 81 57 82 53 83 54 84 56 85 58 86 55 87
REMARK H PARENT 21 6 17 14 17 15 25 30 75 49 49 60
REMARK Flexibility Score: inf
ROOT
ATOM      1  C   UNL A   1      34.243  28.504  25.914  1.00  0.00     0.042 C 
ENDROOT
BRANCH   1   2
ATOM      2  C   UNL A   1      33.398  29.393  25.003  1.00  0.00     0.118 C 
BRANCH   2   3
ATOM      3  N   UNL A   1      33.678  29.186  23.587  1.00  0.00    -0.351 N 
ATOM      4  C   UNL A   1      33.575  28.142  22.718  1.00  0.00     0.279 C 
ATOM      5  O   UNL A   1      34.019  28.361  21.583  1.00  0.00    -0.268 OA
ATOM      6  H   UNL A   1      34.027  29.999  23.154  1.00  0.00     0.163 HD
BRANCH   4   7
ATOM      7  C   UNL A   1      33.031  26.740  23.065  1.00  0.00     0.289 C 
ATOM      8  C   UNL A   1      30.635  27.472  22.301  1.00  0.00     0.030 C 
ATOM      9  C   UNL A   1      31.504  26.693  23.283  1.00  0.00     0.078 C 
ATOM     10  C   UNL A   1      31.134  27.100  24.715  1.00  0.00     0.030 C 
ATOM     11  S   UNL A   1      31.095  24.935  23.045  1.00  0.00    -0.078 SA
ATOM     12  C   UNL A   1      32.691  24.498  22.312  1.00  0.00     0.311 C 
ATOM     13  N   UNL A   1      33.520  25.692  22.147  1.00  0.00    -0.317 N 
ATOM     14  H   UNL A   1      33.458  26.022  21.184  1.00  0.00     0.348 HD
ATOM     15  H   UNL A   1      34.493  25.470  22.360  1.00  0.00     0.348 HD
BRANCH  12  16
ATOM     16  C   UNL A   1      33.317  23.385  23.086  1.00  0.00     0.172 A 
ATOM     17  C   UNL A   1      32.841  22.121  23.385  1.00  0.00     0.054 A 
ATOM     18  O   UNL A   1      34.555  23.558  23.649  1.00  0.00    -0.454 OA
ATOM     19  C   UNL A   1      33.841  21.481  24.145  1.00  0.00     0.051 A 
ATOM     20  C   UNL A   1      34.875  22.385  24.276  1.00  0.00     0.134 A 
BRANCH  20  21
ATOM     21  C   UNL A   1      36.178  22.303  24.916  1.00  0.00     0.017 A 
ATOM     22  C   UNL A   1      36.938  21.129  24.874  1.00  0.00     0.012 A 
ATOM     23  C   UNL A   1      36.716  23.435  25.546  1.00  0.00     0.012 A 
ATOM     24  C   UNL A   1      38.220  21.096  25.433  1.00  0.00     0.001 A 
ATOM     25  C   UNL A   1      37.990  23.399  26.115  1.00  0.00     0.001 A 
ATOM     26  C   UNL A   1      38.745  22.230  26.051  1.00  0.00     0.000 A 
ENDBRANCH  20  21
ENDBRANCH  12  16
ENDBRANCH   4   7
ENDBRANCH   2   3
ENDBRANCH   1   2
BRANCH   1  27
ATOM     27  C   UNL A   1      33.914  28.612  27.395  1.00  0.00     0.118 C 
BRANCH  27  28
ATOM     28  N   UNL A   1      33.841  29.991  27.845  1.00  0.00    -0.352 N 
ATOM     29  C   UNL A   1      34.764  30.752  28.523  1.00  0.00     0.251 C 
ATOM     30  H   UNL A   1      32.998  30.454  27.631  1.00  0.00     0.163 HD
ATOM     31  O   UNL A   1      34.418  31.828  29.004  1.00  0.00    -0.269 OA
BRANCH  29  32
ATOM     32  C   UNL A   1      36.162  30.289  28.705  1.00  0.00     0.039 A 
ATOM     33  C   UNL A   1      37.056  30.416  27.636  1.00  0.00     0.014 A 
ATOM     34  C   UNL A   1      36.587  29.675  29.886  1.00  0.00     0.014 A 
ATOM     35  C   UNL A   1      38.378  29.979  27.771  1.00  0.00     0.010 A 
ATOM     36  C   UNL A   1      37.926  29.320  30.051  1.00  0.00     0.010 A 
ATOM     37  C   UNL A   1      38.833  29.451  28.989  1.00  0.00    -0.014 A 
BRANCH  37  38
ATOM     38  C   UNL A   1      40.238  28.994  29.159  1.00  0.00     0.031 A 
ATOM     39  C   UNL A   1      41.264  29.909  29.774  1.00  0.00     0.074 A 
ATOM     40  C   UNL A   1      40.609  27.776  28.718  1.00  0.00     0.049 A 
ATOM     41  N   UNL A   1      42.549  29.719  29.944  1.00  0.00    -0.248 NA
ATOM     42  C   UNL A   1      40.787  31.223  30.235  1.00  0.00     0.031 C 
ATOM     43  C   UNL A   1      39.727  26.805  28.065  1.00  0.00     0.029 A 
ATOM     44  N   UNL A   1      41.830  27.148  28.746  1.00  0.00    -0.354 N 
ATOM     45  C   UNL A   1      43.033  30.893  30.508  1.00  0.00     0.074 A 
ATOM     46  C   UNL A   1      41.917  31.807  30.608  1.00  0.00     0.031 C 
ATOM     47  C   UNL A   1      40.430  25.697  27.781  1.00  0.00     0.029 A 
ATOM     48  C   UNL A   1      41.816  25.889  28.197  1.00  0.00     0.049 A 
ATOM     49  H   UNL A   1      42.638  27.562  29.124  1.00  0.00     0.167 HD
ATOM     50  C   UNL A   1      44.289  31.177  30.929  1.00  0.00     0.037 A 
ATOM     51  C   UNL A   1      42.807  24.991  28.045  1.00  0.00     0.037 A 
ATOM     52  C   UNL A   1      45.394  30.259  30.869  1.00  0.00     0.049 A 
ATOM     53  C   UNL A   1      44.189  25.326  28.532  1.00  0.00     0.074 A 
ATOM     54  C   UNL A   1      46.689  30.435  31.325  1.00  0.00     0.029 A 
ATOM     55  N   UNL A   1      45.332  28.985  30.325  1.00  0.00    -0.354 N 
ATOM     56  N   UNL A   1      44.619  26.420  29.109  1.00  0.00    -0.248 NA
ATOM     57  C   UNL A   1      45.222  24.295  28.349  1.00  0.00     0.031 C 
ATOM     58  C   UNL A   1      47.419  29.279  31.029  1.00  0.00     0.029 A 
ATOM     59  C   UNL A   1      46.569  28.369  30.422  1.00  0.00     0.049 A 
ATOM     60  H   UNL A   1      44.527  28.579  29.928  1.00  0.00     0.167 HD
ATOM     61  C   UNL A   1      45.964  26.203  29.380  1.00  0.00     0.074 A 
ATOM     62  C   UNL A   1      46.276  24.868  28.915  1.00  0.00     0.031 C 
ATOM     63  C   UNL A   1      46.860  27.036  29.963  1.00  0.00     0.037 A 
BRANCH  50  64
ATOM     64  C   UNL A   1      44.531  32.543  31.503  1.00  0.00     0.057 A 
ATOM     65  C   UNL A   1      44.929  33.619  30.698  1.00  0.00     0.134 A 
ATOM     66  C   UNL A   1      44.338  32.793  32.866  1.00  0.00     0.134 A 
ATOM     67  F   UNL A   1      45.143  33.443  29.385  1.00  0.00    -0.206 F 
ATOM     68  C   UNL A   1      45.151  34.888  31.234  1.00  0.00     0.040 A 
ATOM     69  C   UNL A   1      44.533  34.064  33.410  1.00  0.00     0.040 A 
ATOM     70  F   UNL A   1      43.952  31.808  33.692  1.00  0.00    -0.206 F 
ATOM     71  C   UNL A   1      44.947  35.115  32.594  1.00  0.00     0.006 A 
ENDBRANCH  50  64
BRANCH  51  72
ATOM     72  C   UNL A   1      42.523  23.671  27.432  1.00  0.00     0.057 A 
ATOM     73  C   UNL A   1      42.196  22.565  28.225  1.00  0.00     0.134 A 
ATOM     74  C   UNL A   1      42.577  23.479  26.046  1.00  0.00     0.134 A 
ATOM     75  F   UNL A   1      42.148  22.684  29.560  1.00  0.00    -0.206 F 
ATOM     76  C   UNL A   1      41.947  21.312  27.665  1.00  0.00     0.040 A 
ATOM     77  C   UNL A   1      42.310  22.236  25.471  1.00  0.00     0.040 A 
ATOM     78  F   UNL A   1      42.879  24.501  25.232  1.00  0.00    -0.206 F 
ATOM     79  C   UNL A   1      41.999  21.146  26.283  1.00  0.00     0.006 A 
ENDBRANCH  51  72
BRANCH  63  80
ATOM     80  C   UNL A   1      48.252  26.517  30.158  1.00  0.00     0.057 A 
ATOM     81  C   UNL A   1      48.617  25.797  31.303  1.00  0.00     0.134 A 
ATOM     82  C   UNL A   1      49.230  26.708  29.173  1.00  0.00     0.134 A 
ATOM     83  F   UNL A   1      47.729  25.593  32.288  1.00  0.00    -0.206 F 
ATOM     84  C   UNL A   1      49.912  25.303  31.471  1.00  0.00     0.040 A 
ATOM     85  C   UNL A   1      50.521  26.199  29.319  1.00  0.00     0.040 A 
ATOM     86  F   UNL A   1      48.942  27.382  28.051  1.00  0.00    -0.206 F 
ATOM     87  C   UNL A   1      50.865  25.498  30.473  1.00  0.00     0.006 A 
ENDBRANCH  63  80
ENDBRANCH  37  38
ENDBRANCH  29  32
ENDBRANCH  27  28
ENDBRANCH   1  27
TORSDOF 12
ENDMDL
MODEL 3
REMARK VINA RESULT:     -12.0      4.123      9.174
REMARK SMILES CC1(C)S[C@H](c2ccc(-c3ccccc3)o2)[NH2+][C@H]1C(=O)NCCCNC(=O)c1ccc(-c2c3nc(c(-c4c(F)cccc4F)c4ccc([nH]4)c(-c4c(F)cccc4F)c4nc(c(-c5c(F)cccc5F)c5ccc2[nH]5)C=C4)C=C3)cc1
REMARK SMILES IDX 23 1 22 2 21 3 19 4 20 5 18 7 1 8 2 9 3 10 4 11 5 12 17 13
REMARK SMILES IDX 6 16 7 17 16 18 8 19 9 20 10 21 11 22 15 23 12 24 14 25
REMARK SMILES IDX 13 26 24 27 25 28 26 29 27 31 28 32 29 33 81 34 30 35 80 36
REMARK SMILES IDX 31 37 32 38 33 39 74 40 34 41 79 42 73 43 75 44 35 45 78 46
REMARK SMILES IDX 72 47 71 48 36 50 62 51 45 52 61 53 46 54 49 55 60 56 76 57
REMARK SMILES IDX 47 58 48 59 59 61 77 62 50 63 37 64 38 65 43 66 39 67 40 68
REMARK SMILES IDX 42 69 44 70 41 71 63 72 64 73 69 74 65 75 66 76 68 77 70 78
REMARK SMILES IDX 67 79 51 80 52 81 57 82 53 83 54 84 56 85 58 86 55 87
REMARK H PARENT 21 6 17 14 17 15 25 30 75 49 49 60
REMARK Flexibility Score: inf
ROOT
ATOM      1  C   UNL A   1      34.836  33.295  29.903  1.00  0.00     0.042 C 
ENDROOT
BRANCH   1   2
ATOM      2  C   UNL A   1      34.826  32.181  30.947  1.00  0.00     0.118 C 
BRANCH   2   3
ATOM      3  N   UNL A   1      34.792  32.684  32.315  1.00  0.00    -0.351 N 
ATOM      4  C   UNL A   1      35.687  32.786  33.337  1.00  0.00     0.279 C 
ATOM      5  O   UNL A   1      35.218  33.203  34.404  1.00  0.00    -0.268 OA
ATOM      6  H   UNL A   1      33.905  33.036  32.560  1.00  0.00     0.163 HD
BRANCH   4   7
ATOM      7  C   UNL A   1      37.170  32.361  33.272  1.00  0.00     0.289 C 
ATOM      8  C   UNL A   1      37.898  34.765  34.014  1.00  0.00     0.030 C 
ATOM      9  C   UNL A   1      38.157  33.540  33.143  1.00  0.00     0.078 C 
ATOM     10  C   UNL A   1      38.306  33.983  31.683  1.00  0.00     0.030 C 
ATOM     11  S   UNL A   1      39.737  32.833  33.710  1.00  0.00    -0.078 SA
ATOM     12  C   UNL A   1      38.997  31.345  34.427  1.00  0.00     0.311 C 
ATOM     13  N   UNL A   1      37.539  31.405  34.335  1.00  0.00    -0.317 N 
ATOM     14  H   UNL A   1      37.153  31.716  35.226  1.00  0.00     0.348 HD
ATOM     15  H   UNL A   1      37.167  30.480  34.116  1.00  0.00     0.348 HD
BRANCH  12  16
ATOM     16  C   UNL A   1      39.627  30.129  33.832  1.00  0.00     0.172 A 
ATOM     17  C   UNL A   1      39.084  29.135  33.036  1.00  0.00     0.054 A 
ATOM     18  O   UNL A   1      40.948  29.856  34.074  1.00  0.00    -0.454 OA
ATOM     19  C   UNL A   1      40.125  28.225  32.759  1.00  0.00     0.051 A 
ATOM     20  C   UNL A   1      41.248  28.704  33.400  1.00  0.00     0.134 A 
BRANCH  20  21
ATOM     21  C   UNL A   1      42.621  28.230  33.465  1.00  0.00     0.017 A 
ATOM     22  C   UNL A   1      43.576  28.868  34.264  1.00  0.00     0.012 A 
ATOM     23  C   UNL A   1      42.993  27.077  32.758  1.00  0.00     0.012 A 
ATOM     24  C   UNL A   1      44.871  28.351  34.369  1.00  0.00     0.001 A 
ATOM     25  C   UNL A   1      44.288  26.567  32.851  1.00  0.00     0.001 A 
ATOM     26  C   UNL A   1      45.225  27.201  33.664  1.00  0.00     0.000 A 
ENDBRANCH  20  21
ENDBRANCH  12  16
ENDBRANCH   4   7
ENDBRANCH   2   3
ENDBRANCH   1   2
BRANCH   1  27
ATOM     27  C   UNL A   1      34.942  32.818  28.462  1.00  0.00     0.118 C 
BRANCH  27  28
ATOM     28  N   UNL A   1      34.190  31.597  28.228  1.00  0.00    -0.352 N 
ATOM     29  C   UNL A   1      34.631  30.311  28.025  1.00  0.00     0.251 C 
ATOM     30  H   UNL A   1      33.212  31.709  28.212  1.00  0.00     0.163 HD
ATOM     31  O   UNL A   1      33.838  29.462  27.625  1.00  0.00    -0.269 OA
BRANCH  29  32
ATOM     32  C   UNL A   1      36.047  29.934  28.259  1.00  0.00     0.039 A 
ATOM     33  C   UNL A   1      36.403  29.392  29.498  1.00  0.00     0.014 A 
ATOM     34  C   UNL A   1      37.038  30.164  27.300  1.00  0.00     0.014 A 
ATOM     35  C   UNL A   1      37.731  29.037  29.754  1.00  0.00     0.010 A 
ATOM     36  C   UNL A   1      38.344  29.730  27.522  1.00  0.00     0.010 A 
ATOM     37  C   UNL A   1      38.710  29.177  28.759  1.00  0.00    -0.014 A 
BRANCH  37  38
ATOM     38  C   UNL A   1      40.125  28.792  29.005  1.00  0.00     0.031 A 
ATOM     39  C   UNL A   1      41.064  29.750  29.690  1.00  0.00     0.074 A 
ATOM     40  C   UNL A   1      40.585  27.602  28.571  1.00  0.00     0.049 A 
ATOM     41  N   UNL A   1      42.345  29.625  29.933  1.00  0.00    -0.248 NA
ATOM     42  C   UNL A   1      40.492  31.029  30.140  1.00  0.00     0.031 C 
ATOM     43  C   UNL A   1      39.796  26.597  27.856  1.00  0.00     0.029 A 
ATOM     44  N   UNL A   1      41.835  27.039  28.663  1.00  0.00    -0.354 N 
ATOM     45  C   UNL A   1      42.733  30.814  30.539  1.00  0.00     0.074 A 
ATOM     46  C   UNL A   1      41.565  31.666  30.585  1.00  0.00     0.031 C 
ATOM     47  C   UNL A   1      40.572  25.531  27.599  1.00  0.00     0.029 A 
ATOM     48  C   UNL A   1      41.919  25.789  28.099  1.00  0.00     0.049 A 
ATOM     49  H   UNL A   1      42.597  27.488  29.092  1.00  0.00     0.167 HD
ATOM     50  C   UNL A   1      43.945  31.157  31.036  1.00  0.00     0.037 A 
ATOM     51  C   UNL A   1      42.964  24.947  27.993  1.00  0.00     0.037 A 
ATOM     52  C   UNL A   1      45.099  30.298  31.030  1.00  0.00     0.049 A 
ATOM     53  C   UNL A   1      44.296  25.346  28.565  1.00  0.00     0.074 A 
ATOM     54  C   UNL A   1      46.354  30.535  31.563  1.00  0.00     0.029 A 
ATOM     55  N   UNL A   1      45.136  29.032  30.467  1.00  0.00    -0.354 N 
ATOM     56  N   UNL A   1      44.633  26.452  29.179  1.00  0.00    -0.248 NA
ATOM     57  C   UNL A   1      45.392  24.374  28.429  1.00  0.00     0.031 C 
ATOM     58  C   UNL A   1      47.161  29.424  31.296  1.00  0.00     0.029 A 
ATOM     59  C   UNL A   1      46.397  28.480  30.629  1.00  0.00     0.049 A 
ATOM     60  H   UNL A   1      44.379  28.590  30.019  1.00  0.00     0.167 HD
ATOM     61  C   UNL A   1      45.970  26.302  29.526  1.00  0.00     0.074 A 
ATOM     62  C   UNL A   1      46.378  24.992  29.064  1.00  0.00     0.031 C 
ATOM     63  C   UNL A   1      46.785  27.172  30.171  1.00  0.00     0.037 A 
BRANCH  50  64
ATOM     64  C   UNL A   1      44.080  32.524  31.641  1.00  0.00     0.057 A 
ATOM     65  C   UNL A   1      44.532  33.618  30.890  1.00  0.00     0.134 A 
ATOM     66  C   UNL A   1      43.731  32.756  32.976  1.00  0.00     0.134 A 
ATOM     67  F   UNL A   1      44.895  33.460  29.608  1.00  0.00    -0.206 F 
ATOM     68  C   UNL A   1      44.654  34.889  31.454  1.00  0.00     0.040 A 
ATOM     69  C   UNL A   1      43.826  34.028  33.544  1.00  0.00     0.040 A 
ATOM     70  F   UNL A   1      43.286  31.754  33.749  1.00  0.00    -0.206 F 
ATOM     71  C   UNL A   1      44.295  35.097  32.784  1.00  0.00     0.006 A 
ENDBRANCH  50  64
BRANCH  51  72
ATOM     72  C   UNL A   1      42.787  23.623  27.348  1.00  0.00     0.057 A 
ATOM     73  C   UNL A   1      42.415  22.502  28.098  1.00  0.00     0.134 A 
ATOM     74  C   UNL A   1      42.989  23.444  25.974  1.00  0.00     0.134 A 
ATOM     75  F   UNL A   1      42.225  22.609  29.421  1.00  0.00    -0.206 F 
ATOM     76  C   UNL A   1      42.265  21.246  27.510  1.00  0.00     0.040 A 
ATOM     77  C   UNL A   1      42.823  22.198  25.369  1.00  0.00     0.040 A 
ATOM     78  F   UNL A   1      43.342  24.481  25.201  1.00  0.00    -0.206 F 
ATOM     79  C   UNL A   1      42.465  21.092  26.139  1.00  0.00     0.006 A 
ENDBRANCH  51  72
BRANCH  63  80
ATOM     80  C   UNL A   1      48.189  26.723  30.440  1.00  0.00     0.057 A 
ATOM     81  C   UNL A   1      48.502  25.893  31.524  1.00  0.00     0.134 A 
ATOM     82  C   UNL A   1      49.234  27.096  29.586  1.00  0.00     0.134 A 
ATOM     83  F   UNL A   1      47.547  25.512  32.387  1.00  0.00    -0.206 F 
ATOM     84  C   UNL A   1      49.811  25.466  31.761  1.00  0.00     0.040 A 
ATOM     85  C   UNL A   1      50.541  26.658  29.799  1.00  0.00     0.040 A 
ATOM     86  F   UNL A   1      48.998  27.883  28.526  1.00  0.00    -0.206 F 
ATOM     87  C   UNL A   1      50.833  25.844  30.891  1.00  0.00     0.006 A 
ENDBRANCH  63  80
ENDBRANCH  37  38
ENDBRANCH  29  32
ENDBRANCH  27  28
ENDBRANCH   1  27
TORSDOF 12
ENDMDL
