MODEL 1
REMARK VINA RESULT:     -12.0      0.000      0.000
REMARK SMILES Cc1ccc(C(=O)NCCCNC(=O)c2ccc(-c3c4nc(c(-c5c(F)cccc5F)c5ccc([nH]5)c(-c5c(F)cccc5F)c5nc(c(-c6c(F)cccc6F)c6ccc3[nH]6)C=C5)C=C4)cc2)cc1S(=O)(=O)N(CC1CC1)C(C)C
REMARK SMILES IDX 9 1 8 2 6 3 7 4 5 6 1 7 2 8 3 9 70 10 4 11 69 12 71 13 72 14
REMARK SMILES IDX 73 15 74 16 75 17 76 18 77 19 78 20 79 21 80 22 81 23 10 24
REMARK SMILES IDX 11 25 12 26 13 27 14 29 15 30 16 31 68 32 17 33 67 34 18 35
REMARK SMILES IDX 19 36 20 37 61 38 21 39 66 40 60 41 62 42 22 43 65 44 59 45
REMARK SMILES IDX 58 46 23 48 49 49 32 50 48 51 33 52 36 53 47 54 63 55 34 56
REMARK SMILES IDX 35 57 46 59 64 60 37 61 24 62 25 63 30 64 26 65 27 66 29 67
REMARK SMILES IDX 31 68 28 69 50 70 51 71 56 72 52 73 53 74 55 75 57 76 54 77
REMARK SMILES IDX 38 78 39 79 44 80 40 81 41 82 43 83 45 84 42 85
REMARK H PARENT 8 5 12 28 62 47 36 58
REMARK Flexibility Score: inf
ROOT
ATOM      1  C   UNL A   1      37.634  21.698  25.651  1.00  0.00     0.118 C 
ENDROOT
BRANCH   1   2
ATOM      2  N   UNL A   1      37.331  22.242  24.328  1.00  0.00    -0.352 N 
ATOM      3  C   UNL A   1      36.168  22.735  23.769  1.00  0.00     0.251 C 
ATOM      4  O   UNL A   1      36.242  23.249  22.652  1.00  0.00    -0.269 OA
ATOM      5  H   UNL A   1      38.103  22.260  23.719  1.00  0.00     0.163 HD
BRANCH   3   6
ATOM      6  C   UNL A   1      34.847  22.718  24.464  1.00  0.00     0.041 A 
ATOM      7  C   UNL A   1      30.758  22.577  25.911  1.00  0.00     0.046 C 
ATOM      8  C   UNL A   1      32.196  22.688  25.508  1.00  0.00    -0.031 A 
ATOM      9  C   UNL A   1      32.837  21.505  25.076  1.00  0.00     0.005 A 
ATOM     10  C   UNL A   1      32.951  23.865  25.518  1.00  0.00     0.086 A 
ATOM     11  C   UNL A   1      34.132  21.523  24.538  1.00  0.00     0.014 A 
ATOM     12  C   UNL A   1      34.274  23.843  25.040  1.00  0.00     0.035 A 
BRANCH  10  13
ATOM     13  S   UNL A   1      32.335  25.537  25.735  1.00  0.00     0.243 S 
ATOM     14  O   UNL A   1      31.478  25.536  26.886  1.00  0.00    -0.207 OA
ATOM     15  O   UNL A   1      33.568  26.320  25.773  1.00  0.00    -0.207 OA
BRANCH  13  16
ATOM     16  N   UNL A   1      31.417  26.005  24.401  1.00  0.00    -0.195 NA
BRANCH  16  17
ATOM     17  C   UNL A   1      31.232  25.097  23.240  1.00  0.00     0.106 C 
BRANCH  17  18
ATOM     18  C   UNL A   1      32.068  25.306  22.011  1.00  0.00     0.004 C 
ATOM     19  C   UNL A   1      33.556  25.568  21.932  1.00  0.00     0.005 C 
ATOM     20  C   UNL A   1      33.037  24.196  21.641  1.00  0.00     0.005 C 
ENDBRANCH  17  18
ENDBRANCH  16  17
BRANCH  16  21
ATOM     21  C   UNL A   1      30.250  26.947  24.605  1.00  0.00     0.067 C 
ATOM     22  C   UNL A   1      30.471  28.312  23.963  1.00  0.00     0.025 C 
ATOM     23  C   UNL A   1      28.899  26.391  24.155  1.00  0.00     0.025 C 
ENDBRANCH  16  21
ENDBRANCH  13  16
ENDBRANCH  10  13
ENDBRANCH   3   6
ENDBRANCH   1   2
BRANCH   1  24
ATOM     24  C   UNL A   1      39.134  21.722  25.960  1.00  0.00     0.042 C 
BRANCH  24  25
ATOM     25  C   UNL A   1      39.598  22.951  26.715  1.00  0.00     0.118 C 
BRANCH  25  26
ATOM     26  N   UNL A   1      40.977  23.346  26.445  1.00  0.00    -0.352 N 
ATOM     27  C   UNL A   1      41.487  24.632  26.429  1.00  0.00     0.251 C 
ATOM     28  H   UNL A   1      41.612  22.619  26.253  1.00  0.00     0.163 HD
ATOM     29  O   UNL A   1      42.671  24.848  26.204  1.00  0.00    -0.269 OA
BRANCH  27  30
ATOM     30  C   UNL A   1      40.578  25.735  26.815  1.00  0.00     0.039 A 
ATOM     31  C   UNL A   1      40.810  26.989  26.246  1.00  0.00     0.014 A 
ATOM     32  C   UNL A   1      39.745  25.593  27.925  1.00  0.00     0.014 A 
ATOM     33  C   UNL A   1      40.415  28.125  26.944  1.00  0.00     0.010 A 
ATOM     34  C   UNL A   1      39.423  26.722  28.659  1.00  0.00     0.010 A 
ATOM     35  C   UNL A   1      39.823  27.982  28.204  1.00  0.00    -0.014 A 
BRANCH  35  36
ATOM     36  C   UNL A   1      39.719  29.100  29.136  1.00  0.00     0.031 A 
ATOM     37  C   UNL A   1      38.657  30.111  28.981  1.00  0.00     0.074 A 
ATOM     38  C   UNL A   1      40.636  29.273  30.115  1.00  0.00     0.049 A 
ATOM     39  N   UNL A   1      38.836  31.377  29.171  1.00  0.00    -0.248 NA
ATOM     40  C   UNL A   1      37.305  29.764  28.568  1.00  0.00     0.031 C 
ATOM     41  C   UNL A   1      40.596  30.263  31.188  1.00  0.00     0.029 A 
ATOM     42  N   UNL A   1      41.913  28.708  30.205  1.00  0.00    -0.354 N 
ATOM     43  C   UNL A   1      37.597  31.971  29.169  1.00  0.00     0.074 A 
ATOM     44  C   UNL A   1      36.685  30.938  28.720  1.00  0.00     0.031 C 
ATOM     45  C   UNL A   1      41.842  30.451  31.649  1.00  0.00     0.029 A 
ATOM     46  C   UNL A   1      42.742  29.667  30.823  1.00  0.00     0.049 A 
ATOM     47  H   UNL A   1      42.181  27.813  29.895  1.00  0.00     0.167 HD
ATOM     48  C   UNL A   1      37.434  33.224  29.683  1.00  0.00     0.037 A 
ATOM     49  C   UNL A   1      43.877  30.129  30.226  1.00  0.00     0.037 A 
ATOM     50  C   UNL A   1      38.679  33.754  30.230  1.00  0.00     0.049 A 
ATOM     51  C   UNL A   1      43.880  31.617  29.975  1.00  0.00     0.074 A 
ATOM     52  C   UNL A   1      39.179  33.779  31.523  1.00  0.00     0.029 A 
ATOM     53  N   UNL A   1      39.737  34.088  29.392  1.00  0.00    -0.354 N 
ATOM     54  N   UNL A   1      42.821  32.369  30.066  1.00  0.00    -0.248 NA
ATOM     55  C   UNL A   1      45.058  32.361  29.531  1.00  0.00     0.031 C 
ATOM     56  C   UNL A   1      40.553  34.102  31.461  1.00  0.00     0.029 A 
ATOM     57  C   UNL A   1      40.892  34.275  30.132  1.00  0.00     0.049 A 
ATOM     58  H   UNL A   1      39.675  34.178  28.415  1.00  0.00     0.167 HD
ATOM     59  C   UNL A   1      43.122  33.631  29.624  1.00  0.00     0.074 A 
ATOM     60  C   UNL A   1      44.544  33.590  29.346  1.00  0.00     0.031 C 
ATOM     61  C   UNL A   1      42.159  34.590  29.491  1.00  0.00     0.037 A 
BRANCH  48  62
ATOM     62  C   UNL A   1      36.072  33.803  29.992  1.00  0.00     0.057 A 
ATOM     63  C   UNL A   1      35.231  34.291  28.974  1.00  0.00     0.134 A 
ATOM     64  C   UNL A   1      35.557  33.948  31.291  1.00  0.00     0.134 A 
ATOM     65  F   UNL A   1      35.509  34.111  27.676  1.00  0.00    -0.206 F 
ATOM     66  C   UNL A   1      34.051  35.000  29.235  1.00  0.00     0.040 A 
ATOM     67  C   UNL A   1      34.406  34.698  31.572  1.00  0.00     0.040 A 
ATOM     68  F   UNL A   1      36.133  33.341  32.338  1.00  0.00    -0.206 F 
ATOM     69  C   UNL A   1      33.659  35.247  30.540  1.00  0.00     0.006 A 
ENDBRANCH  48  62
BRANCH  49  70
ATOM     70  C   UNL A   1      44.523  29.126  29.345  1.00  0.00     0.057 A 
ATOM     71  C   UNL A   1      45.331  28.139  29.934  1.00  0.00     0.134 A 
ATOM     72  C   UNL A   1      44.059  28.887  28.049  1.00  0.00     0.134 A 
ATOM     73  F   UNL A   1      45.812  28.314  31.175  1.00  0.00    -0.206 F 
ATOM     74  C   UNL A   1      45.565  26.912  29.311  1.00  0.00     0.040 A 
ATOM     75  C   UNL A   1      44.294  27.664  27.413  1.00  0.00     0.040 A 
ATOM     76  F   UNL A   1      43.273  29.779  27.429  1.00  0.00    -0.206 F 
ATOM     77  C   UNL A   1      45.010  26.658  28.061  1.00  0.00     0.006 A 
ENDBRANCH  49  70
BRANCH  61  78
ATOM     78  C   UNL A   1      42.348  35.935  28.838  1.00  0.00     0.057 A 
ATOM     79  C   UNL A   1      41.785  36.297  27.606  1.00  0.00     0.134 A 
ATOM     80  C   UNL A   1      43.022  36.971  29.519  1.00  0.00     0.134 A 
ATOM     81  F   UNL A   1      41.021  35.446  26.907  1.00  0.00    -0.206 F 
ATOM     82  C   UNL A   1      41.940  37.578  27.056  1.00  0.00     0.040 A 
ATOM     83  C   UNL A   1      43.142  38.265  29.004  1.00  0.00     0.040 A 
ATOM     84  F   UNL A   1      43.579  36.773  30.723  1.00  0.00    -0.206 F 
ATOM     85  C   UNL A   1      42.615  38.568  27.759  1.00  0.00     0.006 A 
ENDBRANCH  61  78
ENDBRANCH  35  36
ENDBRANCH  27  30
ENDBRANCH  25  26
ENDBRANCH  24  25
ENDBRANCH   1  24
TORSDOF 15
ENDMDL
MODEL 2
REMARK VINA RESULT:     -11.9      3.525      9.252
REMARK SMILES Cc1ccc(C(=O)NCCCNC(=O)c2ccc(-c3c4nc(c(-c5c(F)cccc5F)c5ccc([nH]5)c(-c5c(F)cccc5F)c5nc(c(-c6c(F)cccc6F)c6ccc3[nH]6)C=C5)C=C4)cc2)cc1S(=O)(=O)N(CC1CC1)C(C)C
REMARK SMILES IDX 9 1 8 2 6 3 7 4 5 6 1 7 2 8 3 9 70 10 4 11 69 12 71 13 72 14
REMARK SMILES IDX 73 15 74 16 75 17 76 18 77 19 78 20 79 21 80 22 81 23 10 24
REMARK SMILES IDX 11 25 12 26 13 27 14 29 15 30 16 31 68 32 17 33 67 34 18 35
REMARK SMILES IDX 19 36 20 37 61 38 21 39 66 40 60 41 62 42 22 43 65 44 59 45
REMARK SMILES IDX 58 46 23 48 49 49 32 50 48 51 33 52 36 53 47 54 63 55 34 56
REMARK SMILES IDX 35 57 46 59 64 60 37 61 24 62 25 63 30 64 26 65 27 66 29 67
REMARK SMILES IDX 31 68 28 69 50 70 51 71 56 72 52 73 53 74 55 75 57 76 54 77
REMARK SMILES IDX 38 78 39 79 44 80 40 81 41 82 43 83 45 84 42 85
REMARK H PARENT 8 5 12 28 62 47 36 58
REMARK Flexibility Score: inf
ROOT
ATOM      1  C   UNL A   1      34.020  29.278  27.167  1.00  0.00     0.118 C 
ENDROOT
BRANCH   1   2
ATOM      2  N   UNL A   1      34.142  29.194  25.712  1.00  0.00    -0.352 N 
ATOM      3  C   UNL A   1      33.786  28.217  24.804  1.00  0.00     0.251 C 
ATOM      4  O   UNL A   1      33.900  28.479  23.605  1.00  0.00    -0.269 OA
ATOM      5  H   UNL A   1      34.558  29.985  25.302  1.00  0.00     0.163 HD
BRANCH   3   6
ATOM      6  C   UNL A   1      33.231  26.888  25.196  1.00  0.00     0.041 A 
ATOM      7  C   UNL A   1      31.554  23.273  26.915  1.00  0.00     0.046 C 
ATOM      8  C   UNL A   1      32.182  24.453  26.239  1.00  0.00    -0.031 A 
ATOM      9  C   UNL A   1      31.358  25.578  26.009  1.00  0.00     0.005 A 
ATOM     10  C   UNL A   1      33.515  24.534  25.826  1.00  0.00     0.086 A 
ATOM     11  C   UNL A   1      31.878  26.785  25.520  1.00  0.00     0.014 A 
ATOM     12  C   UNL A   1      33.997  25.733  25.271  1.00  0.00     0.035 A 
BRANCH  10  13
ATOM     13  S   UNL A   1      34.841  23.397  26.240  1.00  0.00     0.243 S 
ATOM     14  O   UNL A   1      36.081  24.095  26.063  1.00  0.00    -0.207 OA
ATOM     15  O   UNL A   1      34.463  22.954  27.581  1.00  0.00    -0.207 OA
BRANCH  13  16
ATOM     16  N   UNL A   1      34.832  22.075  25.193  1.00  0.00    -0.195 NA
BRANCH  16  17
ATOM     17  C   UNL A   1      34.222  22.170  23.843  1.00  0.00     0.106 C 
BRANCH  17  18
ATOM     18  C   UNL A   1      32.763  21.858  23.677  1.00  0.00     0.004 C 
ATOM     19  C   UNL A   1      32.047  21.402  22.425  1.00  0.00     0.005 C 
ATOM     20  C   UNL A   1      32.388  20.400  23.480  1.00  0.00     0.005 C 
ENDBRANCH  17  18
ENDBRANCH  16  17
BRANCH  16  21
ATOM     21  C   UNL A   1      35.968  21.076  25.259  1.00  0.00     0.067 C 
ATOM     22  C   UNL A   1      35.525  19.653  24.942  1.00  0.00     0.025 C 
ATOM     23  C   UNL A   1      37.178  21.433  24.396  1.00  0.00     0.025 C 
ENDBRANCH  16  21
ENDBRANCH  13  16
ENDBRANCH  10  13
ENDBRANCH   3   6
ENDBRANCH   1   2
BRANCH   1  24
ATOM     24  C   UNL A   1      34.035  30.725  27.670  1.00  0.00     0.042 C 
BRANCH  24  25
ATOM     25  C   UNL A   1      35.418  31.335  27.777  1.00  0.00     0.118 C 
BRANCH  25  26
ATOM     26  N   UNL A   1      35.809  31.720  29.128  1.00  0.00    -0.352 N 
ATOM     27  C   UNL A   1      36.618  31.009  29.997  1.00  0.00     0.251 C 
ATOM     28  H   UNL A   1      35.460  32.579  29.459  1.00  0.00     0.163 HD
ATOM     29  O   UNL A   1      36.895  31.437  31.109  1.00  0.00    -0.269 OA
BRANCH  27  30
ATOM     30  C   UNL A   1      37.240  29.765  29.490  1.00  0.00     0.039 A 
ATOM     31  C   UNL A   1      37.589  28.791  30.427  1.00  0.00     0.014 A 
ATOM     32  C   UNL A   1      37.735  29.717  28.186  1.00  0.00     0.014 A 
ATOM     33  C   UNL A   1      38.633  27.920  30.133  1.00  0.00     0.010 A 
ATOM     34  C   UNL A   1      38.826  28.905  27.923  1.00  0.00     0.010 A 
ATOM     35  C   UNL A   1      39.319  28.061  28.922  1.00  0.00    -0.014 A 
BRANCH  35  36
ATOM     36  C   UNL A   1      40.625  27.447  28.702  1.00  0.00     0.031 A 
ATOM     37  C   UNL A   1      40.735  26.014  28.373  1.00  0.00     0.074 A 
ATOM     38  C   UNL A   1      41.762  28.159  28.868  1.00  0.00     0.049 A 
ATOM     39  N   UNL A   1      41.654  25.236  28.843  1.00  0.00    -0.248 NA
ATOM     40  C   UNL A   1      39.786  25.340  27.498  1.00  0.00     0.031 C 
ATOM     41  C   UNL A   1      43.122  27.721  28.568  1.00  0.00     0.029 A 
ATOM     42  N   UNL A   1      41.925  29.369  29.551  1.00  0.00    -0.354 N 
ATOM     43  C   UNL A   1      41.586  24.053  28.147  1.00  0.00     0.074 A 
ATOM     44  C   UNL A   1      40.365  24.142  27.372  1.00  0.00     0.031 C 
ATOM     45  C   UNL A   1      43.982  28.464  29.281  1.00  0.00     0.029 A 
ATOM     46  C   UNL A   1      43.205  29.337  30.141  1.00  0.00     0.049 A 
ATOM     47  H   UNL A   1      41.271  30.102  29.609  1.00  0.00     0.167 HD
ATOM     48  C   UNL A   1      42.632  23.178  28.175  1.00  0.00     0.037 A 
ATOM     49  C   UNL A   1      43.384  29.492  31.483  1.00  0.00     0.037 A 
ATOM     50  C   UNL A   1      43.751  23.692  28.959  1.00  0.00     0.049 A 
ATOM     51  C   UNL A   1      44.037  28.312  32.160  1.00  0.00     0.074 A 
ATOM     52  C   UNL A   1      44.907  24.359  28.584  1.00  0.00     0.029 A 
ATOM     53  N   UNL A   1      43.650  23.825  30.339  1.00  0.00    -0.354 N 
ATOM     54  N   UNL A   1      44.188  27.147  31.598  1.00  0.00    -0.248 NA
ATOM     55  C   UNL A   1      44.505  28.330  33.545  1.00  0.00     0.031 C 
ATOM     56  C   UNL A   1      45.489  24.922  29.742  1.00  0.00     0.029 A 
ATOM     57  C   UNL A   1      44.690  24.597  30.823  1.00  0.00     0.049 A 
ATOM     58  H   UNL A   1      42.939  23.427  30.892  1.00  0.00     0.167 HD
ATOM     59  C   UNL A   1      44.666  26.256  32.523  1.00  0.00     0.074 A 
ATOM     60  C   UNL A   1      44.894  27.054  33.712  1.00  0.00     0.031 C 
ATOM     61  C   UNL A   1      44.795  24.928  32.236  1.00  0.00     0.037 A 
BRANCH  48  62
ATOM     62  C   UNL A   1      42.751  22.026  27.203  1.00  0.00     0.057 A 
ATOM     63  C   UNL A   1      41.971  20.862  27.341  1.00  0.00     0.134 A 
ATOM     64  C   UNL A   1      43.661  21.993  26.133  1.00  0.00     0.134 A 
ATOM     65  F   UNL A   1      40.966  20.782  28.222  1.00  0.00    -0.206 F 
ATOM     66  C   UNL A   1      42.184  19.707  26.577  1.00  0.00     0.040 A 
ATOM     67  C   UNL A   1      43.923  20.830  25.395  1.00  0.00     0.040 A 
ATOM     68  F   UNL A   1      44.312  23.097  25.741  1.00  0.00    -0.206 F 
ATOM     69  C   UNL A   1      43.196  19.672  25.631  1.00  0.00     0.006 A 
ENDBRANCH  48  62
BRANCH  49  70
ATOM     70  C   UNL A   1      42.358  30.360  32.112  1.00  0.00     0.057 A 
ATOM     71  C   UNL A   1      42.499  31.753  31.997  1.00  0.00     0.134 A 
ATOM     72  C   UNL A   1      41.096  29.869  32.454  1.00  0.00     0.134 A 
ATOM     73  F   UNL A   1      43.688  32.287  31.676  1.00  0.00    -0.206 F 
ATOM     74  C   UNL A   1      41.403  32.613  32.094  1.00  0.00     0.040 A 
ATOM     75  C   UNL A   1      39.994  30.722  32.561  1.00  0.00     0.040 A 
ATOM     76  F   UNL A   1      40.886  28.549  32.569  1.00  0.00    -0.206 F 
ATOM     77  C   UNL A   1      40.138  32.090  32.338  1.00  0.00     0.006 A 
ENDBRANCH  49  70
BRANCH  61  78
ATOM     78  C   UNL A   1      45.123  23.845  33.230  1.00  0.00     0.057 A 
ATOM     79  C   UNL A   1      46.374  23.695  33.847  1.00  0.00     0.134 A 
ATOM     80  C   UNL A   1      44.114  22.976  33.698  1.00  0.00     0.134 A 
ATOM     81  F   UNL A   1      47.389  24.529  33.582  1.00  0.00    -0.206 F 
ATOM     82  C   UNL A   1      46.624  22.707  34.808  1.00  0.00     0.040 A 
ATOM     83  C   UNL A   1      44.339  22.019  34.692  1.00  0.00     0.040 A 
ATOM     84  F   UNL A   1      42.862  23.032  33.221  1.00  0.00    -0.206 F 
ATOM     85  C   UNL A   1      45.603  21.869  35.239  1.00  0.00     0.006 A 
ENDBRANCH  61  78
ENDBRANCH  35  36
ENDBRANCH  27  30
ENDBRANCH  25  26
ENDBRANCH  24  25
ENDBRANCH   1  24
TORSDOF 15
ENDMDL
MODEL 3
REMARK VINA RESULT:     -11.7      3.621      9.214
REMARK SMILES Cc1ccc(C(=O)NCCCNC(=O)c2ccc(-c3c4nc(c(-c5c(F)cccc5F)c5ccc([nH]5)c(-c5c(F)cccc5F)c5nc(c(-c6c(F)cccc6F)c6ccc3[nH]6)C=C5)C=C4)cc2)cc1S(=O)(=O)N(CC1CC1)C(C)C
REMARK SMILES IDX 9 1 8 2 6 3 7 4 5 6 1 7 2 8 3 9 70 10 4 11 69 12 71 13 72 14
REMARK SMILES IDX 73 15 74 16 75 17 76 18 77 19 78 20 79 21 80 22 81 23 10 24
REMARK SMILES IDX 11 25 12 26 13 27 14 29 15 30 16 31 68 32 17 33 67 34 18 35
REMARK SMILES IDX 19 36 20 37 61 38 21 39 66 40 60 41 62 42 22 43 65 44 59 45
REMARK SMILES IDX 58 46 23 48 49 49 32 50 48 51 33 52 36 53 47 54 63 55 34 56
REMARK SMILES IDX 35 57 46 59 64 60 37 61 24 62 25 63 30 64 26 65 27 66 29 67
REMARK SMILES IDX 31 68 28 69 50 70 51 71 56 72 52 73 53 74 55 75 57 76 54 77
REMARK SMILES IDX 38 78 39 79 44 80 40 81 41 82 43 83 45 84 42 85
REMARK H PARENT 8 5 12 28 62 47 36 58
REMARK Flexibility Score: inf
ROOT
ATOM      1  C   UNL A   1      34.117  29.333  26.807  1.00  0.00     0.118 C 
ENDROOT
BRANCH   1   2
ATOM      2  N   UNL A   1      33.883  29.540  25.379  1.00  0.00    -0.352 N 
ATOM      3  C   UNL A   1      33.146  28.839  24.445  1.00  0.00     0.251 C 
ATOM      4  O   UNL A   1      33.030  29.328  23.320  1.00  0.00    -0.269 OA
ATOM      5  H   UNL A   1      34.339  30.331  25.012  1.00  0.00     0.163 HD
BRANCH   3   6
ATOM      6  C   UNL A   1      32.448  27.553  24.742  1.00  0.00     0.041 A 
ATOM      7  C   UNL A   1      30.747  23.815  26.146  1.00  0.00     0.046 C 
ATOM      8  C   UNL A   1      31.309  25.070  25.552  1.00  0.00    -0.031 A 
ATOM      9  C   UNL A   1      30.921  26.293  26.144  1.00  0.00     0.005 A 
ATOM     10  C   UNL A   1      32.189  25.128  24.467  1.00  0.00     0.086 A 
ATOM     11  C   UNL A   1      31.501  27.513  25.764  1.00  0.00     0.014 A 
ATOM     12  C   UNL A   1      32.701  26.372  24.057  1.00  0.00     0.035 A 
BRANCH  10  13
ATOM     13  S   UNL A   1      33.063  23.753  23.716  1.00  0.00     0.243 S 
ATOM     14  O   UNL A   1      32.080  22.816  23.252  1.00  0.00    -0.207 OA
ATOM     15  O   UNL A   1      33.917  24.424  22.738  1.00  0.00    -0.207 OA
BRANCH  13  16
ATOM     16  N   UNL A   1      34.028  22.974  24.857  1.00  0.00    -0.195 NA
BRANCH  16  17
ATOM     17  C   UNL A   1      34.885  23.746  25.793  1.00  0.00     0.106 C 
BRANCH  17  18
ATOM     18  C   UNL A   1      36.340  23.923  25.474  1.00  0.00     0.004 C 
ATOM     19  C   UNL A   1      37.468  22.940  25.703  1.00  0.00     0.005 C 
ATOM     20  C   UNL A   1      36.900  23.097  24.328  1.00  0.00     0.005 C 
ENDBRANCH  17  18
ENDBRANCH  16  17
BRANCH  16  21
ATOM     21  C   UNL A   1      33.566  21.653  25.434  1.00  0.00     0.067 C 
ATOM     22  C   UNL A   1      34.260  20.453  24.799  1.00  0.00     0.025 C 
ATOM     23  C   UNL A   1      33.674  21.551  26.955  1.00  0.00     0.025 C 
ENDBRANCH  16  21
ENDBRANCH  13  16
ENDBRANCH  10  13
ENDBRANCH   3   6
ENDBRANCH   1   2
BRANCH   1  24
ATOM     24  C   UNL A   1      34.059  30.641  27.602  1.00  0.00     0.042 C 
BRANCH  24  25
ATOM     25  C   UNL A   1      35.379  31.379  27.690  1.00  0.00     0.118 C 
BRANCH  25  26
ATOM     26  N   UNL A   1      35.779  31.750  29.044  1.00  0.00    -0.352 N 
ATOM     27  C   UNL A   1      36.610  31.039  29.892  1.00  0.00     0.251 C 
ATOM     28  H   UNL A   1      35.418  32.597  29.391  1.00  0.00     0.163 HD
ATOM     29  O   UNL A   1      36.892  31.456  31.008  1.00  0.00    -0.269 OA
BRANCH  27  30
ATOM     30  C   UNL A   1      37.248  29.815  29.358  1.00  0.00     0.039 A 
ATOM     31  C   UNL A   1      37.550  28.799  30.266  1.00  0.00     0.014 A 
ATOM     32  C   UNL A   1      37.802  29.822  28.078  1.00  0.00     0.014 A 
ATOM     33  C   UNL A   1      38.602  27.935  29.982  1.00  0.00     0.010 A 
ATOM     34  C   UNL A   1      38.900  29.015  27.828  1.00  0.00     0.010 A 
ATOM     35  C   UNL A   1      39.343  28.124  28.810  1.00  0.00    -0.014 A 
BRANCH  35  36
ATOM     36  C   UNL A   1      40.655  27.512  28.622  1.00  0.00     0.031 A 
ATOM     37  C   UNL A   1      40.775  26.078  28.303  1.00  0.00     0.074 A 
ATOM     38  C   UNL A   1      41.787  28.228  28.810  1.00  0.00     0.049 A 
ATOM     39  N   UNL A   1      41.685  25.304  28.798  1.00  0.00    -0.248 NA
ATOM     40  C   UNL A   1      39.847  25.397  27.411  1.00  0.00     0.031 C 
ATOM     41  C   UNL A   1      43.154  27.791  28.543  1.00  0.00     0.029 A 
ATOM     42  N   UNL A   1      41.932  29.441  29.490  1.00  0.00    -0.354 N 
ATOM     43  C   UNL A   1      41.635  24.117  28.107  1.00  0.00     0.074 A 
ATOM     44  C   UNL A   1      40.431  24.199  27.305  1.00  0.00     0.031 C 
ATOM     45  C   UNL A   1      43.997  28.539  29.270  1.00  0.00     0.029 A 
ATOM     46  C   UNL A   1      43.199  29.415  30.108  1.00  0.00     0.049 A 
ATOM     47  H   UNL A   1      41.275  30.174  29.529  1.00  0.00     0.167 HD
ATOM     48  C   UNL A   1      42.682  23.245  28.162  1.00  0.00     0.037 A 
ATOM     49  C   UNL A   1      43.347  29.578  31.453  1.00  0.00     0.037 A 
ATOM     50  C   UNL A   1      43.782  23.765  28.968  1.00  0.00     0.049 A 
ATOM     51  C   UNL A   1      43.988  28.403  32.150  1.00  0.00     0.074 A 
ATOM     52  C   UNL A   1      44.945  24.433  28.616  1.00  0.00     0.029 A 
ATOM     53  N   UNL A   1      43.650  23.905  30.345  1.00  0.00    -0.354 N 
ATOM     54  N   UNL A   1      44.153  27.235  31.598  1.00  0.00    -0.248 NA
ATOM     55  C   UNL A   1      44.425  28.428  33.545  1.00  0.00     0.031 C 
ATOM     56  C   UNL A   1      45.500  25.003  29.783  1.00  0.00     0.029 A 
ATOM     57  C   UNL A   1      44.678  24.683  30.848  1.00  0.00     0.049 A 
ATOM     58  H   UNL A   1      42.929  23.509  30.884  1.00  0.00     0.167 HD
ATOM     59  C   UNL A   1      44.613  26.350  32.538  1.00  0.00     0.074 A 
ATOM     60  C   UNL A   1      44.813  27.154  33.728  1.00  0.00     0.031 C 
ATOM     61  C   UNL A   1      44.751  25.020  32.261  1.00  0.00     0.037 A 
BRANCH  48  62
ATOM     62  C   UNL A   1      42.825  22.088  27.200  1.00  0.00     0.057 A 
ATOM     63  C   UNL A   1      42.047  20.922  27.328  1.00  0.00     0.134 A 
ATOM     64  C   UNL A   1      43.756  22.053  26.148  1.00  0.00     0.134 A 
ATOM     65  F   UNL A   1      41.026  20.842  28.191  1.00  0.00    -0.206 F 
ATOM     66  C   UNL A   1      42.280  19.763  26.575  1.00  0.00     0.040 A 
ATOM     67  C   UNL A   1      44.037  20.887  25.421  1.00  0.00     0.040 A 
ATOM     68  F   UNL A   1      44.410  23.158  25.762  1.00  0.00    -0.206 F 
ATOM     69  C   UNL A   1      43.310  19.727  25.650  1.00  0.00     0.006 A 
ENDBRANCH  48  62
BRANCH  49  70
ATOM     70  C   UNL A   1      42.306  30.447  32.054  1.00  0.00     0.057 A 
ATOM     71  C   UNL A   1      41.191  29.838  32.654  1.00  0.00     0.134 A 
ATOM     72  C   UNL A   1      42.571  31.775  32.393  1.00  0.00     0.134 A 
ATOM     73  F   UNL A   1      40.881  28.564  32.365  1.00  0.00    -0.206 F 
ATOM     74  C   UNL A   1      40.445  30.482  33.643  1.00  0.00     0.040 A 
ATOM     75  C   UNL A   1      41.825  32.433  33.376  1.00  0.00     0.040 A 
ATOM     76  F   UNL A   1      43.626  32.416  31.868  1.00  0.00    -0.206 F 
ATOM     77  C   UNL A   1      40.789  31.772  34.033  1.00  0.00     0.006 A 
ENDBRANCH  49  70
BRANCH  61  78
ATOM     78  C   UNL A   1      45.059  23.944  33.268  1.00  0.00     0.057 A 
ATOM     79  C   UNL A   1      44.161  22.934  33.640  1.00  0.00     0.134 A 
ATOM     80  C   UNL A   1      46.357  23.825  33.811  1.00  0.00     0.134 A 
ATOM     81  F   UNL A   1      42.932  22.859  33.110  1.00  0.00    -0.206 F 
ATOM     82  C   UNL A   1      44.504  21.917  34.543  1.00  0.00     0.040 A 
ATOM     83  C   UNL A   1      46.726  22.788  34.673  1.00  0.00     0.040 A 
ATOM     84  F   UNL A   1      47.326  24.703  33.513  1.00  0.00    -0.206 F 
ATOM     85  C   UNL A   1      45.792  21.838  35.057  1.00  0.00     0.006 A 
ENDBRANCH  61  78
ENDBRANCH  35  36
ENDBRANCH  27  30
ENDBRANCH  25  26
ENDBRANCH  24  25
ENDBRANCH   1  24
TORSDOF 15
ENDMDL
