MODEL 1
REMARK VINA RESULT:     -12.2      0.000      0.000
REMARK SMILES CC(C)CSc1cc2c(cc1Cl)C=C(C(=O)NCCCNC(=O)c1ccc(-c3c4nc(c(-c5c(F)cccc5F)c5ccc([nH]5)c(-c5c(F)cccc5F)c5nc(c(-c6c(F)cccc6F)c6ccc3[nH]6)C=C5)C=C4)cc1)[C@@H](C(F)(F)F)O2
REMARK SMILES IDX 18 1 17 2 15 3 16 4 14 6 6 7 7 8 11 9 8 10 10 11 12 12 9 13
REMARK SMILES IDX 83 14 13 15 78 16 5 17 4 18 2 19 1 20 3 21 79 22 80 23 81 24
REMARK SMILES IDX 82 25 19 26 20 27 21 28 22 29 23 31 24 32 25 33 77 34 26 35
REMARK SMILES IDX 76 36 27 37 28 38 29 39 70 40 30 41 75 42 69 43 71 44 31 45
REMARK SMILES IDX 74 46 68 47 67 48 32 50 58 51 41 52 57 53 42 54 45 55 56 56
REMARK SMILES IDX 72 57 43 58 44 59 55 61 73 62 46 63 33 64 34 65 39 66 35 67
REMARK SMILES IDX 36 68 38 69 40 70 37 71 59 72 60 73 65 74 61 75 62 76 64 77
REMARK SMILES IDX 66 78 63 79 47 80 48 81 53 82 49 83 50 84 52 85 54 86 51 87
REMARK H PARENT 17 5 21 30 71 49 45 60
REMARK Flexibility Score: inf
ROOT
ATOM      1  C   UNL A   1      36.661  20.638  25.296  1.00  0.00     0.118 C 
ENDROOT
BRANCH   1   2
ATOM      2  N   UNL A   1      35.428  19.967  24.918  1.00  0.00    -0.352 N 
ATOM      3  C   UNL A   1      34.127  20.299  24.764  1.00  0.00     0.251 C 
ATOM      4  O   UNL A   1      33.389  19.373  24.412  1.00  0.00    -0.270 OA
ATOM      5  H   UNL A   1      35.582  19.015  24.719  1.00  0.00     0.163 HD
BRANCH   3   6
ATOM      6  C   UNL A   1      33.552  21.655  24.991  1.00  0.00     0.067 C 
ATOM      7  C   UNL A   1      32.028  26.428  24.427  1.00  0.00     0.030 A 
ATOM      8  C   UNL A   1      31.672  25.381  25.286  1.00  0.00     0.063 A 
ATOM      9  C   UNL A   1      33.034  26.205  23.467  1.00  0.00     0.055 A 
ATOM     10  C   UNL A   1      32.271  24.132  25.153  1.00  0.00     0.129 A 
ATOM     11  C   UNL A   1      33.617  24.939  23.329  1.00  0.00     0.033 A 
ATOM     12  Cl  UNL A   1      33.561  27.437  22.372  1.00  0.00    -0.083 Cl
ATOM     13  C   UNL A   1      33.227  23.896  24.166  1.00  0.00     0.019 A 
ATOM     14  O   UNL A   1      31.843  23.150  26.002  1.00  0.00    -0.475 OA
ATOM     15  C   UNL A   1      33.763  22.551  24.007  1.00  0.00     0.025 C 
ATOM     16  C   UNL A   1      32.791  22.066  26.220  1.00  0.00     0.314 C 
BRANCH   7  17
ATOM     17  S   UNL A   1      31.169  27.988  24.584  1.00  0.00    -0.124 SA
BRANCH  17  18
ATOM     18  C   UNL A   1      32.524  29.087  25.151  1.00  0.00     0.078 C 
BRANCH  18  19
ATOM     19  C   UNL A   1      32.698  29.149  26.681  1.00  0.00    -0.007 C 
ATOM     20  C   UNL A   1      31.583  28.429  27.445  1.00  0.00     0.008 C 
ATOM     21  C   UNL A   1      34.039  28.513  27.065  1.00  0.00     0.008 C 
ENDBRANCH  18  19
ENDBRANCH  17  18
ENDBRANCH   7  17
BRANCH  16  22
ATOM     22  C   UNL A   1      33.718  22.421  27.401  1.00  0.00     0.429 C 
ATOM     23  F   UNL A   1      32.997  22.948  28.421  1.00  0.00    -0.167 F 
ATOM     24  F   UNL A   1      34.358  21.337  27.901  1.00  0.00    -0.167 F 
ATOM     25  F   UNL A   1      34.671  23.319  27.069  1.00  0.00    -0.167 F 
ENDBRANCH  16  22
ENDBRANCH   3   6
ENDBRANCH   1   2
BRANCH   1  26
ATOM     26  C   UNL A   1      37.883  19.787  24.988  1.00  0.00     0.042 C 
BRANCH  26  27
ATOM     27  C   UNL A   1      39.109  20.229  25.773  1.00  0.00     0.118 C 
BRANCH  27  28
ATOM     28  N   UNL A   1      40.113  19.173  25.874  1.00  0.00    -0.352 N 
ATOM     29  C   UNL A   1      41.470  19.250  26.084  1.00  0.00     0.251 C 
ATOM     30  H   UNL A   1      39.762  18.259  25.776  1.00  0.00     0.163 HD
ATOM     31  O   UNL A   1      42.170  18.253  25.929  1.00  0.00    -0.269 OA
BRANCH  29  32
ATOM     32  C   UNL A   1      42.085  20.535  26.470  1.00  0.00     0.039 A 
ATOM     33  C   UNL A   1      42.223  20.871  27.815  1.00  0.00     0.014 A 
ATOM     34  C   UNL A   1      42.518  21.420  25.478  1.00  0.00     0.014 A 
ATOM     35  C   UNL A   1      42.584  22.162  28.164  1.00  0.00     0.010 A 
ATOM     36  C   UNL A   1      43.001  22.681  25.838  1.00  0.00     0.010 A 
ATOM     37  C   UNL A   1      42.981  23.084  27.182  1.00  0.00    -0.014 A 
BRANCH  37  38
ATOM     38  C   UNL A   1      43.368  24.454  27.607  1.00  0.00     0.031 A 
ATOM     39  C   UNL A   1      44.797  24.918  27.524  1.00  0.00     0.074 A 
ATOM     40  C   UNL A   1      42.402  25.309  27.996  1.00  0.00     0.049 A 
ATOM     41  N   UNL A   1      45.298  26.096  27.799  1.00  0.00    -0.248 NA
ATOM     42  C   UNL A   1      45.796  23.932  27.086  1.00  0.00     0.031 C 
ATOM     43  C   UNL A   1      40.981  24.973  28.123  1.00  0.00     0.029 A 
ATOM     44  N   UNL A   1      42.458  26.639  28.319  1.00  0.00    -0.354 N 
ATOM     45  C   UNL A   1      46.669  25.984  27.600  1.00  0.00     0.074 A 
ATOM     46  C   UNL A   1      46.925  24.616  27.204  1.00  0.00     0.031 C 
ATOM     47  C   UNL A   1      40.292  26.081  28.428  1.00  0.00     0.029 A 
ATOM     48  C   UNL A   1      41.228  27.187  28.591  1.00  0.00     0.049 A 
ATOM     49  H   UNL A   1      43.297  27.152  28.355  1.00  0.00     0.167 HD
ATOM     50  C   UNL A   1      47.625  26.937  27.726  1.00  0.00     0.037 A 
ATOM     51  C   UNL A   1      40.888  28.438  28.947  1.00  0.00     0.037 A 
ATOM     52  C   UNL A   1      47.361  28.304  28.094  1.00  0.00     0.049 A 
ATOM     53  C   UNL A   1      41.966  29.471  29.087  1.00  0.00     0.074 A 
ATOM     54  C   UNL A   1      48.254  29.356  28.212  1.00  0.00     0.029 A 
ATOM     55  N   UNL A   1      46.107  28.810  28.406  1.00  0.00    -0.354 N 
ATOM     56  N   UNL A   1      43.254  29.353  28.874  1.00  0.00    -0.248 NA
ATOM     57  C   UNL A   1      41.545  30.806  29.528  1.00  0.00     0.031 C 
ATOM     58  C   UNL A   1      47.546  30.486  28.638  1.00  0.00     0.029 A 
ATOM     59  C   UNL A   1      46.206  30.151  28.741  1.00  0.00     0.049 A 
ATOM     60  H   UNL A   1      45.270  28.291  28.392  1.00  0.00     0.167 HD
ATOM     61  C   UNL A   1      43.799  30.598  29.153  1.00  0.00     0.074 A 
ATOM     62  C   UNL A   1      42.695  31.465  29.518  1.00  0.00     0.031 C 
ATOM     63  C   UNL A   1      45.096  30.990  29.118  1.00  0.00     0.037 A 
BRANCH  50  64
ATOM     64  C   UNL A   1      49.048  26.519  27.492  1.00  0.00     0.057 A 
ATOM     65  C   UNL A   1      49.849  26.095  28.561  1.00  0.00     0.134 A 
ATOM     66  C   UNL A   1      49.632  26.538  26.218  1.00  0.00     0.134 A 
ATOM     67  F   UNL A   1      49.356  26.057  29.808  1.00  0.00    -0.206 F 
ATOM     68  C   UNL A   1      51.175  25.700  28.370  1.00  0.00     0.040 A 
ATOM     69  C   UNL A   1      50.950  26.120  26.011  1.00  0.00     0.040 A 
ATOM     70  F   UNL A   1      48.917  26.917  25.148  1.00  0.00    -0.206 F 
ATOM     71  C   UNL A   1      51.726  25.704  27.091  1.00  0.00     0.006 A 
ENDBRANCH  50  64
BRANCH  51  72
ATOM     72  C   UNL A   1      39.467  28.770  29.211  1.00  0.00     0.057 A 
ATOM     73  C   UNL A   1      38.906  28.592  30.482  1.00  0.00     0.134 A 
ATOM     74  C   UNL A   1      38.633  29.257  28.200  1.00  0.00     0.134 A 
ATOM     75  F   UNL A   1      39.652  28.118  31.491  1.00  0.00    -0.206 F 
ATOM     76  C   UNL A   1      37.562  28.870  30.734  1.00  0.00     0.040 A 
ATOM     77  C   UNL A   1      37.294  29.567  28.444  1.00  0.00     0.040 A 
ATOM     78  F   UNL A   1      39.118  29.463  26.966  1.00  0.00    -0.206 F 
ATOM     79  C   UNL A   1      36.753  29.366  29.713  1.00  0.00     0.006 A 
ENDBRANCH  51  72
BRANCH  63  80
ATOM     80  C   UNL A   1      45.376  32.418  29.479  1.00  0.00     0.057 A 
ATOM     81  C   UNL A   1      45.346  33.422  28.505  1.00  0.00     0.134 A 
ATOM     82  C   UNL A   1      45.671  32.799  30.795  1.00  0.00     0.134 A 
ATOM     83  F   UNL A   1      45.075  33.122  27.225  1.00  0.00    -0.206 F 
ATOM     84  C   UNL A   1      45.595  34.757  28.826  1.00  0.00     0.040 A 
ATOM     85  C   UNL A   1      45.896  34.135  31.133  1.00  0.00     0.040 A 
ATOM     86  F   UNL A   1      45.696  31.887  31.778  1.00  0.00    -0.206 F 
ATOM     87  C   UNL A   1      45.862  35.117  30.146  1.00  0.00     0.006 A 
ENDBRANCH  63  80
ENDBRANCH  37  38
ENDBRANCH  29  32
ENDBRANCH  27  28
ENDBRANCH  26  27
ENDBRANCH   1  26
TORSDOF 14
ENDMDL
MODEL 2
REMARK VINA RESULT:     -12.2      5.324     10.148
REMARK SMILES CC(C)CSc1cc2c(cc1Cl)C=C(C(=O)NCCCNC(=O)c1ccc(-c3c4nc(c(-c5c(F)cccc5F)c5ccc([nH]5)c(-c5c(F)cccc5F)c5nc(c(-c6c(F)cccc6F)c6ccc3[nH]6)C=C5)C=C4)cc1)[C@@H](C(F)(F)F)O2
REMARK SMILES IDX 18 1 17 2 15 3 16 4 14 6 6 7 7 8 11 9 8 10 10 11 12 12 9 13
REMARK SMILES IDX 83 14 13 15 78 16 5 17 4 18 2 19 1 20 3 21 79 22 80 23 81 24
REMARK SMILES IDX 82 25 19 26 20 27 21 28 22 29 23 31 24 32 25 33 77 34 26 35
REMARK SMILES IDX 76 36 27 37 28 38 29 39 70 40 30 41 75 42 69 43 71 44 31 45
REMARK SMILES IDX 74 46 68 47 67 48 32 50 58 51 41 52 57 53 42 54 45 55 56 56
REMARK SMILES IDX 72 57 43 58 44 59 55 61 73 62 46 63 33 64 34 65 39 66 35 67
REMARK SMILES IDX 36 68 38 69 40 70 37 71 59 72 60 73 65 74 61 75 62 76 64 77
REMARK SMILES IDX 66 78 63 79 47 80 48 81 53 82 49 83 50 84 52 85 54 86 51 87
REMARK H PARENT 17 5 21 30 71 49 45 60
REMARK Flexibility Score: inf
ROOT
ATOM      1  C   UNL A   1      31.755  30.512  26.327  1.00  0.00     0.118 C 
ENDROOT
BRANCH   1   2
ATOM      2  N   UNL A   1      31.367  30.163  24.969  1.00  0.00    -0.352 N 
ATOM      3  C   UNL A   1      31.230  29.034  24.238  1.00  0.00     0.251 C 
ATOM      4  O   UNL A   1      30.859  29.208  23.073  1.00  0.00    -0.270 OA
ATOM      5  H   UNL A   1      31.144  30.963  24.441  1.00  0.00     0.163 HD
BRANCH   3   6
ATOM      6  C   UNL A   1      31.493  27.653  24.731  1.00  0.00     0.067 C 
ATOM      7  C   UNL A   1      33.702  23.465  26.462  1.00  0.00     0.030 A 
ATOM      8  C   UNL A   1      32.392  23.959  26.479  1.00  0.00     0.063 A 
ATOM      9  C   UNL A   1      34.708  24.229  25.842  1.00  0.00     0.055 A 
ATOM     10  C   UNL A   1      32.108  25.208  25.934  1.00  0.00     0.129 A 
ATOM     11  C   UNL A   1      34.416  25.493  25.313  1.00  0.00     0.033 A 
ATOM     12  Cl  UNL A   1      36.353  23.698  25.750  1.00  0.00    -0.083 Cl
ATOM     13  C   UNL A   1      33.116  25.990  25.369  1.00  0.00     0.019 A 
ATOM     14  O   UNL A   1      30.815  25.640  26.023  1.00  0.00    -0.475 OA
ATOM     15  C   UNL A   1      32.790  27.326  24.890  1.00  0.00     0.025 C 
ATOM     16  C   UNL A   1      30.428  26.637  25.034  1.00  0.00     0.314 C 
BRANCH   7  17
ATOM     17  S   UNL A   1      34.028  21.893  27.251  1.00  0.00    -0.124 SA
BRANCH  17  18
ATOM     18  C   UNL A   1      34.187  20.788  25.795  1.00  0.00     0.078 C 
BRANCH  18  19
ATOM     19  C   UNL A   1      32.852  20.217  25.277  1.00  0.00    -0.007 C 
ATOM     20  C   UNL A   1      32.528  20.646  23.843  1.00  0.00     0.008 C 
ATOM     21  C   UNL A   1      32.903  18.686  25.326  1.00  0.00     0.008 C 
ENDBRANCH  18  19
ENDBRANCH  17  18
ENDBRANCH   7  17
BRANCH  16  22
ATOM     22  C   UNL A   1      29.905  25.929  23.767  1.00  0.00     0.429 C 
ATOM     23  F   UNL A   1      28.634  26.319  23.501  1.00  0.00    -0.167 F 
ATOM     24  F   UNL A   1      30.637  26.228  22.667  1.00  0.00    -0.167 F 
ATOM     25  F   UNL A   1      29.903  24.583  23.879  1.00  0.00    -0.167 F 
ENDBRANCH  16  22
ENDBRANCH   3   6
ENDBRANCH   1   2
BRANCH   1  26
ATOM     26  C   UNL A   1      31.512  31.984  26.621  1.00  0.00     0.042 C 
BRANCH  26  27
ATOM     27  C   UNL A   1      32.706  32.644  27.295  1.00  0.00     0.118 C 
BRANCH  27  28
ATOM     28  N   UNL A   1      32.451  34.044  27.626  1.00  0.00    -0.352 N 
ATOM     29  C   UNL A   1      33.029  34.856  28.574  1.00  0.00     0.251 C 
ATOM     30  H   UNL A   1      31.754  34.477  27.082  1.00  0.00     0.163 HD
ATOM     31  O   UNL A   1      32.528  35.947  28.832  1.00  0.00    -0.269 OA
BRANCH  29  32
ATOM     32  C   UNL A   1      34.233  34.403  29.296  1.00  0.00     0.039 A 
ATOM     33  C   UNL A   1      35.497  34.596  28.743  1.00  0.00     0.014 A 
ATOM     34  C   UNL A   1      34.100  33.769  30.536  1.00  0.00     0.014 A 
ATOM     35  C   UNL A   1      36.595  33.969  29.311  1.00  0.00     0.010 A 
ATOM     36  C   UNL A   1      35.229  33.245  31.170  1.00  0.00     0.010 A 
ATOM     37  C   UNL A   1      36.478  33.289  30.533  1.00  0.00    -0.014 A 
BRANCH  37  38
ATOM     38  C   UNL A   1      37.685  32.641  31.106  1.00  0.00     0.031 A 
ATOM     39  C   UNL A   1      38.248  33.080  32.430  1.00  0.00     0.074 A 
ATOM     40  C   UNL A   1      38.229  31.593  30.456  1.00  0.00     0.049 A 
ATOM     41  N   UNL A   1      39.259  32.588  33.101  1.00  0.00    -0.248 NA
ATOM     42  C   UNL A   1      37.601  34.227  33.085  1.00  0.00     0.031 C 
ATOM     43  C   UNL A   1      37.776  31.078  29.161  1.00  0.00     0.029 A 
ATOM     44  N   UNL A   1      39.251  30.750  30.808  1.00  0.00    -0.354 N 
ATOM     45  C   UNL A   1      39.389  33.381  34.235  1.00  0.00     0.074 A 
ATOM     46  C   UNL A   1      38.369  34.403  34.150  1.00  0.00     0.031 C 
ATOM     47  C   UNL A   1      38.467  29.971  28.861  1.00  0.00     0.029 A 
ATOM     48  C   UNL A   1      39.461  29.739  29.903  1.00  0.00     0.049 A 
ATOM     49  H   UNL A   1      39.783  30.859  31.629  1.00  0.00     0.167 HD
ATOM     50  C   UNL A   1      40.271  33.262  35.257  1.00  0.00     0.037 A 
ATOM     51  C   UNL A   1      40.362  28.741  29.901  1.00  0.00     0.037 A 
ATOM     52  C   UNL A   1      41.267  32.226  35.349  1.00  0.00     0.049 A 
ATOM     53  C   UNL A   1      41.332  28.637  31.040  1.00  0.00     0.074 A 
ATOM     54  C   UNL A   1      42.183  31.994  36.361  1.00  0.00     0.029 A 
ATOM     55  N   UNL A   1      41.479  31.246  34.390  1.00  0.00    -0.354 N 
ATOM     56  N   UNL A   1      41.427  29.383  32.114  1.00  0.00    -0.248 NA
ATOM     57  C   UNL A   1      42.327  27.561  30.960  1.00  0.00     0.031 C 
ATOM     58  C   UNL A   1      42.977  30.901  35.992  1.00  0.00     0.029 A 
ATOM     59  C   UNL A   1      42.527  30.424  34.773  1.00  0.00     0.049 A 
ATOM     60  H   UNL A   1      40.960  31.150  33.558  1.00  0.00     0.167 HD
ATOM     61  C   UNL A   1      42.489  28.866  32.840  1.00  0.00     0.074 A 
ATOM     62  C   UNL A   1      42.985  27.723  32.099  1.00  0.00     0.031 C 
ATOM     63  C   UNL A   1      43.015  29.302  34.012  1.00  0.00     0.037 A 
BRANCH  50  64
ATOM     64  C   UNL A   1      40.213  34.300  36.340  1.00  0.00     0.057 A 
ATOM     65  C   UNL A   1      39.350  34.139  37.433  1.00  0.00     0.134 A 
ATOM     66  C   UNL A   1      41.001  35.458  36.307  1.00  0.00     0.134 A 
ATOM     67  F   UNL A   1      38.564  33.056  37.526  1.00  0.00    -0.206 F 
ATOM     68  C   UNL A   1      39.278  35.088  38.455  1.00  0.00     0.040 A 
ATOM     69  C   UNL A   1      40.956  36.403  37.337  1.00  0.00     0.040 A 
ATOM     70  F   UNL A   1      41.860  35.667  35.299  1.00  0.00    -0.206 F 
ATOM     71  C   UNL A   1      40.089  36.219  38.412  1.00  0.00     0.006 A 
ENDBRANCH  50  64
BRANCH  51  72
ATOM     72  C   UNL A   1      40.394  27.779  28.772  1.00  0.00     0.057 A 
ATOM     73  C   UNL A   1      41.163  28.030  27.629  1.00  0.00     0.134 A 
ATOM     74  C   UNL A   1      39.649  26.597  28.803  1.00  0.00     0.134 A 
ATOM     75  F   UNL A   1      41.893  29.152  27.536  1.00  0.00    -0.206 F 
ATOM     76  C   UNL A   1      41.177  27.147  26.549  1.00  0.00     0.040 A 
ATOM     77  C   UNL A   1      39.675  25.691  27.741  1.00  0.00     0.040 A 
ATOM     78  F   UNL A   1      38.906  26.294  29.878  1.00  0.00    -0.206 F 
ATOM     79  C   UNL A   1      40.435  25.969  26.607  1.00  0.00     0.006 A 
ENDBRANCH  51  72
BRANCH  63  80
ATOM     80  C   UNL A   1      44.179  28.527  34.554  1.00  0.00     0.057 A 
ATOM     81  C   UNL A   1      43.976  27.415  35.379  1.00  0.00     0.134 A 
ATOM     82  C   UNL A   1      45.501  28.882  34.255  1.00  0.00     0.134 A 
ATOM     83  F   UNL A   1      42.734  27.027  35.707  1.00  0.00    -0.206 F 
ATOM     84  C   UNL A   1      45.048  26.678  35.884  1.00  0.00     0.040 A 
ATOM     85  C   UNL A   1      46.580  28.137  34.733  1.00  0.00     0.040 A 
ATOM     86  F   UNL A   1      45.761  29.927  33.455  1.00  0.00    -0.206 F 
ATOM     87  C   UNL A   1      46.355  27.034  35.553  1.00  0.00     0.006 A 
ENDBRANCH  63  80
ENDBRANCH  37  38
ENDBRANCH  29  32
ENDBRANCH  27  28
ENDBRANCH  26  27
ENDBRANCH   1  26
TORSDOF 14
ENDMDL
MODEL 3
REMARK VINA RESULT:     -12.2      1.544      2.276
REMARK SMILES CC(C)CSc1cc2c(cc1Cl)C=C(C(=O)NCCCNC(=O)c1ccc(-c3c4nc(c(-c5c(F)cccc5F)c5ccc([nH]5)c(-c5c(F)cccc5F)c5nc(c(-c6c(F)cccc6F)c6ccc3[nH]6)C=C5)C=C4)cc1)[C@@H](C(F)(F)F)O2
REMARK SMILES IDX 18 1 17 2 15 3 16 4 14 6 6 7 7 8 11 9 8 10 10 11 12 12 9 13
REMARK SMILES IDX 83 14 13 15 78 16 5 17 4 18 2 19 1 20 3 21 79 22 80 23 81 24
REMARK SMILES IDX 82 25 19 26 20 27 21 28 22 29 23 31 24 32 25 33 77 34 26 35
REMARK SMILES IDX 76 36 27 37 28 38 29 39 70 40 30 41 75 42 69 43 71 44 31 45
REMARK SMILES IDX 74 46 68 47 67 48 32 50 58 51 41 52 57 53 42 54 45 55 56 56
REMARK SMILES IDX 72 57 43 58 44 59 55 61 73 62 46 63 33 64 34 65 39 66 35 67
REMARK SMILES IDX 36 68 38 69 40 70 37 71 59 72 60 73 65 74 61 75 62 76 64 77
REMARK SMILES IDX 66 78 63 79 47 80 48 81 53 82 49 83 50 84 52 85 54 86 51 87
REMARK H PARENT 17 5 21 30 71 49 45 60
REMARK Flexibility Score: inf
ROOT
ATOM      1  C   UNL A   1      37.041  20.826  24.783  1.00  0.00     0.118 C 
ENDROOT
BRANCH   1   2
ATOM      2  N   UNL A   1      35.701  20.470  25.221  1.00  0.00    -0.352 N 
ATOM      3  C   UNL A   1      34.470  21.026  25.191  1.00  0.00     0.251 C 
ATOM      4  O   UNL A   1      33.575  20.344  25.700  1.00  0.00    -0.270 OA
ATOM      5  H   UNL A   1      35.686  19.587  25.656  1.00  0.00     0.163 HD
BRANCH   3   6
ATOM      6  C   UNL A   1      34.141  22.359  24.610  1.00  0.00     0.067 C 
ATOM      7  C   UNL A   1      33.569  27.313  23.868  1.00  0.00     0.030 A 
ATOM      8  C   UNL A   1      33.647  26.199  23.023  1.00  0.00     0.063 A 
ATOM      9  C   UNL A   1      33.655  27.116  25.259  1.00  0.00     0.055 A 
ATOM     10  C   UNL A   1      33.855  24.930  23.556  1.00  0.00     0.129 A 
ATOM     11  C   UNL A   1      33.882  25.839  25.784  1.00  0.00     0.033 A 
ATOM     12  Cl  UNL A   1      33.550  28.424  26.389  1.00  0.00    -0.083 Cl
ATOM     13  C   UNL A   1      33.995  24.743  24.931  1.00  0.00     0.019 A 
ATOM     14  O   UNL A   1      33.959  23.897  22.666  1.00  0.00    -0.475 OA
ATOM     15  C   UNL A   1      34.299  23.411  25.436  1.00  0.00     0.025 C 
ATOM     16  C   UNL A   1      33.648  22.582  23.208  1.00  0.00     0.314 C 
BRANCH   7  17
ATOM     17  S   UNL A   1      33.386  28.930  23.128  1.00  0.00    -0.124 SA
BRANCH  17  18
ATOM     18  C   UNL A   1      31.642  28.869  22.562  1.00  0.00     0.078 C 
BRANCH  18  19
ATOM     19  C   UNL A   1      30.600  28.909  23.697  1.00  0.00    -0.007 C 
ATOM     20  C   UNL A   1      29.534  29.990  23.500  1.00  0.00     0.008 C 
ATOM     21  C   UNL A   1      29.900  27.549  23.791  1.00  0.00     0.008 C 
ENDBRANCH  18  19
ENDBRANCH  17  18
ENDBRANCH   7  17
BRANCH  16  22
ATOM     22  C   UNL A   1      32.137  22.308  23.060  1.00  0.00     0.429 C 
ATOM     23  F   UNL A   1      31.535  23.336  22.413  1.00  0.00    -0.167 F 
ATOM     24  F   UNL A   1      31.881  21.193  22.336  1.00  0.00    -0.167 F 
ATOM     25  F   UNL A   1      31.513  22.153  24.248  1.00  0.00    -0.167 F 
ENDBRANCH  16  22
ENDBRANCH   3   6
ENDBRANCH   1   2
BRANCH   1  26
ATOM     26  C   UNL A   1      38.024  19.686  24.997  1.00  0.00     0.042 C 
BRANCH  26  27
ATOM     27  C   UNL A   1      39.263  20.125  25.762  1.00  0.00     0.118 C 
BRANCH  27  28
ATOM     28  N   UNL A   1      40.260  19.062  25.862  1.00  0.00    -0.352 N 
ATOM     29  C   UNL A   1      41.622  19.130  26.042  1.00  0.00     0.251 C 
ATOM     30  H   UNL A   1      39.899  18.149  25.788  1.00  0.00     0.163 HD
ATOM     31  O   UNL A   1      42.309  18.123  25.891  1.00  0.00    -0.269 OA
BRANCH  29  32
ATOM     32  C   UNL A   1      42.256  20.415  26.392  1.00  0.00     0.039 A 
ATOM     33  C   UNL A   1      42.341  20.817  27.723  1.00  0.00     0.014 A 
ATOM     34  C   UNL A   1      42.762  21.236  25.378  1.00  0.00     0.014 A 
ATOM     35  C   UNL A   1      42.723  22.115  28.023  1.00  0.00     0.010 A 
ATOM     36  C   UNL A   1      43.265  22.500  25.697  1.00  0.00     0.010 A 
ATOM     37  C   UNL A   1      43.194  22.973  27.016  1.00  0.00    -0.014 A 
BRANCH  37  38
ATOM     38  C   UNL A   1      43.602  24.351  27.389  1.00  0.00     0.031 A 
ATOM     39  C   UNL A   1      45.026  24.810  27.231  1.00  0.00     0.074 A 
ATOM     40  C   UNL A   1      42.655  25.219  27.801  1.00  0.00     0.049 A 
ATOM     41  N   UNL A   1      45.541  25.993  27.454  1.00  0.00    -0.248 NA
ATOM     42  C   UNL A   1      46.003  23.811  26.773  1.00  0.00     0.031 C 
ATOM     43  C   UNL A   1      41.241  24.889  27.999  1.00  0.00     0.029 A 
ATOM     44  N   UNL A   1      42.727  26.556  28.088  1.00  0.00    -0.354 N 
ATOM     45  C   UNL A   1      46.901  25.873  27.195  1.00  0.00     0.074 A 
ATOM     46  C   UNL A   1      47.137  24.495  26.823  1.00  0.00     0.031 C 
ATOM     47  C   UNL A   1      40.568  26.006  28.307  1.00  0.00     0.029 A 
ATOM     48  C   UNL A   1      41.511  27.114  28.401  1.00  0.00     0.049 A 
ATOM     49  H   UNL A   1      43.568  27.068  28.072  1.00  0.00     0.167 HD
ATOM     50  C   UNL A   1      47.863  26.826  27.255  1.00  0.00     0.037 A 
ATOM     51  C   UNL A   1      41.190  28.374  28.740  1.00  0.00     0.037 A 
ATOM     52  C   UNL A   1      47.618  28.203  27.601  1.00  0.00     0.049 A 
ATOM     53  C   UNL A   1      42.275  29.408  28.806  1.00  0.00     0.074 A 
ATOM     54  C   UNL A   1      48.516  29.255  27.653  1.00  0.00     0.029 A 
ATOM     55  N   UNL A   1      46.380  28.719  27.956  1.00  0.00    -0.354 N 
ATOM     56  N   UNL A   1      43.552  29.281  28.538  1.00  0.00    -0.248 NA
ATOM     57  C   UNL A   1      41.875  30.754  29.233  1.00  0.00     0.031 C 
ATOM     58  C   UNL A   1      47.830  30.397  28.081  1.00  0.00     0.029 A 
ATOM     59  C   UNL A   1      46.495  30.068  28.253  1.00  0.00     0.049 A 
ATOM     60  H   UNL A   1      45.542  28.202  27.993  1.00  0.00     0.167 HD
ATOM     61  C   UNL A   1      44.110  30.531  28.761  1.00  0.00     0.074 A 
ATOM     62  C   UNL A   1      43.025  31.409  29.154  1.00  0.00     0.031 C 
ATOM     63  C   UNL A   1      45.405  30.919  28.659  1.00  0.00     0.037 A 
BRANCH  50  64
ATOM     64  C   UNL A   1      49.273  26.399  26.967  1.00  0.00     0.057 A 
ATOM     65  C   UNL A   1      49.761  26.396  25.652  1.00  0.00     0.134 A 
ATOM     66  C   UNL A   1      50.150  25.986  27.980  1.00  0.00     0.134 A 
ATOM     67  F   UNL A   1      48.974  26.775  24.634  1.00  0.00    -0.206 F 
ATOM     68  C   UNL A   1      51.069  26.006  25.358  1.00  0.00     0.040 A 
ATOM     69  C   UNL A   1      51.469  25.618  27.700  1.00  0.00     0.040 A 
ATOM     70  F   UNL A   1      49.753  25.980  29.261  1.00  0.00    -0.206 F 
ATOM     71  C   UNL A   1      51.929  25.623  26.385  1.00  0.00     0.006 A 
ENDBRANCH  50  64
BRANCH  51  72
ATOM     72  C   UNL A   1      39.782  28.715  29.060  1.00  0.00     0.057 A 
ATOM     73  C   UNL A   1      39.275  28.557  30.356  1.00  0.00     0.134 A 
ATOM     74  C   UNL A   1      38.908  29.192  28.078  1.00  0.00     0.134 A 
ATOM     75  F   UNL A   1      40.062  28.095  31.339  1.00  0.00    -0.206 F 
ATOM     76  C   UNL A   1      37.945  28.845  30.661  1.00  0.00     0.040 A 
ATOM     77  C   UNL A   1      37.582  29.511  28.375  1.00  0.00     0.040 A 
ATOM     78  F   UNL A   1      39.341  29.379  26.822  1.00  0.00    -0.206 F 
ATOM     79  C   UNL A   1      37.095  29.331  29.669  1.00  0.00     0.006 A 
ENDBRANCH  51  72
BRANCH  63  80
ATOM     80  C   UNL A   1      45.703  32.355  28.972  1.00  0.00     0.057 A 
ATOM     81  C   UNL A   1      46.064  32.746  30.266  1.00  0.00     0.134 A 
ATOM     82  C   UNL A   1      45.636  33.351  27.987  1.00  0.00     0.134 A 
ATOM     83  F   UNL A   1      46.141  31.841  31.254  1.00  0.00    -0.206 F 
ATOM     84  C   UNL A   1      46.353  34.076  30.572  1.00  0.00     0.040 A 
ATOM     85  C   UNL A   1      45.948  34.680  28.275  1.00  0.00     0.040 A 
ATOM     86  F   UNL A   1      45.314  33.037  26.724  1.00  0.00    -0.206 F 
ATOM     87  C   UNL A   1      46.304  35.046  29.572  1.00  0.00     0.006 A 
ENDBRANCH  63  80
ENDBRANCH  37  38
ENDBRANCH  29  32
ENDBRANCH  27  28
ENDBRANCH  26  27
ENDBRANCH   1  26
TORSDOF 14
ENDMDL
