MODEL 1
REMARK VINA RESULT:     -11.8      0.000      0.000
REMARK SMILES C[C@H](C(=O)NCCCNC(=O)c1ccc(-c2c3nc(c(-c4c(F)cccc4F)c4ccc([nH]4)c(-c4c(F)cccc4F)c4nc(c(-c5c(F)cccc5F)c5ccc2[nH]5)C=C4)C=C3)cc1)c1ccc(C[C@@H]2CCC[C@H]2O)cc1
REMARK SMILES IDX 6 1 5 2 3 3 4 4 2 6 1 7 66 8 67 9 78 10 68 11 77 12 69 13
REMARK SMILES IDX 70 14 71 15 72 16 75 17 73 18 74 19 76 20 7 22 8 23 9 24
REMARK SMILES IDX 10 25 11 27 12 28 13 29 65 30 14 31 64 32 15 33 16 34 17 35
REMARK SMILES IDX 58 36 18 37 63 38 57 39 59 40 19 41 62 42 56 43 55 44 20 46
REMARK SMILES IDX 46 47 29 48 45 49 30 50 33 51 44 52 60 53 31 54 32 55 43 57
REMARK SMILES IDX 61 58 34 59 21 60 22 61 27 62 23 63 24 64 26 65 28 66 25 67
REMARK SMILES IDX 47 68 48 69 53 70 49 71 50 72 52 73 54 74 51 75 35 76 36 77
REMARK SMILES IDX 41 78 37 79 38 80 40 81 42 82 39 83
REMARK H PARENT 5 5 76 21 9 26 59 45 33 56
REMARK Flexibility Score: inf
ROOT
ATOM      1  C   UNL A   1      36.570  20.891  24.963  1.00  0.00     0.117 C 
ENDROOT
BRANCH   1   2
ATOM      2  N   UNL A   1      35.311  20.321  25.411  1.00  0.00    -0.356 N 
ATOM      3  C   UNL A   1      34.023  20.656  25.105  1.00  0.00     0.227 C 
ATOM      4  O   UNL A   1      33.140  19.997  25.661  1.00  0.00    -0.274 OA
ATOM      5  H   UNL A   1      35.402  19.569  26.040  1.00  0.00     0.163 HD
BRANCH   3   6
ATOM      6  C   UNL A   1      33.697  21.738  24.059  1.00  0.00     0.105 C 
ATOM      7  C   UNL A   1      32.512  21.312  23.180  1.00  0.00     0.023 C 
BRANCH   6   8
ATOM      8  C   UNL A   1      33.412  23.106  24.654  1.00  0.00    -0.036 A 
ATOM      9  C   UNL A   1      32.145  23.433  25.150  1.00  0.00     0.005 A 
ATOM     10  C   UNL A   1      34.447  24.050  24.754  1.00  0.00     0.005 A 
ATOM     11  C   UNL A   1      31.943  24.647  25.804  1.00  0.00     0.004 A 
ATOM     12  C   UNL A   1      34.236  25.271  25.391  1.00  0.00     0.004 A 
ATOM     13  C   UNL A   1      32.979  25.584  25.918  1.00  0.00    -0.048 A 
BRANCH  13  14
ATOM     14  C   UNL A   1      32.735  26.931  26.546  1.00  0.00     0.041 C 
BRANCH  14  15
ATOM     15  C   UNL A   1      33.469  28.131  25.909  1.00  0.00     0.022 C 
ATOM     16  C   UNL A   1      34.147  29.068  26.917  1.00  0.00     0.007 C 
ATOM     17  C   UNL A   1      32.577  29.073  25.093  1.00  0.00     0.117 C 
ATOM     18  C   UNL A   1      33.215  30.264  27.115  1.00  0.00     0.003 C 
ATOM     19  C   UNL A   1      32.105  30.146  26.070  1.00  0.00     0.032 C 
BRANCH  17  20
ATOM     20  O   UNL A   1      33.356  29.688  24.065  1.00  0.00    -0.393 OA
ATOM     21  H   UNL A   1      34.120  30.135  24.461  1.00  0.00     0.210 HD
ENDBRANCH  17  20
ENDBRANCH  14  15
ENDBRANCH  13  14
ENDBRANCH   6   8
ENDBRANCH   3   6
ENDBRANCH   1   2
BRANCH   1  22
ATOM     22  C   UNL A   1      37.702  19.867  24.964  1.00  0.00     0.042 C 
BRANCH  22  23
ATOM     23  C   UNL A   1      38.919  20.292  25.771  1.00  0.00     0.118 C 
BRANCH  23  24
ATOM     24  N   UNL A   1      39.932  19.248  25.830  1.00  0.00    -0.352 N 
ATOM     25  C   UNL A   1      41.284  19.360  26.029  1.00  0.00     0.251 C 
ATOM     26  H   UNL A   1      39.598  18.330  25.710  1.00  0.00     0.163 HD
ATOM     27  O   UNL A   1      42.015  18.389  25.837  1.00  0.00    -0.269 OA
BRANCH  25  28
ATOM     28  C   UNL A   1      41.867  20.647  26.461  1.00  0.00     0.039 A 
ATOM     29  C   UNL A   1      42.263  21.577  25.494  1.00  0.00     0.014 A 
ATOM     30  C   UNL A   1      42.036  20.931  27.818  1.00  0.00     0.014 A 
ATOM     31  C   UNL A   1      42.771  22.816  25.891  1.00  0.00     0.010 A 
ATOM     32  C   UNL A   1      42.460  22.194  28.211  1.00  0.00     0.010 A 
ATOM     33  C   UNL A   1      42.843  23.146  27.253  1.00  0.00    -0.014 A 
BRANCH  33  34
ATOM     34  C   UNL A   1      43.346  24.459  27.725  1.00  0.00     0.031 A 
ATOM     35  C   UNL A   1      42.365  25.522  28.132  1.00  0.00     0.074 A 
ATOM     36  C   UNL A   1      44.663  24.736  27.679  1.00  0.00     0.049 A 
ATOM     37  N   UNL A   1      42.569  26.788  28.390  1.00  0.00    -0.248 NA
ATOM     38  C   UNL A   1      40.955  25.108  28.221  1.00  0.00     0.031 C 
ATOM     39  C   UNL A   1      45.712  23.799  27.276  1.00  0.00     0.029 A 
ATOM     40  N   UNL A   1      45.338  25.901  27.944  1.00  0.00    -0.354 N 
ATOM     41  C   UNL A   1      41.313  27.327  28.638  1.00  0.00     0.074 A 
ATOM     42  C   UNL A   1      40.350  26.264  28.446  1.00  0.00     0.031 C 
ATOM     43  C   UNL A   1      46.899  24.426  27.320  1.00  0.00     0.029 A 
ATOM     44  C   UNL A   1      46.688  25.819  27.703  1.00  0.00     0.049 A 
ATOM     45  H   UNL A   1      44.898  26.717  28.275  1.00  0.00     0.167 HD
ATOM     46  C   UNL A   1      40.992  28.589  29.009  1.00  0.00     0.037 A 
ATOM     47  C   UNL A   1      47.643  26.767  27.756  1.00  0.00     0.037 A 
ATOM     48  C   UNL A   1      41.960  29.635  29.213  1.00  0.00     0.049 A 
ATOM     49  C   UNL A   1      47.270  28.169  28.152  1.00  0.00     0.074 A 
ATOM     50  C   UNL A   1      41.748  30.933  29.641  1.00  0.00     0.029 A 
ATOM     51  N   UNL A   1      43.324  29.500  28.995  1.00  0.00    -0.354 N 
ATOM     52  N   UNL A   1      46.086  28.658  28.433  1.00  0.00    -0.248 NA
ATOM     53  C   UNL A   1      48.360  29.149  28.242  1.00  0.00     0.031 C 
ATOM     54  C   UNL A   1      42.978  31.601  29.627  1.00  0.00     0.029 A 
ATOM     55  C   UNL A   1      43.964  30.700  29.256  1.00  0.00     0.049 A 
ATOM     56  H   UNL A   1      43.770  28.675  28.699  1.00  0.00     0.167 HD
ATOM     57  C   UNL A   1      46.293  29.990  28.771  1.00  0.00     0.074 A 
ATOM     58  C   UNL A   1      47.715  30.233  28.653  1.00  0.00     0.031 C 
ATOM     59  C   UNL A   1      45.385  30.922  29.151  1.00  0.00     0.037 A 
BRANCH  46  60
ATOM     60  C   UNL A   1      39.534  28.901  29.194  1.00  0.00     0.057 A 
ATOM     61  C   UNL A   1      38.889  28.747  30.429  1.00  0.00     0.134 A 
ATOM     62  C   UNL A   1      38.760  29.356  28.118  1.00  0.00     0.134 A 
ATOM     63  F   UNL A   1      39.568  28.306  31.501  1.00  0.00    -0.206 F 
ATOM     64  C   UNL A   1      37.520  28.982  30.576  1.00  0.00     0.040 A 
ATOM     65  C   UNL A   1      37.398  29.629  28.261  1.00  0.00     0.040 A 
ATOM     66  F   UNL A   1      39.311  29.537  26.909  1.00  0.00    -0.206 F 
ATOM     67  C   UNL A   1      36.772  29.428  29.489  1.00  0.00     0.006 A 
ENDBRANCH  46  60
BRANCH  47  68
ATOM     68  C   UNL A   1      49.048  26.406  27.437  1.00  0.00     0.057 A 
ATOM     69  C   UNL A   1      49.529  26.472  26.124  1.00  0.00     0.134 A 
ATOM     70  C   UNL A   1      49.952  26.024  28.436  1.00  0.00     0.134 A 
ATOM     71  F   UNL A   1      48.707  26.817  25.121  1.00  0.00    -0.206 F 
ATOM     72  C   UNL A   1      50.854  26.163  25.814  1.00  0.00     0.040 A 
ATOM     73  C   UNL A   1      51.286  25.736  28.144  1.00  0.00     0.040 A 
ATOM     74  F   UNL A   1      49.557  25.953  29.716  1.00  0.00    -0.206 F 
ATOM     75  C   UNL A   1      51.739  25.802  26.828  1.00  0.00     0.006 A 
ENDBRANCH  47  68
BRANCH  59  76
ATOM     76  C   UNL A   1      45.898  32.282  29.528  1.00  0.00     0.057 A 
ATOM     77  C   UNL A   1      45.976  33.332  28.607  1.00  0.00     0.134 A 
ATOM     78  C   UNL A   1      46.236  32.561  30.860  1.00  0.00     0.134 A 
ATOM     79  F   UNL A   1      45.679  33.129  27.316  1.00  0.00    -0.206 F 
ATOM     80  C   UNL A   1      46.380  34.612  28.995  1.00  0.00     0.040 A 
ATOM     81  C   UNL A   1      46.614  33.841  31.266  1.00  0.00     0.040 A 
ATOM     82  F   UNL A   1      46.173  31.601  31.795  1.00  0.00    -0.206 F 
ATOM     83  C   UNL A   1      46.689  34.870  30.330  1.00  0.00     0.006 A 
ENDBRANCH  59  76
ENDBRANCH  33  34
ENDBRANCH  25  28
ENDBRANCH  23  24
ENDBRANCH  22  23
ENDBRANCH   1  22
TORSDOF 14
ENDMDL
MODEL 2
REMARK VINA RESULT:     -11.7      4.947     10.176
REMARK SMILES C[C@H](C(=O)NCCCNC(=O)c1ccc(-c2c3nc(c(-c4c(F)cccc4F)c4ccc([nH]4)c(-c4c(F)cccc4F)c4nc(c(-c5c(F)cccc5F)c5ccc2[nH]5)C=C4)C=C3)cc1)c1ccc(C[C@@H]2CCC[C@H]2O)cc1
REMARK SMILES IDX 6 1 5 2 3 3 4 4 2 6 1 7 66 8 67 9 78 10 68 11 77 12 69 13
REMARK SMILES IDX 70 14 71 15 72 16 75 17 73 18 74 19 76 20 7 22 8 23 9 24
REMARK SMILES IDX 10 25 11 27 12 28 13 29 65 30 14 31 64 32 15 33 16 34 17 35
REMARK SMILES IDX 58 36 18 37 63 38 57 39 59 40 19 41 62 42 56 43 55 44 20 46
REMARK SMILES IDX 46 47 29 48 45 49 30 50 33 51 44 52 60 53 31 54 32 55 43 57
REMARK SMILES IDX 61 58 34 59 21 60 22 61 27 62 23 63 24 64 26 65 28 66 25 67
REMARK SMILES IDX 47 68 48 69 53 70 49 71 50 72 52 73 54 74 51 75 35 76 36 77
REMARK SMILES IDX 41 78 37 79 38 80 40 81 42 82 39 83
REMARK H PARENT 5 5 76 21 9 26 59 45 33 56
REMARK Flexibility Score: inf
ROOT
ATOM      1  C   UNL A   1      31.581  30.190  26.012  1.00  0.00     0.117 C 
ENDROOT
BRANCH   1   2
ATOM      2  N   UNL A   1      31.342  30.056  24.585  1.00  0.00    -0.356 N 
ATOM      3  C   UNL A   1      31.016  28.962  23.836  1.00  0.00     0.227 C 
ATOM      4  O   UNL A   1      30.892  29.148  22.622  1.00  0.00    -0.274 OA
ATOM      5  H   UNL A   1      31.430  30.894  24.074  1.00  0.00     0.163 HD
BRANCH   3   6
ATOM      6  C   UNL A   1      30.737  27.593  24.484  1.00  0.00     0.105 C 
ATOM      7  C   UNL A   1      29.485  26.944  23.877  1.00  0.00     0.023 C 
BRANCH   6   8
ATOM      8  C   UNL A   1      31.899  26.620  24.395  1.00  0.00    -0.036 A 
ATOM      9  C   UNL A   1      32.393  26.190  23.159  1.00  0.00     0.005 A 
ATOM     10  C   UNL A   1      32.524  26.174  25.571  1.00  0.00     0.005 A 
ATOM     11  C   UNL A   1      33.538  25.396  23.102  1.00  0.00     0.004 A 
ATOM     12  C   UNL A   1      33.656  25.365  25.511  1.00  0.00     0.004 A 
ATOM     13  C   UNL A   1      34.172  24.963  24.274  1.00  0.00    -0.048 A 
BRANCH  13  14
ATOM     14  C   UNL A   1      35.355  24.033  24.212  1.00  0.00     0.041 C 
BRANCH  14  15
ATOM     15  C   UNL A   1      35.760  23.345  25.534  1.00  0.00     0.022 C 
ATOM     16  C   UNL A   1      37.271  23.323  25.800  1.00  0.00     0.007 C 
ATOM     17  C   UNL A   1      35.358  21.871  25.642  1.00  0.00     0.117 C 
ATOM     18  C   UNL A   1      37.777  21.937  25.397  1.00  0.00     0.003 C 
ATOM     19  C   UNL A   1      36.546  21.077  25.107  1.00  0.00     0.032 C 
BRANCH  17  20
ATOM     20  O   UNL A   1      35.155  21.537  27.017  1.00  0.00    -0.393 OA
ATOM     21  H   UNL A   1      35.790  22.024  27.565  1.00  0.00     0.210 HD
ENDBRANCH  17  20
ENDBRANCH  14  15
ENDBRANCH  13  14
ENDBRANCH   6   8
ENDBRANCH   3   6
ENDBRANCH   1   2
BRANCH   1  22
ATOM     22  C   UNL A   1      31.382  31.622  26.500  1.00  0.00     0.042 C 
BRANCH  22  23
ATOM     23  C   UNL A   1      32.629  32.249  27.104  1.00  0.00     0.118 C 
BRANCH  23  24
ATOM     24  N   UNL A   1      32.430  33.649  27.447  1.00  0.00    -0.352 N 
ATOM     25  C   UNL A   1      33.051  34.405  28.409  1.00  0.00     0.251 C 
ATOM     26  H   UNL A   1      31.752  34.122  26.912  1.00  0.00     0.163 HD
ATOM     27  O   UNL A   1      32.606  35.516  28.699  1.00  0.00    -0.269 OA
BRANCH  25  28
ATOM     28  C   UNL A   1      34.244  33.884  29.106  1.00  0.00     0.039 A 
ATOM     29  C   UNL A   1      34.091  32.882  30.069  1.00  0.00     0.014 A 
ATOM     30  C   UNL A   1      35.513  34.393  28.820  1.00  0.00     0.014 A 
ATOM     31  C   UNL A   1      35.217  32.349  30.701  1.00  0.00     0.010 A 
ATOM     32  C   UNL A   1      36.637  33.803  29.384  1.00  0.00     0.010 A 
ATOM     33  C   UNL A   1      36.501  32.783  30.339  1.00  0.00    -0.014 A 
BRANCH  33  34
ATOM     34  C   UNL A   1      37.729  32.227  30.958  1.00  0.00     0.031 A 
ATOM     35  C   UNL A   1      38.462  31.111  30.268  1.00  0.00     0.074 A 
ATOM     36  C   UNL A   1      38.117  32.637  32.179  1.00  0.00     0.049 A 
ATOM     37  N   UNL A   1      39.432  30.355  30.710  1.00  0.00    -0.248 NA
ATOM     38  C   UNL A   1      38.011  30.779  28.906  1.00  0.00     0.031 C 
ATOM     39  C   UNL A   1      37.473  33.691  32.964  1.00  0.00     0.029 A 
ATOM     40  N   UNL A   1      39.130  32.190  32.990  1.00  0.00    -0.354 N 
ATOM     41  C   UNL A   1      39.685  29.438  29.698  1.00  0.00     0.074 A 
ATOM     42  C   UNL A   1      38.729  29.698  28.643  1.00  0.00     0.031 C 
ATOM     43  C   UNL A   1      38.106  33.809  34.142  1.00  0.00     0.029 A 
ATOM     44  C   UNL A   1      39.165  32.807  34.217  1.00  0.00     0.049 A 
ATOM     45  H   UNL A   1      39.771  31.494  32.718  1.00  0.00     0.167 HD
ATOM     46  C   UNL A   1      40.637  28.476  29.645  1.00  0.00     0.037 A 
ATOM     47  C   UNL A   1      39.943  32.571  35.290  1.00  0.00     0.037 A 
ATOM     48  C   UNL A   1      41.593  28.236  30.693  1.00  0.00     0.049 A 
ATOM     49  C   UNL A   1      40.984  31.488  35.224  1.00  0.00     0.074 A 
ATOM     50  C   UNL A   1      42.633  27.325  30.719  1.00  0.00     0.029 A 
ATOM     51  N   UNL A   1      41.619  28.910  31.906  1.00  0.00    -0.354 N 
ATOM     52  N   UNL A   1      41.248  30.659  34.243  1.00  0.00    -0.248 NA
ATOM     53  C   UNL A   1      41.836  31.309  36.406  1.00  0.00     0.031 C 
ATOM     54  C   UNL A   1      43.253  27.407  31.971  1.00  0.00     0.029 A 
ATOM     55  C   UNL A   1      42.642  28.418  32.698  1.00  0.00     0.049 A 
ATOM     56  H   UNL A   1      41.001  29.631  32.165  1.00  0.00     0.167 HD
ATOM     57  C   UNL A   1      42.320  29.886  34.674  1.00  0.00     0.074 A 
ATOM     58  C   UNL A   1      42.653  30.343  36.007  1.00  0.00     0.031 C 
ATOM     59  C   UNL A   1      42.972  28.895  34.018  1.00  0.00     0.037 A 
BRANCH  46  60
ATOM     60  C   UNL A   1      40.668  27.607  28.419  1.00  0.00     0.057 A 
ATOM     61  C   UNL A   1      39.965  26.396  28.346  1.00  0.00     0.134 A 
ATOM     62  C   UNL A   1      41.419  27.981  27.298  1.00  0.00     0.134 A 
ATOM     63  F   UNL A   1      39.231  25.971  29.387  1.00  0.00    -0.206 F 
ATOM     64  C   UNL A   1      40.049  25.567  27.225  1.00  0.00     0.040 A 
ATOM     65  C   UNL A   1      41.482  27.178  26.158  1.00  0.00     0.040 A 
ATOM     66  F   UNL A   1      42.110  29.131  27.292  1.00  0.00    -0.206 F 
ATOM     67  C   UNL A   1      40.807  25.960  26.126  1.00  0.00     0.006 A 
ENDBRANCH  46  60
BRANCH  47  68
ATOM     68  C   UNL A   1      39.767  33.394  36.514  1.00  0.00     0.057 A 
ATOM     69  C   UNL A   1      40.484  34.583  36.694  1.00  0.00     0.134 A 
ATOM     70  C   UNL A   1      38.854  33.035  37.514  1.00  0.00     0.134 A 
ATOM     71  F   UNL A   1      41.384  34.973  35.778  1.00  0.00    -0.206 F 
ATOM     72  C   UNL A   1      40.307  35.380  37.826  1.00  0.00     0.040 A 
ATOM     73  C   UNL A   1      38.649  33.834  38.640  1.00  0.00     0.040 A 
ATOM     74  F   UNL A   1      38.127  31.914  37.396  1.00  0.00    -0.206 F 
ATOM     75  C   UNL A   1      39.381  35.009  38.799  1.00  0.00     0.006 A 
ENDBRANCH  47  68
BRANCH  59  76
ATOM     76  C   UNL A   1      44.154  28.268  34.700  1.00  0.00     0.057 A 
ATOM     77  C   UNL A   1      44.044  27.095  35.455  1.00  0.00     0.134 A 
ATOM     78  C   UNL A   1      45.436  28.806  34.521  1.00  0.00     0.134 A 
ATOM     79  F   UNL A   1      42.845  26.536  35.675  1.00  0.00    -0.206 F 
ATOM     80  C   UNL A   1      45.168  26.482  36.016  1.00  0.00     0.040 A 
ATOM     81  C   UNL A   1      46.569  28.188  35.051  1.00  0.00     0.040 A 
ATOM     82  F   UNL A   1      45.612  29.923  33.799  1.00  0.00    -0.206 F 
ATOM     83  C   UNL A   1      46.435  27.024  35.803  1.00  0.00     0.006 A 
ENDBRANCH  59  76
ENDBRANCH  33  34
ENDBRANCH  25  28
ENDBRANCH  23  24
ENDBRANCH  22  23
ENDBRANCH   1  22
TORSDOF 14
ENDMDL
MODEL 3
REMARK VINA RESULT:     -11.6      4.894     10.045
REMARK SMILES C[C@H](C(=O)NCCCNC(=O)c1ccc(-c2c3nc(c(-c4c(F)cccc4F)c4ccc([nH]4)c(-c4c(F)cccc4F)c4nc(c(-c5c(F)cccc5F)c5ccc2[nH]5)C=C4)C=C3)cc1)c1ccc(C[C@@H]2CCC[C@H]2O)cc1
REMARK SMILES IDX 6 1 5 2 3 3 4 4 2 6 1 7 66 8 67 9 78 10 68 11 77 12 69 13
REMARK SMILES IDX 70 14 71 15 72 16 75 17 73 18 74 19 76 20 7 22 8 23 9 24
REMARK SMILES IDX 10 25 11 27 12 28 13 29 65 30 14 31 64 32 15 33 16 34 17 35
REMARK SMILES IDX 58 36 18 37 63 38 57 39 59 40 19 41 62 42 56 43 55 44 20 46
REMARK SMILES IDX 46 47 29 48 45 49 30 50 33 51 44 52 60 53 31 54 32 55 43 57
REMARK SMILES IDX 61 58 34 59 21 60 22 61 27 62 23 63 24 64 26 65 28 66 25 67
REMARK SMILES IDX 47 68 48 69 53 70 49 71 50 72 52 73 54 74 51 75 35 76 36 77
REMARK SMILES IDX 41 78 37 79 38 80 40 81 42 82 39 83
REMARK H PARENT 5 5 76 21 9 26 59 45 33 56
REMARK Flexibility Score: inf
ROOT
ATOM      1  C   UNL A   1      31.357  30.406  25.713  1.00  0.00     0.117 C 
ENDROOT
BRANCH   1   2
ATOM      2  N   UNL A   1      30.870  30.295  24.349  1.00  0.00    -0.356 N 
ATOM      3  C   UNL A   1      30.363  29.225  23.668  1.00  0.00     0.227 C 
ATOM      4  O   UNL A   1      30.043  29.425  22.493  1.00  0.00    -0.274 OA
ATOM      5  H   UNL A   1      30.914  31.130  23.828  1.00  0.00     0.163 HD
BRANCH   3   6
ATOM      6  C   UNL A   1      30.126  27.868  24.358  1.00  0.00     0.105 C 
ATOM      7  C   UNL A   1      29.103  27.029  23.580  1.00  0.00     0.023 C 
BRANCH   6   8
ATOM      8  C   UNL A   1      31.390  27.052  24.565  1.00  0.00    -0.036 A 
ATOM      9  C   UNL A   1      31.553  26.240  25.692  1.00  0.00     0.005 A 
ATOM     10  C   UNL A   1      32.399  27.074  23.589  1.00  0.00     0.005 A 
ATOM     11  C   UNL A   1      32.666  25.406  25.797  1.00  0.00     0.004 A 
ATOM     12  C   UNL A   1      33.520  26.254  23.706  1.00  0.00     0.004 A 
ATOM     13  C   UNL A   1      33.667  25.415  24.816  1.00  0.00    -0.048 A 
BRANCH  13  14
ATOM     14  C   UNL A   1      34.910  24.581  24.975  1.00  0.00     0.041 C 
BRANCH  14  15
ATOM     15  C   UNL A   1      35.169  23.515  23.888  1.00  0.00     0.022 C 
ATOM     16  C   UNL A   1      34.619  22.122  24.222  1.00  0.00     0.007 C 
ATOM     17  C   UNL A   1      36.646  23.251  23.584  1.00  0.00     0.117 C 
ATOM     18  C   UNL A   1      35.792  21.290  24.741  1.00  0.00     0.003 C 
ATOM     19  C   UNL A   1      37.062  22.109  24.507  1.00  0.00     0.032 C 
BRANCH  17  20
ATOM     20  O   UNL A   1      36.780  22.825  22.226  1.00  0.00    -0.393 OA
ATOM     21  H   UNL A   1      36.090  23.242  21.687  1.00  0.00     0.210 HD
ENDBRANCH  17  20
ENDBRANCH  14  15
ENDBRANCH  13  14
ENDBRANCH   6   8
ENDBRANCH   3   6
ENDBRANCH   1   2
BRANCH   1  22
ATOM     22  C   UNL A   1      31.219  31.823  26.263  1.00  0.00     0.042 C 
BRANCH  22  23
ATOM     23  C   UNL A   1      32.486  32.361  26.909  1.00  0.00     0.118 C 
BRANCH  23  24
ATOM     24  N   UNL A   1      32.313  33.715  27.415  1.00  0.00    -0.352 N 
ATOM     25  C   UNL A   1      33.010  34.372  28.397  1.00  0.00     0.251 C 
ATOM     26  H   UNL A   1      31.592  34.234  26.991  1.00  0.00     0.163 HD
ATOM     27  O   UNL A   1      32.588  35.440  28.839  1.00  0.00    -0.269 OA
BRANCH  25  28
ATOM     28  C   UNL A   1      34.259  33.794  28.933  1.00  0.00     0.039 A 
ATOM     29  C   UNL A   1      35.488  34.320  28.521  1.00  0.00     0.014 A 
ATOM     30  C   UNL A   1      34.220  32.724  29.830  1.00  0.00     0.014 A 
ATOM     31  C   UNL A   1      36.674  33.813  29.057  1.00  0.00     0.010 A 
ATOM     32  C   UNL A   1      35.393  32.280  30.426  1.00  0.00     0.010 A 
ATOM     33  C   UNL A   1      36.634  32.811  30.038  1.00  0.00    -0.014 A 
BRANCH  33  34
ATOM     34  C   UNL A   1      37.863  32.261  30.660  1.00  0.00     0.031 A 
ATOM     35  C   UNL A   1      38.591  31.133  29.984  1.00  0.00     0.074 A 
ATOM     36  C   UNL A   1      38.256  32.688  31.874  1.00  0.00     0.049 A 
ATOM     37  N   UNL A   1      39.560  30.381  30.434  1.00  0.00    -0.248 NA
ATOM     38  C   UNL A   1      38.134  30.782  28.629  1.00  0.00     0.031 C 
ATOM     39  C   UNL A   1      37.617  33.755  32.645  1.00  0.00     0.029 A 
ATOM     40  N   UNL A   1      39.271  32.249  32.688  1.00  0.00    -0.354 N 
ATOM     41  C   UNL A   1      39.807  29.448  29.435  1.00  0.00     0.074 A 
ATOM     42  C   UNL A   1      38.848  29.696  28.379  1.00  0.00     0.031 C 
ATOM     43  C   UNL A   1      38.255  33.888  33.820  1.00  0.00     0.029 A 
ATOM     44  C   UNL A   1      39.311  32.884  33.906  1.00  0.00     0.049 A 
ATOM     45  H   UNL A   1      39.909  31.548  32.424  1.00  0.00     0.167 HD
ATOM     46  C   UNL A   1      40.756  28.484  29.392  1.00  0.00     0.037 A 
ATOM     47  C   UNL A   1      40.092  32.662  34.980  1.00  0.00     0.037 A 
ATOM     48  C   UNL A   1      41.715  28.256  30.441  1.00  0.00     0.049 A 
ATOM     49  C   UNL A   1      41.130  31.576  34.925  1.00  0.00     0.074 A 
ATOM     50  C   UNL A   1      42.753  27.343  30.476  1.00  0.00     0.029 A 
ATOM     51  N   UNL A   1      41.747  28.948  31.644  1.00  0.00    -0.354 N 
ATOM     52  N   UNL A   1      41.389  30.731  33.956  1.00  0.00    -0.248 NA
ATOM     53  C   UNL A   1      41.986  31.412  36.108  1.00  0.00     0.031 C 
ATOM     54  C   UNL A   1      43.377  27.442  31.725  1.00  0.00     0.029 A 
ATOM     55  C   UNL A   1      42.771  28.464  32.439  1.00  0.00     0.049 A 
ATOM     56  H   UNL A   1      41.132  29.674  31.895  1.00  0.00     0.167 HD
ATOM     57  C   UNL A   1      42.460  29.962  34.394  1.00  0.00     0.074 A 
ATOM     58  C   UNL A   1      42.799  30.438  35.719  1.00  0.00     0.031 C 
ATOM     59  C   UNL A   1      43.107  28.960  33.752  1.00  0.00     0.037 A 
BRANCH  46  60
ATOM     60  C   UNL A   1      40.781  27.596  28.179  1.00  0.00     0.057 A 
ATOM     61  C   UNL A   1      40.088  26.378  28.133  1.00  0.00     0.134 A 
ATOM     62  C   UNL A   1      41.515  27.961  27.044  1.00  0.00     0.134 A 
ATOM     63  F   UNL A   1      39.372  25.961  29.189  1.00  0.00    -0.206 F 
ATOM     64  C   UNL A   1      40.167  25.533  27.024  1.00  0.00     0.040 A 
ATOM     65  C   UNL A   1      41.572  27.141  25.915  1.00  0.00     0.040 A 
ATOM     66  F   UNL A   1      42.194  29.118  27.012  1.00  0.00    -0.206 F 
ATOM     67  C   UNL A   1      40.908  25.917  25.909  1.00  0.00     0.006 A 
ENDBRANCH  46  60
BRANCH  47  68
ATOM     68  C   UNL A   1      39.922  33.503  36.192  1.00  0.00     0.057 A 
ATOM     69  C   UNL A   1      40.583  34.731  36.318  1.00  0.00     0.134 A 
ATOM     70  C   UNL A   1      39.070  33.121  37.235  1.00  0.00     0.134 A 
ATOM     71  F   UNL A   1      41.425  35.145  35.357  1.00  0.00    -0.206 F 
ATOM     72  C   UNL A   1      40.411  35.544  37.438  1.00  0.00     0.040 A 
ATOM     73  C   UNL A   1      38.869  33.935  38.352  1.00  0.00     0.040 A 
ATOM     74  F   UNL A   1      38.398  31.962  37.172  1.00  0.00    -0.206 F 
ATOM     75  C   UNL A   1      39.544  35.149  38.456  1.00  0.00     0.006 A 
ENDBRANCH  47  68
BRANCH  59  76
ATOM     76  C   UNL A   1      44.290  28.339  34.438  1.00  0.00     0.057 A 
ATOM     77  C   UNL A   1      45.577  28.881  34.344  1.00  0.00     0.134 A 
ATOM     78  C   UNL A   1      44.113  27.229  35.276  1.00  0.00     0.134 A 
ATOM     79  F   UNL A   1      45.815  29.935  33.550  1.00  0.00    -0.206 F 
ATOM     80  C   UNL A   1      46.650  28.336  35.054  1.00  0.00     0.040 A 
ATOM     81  C   UNL A   1      45.171  26.693  36.013  1.00  0.00     0.040 A 
ATOM     82  F   UNL A   1      42.903  26.668  35.418  1.00  0.00    -0.206 F 
ATOM     83  C   UNL A   1      46.444  27.246  35.900  1.00  0.00     0.006 A 
ENDBRANCH  59  76
ENDBRANCH  33  34
ENDBRANCH  25  28
ENDBRANCH  23  24
ENDBRANCH  22  23
ENDBRANCH   1  22
TORSDOF 14
ENDMDL
