MODEL 1
REMARK VINA RESULT:     -12.2      0.000      0.000
REMARK SMILES COc1ccc(-c2nc(NCC(=O)NCCCNC(=O)c3ccc(-c4c5nc(c(-c6c(F)cccc6F)c6ccc([nH]6)c(-c6c(F)cccc6F)c6nc(c(-c7c(F)cccc7F)c7ccc4[nH]7)C=C6)C=C5)cc3)sc2-c2ccc(OC)cc2)cc1
REMARK SMILES IDX 15 1 14 2 12 3 13 4 11 6 10 7 9 9 7 10 8 11 76 12 75 13 6 14
REMARK SMILES IDX 3 15 4 16 86 17 5 18 85 19 2 20 1 21 77 22 78 23 84 24 79 25
REMARK SMILES IDX 83 26 80 27 81 28 82 29 16 30 17 31 18 32 19 33 20 35 21 36
REMARK SMILES IDX 22 37 74 38 23 39 73 40 24 41 25 42 26 43 67 44 27 45 72 46
REMARK SMILES IDX 66 47 68 48 28 49 71 50 65 51 64 52 29 54 55 55 38 56 54 57
REMARK SMILES IDX 39 58 42 59 53 60 69 61 40 62 41 63 52 65 70 66 43 67 30 68
REMARK SMILES IDX 31 69 36 70 32 71 33 72 35 73 37 74 34 75 56 76 57 77 62 78
REMARK SMILES IDX 58 79 59 80 61 81 63 82 60 83 44 84 45 85 50 86 46 87 47 88
REMARK SMILES IDX 49 89 51 90 48 91
REMARK H PARENT 14 5 10 8 18 34 68 53 42 64
REMARK Flexibility Score: inf
ROOT
ATOM      1  C   UNL A   1      36.504  20.334  24.876  1.00  0.00     0.117 C 
ENDROOT
BRANCH   1   2
ATOM      2  N   UNL A   1      35.227  19.661  25.019  1.00  0.00    -0.355 N 
ATOM      3  C   UNL A   1      33.972  20.164  24.807  1.00  0.00     0.239 C 
ATOM      4  O   UNL A   1      33.004  19.439  25.045  1.00  0.00    -0.273 OA
ATOM      5  H   UNL A   1      35.269  18.720  25.306  1.00  0.00     0.163 HD
BRANCH   3   6
ATOM      6  C   UNL A   1      33.799  21.588  24.262  1.00  0.00     0.215 C 
BRANCH   6   7
ATOM      7  N   UNL A   1      32.767  22.306  24.989  1.00  0.00    -0.352 N 
ATOM      8  H   UNL A   1      32.139  21.767  25.522  1.00  0.00     0.163 HD
BRANCH   7   9
ATOM      9  C   UNL A   1      32.591  23.643  25.001  1.00  0.00     0.184 A 
ATOM     10  C   UNL A   1      31.545  25.560  24.616  1.00  0.00     0.091 A 
ATOM     11  N   UNL A   1      31.561  24.193  24.401  1.00  0.00    -0.220 NA
ATOM     12  C   UNL A   1      32.534  26.041  25.463  1.00  0.00     0.064 A 
ATOM     13  S   UNL A   1      33.621  24.766  25.811  1.00  0.00    -0.096 S 
BRANCH  10  14
ATOM     14  C   UNL A   1      30.520  26.410  24.030  1.00  0.00     0.002 A 
ATOM     15  C   UNL A   1      28.562  28.175  23.079  1.00  0.00     0.118 A 
ATOM     16  C   UNL A   1      29.907  28.400  22.787  1.00  0.00     0.047 A 
ATOM     17  C   UNL A   1      28.187  27.037  23.794  1.00  0.00     0.047 A 
ATOM     18  C   UNL A   1      30.883  27.527  23.267  1.00  0.00     0.014 A 
ATOM     19  C   UNL A   1      29.166  26.152  24.266  1.00  0.00     0.014 A 
BRANCH  15  20
ATOM     20  O   UNL A   1      27.687  29.099  22.577  1.00  0.00    -0.497 OA
ATOM     21  C   UNL A   1      28.264  30.012  21.649  1.00  0.00     0.278 C 
ENDBRANCH  15  20
ENDBRANCH  10  14
BRANCH  12  22
ATOM     22  C   UNL A   1      32.716  27.364  26.065  1.00  0.00    -0.006 A 
ATOM     23  C   UNL A   1      33.912  28.074  25.938  1.00  0.00     0.013 A 
ATOM     24  C   UNL A   1      31.655  27.954  26.767  1.00  0.00     0.013 A 
ATOM     25  C   UNL A   1      34.030  29.358  26.481  1.00  0.00     0.047 A 
ATOM     26  C   UNL A   1      31.772  29.239  27.304  1.00  0.00     0.047 A 
ATOM     27  C   UNL A   1      32.958  29.953  27.150  1.00  0.00     0.118 A 
BRANCH  27  28
ATOM     28  O   UNL A   1      33.192  31.220  27.608  1.00  0.00    -0.497 OA
ATOM     29  C   UNL A   1      34.555  31.607  27.737  1.00  0.00     0.278 C 
ENDBRANCH  27  28
ENDBRANCH  12  22
ENDBRANCH   7   9
ENDBRANCH   6   7
ENDBRANCH   3   6
ENDBRANCH   1   2
BRANCH   1  30
ATOM     30  C   UNL A   1      37.681  19.369  25.001  1.00  0.00     0.042 C 
BRANCH  30  31
ATOM     31  C   UNL A   1      38.948  20.019  25.549  1.00  0.00     0.118 C 
BRANCH  31  32
ATOM     32  N   UNL A   1      40.019  19.054  25.760  1.00  0.00    -0.352 N 
ATOM     33  C   UNL A   1      41.340  19.251  26.063  1.00  0.00     0.251 C 
ATOM     34  H   UNL A   1      39.751  18.111  25.672  1.00  0.00     0.163 HD
ATOM     35  O   UNL A   1      42.116  18.293  26.022  1.00  0.00    -0.269 OA
BRANCH  33  36
ATOM     36  C   UNL A   1      41.853  20.589  26.428  1.00  0.00     0.039 A 
ATOM     37  C   UNL A   1      41.976  20.910  27.784  1.00  0.00     0.014 A 
ATOM     38  C   UNL A   1      42.151  21.548  25.456  1.00  0.00     0.014 A 
ATOM     39  C   UNL A   1      42.434  22.173  28.164  1.00  0.00     0.010 A 
ATOM     40  C   UNL A   1      42.670  22.784  25.835  1.00  0.00     0.010 A 
ATOM     41  C   UNL A   1      42.803  23.115  27.191  1.00  0.00    -0.014 A 
BRANCH  41  42
ATOM     42  C   UNL A   1      43.295  24.462  27.574  1.00  0.00     0.031 A 
ATOM     43  C   UNL A   1      42.320  25.522  28.010  1.00  0.00     0.074 A 
ATOM     44  C   UNL A   1      44.607  24.749  27.479  1.00  0.00     0.049 A 
ATOM     45  N   UNL A   1      42.541  26.778  28.304  1.00  0.00    -0.248 NA
ATOM     46  C   UNL A   1      40.907  25.122  28.102  1.00  0.00     0.031 C 
ATOM     47  C   UNL A   1      45.647  23.820  27.036  1.00  0.00     0.029 A 
ATOM     48  N   UNL A   1      45.288  25.911  27.738  1.00  0.00    -0.354 N 
ATOM     49  C   UNL A   1      41.295  27.323  28.594  1.00  0.00     0.074 A 
ATOM     50  C   UNL A   1      40.319  26.272  28.397  1.00  0.00     0.031 C 
ATOM     51  C   UNL A   1      46.837  24.443  27.071  1.00  0.00     0.029 A 
ATOM     52  C   UNL A   1      46.638  25.823  27.507  1.00  0.00     0.049 A 
ATOM     53  H   UNL A   1      44.849  26.732  28.061  1.00  0.00     0.167 HD
ATOM     54  C   UNL A   1      40.993  28.576  29.006  1.00  0.00     0.037 A 
ATOM     55  C   UNL A   1      47.605  26.752  27.626  1.00  0.00     0.037 A 
ATOM     56  C   UNL A   1      41.968  29.611  29.234  1.00  0.00     0.049 A 
ATOM     57  C   UNL A   1      47.246  28.133  28.096  1.00  0.00     0.074 A 
ATOM     58  C   UNL A   1      41.767  30.898  29.698  1.00  0.00     0.029 A 
ATOM     59  N   UNL A   1      43.330  29.470  29.017  1.00  0.00    -0.354 N 
ATOM     60  N   UNL A   1      46.071  28.619  28.414  1.00  0.00    -0.248 NA
ATOM     61  C   UNL A   1      48.350  29.095  28.230  1.00  0.00     0.031 C 
ATOM     62  C   UNL A   1      43.006  31.548  29.735  1.00  0.00     0.029 A 
ATOM     63  C   UNL A   1      43.982  30.651  29.331  1.00  0.00     0.049 A 
ATOM     64  H   UNL A   1      43.769  28.653  28.689  1.00  0.00     0.167 HD
ATOM     65  C   UNL A   1      46.297  29.929  28.816  1.00  0.00     0.074 A 
ATOM     66  C   UNL A   1      47.722  30.159  28.709  1.00  0.00     0.031 C 
ATOM     67  C   UNL A   1      45.404  30.857  29.237  1.00  0.00     0.037 A 
BRANCH  54  68
ATOM     68  C   UNL A   1      39.546  28.894  29.244  1.00  0.00     0.057 A 
ATOM     69  C   UNL A   1      38.711  29.345  28.212  1.00  0.00     0.134 A 
ATOM     70  C   UNL A   1      38.974  28.724  30.511  1.00  0.00     0.134 A 
ATOM     71  F   UNL A   1      39.200  29.541  26.979  1.00  0.00    -0.206 F 
ATOM     72  C   UNL A   1      37.366  29.641  28.439  1.00  0.00     0.040 A 
ATOM     73  C   UNL A   1      37.624  28.992  30.743  1.00  0.00     0.040 A 
ATOM     74  F   UNL A   1      39.716  28.290  31.541  1.00  0.00    -0.206 F 
ATOM     75  C   UNL A   1      36.818  29.458  29.707  1.00  0.00     0.006 A 
ENDBRANCH  54  68
BRANCH  55  76
ATOM     76  C   UNL A   1      49.014  26.397  27.325  1.00  0.00     0.057 A 
ATOM     77  C   UNL A   1      49.872  25.940  28.333  1.00  0.00     0.134 A 
ATOM     78  C   UNL A   1      49.540  26.516  26.034  1.00  0.00     0.134 A 
ATOM     79  F   UNL A   1      49.429  25.823  29.593  1.00  0.00    -0.206 F 
ATOM     80  C   UNL A   1      51.208  25.632  28.072  1.00  0.00     0.040 A 
ATOM     81  C   UNL A   1      50.868  26.190  25.753  1.00  0.00     0.040 A 
ATOM     82  F   UNL A   1      48.767  26.939  25.024  1.00  0.00    -0.206 F 
ATOM     83  C   UNL A   1      51.708  25.754  26.777  1.00  0.00     0.006 A 
ENDBRANCH  55  76
BRANCH  67  84
ATOM     84  C   UNL A   1      45.947  32.189  29.658  1.00  0.00     0.057 A 
ATOM     85  C   UNL A   1      46.063  33.259  28.762  1.00  0.00     0.134 A 
ATOM     86  C   UNL A   1      46.322  32.415  30.989  1.00  0.00     0.134 A 
ATOM     87  F   UNL A   1      45.733  33.103  27.471  1.00  0.00    -0.206 F 
ATOM     88  C   UNL A   1      46.552  34.500  29.170  1.00  0.00     0.040 A 
ATOM     89  C   UNL A   1      46.791  33.658  31.414  1.00  0.00     0.040 A 
ATOM     90  F   UNL A   1      46.227  31.432  31.898  1.00  0.00    -0.206 F 
ATOM     91  C   UNL A   1      46.912  34.704  30.502  1.00  0.00     0.006 A 
ENDBRANCH  67  84
ENDBRANCH  41  42
ENDBRANCH  33  36
ENDBRANCH  31  32
ENDBRANCH  30  31
ENDBRANCH   1  30
TORSDOF 16
ENDMDL
MODEL 2
REMARK VINA RESULT:     -12.1      0.932      3.038
REMARK SMILES COc1ccc(-c2nc(NCC(=O)NCCCNC(=O)c3ccc(-c4c5nc(c(-c6c(F)cccc6F)c6ccc([nH]6)c(-c6c(F)cccc6F)c6nc(c(-c7c(F)cccc7F)c7ccc4[nH]7)C=C6)C=C5)cc3)sc2-c2ccc(OC)cc2)cc1
REMARK SMILES IDX 15 1 14 2 12 3 13 4 11 6 10 7 9 9 7 10 8 11 76 12 75 13 6 14
REMARK SMILES IDX 3 15 4 16 86 17 5 18 85 19 2 20 1 21 77 22 78 23 84 24 79 25
REMARK SMILES IDX 83 26 80 27 81 28 82 29 16 30 17 31 18 32 19 33 20 35 21 36
REMARK SMILES IDX 22 37 74 38 23 39 73 40 24 41 25 42 26 43 67 44 27 45 72 46
REMARK SMILES IDX 66 47 68 48 28 49 71 50 65 51 64 52 29 54 55 55 38 56 54 57
REMARK SMILES IDX 39 58 42 59 53 60 69 61 40 62 41 63 52 65 70 66 43 67 30 68
REMARK SMILES IDX 31 69 36 70 32 71 33 72 35 73 37 74 34 75 56 76 57 77 62 78
REMARK SMILES IDX 58 79 59 80 61 81 63 82 60 83 44 84 45 85 50 86 46 87 47 88
REMARK SMILES IDX 49 89 51 90 48 91
REMARK H PARENT 14 5 10 8 18 34 68 53 42 64
REMARK Flexibility Score: inf
ROOT
ATOM      1  C   UNL A   1      36.129  20.412  25.004  1.00  0.00     0.117 C 
ENDROOT
BRANCH   1   2
ATOM      2  N   UNL A   1      34.887  19.676  24.864  1.00  0.00    -0.355 N 
ATOM      3  C   UNL A   1      33.611  20.108  25.103  1.00  0.00     0.239 C 
ATOM      4  O   UNL A   1      32.688  19.300  24.980  1.00  0.00    -0.273 OA
ATOM      5  H   UNL A   1      34.974  18.745  24.558  1.00  0.00     0.163 HD
BRANCH   3   6
ATOM      6  C   UNL A   1      33.355  21.571  25.487  1.00  0.00     0.215 C 
BRANCH   6   7
ATOM      7  N   UNL A   1      32.675  22.282  24.419  1.00  0.00    -0.352 N 
ATOM      8  H   UNL A   1      32.599  21.822  23.552  1.00  0.00     0.163 HD
BRANCH   7   9
ATOM      9  C   UNL A   1      32.137  23.517  24.506  1.00  0.00     0.184 A 
ATOM     10  C   UNL A   1      32.004  25.637  25.141  1.00  0.00     0.091 A 
ATOM     11  N   UNL A   1      32.675  24.433  25.276  1.00  0.00    -0.220 NA
ATOM     12  C   UNL A   1      30.994  25.651  24.191  1.00  0.00     0.064 A 
ATOM     13  S   UNL A   1      30.757  24.055  23.622  1.00  0.00    -0.096 S 
BRANCH  10  14
ATOM     14  C   UNL A   1      32.385  26.810  25.913  1.00  0.00     0.002 A 
ATOM     15  C   UNL A   1      33.023  29.192  27.245  1.00  0.00     0.118 A 
ATOM     16  C   UNL A   1      31.808  28.556  27.495  1.00  0.00     0.047 A 
ATOM     17  C   UNL A   1      33.947  28.610  26.375  1.00  0.00     0.047 A 
ATOM     18  C   UNL A   1      31.486  27.374  26.827  1.00  0.00     0.014 A 
ATOM     19  C   UNL A   1      33.630  27.417  25.713  1.00  0.00     0.014 A 
BRANCH  15  20
ATOM     20  O   UNL A   1      33.234  30.353  27.937  1.00  0.00    -0.497 OA
ATOM     21  C   UNL A   1      33.719  31.432  27.144  1.00  0.00     0.278 C 
ENDBRANCH  15  20
ENDBRANCH  10  14
BRANCH  12  22
ATOM     22  C   UNL A   1      30.212  26.763  23.644  1.00  0.00    -0.006 A 
ATOM     23  C   UNL A   1      30.804  27.783  22.893  1.00  0.00     0.013 A 
ATOM     24  C   UNL A   1      28.826  26.800  23.851  1.00  0.00     0.013 A 
ATOM     25  C   UNL A   1      30.016  28.799  22.342  1.00  0.00     0.047 A 
ATOM     26  C   UNL A   1      28.039  27.812  23.295  1.00  0.00     0.047 A 
ATOM     27  C   UNL A   1      28.632  28.810  22.525  1.00  0.00     0.118 A 
BRANCH  27  28
ATOM     28  O   UNL A   1      27.975  29.840  21.912  1.00  0.00    -0.497 OA
ATOM     29  C   UNL A   1      27.940  31.079  22.613  1.00  0.00     0.278 C 
ENDBRANCH  27  28
ENDBRANCH  12  22
ENDBRANCH   7   9
ENDBRANCH   6   7
ENDBRANCH   3   6
ENDBRANCH   1   2
BRANCH   1  30
ATOM     30  C   UNL A   1      37.350  19.497  24.952  1.00  0.00     0.042 C 
BRANCH  30  31
ATOM     31  C   UNL A   1      38.642  20.178  25.393  1.00  0.00     0.118 C 
BRANCH  31  32
ATOM     32  N   UNL A   1      39.721  19.225  25.621  1.00  0.00    -0.352 N 
ATOM     33  C   UNL A   1      41.007  19.430  26.045  1.00  0.00     0.251 C 
ATOM     34  H   UNL A   1      39.489  18.285  25.442  1.00  0.00     0.163 HD
ATOM     35  O   UNL A   1      41.811  18.495  25.998  1.00  0.00    -0.269 OA
BRANCH  33  36
ATOM     36  C   UNL A   1      41.449  20.748  26.547  1.00  0.00     0.039 A 
ATOM     37  C   UNL A   1      41.889  21.701  25.622  1.00  0.00     0.014 A 
ATOM     38  C   UNL A   1      41.497  21.031  27.915  1.00  0.00     0.014 A 
ATOM     39  C   UNL A   1      42.337  22.948  26.064  1.00  0.00     0.010 A 
ATOM     40  C   UNL A   1      41.882  22.297  28.350  1.00  0.00     0.010 A 
ATOM     41  C   UNL A   1      42.319  23.263  27.431  1.00  0.00    -0.014 A 
BRANCH  41  42
ATOM     42  C   UNL A   1      42.788  24.583  27.922  1.00  0.00     0.031 A 
ATOM     43  C   UNL A   1      41.789  25.655  28.269  1.00  0.00     0.074 A 
ATOM     44  C   UNL A   1      44.107  24.838  28.004  1.00  0.00     0.049 A 
ATOM     45  N   UNL A   1      41.999  26.894  28.633  1.00  0.00    -0.248 NA
ATOM     46  C   UNL A   1      40.367  25.289  28.166  1.00  0.00     0.031 C 
ATOM     47  C   UNL A   1      45.174  23.896  27.663  1.00  0.00     0.029 A 
ATOM     48  N   UNL A   1      44.775  25.973  28.390  1.00  0.00    -0.354 N 
ATOM     49  C   UNL A   1      40.739  27.462  28.782  1.00  0.00     0.074 A 
ATOM     50  C   UNL A   1      39.772  26.445  28.426  1.00  0.00     0.031 C 
ATOM     51  C   UNL A   1      46.363  24.486  27.872  1.00  0.00     0.029 A 
ATOM     52  C   UNL A   1      46.142  25.855  28.329  1.00  0.00     0.049 A 
ATOM     53  H   UNL A   1      44.317  26.794  28.684  1.00  0.00     0.167 HD
ATOM     54  C   UNL A   1      40.415  28.708  29.198  1.00  0.00     0.037 A 
ATOM     55  C   UNL A   1      47.107  26.753  28.604  1.00  0.00     0.037 A 
ATOM     56  C   UNL A   1      41.376  29.708  29.585  1.00  0.00     0.049 A 
ATOM     57  C   UNL A   1      46.721  28.128  29.074  1.00  0.00     0.074 A 
ATOM     58  C   UNL A   1      41.146  30.985  30.067  1.00  0.00     0.029 A 
ATOM     59  N   UNL A   1      42.751  29.539  29.538  1.00  0.00    -0.354 N 
ATOM     60  N   UNL A   1      45.527  28.634  29.257  1.00  0.00    -0.248 NA
ATOM     61  C   UNL A   1      47.821  29.054  29.381  1.00  0.00     0.031 C 
ATOM     62  C   UNL A   1      42.385  31.599  30.284  1.00  0.00     0.029 A 
ATOM     63  C   UNL A   1      43.384  30.691  29.975  1.00  0.00     0.049 A 
ATOM     64  H   UNL A   1      43.210  28.721  29.239  1.00  0.00     0.167 HD
ATOM     65  C   UNL A   1      45.728  29.923  29.732  1.00  0.00     0.074 A 
ATOM     66  C   UNL A   1      47.161  30.119  29.816  1.00  0.00     0.031 C 
ATOM     67  C   UNL A   1      44.810  30.861  30.069  1.00  0.00     0.037 A 
BRANCH  54  68
ATOM     68  C   UNL A   1      38.957  29.057  29.262  1.00  0.00     0.057 A 
ATOM     69  C   UNL A   1      38.221  28.938  30.449  1.00  0.00     0.134 A 
ATOM     70  C   UNL A   1      38.287  29.543  28.132  1.00  0.00     0.134 A 
ATOM     71  F   UNL A   1      38.801  28.467  31.563  1.00  0.00    -0.206 F 
ATOM     72  C   UNL A   1      36.865  29.262  30.502  1.00  0.00     0.040 A 
ATOM     73  C   UNL A   1      36.937  29.895  28.181  1.00  0.00     0.040 A 
ATOM     74  F   UNL A   1      38.933  29.688  26.966  1.00  0.00    -0.206 F 
ATOM     75  C   UNL A   1      36.220  29.749  29.366  1.00  0.00     0.006 A 
ENDBRANCH  54  68
BRANCH  55  76
ATOM     76  C   UNL A   1      48.534  26.371  28.471  1.00  0.00     0.057 A 
ATOM     77  C   UNL A   1      49.265  25.927  29.579  1.00  0.00     0.134 A 
ATOM     78  C   UNL A   1      49.203  26.450  27.244  1.00  0.00     0.134 A 
ATOM     79  F   UNL A   1      48.682  25.848  30.784  1.00  0.00    -0.206 F 
ATOM     80  C   UNL A   1      50.617  25.593  29.477  1.00  0.00     0.040 A 
ATOM     81  C   UNL A   1      50.549  26.099  27.123  1.00  0.00     0.040 A 
ATOM     82  F   UNL A   1      48.556  26.860  26.145  1.00  0.00    -0.206 F 
ATOM     83  C   UNL A   1      51.261  25.675  28.244  1.00  0.00     0.006 A 
ENDBRANCH  55  76
BRANCH  67  84
ATOM     84  C   UNL A   1      45.325  32.163  30.604  1.00  0.00     0.057 A 
ATOM     85  C   UNL A   1      45.573  32.358  31.968  1.00  0.00     0.134 A 
ATOM     86  C   UNL A   1      45.611  33.224  29.735  1.00  0.00     0.134 A 
ATOM     87  F   UNL A   1      45.307  31.385  32.853  1.00  0.00    -0.206 F 
ATOM     88  C   UNL A   1      46.070  33.569  32.452  1.00  0.00     0.040 A 
ATOM     89  C   UNL A   1      46.130  34.432  30.204  1.00  0.00     0.040 A 
ATOM     90  F   UNL A   1      45.402  33.099  28.415  1.00  0.00    -0.206 F 
ATOM     91  C   UNL A   1      46.356  34.608  31.567  1.00  0.00     0.006 A 
ENDBRANCH  67  84
ENDBRANCH  41  42
ENDBRANCH  33  36
ENDBRANCH  31  32
ENDBRANCH  30  31
ENDBRANCH   1  30
TORSDOF 16
ENDMDL
MODEL 3
REMARK VINA RESULT:     -12.0      3.187      7.745
REMARK SMILES COc1ccc(-c2nc(NCC(=O)NCCCNC(=O)c3ccc(-c4c5nc(c(-c6c(F)cccc6F)c6ccc([nH]6)c(-c6c(F)cccc6F)c6nc(c(-c7c(F)cccc7F)c7ccc4[nH]7)C=C6)C=C5)cc3)sc2-c2ccc(OC)cc2)cc1
REMARK SMILES IDX 15 1 14 2 12 3 13 4 11 6 10 7 9 9 7 10 8 11 76 12 75 13 6 14
REMARK SMILES IDX 3 15 4 16 86 17 5 18 85 19 2 20 1 21 77 22 78 23 84 24 79 25
REMARK SMILES IDX 83 26 80 27 81 28 82 29 16 30 17 31 18 32 19 33 20 35 21 36
REMARK SMILES IDX 22 37 74 38 23 39 73 40 24 41 25 42 26 43 67 44 27 45 72 46
REMARK SMILES IDX 66 47 68 48 28 49 71 50 65 51 64 52 29 54 55 55 38 56 54 57
REMARK SMILES IDX 39 58 42 59 53 60 69 61 40 62 41 63 52 65 70 66 43 67 30 68
REMARK SMILES IDX 31 69 36 70 32 71 33 72 35 73 37 74 34 75 56 76 57 77 62 78
REMARK SMILES IDX 58 79 59 80 61 81 63 82 60 83 44 84 45 85 50 86 46 87 47 88
REMARK SMILES IDX 49 89 51 90 48 91
REMARK H PARENT 14 5 10 8 18 34 68 53 42 64
REMARK Flexibility Score: inf
ROOT
ATOM      1  C   UNL A   1      35.409  22.052  26.190  1.00  0.00     0.117 C 
ENDROOT
BRANCH   1   2
ATOM      2  N   UNL A   1      35.071  20.823  25.497  1.00  0.00    -0.355 N 
ATOM      3  C   UNL A   1      33.833  20.365  25.134  1.00  0.00     0.239 C 
ATOM      4  O   UNL A   1      33.754  19.256  24.601  1.00  0.00    -0.273 OA
ATOM      5  H   UNL A   1      35.829  20.245  25.257  1.00  0.00     0.163 HD
BRANCH   3   6
ATOM      6  C   UNL A   1      32.593  21.236  25.370  1.00  0.00     0.215 C 
BRANCH   6   7
ATOM      7  N   UNL A   1      32.371  22.145  24.260  1.00  0.00    -0.352 N 
ATOM      8  H   UNL A   1      32.586  21.812  23.359  1.00  0.00     0.163 HD
BRANCH   7   9
ATOM      9  C   UNL A   1      31.898  23.406  24.350  1.00  0.00     0.184 A 
ATOM     10  C   UNL A   1      31.873  25.527  24.994  1.00  0.00     0.091 A 
ATOM     11  N   UNL A   1      32.479  24.289  25.127  1.00  0.00    -0.220 NA
ATOM     12  C   UNL A   1      30.871  25.599  24.038  1.00  0.00     0.064 A 
ATOM     13  S   UNL A   1      30.554  24.020  23.460  1.00  0.00    -0.096 S 
BRANCH  10  14
ATOM     14  C   UNL A   1      32.311  26.675  25.774  1.00  0.00     0.002 A 
ATOM     15  C   UNL A   1      33.072  29.014  27.117  1.00  0.00     0.118 A 
ATOM     16  C   UNL A   1      31.804  28.472  27.322  1.00  0.00     0.047 A 
ATOM     17  C   UNL A   1      33.983  28.358  26.287  1.00  0.00     0.047 A 
ATOM     18  C   UNL A   1      31.421  27.312  26.649  1.00  0.00     0.014 A 
ATOM     19  C   UNL A   1      33.604  27.186  25.620  1.00  0.00     0.014 A 
BRANCH  15  20
ATOM     20  O   UNL A   1      33.343  30.162  27.811  1.00  0.00    -0.497 OA
ATOM     21  C   UNL A   1      34.582  30.776  27.473  1.00  0.00     0.278 C 
ENDBRANCH  15  20
ENDBRANCH  10  14
BRANCH  12  22
ATOM     22  C   UNL A   1      30.153  26.753  23.491  1.00  0.00    -0.006 A 
ATOM     23  C   UNL A   1      28.781  26.932  23.691  1.00  0.00     0.013 A 
ATOM     24  C   UNL A   1      30.859  27.726  22.769  1.00  0.00     0.013 A 
ATOM     25  C   UNL A   1      28.141  28.074  23.199  1.00  0.00     0.047 A 
ATOM     26  C   UNL A   1      30.219  28.871  22.284  1.00  0.00     0.047 A 
ATOM     27  C   UNL A   1      28.858  29.055  22.510  1.00  0.00     0.118 A 
BRANCH  27  28
ATOM     28  O   UNL A   1      28.122  30.135  22.107  1.00  0.00    -0.497 OA
ATOM     29  C   UNL A   1      28.765  31.402  22.169  1.00  0.00     0.278 C 
ENDBRANCH  27  28
ENDBRANCH  12  22
ENDBRANCH   7   9
ENDBRANCH   6   7
ENDBRANCH   3   6
ENDBRANCH   1   2
BRANCH   1  30
ATOM     30  C   UNL A   1      35.763  23.179  25.224  1.00  0.00     0.042 C 
BRANCH  30  31
ATOM     31  C   UNL A   1      37.060  23.901  25.576  1.00  0.00     0.118 C 
BRANCH  31  32
ATOM     32  N   UNL A   1      38.190  22.987  25.686  1.00  0.00    -0.352 N 
ATOM     33  C   UNL A   1      39.443  23.188  26.203  1.00  0.00     0.251 C 
ATOM     34  H   UNL A   1      38.029  22.083  25.333  1.00  0.00     0.163 HD
ATOM     35  O   UNL A   1      40.309  22.327  26.032  1.00  0.00    -0.269 OA
BRANCH  33  36
ATOM     36  C   UNL A   1      39.777  24.419  26.951  1.00  0.00     0.039 A 
ATOM     37  C   UNL A   1      39.319  24.545  28.267  1.00  0.00     0.014 A 
ATOM     38  C   UNL A   1      40.476  25.471  26.353  1.00  0.00     0.014 A 
ATOM     39  C   UNL A   1      39.596  25.705  28.994  1.00  0.00     0.010 A 
ATOM     40  C   UNL A   1      40.808  26.599  27.100  1.00  0.00     0.010 A 
ATOM     41  C   UNL A   1      40.359  26.734  28.422  1.00  0.00    -0.014 A 
BRANCH  41  42
ATOM     42  C   UNL A   1      40.667  27.974  29.179  1.00  0.00     0.031 A 
ATOM     43  C   UNL A   1      41.998  28.126  29.864  1.00  0.00     0.074 A 
ATOM     44  C   UNL A   1      39.734  28.938  29.295  1.00  0.00     0.049 A 
ATOM     45  N   UNL A   1      42.424  29.091  30.638  1.00  0.00    -0.248 NA
ATOM     46  C   UNL A   1      42.966  27.034  29.674  1.00  0.00     0.031 C 
ATOM     47  C   UNL A   1      38.394  28.895  28.707  1.00  0.00     0.029 A 
ATOM     48  N   UNL A   1      39.768  30.138  29.958  1.00  0.00    -0.354 N 
ATOM     49  C   UNL A   1      43.699  28.714  31.044  1.00  0.00     0.074 A 
ATOM     50  C   UNL A   1      43.958  27.412  30.467  1.00  0.00     0.031 C 
ATOM     51  C   UNL A   1      37.740  30.025  29.022  1.00  0.00     0.029 A 
ATOM     52  C   UNL A   1      38.602  30.856  29.858  1.00  0.00     0.049 A 
ATOM     53  H   UNL A   1      40.555  30.456  30.458  1.00  0.00     0.167 HD
ATOM     54  C   UNL A   1      44.582  29.397  31.810  1.00  0.00     0.037 A 
ATOM     55  C   UNL A   1      38.264  32.047  30.388  1.00  0.00     0.037 A 
ATOM     56  C   UNL A   1      44.336  30.707  32.355  1.00  0.00     0.049 A 
ATOM     57  C   UNL A   1      39.265  32.791  31.226  1.00  0.00     0.074 A 
ATOM     58  C   UNL A   1      45.186  31.503  33.103  1.00  0.00     0.029 A 
ATOM     59  N   UNL A   1      43.153  31.413  32.205  1.00  0.00    -0.354 N 
ATOM     60  N   UNL A   1      40.484  32.445  31.561  1.00  0.00    -0.248 NA
ATOM     61  C   UNL A   1      38.844  34.097  31.756  1.00  0.00     0.031 C 
ATOM     62  C   UNL A   1      44.505  32.681  33.430  1.00  0.00     0.029 A 
ATOM     63  C   UNL A   1      43.246  32.634  32.853  1.00  0.00     0.049 A 
ATOM     64  H   UNL A   1      42.363  31.095  31.711  1.00  0.00     0.167 HD
ATOM     65  C   UNL A   1      40.988  33.500  32.309  1.00  0.00     0.074 A 
ATOM     66  C   UNL A   1      39.945  34.503  32.374  1.00  0.00     0.031 C 
ATOM     67  C   UNL A   1      42.205  33.628  32.891  1.00  0.00     0.037 A 
BRANCH  54  68
ATOM     68  C   UNL A   1      45.900  28.741  32.097  1.00  0.00     0.057 A 
ATOM     69  C   UNL A   1      46.088  27.924  33.220  1.00  0.00     0.134 A 
ATOM     70  C   UNL A   1      46.986  28.905  31.228  1.00  0.00     0.134 A 
ATOM     71  F   UNL A   1      45.091  27.737  34.098  1.00  0.00    -0.206 F 
ATOM     72  C   UNL A   1      47.317  27.316  33.483  1.00  0.00     0.040 A 
ATOM     73  C   UNL A   1      48.212  28.281  31.467  1.00  0.00     0.040 A 
ATOM     74  F   UNL A   1      46.872  29.668  30.131  1.00  0.00    -0.206 F 
ATOM     75  C   UNL A   1      48.381  27.489  32.601  1.00  0.00     0.006 A 
ENDBRANCH  54  68
BRANCH  55  76
ATOM     76  C   UNL A   1      36.925  32.626  30.117  1.00  0.00     0.057 A 
ATOM     77  C   UNL A   1      35.822  32.290  30.912  1.00  0.00     0.134 A 
ATOM     78  C   UNL A   1      36.711  33.514  29.057  1.00  0.00     0.134 A 
ATOM     79  F   UNL A   1      35.962  31.430  31.931  1.00  0.00    -0.206 F 
ATOM     80  C   UNL A   1      34.550  32.803  30.652  1.00  0.00     0.040 A 
ATOM     81  C   UNL A   1      35.449  34.052  28.798  1.00  0.00     0.040 A 
ATOM     82  F   UNL A   1      37.728  33.881  28.265  1.00  0.00    -0.206 F 
ATOM     83  C   UNL A   1      34.362  33.689  29.593  1.00  0.00     0.006 A 
ENDBRANCH  55  76
BRANCH  67  84
ATOM     84  C   UNL A   1      42.492  34.914  33.605  1.00  0.00     0.057 A 
ATOM     85  C   UNL A   1      42.263  35.066  34.978  1.00  0.00     0.134 A 
ATOM     86  C   UNL A   1      43.041  36.002  32.915  1.00  0.00     0.134 A 
ATOM     87  F   UNL A   1      41.727  34.065  35.693  1.00  0.00    -0.206 F 
ATOM     88  C   UNL A   1      42.553  36.262  35.636  1.00  0.00     0.040 A 
ATOM     89  C   UNL A   1      43.356  37.195  33.566  1.00  0.00     0.040 A 
ATOM     90  F   UNL A   1      43.291  35.918  31.599  1.00  0.00    -0.206 F 
ATOM     91  C   UNL A   1      43.107  37.329  34.930  1.00  0.00     0.006 A 
ENDBRANCH  67  84
ENDBRANCH  41  42
ENDBRANCH  33  36
ENDBRANCH  31  32
ENDBRANCH  30  31
ENDBRANCH   1  30
TORSDOF 16
ENDMDL
