MODEL 1
REMARK VINA RESULT:     -12.2      0.000      0.000
REMARK SMILES O=C(CCC(=O)Nc1ccc(N2CCN(c3ccc(F)cc3)CC2)cc1)NCCCNC(=O)c1ccc(-c2c3nc(c(-c4c(F)cccc4F)c4ccc([nH]4)c(-c4c(F)cccc4F)c4nc(c(-c5c(F)cccc5F)c5ccc2[nH]5)C=C4)C=C3)cc1
REMARK SMILES IDX 1 1 2 2 27 3 3 5 4 6 5 7 6 8 7 9 8 11 9 12 26 13 10 14 25 15
REMARK SMILES IDX 11 16 12 17 13 18 24 19 14 20 23 21 15 22 16 23 17 24 22 25
REMARK SMILES IDX 18 26 21 27 19 28 20 29 28 30 29 31 30 32 31 33 32 34 33 36
REMARK SMILES IDX 34 37 35 38 87 39 36 40 86 41 37 42 38 43 39 44 80 45 40 46
REMARK SMILES IDX 85 47 79 48 81 49 41 50 84 51 78 52 77 53 42 55 68 56 51 57
REMARK SMILES IDX 67 58 52 59 55 60 66 61 82 62 53 63 54 64 65 66 83 67 56 68
REMARK SMILES IDX 43 69 44 70 49 71 45 72 46 73 48 74 50 75 47 76 69 77 70 78
REMARK SMILES IDX 75 79 71 80 72 81 74 82 76 83 73 84 57 85 58 86 63 87 59 88
REMARK SMILES IDX 60 89 62 90 64 91 61 92
REMARK H PARENT 27 4 7 10 31 35 81 54 55 65
REMARK Flexibility Score: inf
ROOT
ATOM      1  O   UNL A   1      32.213  27.911  22.385  1.00  0.00    -0.275 OA
ATOM      2  C   UNL A   1      31.404  28.737  22.792  1.00  0.00     0.220 C 
ATOM      3  N   UNL A   1      31.603  29.540  23.893  1.00  0.00    -0.356 N 
ATOM      4  H   UNL A   1      30.977  30.282  24.060  1.00  0.00     0.163 HD
ENDROOT
BRANCH   2   5
ATOM      5  C   UNL A   1      30.046  28.912  22.150  1.00  0.00     0.110 C 
BRANCH   5   6
ATOM      6  C   UNL A   1      28.961  29.309  23.149  1.00  0.00     0.110 C 
BRANCH   6   7
ATOM      7  C   UNL A   1      27.954  28.212  23.399  1.00  0.00     0.224 C 
ATOM      8  O   UNL A   1      26.749  28.499  23.380  1.00  0.00    -0.275 OA
ATOM      9  N   UNL A   1      28.262  26.925  23.714  1.00  0.00    -0.326 N 
ATOM     10  H   UNL A   1      27.477  26.332  23.681  1.00  0.00     0.169 HD
BRANCH   9  11
ATOM     11  C   UNL A   1      29.435  26.237  24.080  1.00  0.00     0.041 A 
ATOM     12  C   UNL A   1      29.904  25.286  23.161  1.00  0.00     0.028 A 
ATOM     13  C   UNL A   1      30.084  26.324  25.304  1.00  0.00     0.028 A 
ATOM     14  C   UNL A   1      30.898  24.365  23.523  1.00  0.00     0.028 A 
ATOM     15  C   UNL A   1      31.064  25.392  25.667  1.00  0.00     0.028 A 
ATOM     16  C   UNL A   1      31.457  24.374  24.801  1.00  0.00     0.037 A 
BRANCH  16  17
ATOM     17  N   UNL A   1      32.362  23.390  25.159  1.00  0.00    -0.368 N 
ATOM     18  C   UNL A   1      33.035  22.678  24.055  1.00  0.00     0.138 C 
ATOM     19  C   UNL A   1      33.204  23.605  26.357  1.00  0.00     0.138 C 
ATOM     20  C   UNL A   1      34.381  23.340  23.686  1.00  0.00     0.138 C 
ATOM     21  C   UNL A   1      34.609  24.164  26.026  1.00  0.00     0.138 C 
ATOM     22  N   UNL A   1      35.238  23.475  24.883  1.00  0.00    -0.368 N 
BRANCH  22  23
ATOM     23  C   UNL A   1      36.268  22.565  25.032  1.00  0.00     0.037 A 
ATOM     24  C   UNL A   1      36.063  21.224  24.662  1.00  0.00     0.029 A 
ATOM     25  C   UNL A   1      37.518  22.910  25.563  1.00  0.00     0.029 A 
ATOM     26  C   UNL A   1      37.056  20.257  24.832  1.00  0.00     0.041 A 
ATOM     27  C   UNL A   1      38.514  21.945  25.749  1.00  0.00     0.041 A 
ATOM     28  C   UNL A   1      38.272  20.628  25.384  1.00  0.00     0.123 A 
ATOM     29  F   UNL A   1      39.223  19.703  25.569  1.00  0.00    -0.207 F 
ENDBRANCH  22  23
ENDBRANCH  16  17
ENDBRANCH   9  11
ENDBRANCH   6   7
ENDBRANCH   5   6
ENDBRANCH   2   5
BRANCH   3  30
ATOM     30  C   UNL A   1      32.703  29.332  24.814  1.00  0.00     0.117 C 
BRANCH  30  31
ATOM     31  C   UNL A   1      32.300  29.387  26.273  1.00  0.00     0.042 C 
BRANCH  31  32
ATOM     32  C   UNL A   1      33.459  29.378  27.259  1.00  0.00     0.118 C 
BRANCH  32  33
ATOM     33  N   UNL A   1      33.672  30.629  27.981  1.00  0.00    -0.352 N 
ATOM     34  C   UNL A   1      34.826  31.065  28.604  1.00  0.00     0.251 C 
ATOM     35  H   UNL A   1      32.899  31.236  28.031  1.00  0.00     0.163 HD
ATOM     36  O   UNL A   1      34.856  32.137  29.200  1.00  0.00    -0.269 OA
BRANCH  34  37
ATOM     37  C   UNL A   1      36.008  30.175  28.602  1.00  0.00     0.039 A 
ATOM     38  C   UNL A   1      36.829  30.144  27.472  1.00  0.00     0.014 A 
ATOM     39  C   UNL A   1      36.386  29.513  29.771  1.00  0.00     0.014 A 
ATOM     40  C   UNL A   1      38.100  29.570  27.563  1.00  0.00     0.010 A 
ATOM     41  C   UNL A   1      37.684  29.031  29.886  1.00  0.00     0.010 A 
ATOM     42  C   UNL A   1      38.569  29.085  28.795  1.00  0.00    -0.014 A 
BRANCH  42  43
ATOM     43  C   UNL A   1      39.985  28.679  29.001  1.00  0.00     0.031 A 
ATOM     44  C   UNL A   1      40.980  29.677  29.522  1.00  0.00     0.074 A 
ATOM     45  C   UNL A   1      40.408  27.464  28.595  1.00  0.00     0.049 A 
ATOM     46  N   UNL A   1      42.286  29.602  29.563  1.00  0.00    -0.248 NA
ATOM     47  C   UNL A   1      40.434  30.950  30.020  1.00  0.00     0.031 C 
ATOM     48  C   UNL A   1      39.563  26.413  28.020  1.00  0.00     0.029 A 
ATOM     49  N   UNL A   1      41.668  26.915  28.580  1.00  0.00    -0.354 N 
ATOM     50  C   UNL A   1      42.718  30.832  30.041  1.00  0.00     0.074 A 
ATOM     51  C   UNL A   1      41.538  31.645  30.247  1.00  0.00     0.031 C 
ATOM     52  C   UNL A   1      40.323  25.344  27.731  1.00  0.00     0.029 A 
ATOM     53  C   UNL A   1      41.713  25.647  28.050  1.00  0.00     0.049 A 
ATOM     54  H   UNL A   1      42.463  27.387  28.917  1.00  0.00     0.167 HD
ATOM     55  C   UNL A   1      43.983  31.244  30.299  1.00  0.00     0.037 A 
ATOM     56  C   UNL A   1      42.758  24.826  27.830  1.00  0.00     0.037 A 
ATOM     57  C   UNL A   1      45.150  30.417  30.157  1.00  0.00     0.049 A 
ATOM     58  C   UNL A   1      44.146  25.286  28.175  1.00  0.00     0.074 A 
ATOM     59  C   UNL A   1      46.465  30.723  30.463  1.00  0.00     0.029 A 
ATOM     60  N   UNL A   1      45.139  29.113  29.686  1.00  0.00    -0.354 N 
ATOM     61  N   UNL A   1      44.535  26.440  28.659  1.00  0.00    -0.248 NA
ATOM     62  C   UNL A   1      45.241  24.331  27.943  1.00  0.00     0.031 C 
ATOM     63  C   UNL A   1      47.254  29.608  30.159  1.00  0.00     0.029 A 
ATOM     64  C   UNL A   1      46.426  28.602  29.693  1.00  0.00     0.049 A 
ATOM     65  H   UNL A   1      44.338  28.625  29.390  1.00  0.00     0.167 HD
ATOM     66  C   UNL A   1      45.911  26.341  28.817  1.00  0.00     0.074 A 
ATOM     67  C   UNL A   1      46.291  25.014  28.380  1.00  0.00     0.031 C 
ATOM     68  C   UNL A   1      46.782  27.269  29.281  1.00  0.00     0.037 A 
BRANCH  55  69
ATOM     69  C   UNL A   1      44.162  32.655  30.772  1.00  0.00     0.057 A 
ATOM     70  C   UNL A   1      44.315  33.719  29.875  1.00  0.00     0.134 A 
ATOM     71  C   UNL A   1      44.159  32.954  32.140  1.00  0.00     0.134 A 
ATOM     72  F   UNL A   1      44.341  33.495  28.552  1.00  0.00    -0.206 F 
ATOM     73  C   UNL A   1      44.488  35.030  30.322  1.00  0.00     0.040 A 
ATOM     74  C   UNL A   1      44.307  34.264  32.599  1.00  0.00     0.040 A 
ATOM     75  F   UNL A   1      44.012  31.981  33.051  1.00  0.00    -0.206 F 
ATOM     76  C   UNL A   1      44.479  35.305  31.689  1.00  0.00     0.006 A 
ENDBRANCH  55  69
BRANCH  56  77
ATOM     77  C   UNL A   1      42.534  23.470  27.271  1.00  0.00     0.057 A 
ATOM     78  C   UNL A   1      42.221  22.395  28.111  1.00  0.00     0.134 A 
ATOM     79  C   UNL A   1      42.633  23.213  25.899  1.00  0.00     0.134 A 
ATOM     80  F   UNL A   1      42.133  22.577  29.437  1.00  0.00    -0.206 F 
ATOM     81  C   UNL A   1      42.029  21.106  27.608  1.00  0.00     0.040 A 
ATOM     82  C   UNL A   1      42.424  21.934  25.380  1.00  0.00     0.040 A 
ATOM     83  F   UNL A   1      42.923  24.204  25.044  1.00  0.00    -0.206 F 
ATOM     84  C   UNL A   1      42.128  20.875  26.238  1.00  0.00     0.006 A 
ENDBRANCH  56  77
BRANCH  68  85
ATOM     85  C   UNL A   1      48.220  26.868  29.396  1.00  0.00     0.057 A 
ATOM     86  C   UNL A   1      48.696  26.136  30.489  1.00  0.00     0.134 A 
ATOM     87  C   UNL A   1      49.123  27.167  28.368  1.00  0.00     0.134 A 
ATOM     88  F   UNL A   1      47.881  25.831  31.510  1.00  0.00    -0.206 F 
ATOM     89  C   UNL A   1      50.027  25.721  30.561  1.00  0.00     0.040 A 
ATOM     90  C   UNL A   1      50.451  26.743  28.421  1.00  0.00     0.040 A 
ATOM     91  F   UNL A   1      48.725  27.862  27.293  1.00  0.00    -0.206 F 
ATOM     92  C   UNL A   1      50.906  26.018  29.520  1.00  0.00     0.006 A 
ENDBRANCH  68  85
ENDBRANCH  42  43
ENDBRANCH  34  37
ENDBRANCH  32  33
ENDBRANCH  31  32
ENDBRANCH  30  31
ENDBRANCH   3  30
TORSDOF 15
ENDMDL
MODEL 2
REMARK VINA RESULT:     -12.1      4.821      6.686
REMARK SMILES O=C(CCC(=O)Nc1ccc(N2CCN(c3ccc(F)cc3)CC2)cc1)NCCCNC(=O)c1ccc(-c2c3nc(c(-c4c(F)cccc4F)c4ccc([nH]4)c(-c4c(F)cccc4F)c4nc(c(-c5c(F)cccc5F)c5ccc2[nH]5)C=C4)C=C3)cc1
REMARK SMILES IDX 1 1 2 2 27 3 3 5 4 6 5 7 6 8 7 9 8 11 9 12 26 13 10 14 25 15
REMARK SMILES IDX 11 16 12 17 13 18 24 19 14 20 23 21 15 22 16 23 17 24 22 25
REMARK SMILES IDX 18 26 21 27 19 28 20 29 28 30 29 31 30 32 31 33 32 34 33 36
REMARK SMILES IDX 34 37 35 38 87 39 36 40 86 41 37 42 38 43 39 44 80 45 40 46
REMARK SMILES IDX 85 47 79 48 81 49 41 50 84 51 78 52 77 53 42 55 68 56 51 57
REMARK SMILES IDX 67 58 52 59 55 60 66 61 82 62 53 63 54 64 65 66 83 67 56 68
REMARK SMILES IDX 43 69 44 70 49 71 45 72 46 73 48 74 50 75 47 76 69 77 70 78
REMARK SMILES IDX 75 79 71 80 72 81 74 82 76 83 73 84 57 85 58 86 63 87 59 88
REMARK SMILES IDX 60 89 62 90 64 91 61 92
REMARK H PARENT 27 4 7 10 31 35 81 54 55 65
REMARK Flexibility Score: inf
ROOT
ATOM      1  O   UNL A   1      36.271  30.732  27.725  1.00  0.00    -0.275 OA
ATOM      2  C   UNL A   1      35.073  30.472  27.707  1.00  0.00     0.220 C 
ATOM      3  N   UNL A   1      34.092  31.298  28.209  1.00  0.00    -0.356 N 
ATOM      4  H   UNL A   1      33.150  31.089  28.017  1.00  0.00     0.163 HD
ENDROOT
BRANCH   2   5
ATOM      5  C   UNL A   1      34.547  29.156  27.180  1.00  0.00     0.110 C 
BRANCH   5   6
ATOM      6  C   UNL A   1      33.028  29.039  27.278  1.00  0.00     0.110 C 
BRANCH   6   7
ATOM      7  C   UNL A   1      32.335  29.171  25.943  1.00  0.00     0.224 C 
ATOM      8  O   UNL A   1      31.840  30.266  25.639  1.00  0.00    -0.275 OA
ATOM      9  N   UNL A   1      32.145  28.157  25.057  1.00  0.00    -0.326 N 
ATOM     10  H   UNL A   1      31.818  28.476  24.185  1.00  0.00     0.169 HD
BRANCH   9  11
ATOM     11  C   UNL A   1      32.302  26.758  25.089  1.00  0.00     0.041 A 
ATOM     12  C   UNL A   1      31.280  26.037  25.725  1.00  0.00     0.028 A 
ATOM     13  C   UNL A   1      33.422  26.053  24.669  1.00  0.00     0.028 A 
ATOM     14  C   UNL A   1      31.448  24.683  26.048  1.00  0.00     0.028 A 
ATOM     15  C   UNL A   1      33.593  24.705  25.009  1.00  0.00     0.028 A 
ATOM     16  C   UNL A   1      32.631  24.011  25.738  1.00  0.00     0.037 A 
BRANCH  16  17
ATOM     17  N   UNL A   1      32.805  22.703  26.160  1.00  0.00    -0.368 N 
ATOM     18  C   UNL A   1      31.803  21.722  25.700  1.00  0.00     0.138 C 
ATOM     19  C   UNL A   1      34.182  22.173  26.269  1.00  0.00     0.138 C 
ATOM     20  C   UNL A   1      32.244  21.026  24.392  1.00  0.00     0.138 C 
ATOM     21  C   UNL A   1      34.630  21.369  25.023  1.00  0.00     0.138 C 
ATOM     22  N   UNL A   1      33.590  20.436  24.548  1.00  0.00    -0.368 N 
BRANCH  22  23
ATOM     23  C   UNL A   1      33.666  19.070  24.742  1.00  0.00     0.037 A 
ATOM     24  C   UNL A   1      32.593  18.399  25.358  1.00  0.00     0.029 A 
ATOM     25  C   UNL A   1      34.783  18.309  24.375  1.00  0.00     0.029 A 
ATOM     26  C   UNL A   1      32.637  17.028  25.616  1.00  0.00     0.041 A 
ATOM     27  C   UNL A   1      34.841  16.936  24.642  1.00  0.00     0.041 A 
ATOM     28  C   UNL A   1      33.768  16.310  25.262  1.00  0.00     0.123 A 
ATOM     29  F   UNL A   1      33.827  14.998  25.523  1.00  0.00    -0.207 F 
ENDBRANCH  22  23
ENDBRANCH  16  17
ENDBRANCH   9  11
ENDBRANCH   6   7
ENDBRANCH   5   6
ENDBRANCH   2   5
BRANCH   3  30
ATOM     30  C   UNL A   1      34.400  32.466  29.012  1.00  0.00     0.117 C 
BRANCH  30  31
ATOM     31  C   UNL A   1      33.566  33.683  28.669  1.00  0.00     0.042 C 
BRANCH  31  32
ATOM     32  C   UNL A   1      33.979  34.963  29.379  1.00  0.00     0.118 C 
BRANCH  32  33
ATOM     33  N   UNL A   1      32.919  35.632  30.127  1.00  0.00    -0.352 N 
ATOM     34  C   UNL A   1      32.792  35.754  31.497  1.00  0.00     0.251 C 
ATOM     35  H   UNL A   1      32.207  36.048  29.589  1.00  0.00     0.163 HD
ATOM     36  O   UNL A   1      31.828  36.328  31.994  1.00  0.00    -0.269 OA
BRANCH  34  37
ATOM     37  C   UNL A   1      33.807  35.111  32.360  1.00  0.00     0.039 A 
ATOM     38  C   UNL A   1      33.556  33.831  32.861  1.00  0.00     0.014 A 
ATOM     39  C   UNL A   1      35.061  35.703  32.524  1.00  0.00     0.014 A 
ATOM     40  C   UNL A   1      34.608  33.086  33.400  1.00  0.00     0.010 A 
ATOM     41  C   UNL A   1      36.123  34.926  32.970  1.00  0.00     0.010 A 
ATOM     42  C   UNL A   1      35.916  33.597  33.381  1.00  0.00    -0.014 A 
BRANCH  42  43
ATOM     43  C   UNL A   1      37.099  32.764  33.726  1.00  0.00     0.031 A 
ATOM     44  C   UNL A   1      37.847  33.020  35.004  1.00  0.00     0.074 A 
ATOM     45  C   UNL A   1      37.585  31.874  32.835  1.00  0.00     0.049 A 
ATOM     46  N   UNL A   1      39.015  32.571  35.386  1.00  0.00    -0.248 NA
ATOM     47  C   UNL A   1      37.215  33.943  35.960  1.00  0.00     0.031 C 
ATOM     48  C   UNL A   1      36.994  31.561  31.531  1.00  0.00     0.029 A 
ATOM     49  N   UNL A   1      38.709  31.085  32.883  1.00  0.00    -0.354 N 
ATOM     50  C   UNL A   1      39.280  33.195  36.597  1.00  0.00     0.074 A 
ATOM     51  C   UNL A   1      38.166  34.077  36.873  1.00  0.00     0.031 C 
ATOM     52  C   UNL A   1      37.746  30.635  30.916  1.00  0.00     0.029 A 
ATOM     53  C   UNL A   1      38.898  30.322  31.754  1.00  0.00     0.049 A 
ATOM     54  H   UNL A   1      39.321  31.067  33.654  1.00  0.00     0.167 HD
ATOM     55  C   UNL A   1      40.348  33.039  37.416  1.00  0.00     0.037 A 
ATOM     56  C   UNL A   1      39.895  29.479  31.424  1.00  0.00     0.037 A 
ATOM     57  C   UNL A   1      41.425  32.116  37.177  1.00  0.00     0.049 A 
ATOM     58  C   UNL A   1      41.043  29.282  32.372  1.00  0.00     0.074 A 
ATOM     59  C   UNL A   1      42.514  31.835  37.983  1.00  0.00     0.029 A 
ATOM     60  N   UNL A   1      41.537  31.310  36.054  1.00  0.00    -0.354 N 
ATOM     61  N   UNL A   1      41.262  29.854  33.531  1.00  0.00    -0.248 NA
ATOM     62  C   UNL A   1      42.083  28.323  31.968  1.00  0.00     0.031 C 
ATOM     63  C   UNL A   1      43.296  30.870  37.340  1.00  0.00     0.029 A 
ATOM     64  C   UNL A   1      42.678  30.532  36.148  1.00  0.00     0.049 A 
ATOM     65  H   UNL A   1      40.902  31.295  35.303  1.00  0.00     0.167 HD
ATOM     66  C   UNL A   1      42.445  29.305  34.007  1.00  0.00     0.074 A 
ATOM     67  C   UNL A   1      42.897  28.353  33.015  1.00  0.00     0.031 C 
ATOM     68  C   UNL A   1      43.099  29.569  35.164  1.00  0.00     0.037 A 
BRANCH  55  69
ATOM     69  C   UNL A   1      40.394  33.882  38.654  1.00  0.00     0.057 A 
ATOM     70  C   UNL A   1      41.088  35.098  38.691  1.00  0.00     0.134 A 
ATOM     71  C   UNL A   1      39.720  33.484  39.814  1.00  0.00     0.134 A 
ATOM     72  F   UNL A   1      41.767  35.527  37.616  1.00  0.00    -0.206 F 
ATOM     73  C   UNL A   1      41.133  35.876  39.849  1.00  0.00     0.040 A 
ATOM     74  C   UNL A   1      39.736  34.265  40.971  1.00  0.00     0.040 A 
ATOM     75  F   UNL A   1      39.033  32.332  39.842  1.00  0.00    -0.206 F 
ATOM     76  C   UNL A   1      40.451  35.462  40.992  1.00  0.00     0.006 A 
ENDBRANCH  55  69
BRANCH  56  77
ATOM     77  C   UNL A   1      39.846  28.737  30.140  1.00  0.00     0.057 A 
ATOM     78  C   UNL A   1      39.193  27.502  30.053  1.00  0.00     0.134 A 
ATOM     79  C   UNL A   1      40.451  29.232  28.978  1.00  0.00     0.134 A 
ATOM     80  F   UNL A   1      38.613  26.969  31.139  1.00  0.00    -0.206 F 
ATOM     81  C   UNL A   1      39.155  26.776  28.862  1.00  0.00     0.040 A 
ATOM     82  C   UNL A   1      40.403  28.527  27.775  1.00  0.00     0.040 A 
ATOM     83  F   UNL A   1      41.085  30.413  28.996  1.00  0.00    -0.206 F 
ATOM     84  C   UNL A   1      39.759  27.291  27.716  1.00  0.00     0.006 A 
ENDBRANCH  56  77
BRANCH  68  85
ATOM     85  C   UNL A   1      44.339  28.781  35.450  1.00  0.00     0.057 A 
ATOM     86  C   UNL A   1      44.297  27.560  36.133  1.00  0.00     0.134 A 
ATOM     87  C   UNL A   1      45.583  29.222  34.981  1.00  0.00     0.134 A 
ATOM     88  F   UNL A   1      43.137  27.092  36.616  1.00  0.00    -0.206 F 
ATOM     89  C   UNL A   1      45.452  26.807  36.347  1.00  0.00     0.040 A 
ATOM     90  C   UNL A   1      46.742  28.471  35.174  1.00  0.00     0.040 A 
ATOM     91  F   UNL A   1      45.686  30.382  34.316  1.00  0.00    -0.206 F 
ATOM     92  C   UNL A   1      46.678  27.260  35.860  1.00  0.00     0.006 A 
ENDBRANCH  68  85
ENDBRANCH  42  43
ENDBRANCH  34  37
ENDBRANCH  32  33
ENDBRANCH  31  32
ENDBRANCH  30  31
ENDBRANCH   3  30
TORSDOF 15
ENDMDL
MODEL 3
REMARK VINA RESULT:     -11.9      3.787      8.733
REMARK SMILES O=C(CCC(=O)Nc1ccc(N2CCN(c3ccc(F)cc3)CC2)cc1)NCCCNC(=O)c1ccc(-c2c3nc(c(-c4c(F)cccc4F)c4ccc([nH]4)c(-c4c(F)cccc4F)c4nc(c(-c5c(F)cccc5F)c5ccc2[nH]5)C=C4)C=C3)cc1
REMARK SMILES IDX 1 1 2 2 27 3 3 5 4 6 5 7 6 8 7 9 8 11 9 12 26 13 10 14 25 15
REMARK SMILES IDX 11 16 12 17 13 18 24 19 14 20 23 21 15 22 16 23 17 24 22 25
REMARK SMILES IDX 18 26 21 27 19 28 20 29 28 30 29 31 30 32 31 33 32 34 33 36
REMARK SMILES IDX 34 37 35 38 87 39 36 40 86 41 37 42 38 43 39 44 80 45 40 46
REMARK SMILES IDX 85 47 79 48 81 49 41 50 84 51 78 52 77 53 42 55 68 56 51 57
REMARK SMILES IDX 67 58 52 59 55 60 66 61 82 62 53 63 54 64 65 66 83 67 56 68
REMARK SMILES IDX 43 69 44 70 49 71 45 72 46 73 48 74 50 75 47 76 69 77 70 78
REMARK SMILES IDX 75 79 71 80 72 81 74 82 76 83 73 84 57 85 58 86 63 87 59 88
REMARK SMILES IDX 60 89 62 90 64 91 61 92
REMARK H PARENT 27 4 7 10 31 35 81 54 55 65
REMARK Flexibility Score: inf
ROOT
ATOM      1  O   UNL A   1      36.945  18.635  24.989  1.00  0.00    -0.275 OA
ATOM      2  C   UNL A   1      35.764  18.872  24.761  1.00  0.00     0.220 C 
ATOM      3  N   UNL A   1      35.164  20.094  24.968  1.00  0.00    -0.356 N 
ATOM      4  H   UNL A   1      34.257  20.244  24.615  1.00  0.00     0.163 HD
ENDROOT
BRANCH   2   5
ATOM      5  C   UNL A   1      34.811  17.800  24.283  1.00  0.00     0.110 C 
BRANCH   5   6
ATOM      6  C   UNL A   1      33.344  18.191  24.445  1.00  0.00     0.110 C 
BRANCH   6   7
ATOM      7  C   UNL A   1      32.647  18.441  23.129  1.00  0.00     0.224 C 
ATOM      8  O   UNL A   1      32.562  17.508  22.318  1.00  0.00    -0.275 OA
ATOM      9  N   UNL A   1      32.155  19.641  22.720  1.00  0.00    -0.326 N 
ATOM     10  H   UNL A   1      31.601  19.564  21.910  1.00  0.00     0.169 HD
BRANCH   9  11
ATOM     11  C   UNL A   1      32.250  20.970  23.177  1.00  0.00     0.041 A 
ATOM     12  C   UNL A   1      31.866  21.193  24.508  1.00  0.00     0.028 A 
ATOM     13  C   UNL A   1      32.561  22.079  22.402  1.00  0.00     0.028 A 
ATOM     14  C   UNL A   1      31.669  22.494  24.992  1.00  0.00     0.028 A 
ATOM     15  C   UNL A   1      32.346  23.377  22.884  1.00  0.00     0.028 A 
ATOM     16  C   UNL A   1      31.859  23.604  24.168  1.00  0.00     0.037 A 
BRANCH  16  17
ATOM     17  N   UNL A   1      31.559  24.869  24.646  1.00  0.00    -0.368 N 
ATOM     18  C   UNL A   1      31.894  25.139  26.057  1.00  0.00     0.138 C 
ATOM     19  C   UNL A   1      31.731  26.026  23.740  1.00  0.00     0.138 C 
ATOM     20  C   UNL A   1      33.301  25.762  26.201  1.00  0.00     0.138 C 
ATOM     21  C   UNL A   1      33.085  26.754  23.926  1.00  0.00     0.138 C 
ATOM     22  N   UNL A   1      33.426  26.962  25.346  1.00  0.00    -0.368 N 
BRANCH  22  23
ATOM     23  C   UNL A   1      33.335  28.194  25.965  1.00  0.00     0.037 A 
ATOM     24  C   UNL A   1      32.143  28.934  25.861  1.00  0.00     0.029 A 
ATOM     25  C   UNL A   1      34.395  28.766  26.681  1.00  0.00     0.029 A 
ATOM     26  C   UNL A   1      32.015  30.201  26.431  1.00  0.00     0.041 A 
ATOM     27  C   UNL A   1      34.279  30.042  27.245  1.00  0.00     0.041 A 
ATOM     28  C   UNL A   1      33.092  30.748  27.112  1.00  0.00     0.123 A 
ATOM     29  F   UNL A   1      32.984  31.972  27.645  1.00  0.00    -0.207 F 
ENDBRANCH  22  23
ENDBRANCH  16  17
ENDBRANCH   9  11
ENDBRANCH   6   7
ENDBRANCH   5   6
ENDBRANCH   2   5
BRANCH   3  30
ATOM     30  C   UNL A   1      35.820  21.167  25.687  1.00  0.00     0.117 C 
BRANCH  30  31
ATOM     31  C   UNL A   1      36.584  22.126  24.796  1.00  0.00     0.042 C 
BRANCH  31  32
ATOM     32  C   UNL A   1      37.559  23.039  25.524  1.00  0.00     0.118 C 
BRANCH  32  33
ATOM     33  N   UNL A   1      38.902  22.497  25.707  1.00  0.00    -0.352 N 
ATOM     34  C   UNL A   1      39.980  23.091  26.334  1.00  0.00     0.251 C 
ATOM     35  H   UNL A   1      39.059  21.598  25.339  1.00  0.00     0.163 HD
ATOM     36  O   UNL A   1      41.067  22.525  26.394  1.00  0.00    -0.269 OA
BRANCH  34  37
ATOM     37  C   UNL A   1      39.819  24.462  26.867  1.00  0.00     0.039 A 
ATOM     38  C   UNL A   1      39.229  24.634  28.123  1.00  0.00     0.014 A 
ATOM     39  C   UNL A   1      40.402  25.543  26.204  1.00  0.00     0.014 A 
ATOM     40  C   UNL A   1      39.353  25.862  28.776  1.00  0.00     0.010 A 
ATOM     41  C   UNL A   1      40.608  26.730  26.896  1.00  0.00     0.010 A 
ATOM     42  C   UNL A   1      40.116  26.893  28.203  1.00  0.00    -0.014 A 
BRANCH  42  43
ATOM     43  C   UNL A   1      40.472  28.128  28.952  1.00  0.00     0.031 A 
ATOM     44  C   UNL A   1      41.796  28.219  29.657  1.00  0.00     0.074 A 
ATOM     45  C   UNL A   1      39.559  29.108  29.116  1.00  0.00     0.049 A 
ATOM     46  N   UNL A   1      42.208  29.096  30.537  1.00  0.00    -0.248 NA
ATOM     47  C   UNL A   1      42.769  27.155  29.366  1.00  0.00     0.031 C 
ATOM     48  C   UNL A   1      38.213  29.128  28.536  1.00  0.00     0.029 A 
ATOM     49  N   UNL A   1      39.618  30.271  29.846  1.00  0.00    -0.354 N 
ATOM     50  C   UNL A   1      43.463  28.660  30.942  1.00  0.00     0.074 A 
ATOM     51  C   UNL A   1      43.731  27.426  30.235  1.00  0.00     0.031 C 
ATOM     52  C   UNL A   1      37.586  30.253  28.914  1.00  0.00     0.029 A 
ATOM     53  C   UNL A   1      38.460  31.012  29.802  1.00  0.00     0.049 A 
ATOM     54  H   UNL A   1      40.415  30.547  30.354  1.00  0.00     0.167 HD
ATOM     55  C   UNL A   1      44.321  29.242  31.813  1.00  0.00     0.037 A 
ATOM     56  C   UNL A   1      38.133  32.163  30.419  1.00  0.00     0.037 A 
ATOM     57  C   UNL A   1      44.085  30.500  32.467  1.00  0.00     0.049 A 
ATOM     58  C   UNL A   1      39.123  32.817  31.340  1.00  0.00     0.074 A 
ATOM     59  C   UNL A   1      44.926  31.204  33.311  1.00  0.00     0.029 A 
ATOM     60  N   UNL A   1      42.927  31.251  32.335  1.00  0.00    -0.354 N 
ATOM     61  N   UNL A   1      40.319  32.410  31.687  1.00  0.00    -0.248 NA
ATOM     62  C   UNL A   1      38.718  34.089  31.958  1.00  0.00     0.031 C 
ATOM     63  C   UNL A   1      44.270  32.375  33.705  1.00  0.00     0.029 A 
ATOM     64  C   UNL A   1      43.033  32.412  33.082  1.00  0.00     0.049 A 
ATOM     65  H   UNL A   1      42.147  30.997  31.792  1.00  0.00     0.167 HD
ATOM     66  C   UNL A   1      40.821  33.387  32.535  1.00  0.00     0.074 A 
ATOM     67  C   UNL A   1      39.802  34.408  32.652  1.00  0.00     0.031 C 
ATOM     68  C   UNL A   1      42.021  33.431  33.164  1.00  0.00     0.037 A 
BRANCH  55  69
ATOM     69  C   UNL A   1      45.603  28.520  32.099  1.00  0.00     0.057 A 
ATOM     70  C   UNL A   1      46.749  28.714  31.318  1.00  0.00     0.134 A 
ATOM     71  C   UNL A   1      45.699  27.636  33.181  1.00  0.00     0.134 A 
ATOM     72  F   UNL A   1      46.716  29.536  30.257  1.00  0.00    -0.206 F 
ATOM     73  C   UNL A   1      47.937  28.033  31.584  1.00  0.00     0.040 A 
ATOM     74  C   UNL A   1      46.889  26.968  33.474  1.00  0.00     0.040 A 
ATOM     75  F   UNL A   1      44.639  27.409  33.972  1.00  0.00    -0.206 F 
ATOM     76  C   UNL A   1      48.010  27.161  32.670  1.00  0.00     0.006 A 
ENDBRANCH  55  69
BRANCH  56  77
ATOM     77  C   UNL A   1      36.810  32.789  30.172  1.00  0.00     0.057 A 
ATOM     78  C   UNL A   1      36.617  33.643  29.081  1.00  0.00     0.134 A 
ATOM     79  C   UNL A   1      35.717  32.559  31.016  1.00  0.00     0.134 A 
ATOM     80  F   UNL A   1      37.634  33.917  28.250  1.00  0.00    -0.206 F 
ATOM     81  C   UNL A   1      35.387  34.261  28.844  1.00  0.00     0.040 A 
ATOM     82  C   UNL A   1      34.476  33.153  30.779  1.00  0.00     0.040 A 
ATOM     83  F   UNL A   1      35.838  31.744  32.074  1.00  0.00    -0.206 F 
ATOM     84  C   UNL A   1      34.311  34.013  29.694  1.00  0.00     0.006 A 
ENDBRANCH  56  77
BRANCH  68  85
ATOM     85  C   UNL A   1      42.322  34.645  33.988  1.00  0.00     0.057 A 
ATOM     86  C   UNL A   1      42.851  35.810  33.419  1.00  0.00     0.134 A 
ATOM     87  C   UNL A   1      42.022  34.666  35.355  1.00  0.00     0.134 A 
ATOM     88  F   UNL A   1      43.170  35.845  32.116  1.00  0.00    -0.206 F 
ATOM     89  C   UNL A   1      43.079  36.953  34.185  1.00  0.00     0.040 A 
ATOM     90  C   UNL A   1      42.229  35.809  36.128  1.00  0.00     0.040 A 
ATOM     91  F   UNL A   1      41.510  33.582  35.956  1.00  0.00    -0.206 F 
ATOM     92  C   UNL A   1      42.760  36.957  35.543  1.00  0.00     0.006 A 
ENDBRANCH  68  85
ENDBRANCH  42  43
ENDBRANCH  34  37
ENDBRANCH  32  33
ENDBRANCH  31  32
ENDBRANCH  30  31
ENDBRANCH   3  30
TORSDOF 15
ENDMDL
