MODEL 1
REMARK VINA RESULT:     -14.3      0.000      0.000
REMARK SMILES CC(C)[C@H](NC(=O)Cn1ccc2c(Br)cccc21)C(=O)NCCCNC(=O)c1ccc(-c2c3nc(c(-c4c(F)cccc4F)c4ccc([nH]4)c(-c4c(F)cccc4F)c4nc(c(-c5c(F)cccc5F)c5ccc2[nH]5)C=C4)C=C3)cc1
REMARK SMILES IDX 22 1 21 2 19 3 20 4 4 6 2 7 1 8 3 9 5 10 6 11 7 13 8 14 9 15
REMARK SMILES IDX 10 16 18 17 11 18 12 19 17 20 13 21 16 22 14 23 15 24 23 25
REMARK SMILES IDX 24 26 25 27 26 28 27 30 28 31 29 32 81 33 30 34 80 35 31 36
REMARK SMILES IDX 32 37 33 38 74 39 34 40 79 41 73 42 75 43 35 44 78 45 72 46
REMARK SMILES IDX 71 47 36 49 62 50 45 51 61 52 46 53 49 54 60 55 76 56 47 57
REMARK SMILES IDX 48 58 59 60 77 61 50 62 37 63 38 64 43 65 39 66 40 67 42 68
REMARK SMILES IDX 44 69 41 70 63 71 64 72 69 73 65 74 66 75 68 76 70 77 67 78
REMARK SMILES IDX 51 79 52 80 57 81 53 82 54 83 56 84 58 85 55 86
REMARK H PARENT 21 5 5 12 25 29 75 48 49 59
REMARK Flexibility Score: inf
ROOT
ATOM      1  C   UNL A   1      38.001  23.935  26.072  1.00  0.00     0.117 C 
ENDROOT
BRANCH   1   2
ATOM      2  N   UNL A   1      38.174  22.718  25.417  1.00  0.00    -0.354 N 
ATOM      3  C   UNL A   1      37.164  22.033  24.956  1.00  0.00     0.242 C 
ATOM      4  O   UNL A   1      37.670  20.973  24.564  1.00  0.00    -0.273 OA
ATOM      5  H   UNL A   1      39.085  22.365  25.298  1.00  0.00     0.163 HD
BRANCH   3   6
ATOM      6  C   UNL A   1      35.518  22.669  25.071  1.00  0.00     0.173 C 
BRANCH   6   7
ATOM      7  C   UNL A   1      34.724  21.805  26.107  1.00  0.00     0.015 C 
ATOM      8  C   UNL A   1      34.280  22.728  27.234  1.00  0.00     0.010 C 
ATOM      9  C   UNL A   1      33.595  20.967  25.472  1.00  0.00     0.010 C 
ENDBRANCH   6   7
BRANCH   6  10
ATOM     10  N   UNL A   1      34.934  22.815  23.750  1.00  0.00    -0.343 N 
ATOM     11  C   UNL A   1      34.184  23.880  23.362  1.00  0.00     0.240 C 
ATOM     12  H   UNL A   1      35.091  22.098  23.093  1.00  0.00     0.164 HD
ATOM     13  O   UNL A   1      33.900  23.980  22.169  1.00  0.00    -0.273 OA
BRANCH  11  14
ATOM     14  C   UNL A   1      33.891  24.964  24.377  1.00  0.00     0.222 C 
BRANCH  14  15
ATOM     15  N   UNL A   1      33.050  26.067  23.847  1.00  0.00    -0.338 N 
ATOM     16  C   UNL A   1      33.738  27.121  23.289  1.00  0.00     0.087 A 
ATOM     17  C   UNL A   1      31.633  26.368  23.757  1.00  0.00     0.050 A 
ATOM     18  C   UNL A   1      32.823  28.042  22.848  1.00  0.00     0.029 A 
ATOM     19  C   UNL A   1      31.505  27.604  23.144  1.00  0.00     0.014 A 
ATOM     20  C   UNL A   1      30.310  25.844  24.166  1.00  0.00     0.027 A 
ATOM     21  C   UNL A   1      30.175  28.110  22.984  1.00  0.00     0.027 A 
ATOM     22  C   UNL A   1      29.040  26.283  24.049  1.00  0.00     0.003 A 
ATOM     23  Br  UNL A   1      29.924  29.765  22.126  1.00  0.00    -0.050 Br
ATOM     24  C   UNL A   1      28.982  27.460  23.424  1.00  0.00     0.016 A 
ENDBRANCH  14  15
ENDBRANCH  11  14
ENDBRANCH   6  10
ENDBRANCH   3   6
ENDBRANCH   1   2
BRANCH   1  25
ATOM     25  C   UNL A   1      38.910  24.046  27.200  1.00  0.00     0.042 C 
BRANCH  25  26
ATOM     26  C   UNL A   1      39.938  24.975  26.716  1.00  0.00     0.118 C 
BRANCH  26  27
ATOM     27  N   UNL A   1      40.932  25.264  27.731  1.00  0.00    -0.352 N 
ATOM     28  C   UNL A   1      40.940  26.404  28.488  1.00  0.00     0.251 C 
ATOM     29  H   UNL A   1      41.643  24.601  27.885  1.00  0.00     0.163 HD
ATOM     30  O   UNL A   1      41.885  26.633  29.235  1.00  0.00    -0.269 OA
BRANCH  28  31
ATOM     31  C   UNL A   1      39.640  27.193  28.473  1.00  0.00     0.039 A 
ATOM     32  C   UNL A   1      39.426  28.166  27.578  1.00  0.00     0.014 A 
ATOM     33  C   UNL A   1      39.013  27.510  29.745  1.00  0.00     0.014 A 
ATOM     34  C   UNL A   1      38.888  29.495  28.342  1.00  0.00     0.010 A 
ATOM     35  C   UNL A   1      38.279  28.616  30.305  1.00  0.00     0.010 A 
ATOM     36  C   UNL A   1      38.887  29.826  30.048  1.00  0.00    -0.014 A 
BRANCH  36  37
ATOM     37  C   UNL A   1      38.789  31.083  31.572  1.00  0.00     0.031 A 
ATOM     38  C   UNL A   1      37.282  31.516  30.281  1.00  0.00     0.074 A 
ATOM     39  C   UNL A   1      39.683  31.210  33.188  1.00  0.00     0.049 A 
ATOM     40  N   UNL A   1      37.447  32.023  29.009  1.00  0.00    -0.248 NA
ATOM     41  C   UNL A   1      35.633  30.909  29.528  1.00  0.00     0.031 C 
ATOM     42  C   UNL A   1      40.610  31.362  34.909  1.00  0.00     0.029 A 
ATOM     43  N   UNL A   1      39.801  32.687  34.200  1.00  0.00    -0.354 N 
ATOM     44  C   UNL A   1      36.196  32.725  28.738  1.00  0.00     0.074 A 
ATOM     45  C   UNL A   1      35.061  31.927  28.817  1.00  0.00     0.031 C 
ATOM     46  C   UNL A   1      40.463  31.897  36.305  1.00  0.00     0.029 A 
ATOM     47  C   UNL A   1      39.721  32.919  35.870  1.00  0.00     0.049 A 
ATOM     48  H   UNL A   1      39.938  33.515  33.687  1.00  0.00     0.167 HD
ATOM     49  C   UNL A   1      36.044  33.909  29.336  1.00  0.00     0.037 A 
ATOM     50  C   UNL A   1      38.991  33.744  36.712  1.00  0.00     0.037 A 
ATOM     51  C   UNL A   1      37.327  34.329  29.697  1.00  0.00     0.049 A 
ATOM     52  C   UNL A   1      38.428  34.337  35.529  1.00  0.00     0.074 A 
ATOM     53  C   UNL A   1      38.469  34.366  28.934  1.00  0.00     0.029 A 
ATOM     54  N   UNL A   1      37.676  34.089  30.975  1.00  0.00    -0.354 N 
ATOM     55  N   UNL A   1      39.151  35.036  34.677  1.00  0.00    -0.248 NA
ATOM     56  C   UNL A   1      37.288  33.574  35.050  1.00  0.00     0.031 C 
ATOM     57  C   UNL A   1      39.538  34.274  29.814  1.00  0.00     0.029 A 
ATOM     58  C   UNL A   1      39.020  34.163  31.086  1.00  0.00     0.049 A 
ATOM     59  H   UNL A   1      37.051  33.891  31.709  1.00  0.00     0.167 HD
ATOM     60  C   UNL A   1      38.757  34.558  33.427  1.00  0.00     0.074 A 
ATOM     61  C   UNL A   1      37.503  33.760  33.751  1.00  0.00     0.031 C 
ATOM     62  C   UNL A   1      39.623  34.300  32.352  1.00  0.00     0.037 A 
BRANCH  49  63
ATOM     63  C   UNL A   1      34.807  34.562  29.740  1.00  0.00     0.057 A 
ATOM     64  C   UNL A   1      34.126  34.595  30.969  1.00  0.00     0.134 A 
ATOM     65  C   UNL A   1      34.306  35.289  28.680  1.00  0.00     0.134 A 
ATOM     66  F   UNL A   1      34.513  33.878  32.039  1.00  0.00    -0.206 F 
ATOM     67  C   UNL A   1      33.025  35.424  31.116  1.00  0.00     0.040 A 
ATOM     68  C   UNL A   1      33.344  36.243  28.877  1.00  0.00     0.040 A 
ATOM     69  F   UNL A   1      34.807  35.096  27.451  1.00  0.00    -0.206 F 
ATOM     70  C   UNL A   1      32.784  36.386  30.138  1.00  0.00     0.006 A 
ENDBRANCH  49  63
BRANCH  50  71
ATOM     71  C   UNL A   1      38.258  33.312  38.018  1.00  0.00     0.057 A 
ATOM     72  C   UNL A   1      38.352  34.073  39.207  1.00  0.00     0.134 A 
ATOM     73  C   UNL A   1      37.617  32.068  38.199  1.00  0.00     0.134 A 
ATOM     74  F   UNL A   1      38.895  35.298  39.182  1.00  0.00    -0.206 F 
ATOM     75  C   UNL A   1      37.911  33.611  40.464  1.00  0.00     0.040 A 
ATOM     76  C   UNL A   1      37.028  31.664  39.425  1.00  0.00     0.040 A 
ATOM     77  F   UNL A   1      37.549  31.199  37.182  1.00  0.00    -0.206 F 
ATOM     78  C   UNL A   1      37.108  32.485  40.544  1.00  0.00     0.006 A 
ENDBRANCH  50  71
BRANCH  62  79
ATOM     79  C   UNL A   1      41.176  34.406  32.334  1.00  0.00     0.057 A 
ATOM     80  C   UNL A   1      41.838  33.412  31.645  1.00  0.00     0.134 A 
ATOM     81  C   UNL A   1      42.060  35.303  33.013  1.00  0.00     0.134 A 
ATOM     82  F   UNL A   1      41.152  32.379  31.141  1.00  0.00    -0.206 F 
ATOM     83  C   UNL A   1      43.216  33.444  31.468  1.00  0.00     0.040 A 
ATOM     84  C   UNL A   1      43.375  35.507  32.613  1.00  0.00     0.040 A 
ATOM     85  F   UNL A   1      41.699  36.112  34.012  1.00  0.00    -0.206 F 
ATOM     86  C   UNL A   1      43.923  34.609  31.733  1.00  0.00     0.006 A 
ENDBRANCH  62  79
ENDBRANCH  36  37
ENDBRANCH  28  31
ENDBRANCH  26  27
ENDBRANCH  25  26
ENDBRANCH   1  25
TORSDOF 14
ENDMDL
MODEL 2
REMARK VINA RESULT:     -14.2      6.017     12.059
REMARK SMILES CC(C)[C@H](NC(=O)Cn1ccc2c(Br)cccc21)C(=O)NCCCNC(=O)c1ccc(-c2c3nc(c(-c4c(F)cccc4F)c4ccc([nH]4)c(-c4c(F)cccc4F)c4nc(c(-c5c(F)cccc5F)c5ccc2[nH]5)C=C4)C=C3)cc1
REMARK SMILES IDX 22 1 21 2 19 3 20 4 4 6 2 7 1 8 3 9 5 10 6 11 7 13 8 14 9 15
REMARK SMILES IDX 10 16 18 17 11 18 12 19 17 20 13 21 16 22 14 23 15 24 23 25
REMARK SMILES IDX 24 26 25 27 26 28 27 30 28 31 29 32 81 33 30 34 80 35 31 36
REMARK SMILES IDX 32 37 33 38 74 39 34 40 79 41 73 42 75 43 35 44 78 45 72 46
REMARK SMILES IDX 71 47 36 49 62 50 45 51 61 52 46 53 49 54 60 55 76 56 47 57
REMARK SMILES IDX 48 58 59 60 77 61 50 62 37 63 38 64 43 65 39 66 40 67 42 68
REMARK SMILES IDX 44 69 41 70 63 71 64 72 69 73 65 74 66 75 68 76 70 77 67 78
REMARK SMILES IDX 51 79 52 80 57 81 53 82 54 83 56 84 58 85 55 86
REMARK H PARENT 21 5 5 12 25 29 75 48 49 59
REMARK Flexibility Score: inf
ROOT
ATOM      1  C   UNL A   1      34.568  29.381  27.526  1.00  0.00     0.117 C 
ENDROOT
BRANCH   1   2
ATOM      2  N   UNL A   1      33.360  30.071  27.566  1.00  0.00    -0.354 N 
ATOM      3  C   UNL A   1      32.350  29.740  26.809  1.00  0.00     0.242 C 
ATOM      4  O   UNL A   1      31.514  30.631  27.012  1.00  0.00    -0.273 OA
ATOM      5  H   UNL A   1      33.265  30.832  28.184  1.00  0.00     0.163 HD
BRANCH   3   6
ATOM      6  C   UNL A   1      32.447  28.330  25.746  1.00  0.00     0.173 C 
BRANCH   6   7
ATOM      7  C   UNL A   1      32.617  28.830  24.273  1.00  0.00     0.015 C 
ATOM      8  C   UNL A   1      33.909  28.236  23.730  1.00  0.00     0.010 C 
ATOM      9  C   UNL A   1      31.372  28.588  23.394  1.00  0.00     0.010 C 
ENDBRANCH   6   7
BRANCH   6  10
ATOM     10  N   UNL A   1      31.350  27.416  26.010  1.00  0.00    -0.343 N 
ATOM     11  C   UNL A   1      31.476  26.063  26.035  1.00  0.00     0.240 C 
ATOM     12  H   UNL A   1      30.460  27.800  26.182  1.00  0.00     0.164 HD
ATOM     13  O   UNL A   1      30.523  25.405  26.450  1.00  0.00    -0.273 OA
BRANCH  11  14
ATOM     14  C   UNL A   1      32.827  25.458  25.722  1.00  0.00     0.222 C 
BRANCH  14  15
ATOM     15  N   UNL A   1      32.826  23.973  25.701  1.00  0.00    -0.338 N 
ATOM     16  C   UNL A   1      33.142  23.363  26.895  1.00  0.00     0.087 A 
ATOM     17  C   UNL A   1      32.585  22.928  24.723  1.00  0.00     0.050 A 
ATOM     18  C   UNL A   1      33.091  22.006  26.707  1.00  0.00     0.029 A 
ATOM     19  C   UNL A   1      32.763  21.709  25.358  1.00  0.00     0.014 A 
ATOM     20  C   UNL A   1      32.298  22.735  23.283  1.00  0.00     0.027 A 
ATOM     21  C   UNL A   1      32.602  20.535  24.555  1.00  0.00     0.027 A 
ATOM     22  C   UNL A   1      32.148  21.658  22.484  1.00  0.00     0.003 A 
ATOM     23  Br  UNL A   1      32.794  18.845  25.360  1.00  0.00    -0.050 Br
ATOM     24  C   UNL A   1      32.301  20.519  23.160  1.00  0.00     0.016 A 
ENDBRANCH  14  15
ENDBRANCH  11  14
ENDBRANCH   6  10
ENDBRANCH   3   6
ENDBRANCH   1   2
BRANCH   1  25
ATOM     25  C   UNL A   1      35.687  30.290  27.712  1.00  0.00     0.042 C 
BRANCH  25  26
ATOM     26  C   UNL A   1      36.152  29.980  29.070  1.00  0.00     0.118 C 
BRANCH  26  27
ATOM     27  N   UNL A   1      37.362  30.703  29.409  1.00  0.00    -0.352 N 
ATOM     28  C   UNL A   1      38.600  30.126  29.481  1.00  0.00     0.251 C 
ATOM     29  H   UNL A   1      37.287  31.666  29.599  1.00  0.00     0.163 HD
ATOM     30  O   UNL A   1      39.552  30.777  29.899  1.00  0.00    -0.269 OA
BRANCH  28  31
ATOM     31  C   UNL A   1      38.710  28.759  28.827  1.00  0.00     0.039 A 
ATOM     32  C   UNL A   1      38.686  27.635  29.554  1.00  0.00     0.014 A 
ATOM     33  C   UNL A   1      39.587  28.615  27.676  1.00  0.00     0.014 A 
ATOM     34  C   UNL A   1      39.921  26.676  29.109  1.00  0.00     0.010 A 
ATOM     35  C   UNL A   1      40.474  27.607  27.154  1.00  0.00     0.010 A 
ATOM     36  C   UNL A   1      41.296  27.084  28.129  1.00  0.00    -0.014 A 
BRANCH  36  37
ATOM     37  C   UNL A   1      43.135  26.736  27.489  1.00  0.00     0.031 A 
ATOM     38  C   UNL A   1      42.056  25.026  27.307  1.00  0.00     0.074 A 
ATOM     39  C   UNL A   1      44.612  27.813  27.186  1.00  0.00     0.049 A 
ATOM     40  N   UNL A   1      41.565  24.281  28.359  1.00  0.00    -0.248 NA
ATOM     41  C   UNL A   1      40.621  24.163  26.386  1.00  0.00     0.031 C 
ATOM     42  C   UNL A   1      46.186  28.931  26.851  1.00  0.00     0.029 A 
ATOM     43  N   UNL A   1      46.310  27.245  27.084  1.00  0.00    -0.354 N 
ATOM     44  C   UNL A   1      41.443  22.932  27.817  1.00  0.00     0.074 A 
ATOM     45  C   UNL A   1      40.617  22.832  26.703  1.00  0.00     0.031 C 
ATOM     46  C   UNL A   1      47.449  29.008  26.042  1.00  0.00     0.029 A 
ATOM     47  C   UNL A   1      47.585  27.679  26.067  1.00  0.00     0.049 A 
ATOM     48  H   UNL A   1      46.543  26.552  27.743  1.00  0.00     0.167 HD
ATOM     49  C   UNL A   1      42.581  22.245  27.685  1.00  0.00     0.037 A 
ATOM     50  C   UNL A   1      48.474  26.988  25.257  1.00  0.00     0.037 A 
ATOM     51  C   UNL A   1      43.509  22.867  28.525  1.00  0.00     0.049 A 
ATOM     52  C   UNL A   1      47.870  25.778  25.746  1.00  0.00     0.074 A 
ATOM     53  C   UNL A   1      43.368  23.236  29.841  1.00  0.00     0.029 A 
ATOM     54  N   UNL A   1      44.340  23.738  27.924  1.00  0.00    -0.354 N 
ATOM     55  N   UNL A   1      47.970  25.398  27.005  1.00  0.00    -0.248 NA
ATOM     56  C   UNL A   1      46.682  25.436  24.983  1.00  0.00     0.031 C 
ATOM     57  C   UNL A   1      44.250  24.286  30.055  1.00  0.00     0.029 A 
ATOM     58  C   UNL A   1      44.889  24.542  28.861  1.00  0.00     0.049 A 
ATOM     59  H   UNL A   1      44.518  23.782  26.957  1.00  0.00     0.167 HD
ATOM     60  C   UNL A   1      46.674  25.011  27.345  1.00  0.00     0.074 A 
ATOM     61  C   UNL A   1      45.979  24.935  25.993  1.00  0.00     0.031 C 
ATOM     62  C   UNL A   1      46.039  25.299  28.564  1.00  0.00     0.037 A 
BRANCH  49  63
ATOM     63  C   UNL A   1      42.896  21.198  26.723  1.00  0.00     0.057 A 
ATOM     64  C   UNL A   1      43.695  21.202  25.567  1.00  0.00     0.134 A 
ATOM     65  C   UNL A   1      42.298  20.019  27.117  1.00  0.00     0.134 A 
ATOM     66  F   UNL A   1      44.272  22.314  25.080  1.00  0.00    -0.206 F 
ATOM     67  C   UNL A   1      43.938  20.009  24.903  1.00  0.00     0.040 A 
ATOM     68  C   UNL A   1      42.688  18.822  26.580  1.00  0.00     0.040 A 
ATOM     69  F   UNL A   1      41.362  20.042  28.078  1.00  0.00    -0.206 F 
ATOM     70  C   UNL A   1      43.606  18.817  25.540  1.00  0.00     0.006 A 
ENDBRANCH  49  63
BRANCH  50  71
ATOM     71  C   UNL A   1      48.857  27.351  23.791  1.00  0.00     0.057 A 
ATOM     72  C   UNL A   1      47.887  27.786  22.856  1.00  0.00     0.134 A 
ATOM     73  C   UNL A   1      50.120  27.102  23.211  1.00  0.00     0.134 A 
ATOM     74  F   UNL A   1      46.652  28.106  23.268  1.00  0.00    -0.206 F 
ATOM     75  C   UNL A   1      48.133  27.898  21.473  1.00  0.00     0.040 A 
ATOM     76  C   UNL A   1      50.419  27.365  21.849  1.00  0.00     0.040 A 
ATOM     77  F   UNL A   1      51.105  26.587  23.956  1.00  0.00    -0.206 F 
ATOM     78  C   UNL A   1      49.433  27.847  20.995  1.00  0.00     0.006 A 
ENDBRANCH  50  71
BRANCH  62  79
ATOM     79  C   UNL A   1      46.585  26.157  29.743  1.00  0.00     0.057 A 
ATOM     80  C   UNL A   1      47.849  25.832  30.188  1.00  0.00     0.134 A 
ATOM     81  C   UNL A   1      45.953  27.167  30.536  1.00  0.00     0.134 A 
ATOM     82  F   UNL A   1      48.478  24.762  29.686  1.00  0.00    -0.206 F 
ATOM     83  C   UNL A   1      48.492  26.583  31.165  1.00  0.00     0.040 A 
ATOM     84  C   UNL A   1      46.670  28.086  31.291  1.00  0.00     0.040 A 
ATOM     85  F   UNL A   1      44.640  27.407  30.550  1.00  0.00    -0.206 F 
ATOM     86  C   UNL A   1      47.999  27.833  31.514  1.00  0.00     0.006 A 
ENDBRANCH  62  79
ENDBRANCH  36  37
ENDBRANCH  28  31
ENDBRANCH  26  27
ENDBRANCH  25  26
ENDBRANCH   1  25
TORSDOF 14
ENDMDL
MODEL 3
REMARK VINA RESULT:     -14.0      5.301     11.655
REMARK SMILES CC(C)[C@H](NC(=O)Cn1ccc2c(Br)cccc21)C(=O)NCCCNC(=O)c1ccc(-c2c3nc(c(-c4c(F)cccc4F)c4ccc([nH]4)c(-c4c(F)cccc4F)c4nc(c(-c5c(F)cccc5F)c5ccc2[nH]5)C=C4)C=C3)cc1
REMARK SMILES IDX 22 1 21 2 19 3 20 4 4 6 2 7 1 8 3 9 5 10 6 11 7 13 8 14 9 15
REMARK SMILES IDX 10 16 18 17 11 18 12 19 17 20 13 21 16 22 14 23 15 24 23 25
REMARK SMILES IDX 24 26 25 27 26 28 27 30 28 31 29 32 81 33 30 34 80 35 31 36
REMARK SMILES IDX 32 37 33 38 74 39 34 40 79 41 73 42 75 43 35 44 78 45 72 46
REMARK SMILES IDX 71 47 36 49 62 50 45 51 61 52 46 53 49 54 60 55 76 56 47 57
REMARK SMILES IDX 48 58 59 60 77 61 50 62 37 63 38 64 43 65 39 66 40 67 42 68
REMARK SMILES IDX 44 69 41 70 63 71 64 72 69 73 65 74 66 75 68 76 70 77 67 78
REMARK SMILES IDX 51 79 52 80 57 81 53 82 54 83 56 84 58 85 55 86
REMARK H PARENT 21 5 5 12 25 29 75 48 49 59
REMARK Flexibility Score: inf
ROOT
ATOM      1  C   UNL A   1      36.568  34.578  32.374  1.00  0.00     0.117 C 
ENDROOT
BRANCH   1   2
ATOM      2  N   UNL A   1      35.730  33.467  32.330  1.00  0.00    -0.354 N 
ATOM      3  C   UNL A   1      34.499  33.547  31.905  1.00  0.00     0.242 C 
ATOM      4  O   UNL A   1      34.028  32.423  32.126  1.00  0.00    -0.273 OA
ATOM      5  H   UNL A   1      36.077  32.595  32.627  1.00  0.00     0.163 HD
BRANCH   3   6
ATOM      6  C   UNL A   1      33.859  35.074  31.283  1.00  0.00     0.173 C 
BRANCH   6   7
ATOM      7  C   UNL A   1      33.300  35.905  32.486  1.00  0.00     0.015 C 
ATOM      8  C   UNL A   1      34.028  37.242  32.501  1.00  0.00     0.010 C 
ATOM      9  C   UNL A   1      31.761  36.004  32.501  1.00  0.00     0.010 C 
ENDBRANCH   6   7
BRANCH   6  10
ATOM     10  N   UNL A   1      32.957  34.834  30.171  1.00  0.00    -0.343 N 
ATOM     11  C   UNL A   1      33.360  34.688  28.881  1.00  0.00     0.240 C 
ATOM     12  H   UNL A   1      31.994  34.773  30.363  1.00  0.00     0.164 HD
ATOM     13  O   UNL A   1      32.528  34.306  28.059  1.00  0.00    -0.273 OA
BRANCH  11  14
ATOM     14  C   UNL A   1      34.833  34.831  28.565  1.00  0.00     0.222 C 
BRANCH  14  15
ATOM     15  N   UNL A   1      35.560  33.538  28.510  1.00  0.00    -0.338 N 
ATOM     16  C   UNL A   1      36.889  33.589  28.871  1.00  0.00     0.087 A 
ATOM     17  C   UNL A   1      35.253  32.165  28.155  1.00  0.00     0.050 A 
ATOM     18  C   UNL A   1      37.406  32.323  28.771  1.00  0.00     0.029 A 
ATOM     19  C   UNL A   1      36.412  31.421  28.310  1.00  0.00     0.014 A 
ATOM     20  C   UNL A   1      34.159  31.327  27.614  1.00  0.00     0.027 A 
ATOM     21  C   UNL A   1      36.335  30.030  27.978  1.00  0.00     0.027 A 
ATOM     22  C   UNL A   1      34.040  30.026  27.276  1.00  0.00     0.003 A 
ATOM     23  Br  UNL A   1      37.860  28.953  28.200  1.00  0.00    -0.050 Br
ATOM     24  C   UNL A   1      35.178  29.360  27.478  1.00  0.00     0.016 A 
ENDBRANCH  14  15
ENDBRANCH  11  14
ENDBRANCH   6  10
ENDBRANCH   3   6
ENDBRANCH   1   2
BRANCH   1  25
ATOM     25  C   UNL A   1      37.173  34.714  33.688  1.00  0.00     0.042 C 
BRANCH  25  26
ATOM     26  C   UNL A   1      37.087  33.357  34.242  1.00  0.00     0.118 C 
BRANCH  26  27
ATOM     27  N   UNL A   1      38.344  32.925  34.821  1.00  0.00    -0.352 N 
ATOM     28  C   UNL A   1      39.031  31.814  34.412  1.00  0.00     0.251 C 
ATOM     29  H   UNL A   1      38.726  33.463  35.552  1.00  0.00     0.163 HD
ATOM     30  O   UNL A   1      40.019  31.445  35.037  1.00  0.00    -0.269 OA
BRANCH  28  31
ATOM     31  C   UNL A   1      38.600  31.252  33.067  1.00  0.00     0.039 A 
ATOM     32  C   UNL A   1      37.762  30.212  32.982  1.00  0.00     0.014 A 
ATOM     33  C   UNL A   1      39.576  31.223  31.990  1.00  0.00     0.014 A 
ATOM     34  C   UNL A   1      38.371  29.108  31.957  1.00  0.00     0.010 A 
ATOM     35  C   UNL A   1      39.908  30.340  30.901  1.00  0.00     0.010 A 
ATOM     36  C   UNL A   1      39.978  29.024  31.302  1.00  0.00    -0.014 A 
BRANCH  36  37
ATOM     37  C   UNL A   1      41.448  28.025  30.434  1.00  0.00     0.031 A 
ATOM     38  C   UNL A   1      41.643  27.840  32.447  1.00  0.00     0.074 A 
ATOM     39  C   UNL A   1      41.840  27.589  28.677  1.00  0.00     0.049 A 
ATOM     40  N   UNL A   1      41.957  28.867  33.313  1.00  0.00    -0.248 NA
ATOM     41  C   UNL A   1      40.888  27.098  34.039  1.00  0.00     0.031 C 
ATOM     42  C   UNL A   1      42.273  27.109  26.827  1.00  0.00     0.029 A 
ATOM     43  N   UNL A   1      43.455  27.113  28.058  1.00  0.00    -0.354 N 
ATOM     44  C   UNL A   1      42.577  28.199  34.452  1.00  0.00     0.074 A 
ATOM     45  C   UNL A   1      41.772  27.250  35.071  1.00  0.00     0.031 C 
ATOM     46  C   UNL A   1      43.008  26.099  25.994  1.00  0.00     0.029 A 
ATOM     47  C   UNL A   1      43.934  25.941  26.943  1.00  0.00     0.049 A 
ATOM     48  H   UNL A   1      44.200  27.633  28.439  1.00  0.00     0.167 HD
ATOM     49  C   UNL A   1      43.834  27.783  34.278  1.00  0.00     0.037 A 
ATOM     50  C   UNL A   1      44.859  24.907  26.942  1.00  0.00     0.037 A 
ATOM     51  C   UNL A   1      44.337  28.508  33.193  1.00  0.00     0.049 A 
ATOM     52  C   UNL A   1      45.251  25.350  28.253  1.00  0.00     0.074 A 
ATOM     53  C   UNL A   1      44.287  29.862  32.965  1.00  0.00     0.029 A 
ATOM     54  N   UNL A   1      44.301  27.875  32.006  1.00  0.00    -0.354 N 
ATOM     55  N   UNL A   1      45.832  26.515  28.459  1.00  0.00    -0.248 NA
ATOM     56  C   UNL A   1      44.396  24.780  29.280  1.00  0.00     0.031 C 
ATOM     57  C   UNL A   1      44.356  30.036  31.590  1.00  0.00     0.029 A 
ATOM     58  C   UNL A   1      44.424  28.785  31.016  1.00  0.00     0.049 A 
ATOM     59  H   UNL A   1      44.200  26.903  31.882  1.00  0.00     0.167 HD
ATOM     60  C   UNL A   1      45.162  27.037  29.565  1.00  0.00     0.074 A 
ATOM     61  C   UNL A   1      44.390  25.834  30.089  1.00  0.00     0.031 C 
ATOM     62  C   UNL A   1      44.766  28.376  29.713  1.00  0.00     0.037 A 
BRANCH  49  63
ATOM     63  C   UNL A   1      44.510  26.662  34.916  1.00  0.00     0.057 A 
ATOM     64  C   UNL A   1      44.532  25.290  34.615  1.00  0.00     0.134 A 
ATOM     65  C   UNL A   1      45.274  27.127  35.966  1.00  0.00     0.134 A 
ATOM     66  F   UNL A   1      43.779  24.742  33.644  1.00  0.00    -0.206 F 
ATOM     67  C   UNL A   1      45.385  24.451  35.316  1.00  0.00     0.040 A 
ATOM     68  C   UNL A   1      46.247  26.343  36.525  1.00  0.00     0.040 A 
ATOM     69  F   UNL A   1      45.097  28.381  36.408  1.00  0.00    -0.206 F 
ATOM     70  C   UNL A   1      46.376  25.027  36.108  1.00  0.00     0.006 A 
ENDBRANCH  49  63
BRANCH  50  71
ATOM     71  C   UNL A   1      44.610  23.449  26.451  1.00  0.00     0.057 A 
ATOM     72  C   UNL A   1      45.518  22.793  25.587  1.00  0.00     0.134 A 
ATOM     73  C   UNL A   1      43.408  22.735  26.646  1.00  0.00     0.134 A 
ATOM     74  F   UNL A   1      46.723  23.328  25.344  1.00  0.00    -0.206 F 
ATOM     75  C   UNL A   1      45.230  21.579  24.930  1.00  0.00     0.040 A 
ATOM     76  C   UNL A   1      43.175  21.439  26.117  1.00  0.00     0.040 A 
ATOM     77  F   UNL A   1      42.415  23.284  27.357  1.00  0.00    -0.206 F 
ATOM     78  C   UNL A   1      44.134  20.825  25.320  1.00  0.00     0.006 A 
ENDBRANCH  50  71
BRANCH  62  79
ATOM     79  C   UNL A   1      44.907  29.530  28.676  1.00  0.00     0.057 A 
ATOM     80  C   UNL A   1      46.197  29.890  28.349  1.00  0.00     0.134 A 
ATOM     81  C   UNL A   1      43.919  30.374  28.078  1.00  0.00     0.134 A 
ATOM     82  F   UNL A   1      47.229  29.336  28.996  1.00  0.00    -0.206 F 
ATOM     83  C   UNL A   1      46.460  30.835  27.364  1.00  0.00     0.040 A 
ATOM     84  C   UNL A   1      44.153  31.095  26.914  1.00  0.00     0.040 A 
ATOM     85  F   UNL A   1      42.654  30.475  28.495  1.00  0.00    -0.206 F 
ATOM     86  C   UNL A   1      45.452  31.232  26.496  1.00  0.00     0.006 A 
ENDBRANCH  62  79
ENDBRANCH  36  37
ENDBRANCH  28  31
ENDBRANCH  26  27
ENDBRANCH  25  26
ENDBRANCH   1  25
TORSDOF 14
ENDMDL
