MODEL 1
REMARK VINA RESULT:     -10.0      0.000      0.000
REMARK SMILES C[C@@H](C(=O)NCCCNC(=O)c1ccc(-c2c3nc(c(-c4c(F)cccc4F)c4ccc([nH]4)c(-c4c(F)cccc4F)c4nc(c(-c5c(F)cccc5F)c5ccc2[nH]5)C=C4)C=C3)cc1)c1ccc(=O)n(C(F)F)c1
REMARK SMILES IDX 7 1 6 2 5 3 3 4 4 5 2 7 1 8 66 9 67 10 75 11 68 12 71 13
REMARK SMILES IDX 69 14 70 15 72 16 73 17 74 18 8 19 9 20 10 21 11 23 12 24
REMARK SMILES IDX 13 25 65 26 14 27 64 28 15 29 16 30 17 31 58 32 18 33 63 34
REMARK SMILES IDX 57 35 59 36 19 37 62 38 56 39 55 40 20 42 46 43 29 44 45 45
REMARK SMILES IDX 30 46 33 47 44 48 60 49 31 50 32 51 43 53 61 54 34 55 21 56
REMARK SMILES IDX 22 57 27 58 23 59 24 60 26 61 28 62 25 63 47 64 48 65 53 66
REMARK SMILES IDX 49 67 50 68 52 69 54 70 51 71 35 72 36 73 41 74 37 75 38 76
REMARK SMILES IDX 40 77 42 78 39 79
REMARK H PARENT 5 6 9 22 59 41 33 52
REMARK Flexibility Score: inf
ROOT
ATOM      1  C   UNL A   1      34.391  34.594  29.009  1.00  0.00     0.042 C 
ENDROOT
BRANCH   1   2
ATOM      2  C   UNL A   1      34.225  34.205  30.478  1.00  0.00     0.117 C 
BRANCH   2   3
ATOM      3  N   UNL A   1      34.365  35.352  31.357  1.00  0.00    -0.356 N 
ATOM      4  C   UNL A   1      34.897  35.447  32.611  1.00  0.00     0.227 C 
ATOM      5  O   UNL A   1      34.779  36.530  33.186  1.00  0.00    -0.274 OA
ATOM      6  H   UNL A   1      34.019  36.197  30.991  1.00  0.00     0.163 HD
BRANCH   4   7
ATOM      7  C   UNL A   1      35.609  34.237  33.243  1.00  0.00     0.107 C 
ATOM      8  C   UNL A   1      35.407  34.203  34.762  1.00  0.00     0.023 C 
BRANCH   7   9
ATOM      9  C   UNL A   1      37.086  34.240  32.858  1.00  0.00    -0.019 A 
ATOM     10  C   UNL A   1      38.058  34.473  33.912  1.00  0.00     0.012 A 
ATOM     11  C   UNL A   1      37.540  34.071  31.603  1.00  0.00     0.099 A 
ATOM     12  C   UNL A   1      39.366  34.566  33.636  1.00  0.00     0.072 A 
ATOM     13  N   UNL A   1      38.887  34.153  31.290  1.00  0.00    -0.258 N 
ATOM     14  C   UNL A   1      39.855  34.431  32.237  1.00  0.00     0.254 A 
ATOM     15  O   UNL A   1      41.056  34.577  32.018  1.00  0.00    -0.269 OA
BRANCH  13  16
ATOM     16  C   UNL A   1      39.321  34.022  29.923  1.00  0.00     0.451 C 
ATOM     17  F   UNL A   1      38.695  32.981  29.321  1.00  0.00    -0.185 F 
ATOM     18  F   UNL A   1      39.062  35.140  29.204  1.00  0.00    -0.185 F 
ENDBRANCH  13  16
ENDBRANCH   7   9
ENDBRANCH   4   7
ENDBRANCH   2   3
ENDBRANCH   1   2
BRANCH   1  19
ATOM     19  C   UNL A   1      35.060  33.527  28.144  1.00  0.00     0.118 C 
BRANCH  19  20
ATOM     20  N   UNL A   1      34.148  32.460  27.764  1.00  0.00    -0.352 N 
ATOM     21  C   UNL A   1      34.343  31.103  27.713  1.00  0.00     0.251 C 
ATOM     22  H   UNL A   1      33.248  32.760  27.501  1.00  0.00     0.163 HD
ATOM     23  O   UNL A   1      33.484  30.394  27.192  1.00  0.00    -0.269 OA
BRANCH  21  24
ATOM     24  C   UNL A   1      35.572  30.482  28.254  1.00  0.00     0.039 A 
ATOM     25  C   UNL A   1      36.732  30.505  27.472  1.00  0.00     0.014 A 
ATOM     26  C   UNL A   1      35.586  29.837  29.495  1.00  0.00     0.014 A 
ATOM     27  C   UNL A   1      37.913  29.935  27.954  1.00  0.00     0.010 A 
ATOM     28  C   UNL A   1      36.780  29.326  30.002  1.00  0.00     0.010 A 
ATOM     29  C   UNL A   1      37.955  29.368  29.238  1.00  0.00    -0.014 A 
BRANCH  29  30
ATOM     30  C   UNL A   1      39.220  28.823  29.794  1.00  0.00     0.031 A 
ATOM     31  C   UNL A   1      39.855  29.451  31.003  1.00  0.00     0.074 A 
ATOM     32  C   UNL A   1      39.833  27.797  29.171  1.00  0.00     0.049 A 
ATOM     33  N   UNL A   1      40.993  29.163  31.584  1.00  0.00    -0.248 NA
ATOM     34  C   UNL A   1      39.128  30.567  31.627  1.00  0.00     0.031 C 
ATOM     35  C   UNL A   1      39.343  27.122  27.967  1.00  0.00     0.029 A 
ATOM     36  N   UNL A   1      41.008  27.149  29.459  1.00  0.00    -0.354 N 
ATOM     37  C   UNL A   1      41.125  30.068  32.630  1.00  0.00     0.074 A 
ATOM     38  C   UNL A   1      39.972  30.942  32.577  1.00  0.00     0.031 C 
ATOM     39  C   UNL A   1      40.201  26.147  27.630  1.00  0.00     0.029 A 
ATOM     40  C   UNL A   1      41.318  26.149  28.570  1.00  0.00     0.049 A 
ATOM     41  H   UNL A   1      41.576  27.379  30.230  1.00  0.00     0.167 HD
ATOM     42  C   UNL A   1      42.106  30.151  33.559  1.00  0.00     0.037 A 
ATOM     43  C   UNL A   1      42.384  25.330  28.513  1.00  0.00     0.037 A 
ATOM     44  C   UNL A   1      43.238  29.264  33.629  1.00  0.00     0.049 A 
ATOM     45  C   UNL A   1      43.461  25.443  29.555  1.00  0.00     0.074 A 
ATOM     46  C   UNL A   1      44.252  29.232  34.572  1.00  0.00     0.029 A 
ATOM     47  N   UNL A   1      43.507  28.254  32.719  1.00  0.00    -0.354 N 
ATOM     48  N   UNL A   1      43.542  26.266  30.572  1.00  0.00    -0.248 NA
ATOM     49  C   UNL A   1      44.592  24.512  29.443  1.00  0.00     0.031 C 
ATOM     50  C   UNL A   1      45.153  28.225  34.212  1.00  0.00     0.029 A 
ATOM     51  C   UNL A   1      44.680  27.604  33.068  1.00  0.00     0.049 A 
ATOM     52  H   UNL A   1      42.947  28.030  31.941  1.00  0.00     0.167 HD
ATOM     53  C   UNL A   1      44.717  25.937  31.235  1.00  0.00     0.074 A 
ATOM     54  C   UNL A   1      45.310  24.831  30.512  1.00  0.00     0.031 C 
ATOM     55  C   UNL A   1      45.256  26.502  32.342  1.00  0.00     0.037 A 
BRANCH  42  56
ATOM     56  C   UNL A   1      41.997  31.243  34.583  1.00  0.00     0.057 A 
ATOM     57  C   UNL A   1      42.639  32.476  34.417  1.00  0.00     0.134 A 
ATOM     58  C   UNL A   1      41.212  31.071  35.730  1.00  0.00     0.134 A 
ATOM     59  F   UNL A   1      43.415  32.700  33.346  1.00  0.00    -0.206 F 
ATOM     60  C   UNL A   1      42.524  33.493  35.368  1.00  0.00     0.040 A 
ATOM     61  C   UNL A   1      41.070  32.090  36.675  1.00  0.00     0.040 A 
ATOM     62  F   UNL A   1      40.565  29.917  35.947  1.00  0.00    -0.206 F 
ATOM     63  C   UNL A   1      41.732  33.302  36.498  1.00  0.00     0.006 A 
ENDBRANCH  42  56
BRANCH  43  64
ATOM     64  C   UNL A   1      42.480  24.312  27.437  1.00  0.00     0.057 A 
ATOM     65  C   UNL A   1      43.041  24.629  26.195  1.00  0.00     0.134 A 
ATOM     66  C   UNL A   1      42.010  23.006  27.621  1.00  0.00     0.134 A 
ATOM     67  F   UNL A   1      43.490  25.869  25.954  1.00  0.00    -0.206 F 
ATOM     68  C   UNL A   1      43.118  23.688  25.167  1.00  0.00     0.040 A 
ATOM     69  C   UNL A   1      42.101  22.049  26.609  1.00  0.00     0.040 A 
ATOM     70  F   UNL A   1      41.468  22.640  28.792  1.00  0.00    -0.206 F 
ATOM     71  C   UNL A   1      42.651  22.392  25.375  1.00  0.00     0.006 A 
ENDBRANCH  43  64
BRANCH  55  72
ATOM     72  C   UNL A   1      46.536  25.915  32.855  1.00  0.00     0.057 A 
ATOM     73  C   UNL A   1      47.785  26.336  32.379  1.00  0.00     0.134 A 
ATOM     74  C   UNL A   1      46.522  24.939  33.861  1.00  0.00     0.134 A 
ATOM     75  F   UNL A   1      47.865  27.256  31.407  1.00  0.00    -0.206 F 
ATOM     76  C   UNL A   1      48.972  25.795  32.874  1.00  0.00     0.040 A 
ATOM     77  C   UNL A   1      47.703  24.408  34.378  1.00  0.00     0.040 A 
ATOM     78  F   UNL A   1      45.359  24.498  34.365  1.00  0.00    -0.206 F 
ATOM     79  C   UNL A   1      48.933  24.832  33.881  1.00  0.00     0.006 A 
ENDBRANCH  55  72
ENDBRANCH  29  30
ENDBRANCH  21  24
ENDBRANCH  19  20
ENDBRANCH   1  19
TORSDOF 12
ENDMDL
MODEL 2
REMARK VINA RESULT:      -9.9      4.224      7.004
REMARK SMILES C[C@@H](C(=O)NCCCNC(=O)c1ccc(-c2c3nc(c(-c4c(F)cccc4F)c4ccc([nH]4)c(-c4c(F)cccc4F)c4nc(c(-c5c(F)cccc5F)c5ccc2[nH]5)C=C4)C=C3)cc1)c1ccc(=O)n(C(F)F)c1
REMARK SMILES IDX 7 1 6 2 5 3 3 4 4 5 2 7 1 8 66 9 67 10 75 11 68 12 71 13
REMARK SMILES IDX 69 14 70 15 72 16 73 17 74 18 8 19 9 20 10 21 11 23 12 24
REMARK SMILES IDX 13 25 65 26 14 27 64 28 15 29 16 30 17 31 58 32 18 33 63 34
REMARK SMILES IDX 57 35 59 36 19 37 62 38 56 39 55 40 20 42 46 43 29 44 45 45
REMARK SMILES IDX 30 46 33 47 44 48 60 49 31 50 32 51 43 53 61 54 34 55 21 56
REMARK SMILES IDX 22 57 27 58 23 59 24 60 26 61 28 62 25 63 47 64 48 65 53 66
REMARK SMILES IDX 49 67 50 68 52 69 54 70 51 71 35 72 36 73 41 74 37 75 38 76
REMARK SMILES IDX 40 77 42 78 39 79
REMARK H PARENT 5 6 9 22 59 41 33 52
REMARK Flexibility Score: inf
ROOT
ATOM      1  C   UNL A   1      33.782  28.160  25.870  1.00  0.00     0.042 C 
ENDROOT
BRANCH   1   2
ATOM      2  C   UNL A   1      33.140  29.224  24.979  1.00  0.00     0.117 C 
BRANCH   2   3
ATOM      3  N   UNL A   1      33.598  29.122  23.605  1.00  0.00    -0.356 N 
ATOM      4  C   UNL A   1      33.324  28.189  22.646  1.00  0.00     0.227 C 
ATOM      5  O   UNL A   1      33.948  28.277  21.588  1.00  0.00    -0.274 OA
ATOM      6  H   UNL A   1      34.205  29.841  23.318  1.00  0.00     0.163 HD
BRANCH   4   7
ATOM      7  C   UNL A   1      32.273  27.095  22.911  1.00  0.00     0.107 C 
ATOM      8  C   UNL A   1      32.380  25.962  21.885  1.00  0.00     0.023 C 
BRANCH   7   9
ATOM      9  C   UNL A   1      30.876  27.710  22.946  1.00  0.00    -0.019 A 
ATOM     10  C   UNL A   1      29.829  26.969  23.626  1.00  0.00     0.012 A 
ATOM     11  C   UNL A   1      30.551  28.879  22.363  1.00  0.00     0.099 A 
ATOM     12  C   UNL A   1      28.564  27.411  23.631  1.00  0.00     0.072 A 
ATOM     13  N   UNL A   1      29.253  29.363  22.361  1.00  0.00    -0.258 N 
ATOM     14  C   UNL A   1      28.202  28.676  22.938  1.00  0.00     0.254 A 
ATOM     15  O   UNL A   1      27.021  29.019  22.920  1.00  0.00    -0.269 OA
BRANCH  13  16
ATOM     16  C   UNL A   1      28.941  30.590  21.674  1.00  0.00     0.451 C 
ATOM     17  F   UNL A   1      27.987  30.382  20.734  1.00  0.00    -0.185 F 
ATOM     18  F   UNL A   1      28.490  31.541  22.526  1.00  0.00    -0.185 F 
ENDBRANCH  13  16
ENDBRANCH   7   9
ENDBRANCH   4   7
ENDBRANCH   2   3
ENDBRANCH   1   2
BRANCH   1  19
ATOM     19  C   UNL A   1      33.677  28.443  27.367  1.00  0.00     0.118 C 
BRANCH  19  20
ATOM     20  N   UNL A   1      33.660  29.865  27.671  1.00  0.00    -0.352 N 
ATOM     21  C   UNL A   1      34.622  30.663  28.236  1.00  0.00     0.251 C 
ATOM     22  H   UNL A   1      32.825  30.328  27.433  1.00  0.00     0.163 HD
ATOM     23  O   UNL A   1      34.331  31.811  28.564  1.00  0.00    -0.269 OA
BRANCH  21  24
ATOM     24  C   UNL A   1      35.994  30.161  28.475  1.00  0.00     0.039 A 
ATOM     25  C   UNL A   1      36.913  30.201  27.421  1.00  0.00     0.014 A 
ATOM     26  C   UNL A   1      36.370  29.606  29.702  1.00  0.00     0.014 A 
ATOM     27  C   UNL A   1      38.219  29.743  27.614  1.00  0.00     0.010 A 
ATOM     28  C   UNL A   1      37.691  29.208  29.912  1.00  0.00     0.010 A 
ATOM     29  C   UNL A   1      38.628  29.271  28.871  1.00  0.00    -0.014 A 
BRANCH  29  30
ATOM     30  C   UNL A   1      40.031  28.847  29.111  1.00  0.00     0.031 A 
ATOM     31  C   UNL A   1      41.014  29.791  29.747  1.00  0.00     0.074 A 
ATOM     32  C   UNL A   1      40.439  27.631  28.700  1.00  0.00     0.049 A 
ATOM     33  N   UNL A   1      42.295  29.626  29.967  1.00  0.00    -0.248 NA
ATOM     34  C   UNL A   1      40.495  31.100  30.169  1.00  0.00     0.031 C 
ATOM     35  C   UNL A   1      39.595  26.635  28.035  1.00  0.00     0.029 A 
ATOM     36  N   UNL A   1      41.670  27.029  28.770  1.00  0.00    -0.354 N 
ATOM     37  C   UNL A   1      42.737  30.813  30.537  1.00  0.00     0.074 A 
ATOM     38  C   UNL A   1      41.598  31.704  30.591  1.00  0.00     0.031 C 
ATOM     39  C   UNL A   1      40.329  25.542  27.773  1.00  0.00     0.029 A 
ATOM     40  C   UNL A   1      41.700  25.771  28.219  1.00  0.00     0.049 A 
ATOM     41  H   UNL A   1      42.458  27.458  29.176  1.00  0.00     0.167 HD
ATOM     42  C   UNL A   1      43.974  31.125  30.991  1.00  0.00     0.037 A 
ATOM     43  C   UNL A   1      42.719  24.902  28.080  1.00  0.00     0.037 A 
ATOM     44  C   UNL A   1      45.100  30.230  30.965  1.00  0.00     0.049 A 
ATOM     45  C   UNL A   1      44.083  25.273  28.591  1.00  0.00     0.074 A 
ATOM     46  C   UNL A   1      46.378  30.435  31.460  1.00  0.00     0.029 A 
ATOM     47  N   UNL A   1      45.086  28.959  30.413  1.00  0.00    -0.354 N 
ATOM     48  N   UNL A   1      44.471  26.377  29.180  1.00  0.00    -0.248 NA
ATOM     49  C   UNL A   1      45.148  24.275  28.420  1.00  0.00     0.031 C 
ATOM     50  C   UNL A   1      47.146  29.302  31.174  1.00  0.00     0.029 A 
ATOM     51  C   UNL A   1      46.336  28.375  30.537  1.00  0.00     0.049 A 
ATOM     52  H   UNL A   1      44.303  28.533  29.995  1.00  0.00     0.167 HD
ATOM     53  C   UNL A   1      45.816  26.198  29.473  1.00  0.00     0.074 A 
ATOM     54  C   UNL A   1      46.175  24.875  29.007  1.00  0.00     0.031 C 
ATOM     55  C   UNL A   1      46.678  27.055  30.073  1.00  0.00     0.037 A 
BRANCH  42  56
ATOM     56  C   UNL A   1      44.174  32.499  31.563  1.00  0.00     0.057 A 
ATOM     57  C   UNL A   1      43.981  32.766  32.924  1.00  0.00     0.134 A 
ATOM     58  C   UNL A   1      44.598  33.558  30.749  1.00  0.00     0.134 A 
ATOM     59  F   UNL A   1      43.564  31.797  33.754  1.00  0.00    -0.206 F 
ATOM     60  C   UNL A   1      44.180  34.043  33.453  1.00  0.00     0.040 A 
ATOM     61  C   UNL A   1      44.823  34.833  31.273  1.00  0.00     0.040 A 
ATOM     62  F   UNL A   1      44.807  33.369  29.439  1.00  0.00    -0.206 F 
ATOM     63  C   UNL A   1      44.609  35.079  32.626  1.00  0.00     0.006 A 
ENDBRANCH  42  56
BRANCH  43  64
ATOM     64  C   UNL A   1      42.485  23.582  27.443  1.00  0.00     0.057 A 
ATOM     65  C   UNL A   1      42.166  22.458  28.212  1.00  0.00     0.134 A 
ATOM     66  C   UNL A   1      42.579  23.412  26.056  1.00  0.00     0.134 A 
ATOM     67  F   UNL A   1      42.081  22.557  29.547  1.00  0.00    -0.206 F 
ATOM     68  C   UNL A   1      41.963  21.207  27.629  1.00  0.00     0.040 A 
ATOM     69  C   UNL A   1      42.357  22.170  25.458  1.00  0.00     0.040 A 
ATOM     70  F   UNL A   1      42.875  24.453  25.264  1.00  0.00    -0.206 F 
ATOM     71  C   UNL A   1      42.055  21.063  26.246  1.00  0.00     0.006 A 
ENDBRANCH  43  64
BRANCH  55  72
ATOM     72  C   UNL A   1      48.082  26.577  30.285  1.00  0.00     0.057 A 
ATOM     73  C   UNL A   1      49.095  26.821  29.348  1.00  0.00     0.134 A 
ATOM     74  C   UNL A   1      48.435  25.892  31.456  1.00  0.00     0.134 A 
ATOM     75  F   UNL A   1      48.818  27.459  28.201  1.00  0.00    -0.206 F 
ATOM     76  C   UNL A   1      50.403  26.385  29.561  1.00  0.00     0.040 A 
ATOM     77  C   UNL A   1      49.744  25.471  31.688  1.00  0.00     0.040 A 
ATOM     78  F   UNL A   1      47.513  25.632  32.396  1.00  0.00    -0.206 F 
ATOM     79  C   UNL A   1      50.732  25.714  30.737  1.00  0.00     0.006 A 
ENDBRANCH  55  72
ENDBRANCH  29  30
ENDBRANCH  21  24
ENDBRANCH  19  20
ENDBRANCH   1  19
TORSDOF 12
ENDMDL
MODEL 3
REMARK VINA RESULT:      -9.9      5.172      9.620
REMARK SMILES C[C@@H](C(=O)NCCCNC(=O)c1ccc(-c2c3nc(c(-c4c(F)cccc4F)c4ccc([nH]4)c(-c4c(F)cccc4F)c4nc(c(-c5c(F)cccc5F)c5ccc2[nH]5)C=C4)C=C3)cc1)c1ccc(=O)n(C(F)F)c1
REMARK SMILES IDX 7 1 6 2 5 3 3 4 4 5 2 7 1 8 66 9 67 10 75 11 68 12 71 13
REMARK SMILES IDX 69 14 70 15 72 16 73 17 74 18 8 19 9 20 10 21 11 23 12 24
REMARK SMILES IDX 13 25 65 26 14 27 64 28 15 29 16 30 17 31 58 32 18 33 63 34
REMARK SMILES IDX 57 35 59 36 19 37 62 38 56 39 55 40 20 42 46 43 29 44 45 45
REMARK SMILES IDX 30 46 33 47 44 48 60 49 31 50 32 51 43 53 61 54 34 55 21 56
REMARK SMILES IDX 22 57 27 58 23 59 24 60 26 61 28 62 25 63 47 64 48 65 53 66
REMARK SMILES IDX 49 67 50 68 52 69 54 70 51 71 35 72 36 73 41 74 37 75 38 76
REMARK SMILES IDX 40 77 42 78 39 79
REMARK H PARENT 5 6 9 22 59 41 33 52
REMARK Flexibility Score: inf
ROOT
ATOM      1  C   UNL A   1      37.784  19.551  24.847  1.00  0.00     0.042 C 
ENDROOT
BRANCH   1   2
ATOM      2  C   UNL A   1      36.505  20.373  25.001  1.00  0.00     0.117 C 
BRANCH   2   3
ATOM      3  N   UNL A   1      36.730  21.577  25.780  1.00  0.00    -0.356 N 
ATOM      4  C   UNL A   1      36.134  22.804  25.707  1.00  0.00     0.227 C 
ATOM      5  O   UNL A   1      36.605  23.695  26.414  1.00  0.00    -0.274 OA
ATOM      6  H   UNL A   1      37.425  21.498  26.471  1.00  0.00     0.163 HD
BRANCH   4   7
ATOM      7  C   UNL A   1      34.928  23.023  24.774  1.00  0.00     0.107 C 
ATOM      8  C   UNL A   1      35.380  23.439  23.370  1.00  0.00     0.023 C 
BRANCH   7   9
ATOM      9  C   UNL A   1      33.967  24.034  25.393  1.00  0.00    -0.019 A 
ATOM     10  C   UNL A   1      32.812  23.519  26.107  1.00  0.00     0.012 A 
ATOM     11  C   UNL A   1      34.107  25.369  25.292  1.00  0.00     0.099 A 
ATOM     12  C   UNL A   1      31.886  24.347  26.610  1.00  0.00     0.072 A 
ATOM     13  N   UNL A   1      33.170  26.248  25.809  1.00  0.00    -0.258 N 
ATOM     14  C   UNL A   1      32.021  25.819  26.447  1.00  0.00     0.254 A 
ATOM     15  O   UNL A   1      31.122  26.542  26.875  1.00  0.00    -0.269 OA
BRANCH  13  16
ATOM     16  C   UNL A   1      33.332  27.667  25.627  1.00  0.00     0.451 C 
ATOM     17  F   UNL A   1      33.993  28.211  26.679  1.00  0.00    -0.185 F 
ATOM     18  F   UNL A   1      34.029  27.953  24.501  1.00  0.00    -0.185 F 
ENDBRANCH  13  16
ENDBRANCH   7   9
ENDBRANCH   4   7
ENDBRANCH   2   3
ENDBRANCH   1   2
BRANCH   1  19
ATOM     19  C   UNL A   1      38.945  20.017  25.724  1.00  0.00     0.118 C 
BRANCH  19  20
ATOM     20  N   UNL A   1      40.024  19.045  25.790  1.00  0.00    -0.352 N 
ATOM     21  C   UNL A   1      41.368  19.225  25.998  1.00  0.00     0.251 C 
ATOM     22  H   UNL A   1      39.746  18.109  25.667  1.00  0.00     0.163 HD
ATOM     23  O   UNL A   1      42.132  18.274  25.841  1.00  0.00    -0.269 OA
BRANCH  21  24
ATOM     24  C   UNL A   1      41.916  20.544  26.386  1.00  0.00     0.039 A 
ATOM     25  C   UNL A   1      42.346  21.412  25.376  1.00  0.00     0.014 A 
ATOM     26  C   UNL A   1      42.059  20.916  27.726  1.00  0.00     0.014 A 
ATOM     27  C   UNL A   1      42.861  22.669  25.706  1.00  0.00     0.010 A 
ATOM     28  C   UNL A   1      42.513  22.194  28.051  1.00  0.00     0.010 A 
ATOM     29  C   UNL A   1      42.920  23.083  27.046  1.00  0.00    -0.014 A 
BRANCH  29  30
ATOM     30  C   UNL A   1      43.398  24.442  27.407  1.00  0.00     0.031 A 
ATOM     31  C   UNL A   1      42.424  25.502  27.843  1.00  0.00     0.074 A 
ATOM     32  C   UNL A   1      44.705  24.743  27.284  1.00  0.00     0.049 A 
ATOM     33  N   UNL A   1      42.644  26.761  28.125  1.00  0.00    -0.248 NA
ATOM     34  C   UNL A   1      41.014  25.099  27.954  1.00  0.00     0.031 C 
ATOM     35  C   UNL A   1      45.748  23.817  26.835  1.00  0.00     0.029 A 
ATOM     36  N   UNL A   1      45.379  25.916  27.515  1.00  0.00    -0.354 N 
ATOM     37  C   UNL A   1      41.402  27.305  28.430  1.00  0.00     0.074 A 
ATOM     38  C   UNL A   1      40.428  26.248  28.258  1.00  0.00     0.031 C 
ATOM     39  C   UNL A   1      46.930  24.453  26.838  1.00  0.00     0.029 A 
ATOM     40  C   UNL A   1      46.726  25.837  27.255  1.00  0.00     0.049 A 
ATOM     41  H   UNL A   1      44.940  26.736  27.836  1.00  0.00     0.167 HD
ATOM     42  C   UNL A   1      41.104  28.562  28.834  1.00  0.00     0.037 A 
ATOM     43  C   UNL A   1      47.688  26.775  27.336  1.00  0.00     0.037 A 
ATOM     44  C   UNL A   1      42.075  29.605  29.033  1.00  0.00     0.049 A 
ATOM     45  C   UNL A   1      47.330  28.164  27.786  1.00  0.00     0.074 A 
ATOM     46  C   UNL A   1      41.875  30.893  29.501  1.00  0.00     0.029 A 
ATOM     47  N   UNL A   1      43.431  29.480  28.775  1.00  0.00    -0.354 N 
ATOM     48  N   UNL A   1      46.160  28.646  28.127  1.00  0.00    -0.248 NA
ATOM     49  C   UNL A   1      48.428  29.138  27.864  1.00  0.00     0.031 C 
ATOM     50  C   UNL A   1      43.105  31.559  29.491  1.00  0.00     0.029 A 
ATOM     51  C   UNL A   1      44.077  30.674  29.055  1.00  0.00     0.049 A 
ATOM     52  H   UNL A   1      43.871  28.665  28.442  1.00  0.00     0.167 HD
ATOM     53  C   UNL A   1      46.383  29.969  28.484  1.00  0.00     0.074 A 
ATOM     54  C   UNL A   1      47.803  30.211  28.330  1.00  0.00     0.031 C 
ATOM     55  C   UNL A   1      45.491  30.900  28.902  1.00  0.00     0.037 A 
BRANCH  42  56
ATOM     56  C   UNL A   1      39.660  28.880  29.094  1.00  0.00     0.057 A 
ATOM     57  C   UNL A   1      38.808  29.323  28.075  1.00  0.00     0.134 A 
ATOM     58  C   UNL A   1      39.107  28.706  30.369  1.00  0.00     0.134 A 
ATOM     59  F   UNL A   1      39.279  29.521  26.833  1.00  0.00    -0.206 F 
ATOM     60  C   UNL A   1      37.462  29.606  28.319  1.00  0.00     0.040 A 
ATOM     61  C   UNL A   1      37.757  28.962  30.619  1.00  0.00     0.040 A 
ATOM     62  F   UNL A   1      39.866  28.278  31.389  1.00  0.00    -0.206 F 
ATOM     63  C   UNL A   1      36.933  29.419  29.594  1.00  0.00     0.006 A 
ENDBRANCH  42  56
BRANCH  43  64
ATOM     64  C   UNL A   1      49.091  26.428  27.000  1.00  0.00     0.057 A 
ATOM     65  C   UNL A   1      49.981  25.996  27.989  1.00  0.00     0.134 A 
ATOM     66  C   UNL A   1      49.575  26.525  25.690  1.00  0.00     0.134 A 
ATOM     67  F   UNL A   1      49.579  25.902  29.264  1.00  0.00    -0.206 F 
ATOM     68  C   UNL A   1      51.309  25.686  27.691  1.00  0.00     0.040 A 
ATOM     69  C   UNL A   1      50.895  26.198  25.375  1.00  0.00     0.040 A 
ATOM     70  F   UNL A   1      48.769  26.928  24.697  1.00  0.00    -0.206 F 
ATOM     71  C   UNL A   1      51.767  25.783  26.379  1.00  0.00     0.006 A 
ENDBRANCH  43  64
BRANCH  55  72
ATOM     72  C   UNL A   1      46.029  32.255  29.247  1.00  0.00     0.057 A 
ATOM     73  C   UNL A   1      46.095  33.287  28.302  1.00  0.00     0.134 A 
ATOM     74  C   UNL A   1      46.455  32.543  30.551  1.00  0.00     0.134 A 
ATOM     75  F   UNL A   1      45.715  33.070  27.034  1.00  0.00    -0.206 F 
ATOM     76  C   UNL A   1      46.582  34.551  28.637  1.00  0.00     0.040 A 
ATOM     77  C   UNL A   1      46.924  33.809  30.902  1.00  0.00     0.040 A 
ATOM     78  F   UNL A   1      46.412  31.601  31.505  1.00  0.00    -0.206 F 
ATOM     79  C   UNL A   1      46.992  34.816  29.942  1.00  0.00     0.006 A 
ENDBRANCH  55  72
ENDBRANCH  29  30
ENDBRANCH  21  24
ENDBRANCH  19  20
ENDBRANCH   1  19
TORSDOF 12
ENDMDL
