MODEL 1
REMARK VINA RESULT:     -12.2      0.000      0.000
REMARK SMILES Cc1cc(Br)cc2c1O[C@H](C(F)(F)F)C(C(=O)NCCCNC(=O)c1ccc(-c3c4nc(c(-c5c(F)cccc5F)c5ccc([nH]5)c(-c5c(F)cccc5F)c5nc(c(-c6c(F)cccc6F)c6ccc3[nH]6)C=C5)C=C4)cc1)=C2
REMARK SMILES IDX 20 1 19 2 18 3 16 4 17 5 15 7 1 8 2 9 3 10 8 11 4 12 7 13
REMARK SMILES IDX 9 14 5 15 6 16 79 17 10 18 11 19 12 20 13 21 14 22 21 23
REMARK SMILES IDX 22 24 23 25 24 27 25 28 26 29 78 30 27 31 77 32 28 33 29 34
REMARK SMILES IDX 30 35 71 36 31 37 76 38 70 39 72 40 32 41 75 42 69 43 68 44
REMARK SMILES IDX 33 46 59 47 42 48 58 49 43 50 46 51 57 52 73 53 44 54 45 55
REMARK SMILES IDX 56 57 74 58 47 59 34 60 35 61 40 62 36 63 37 64 39 65 41 66
REMARK SMILES IDX 38 67 60 68 61 69 66 70 62 71 63 72 65 73 67 74 64 75 48 76
REMARK SMILES IDX 49 77 54 78 50 79 51 80 53 81 55 82 52 83
REMARK H PARENT 18 6 22 26 72 45 46 56
REMARK Flexibility Score: inf
ROOT
ATOM      1  C   UNL A   1      37.813  19.527  24.961  1.00  0.00     0.042 C 
ENDROOT
BRANCH   1   2
ATOM      2  C   UNL A   1      36.716  20.529  24.637  1.00  0.00     0.118 C 
BRANCH   2   3
ATOM      3  N   UNL A   1      35.803  20.714  25.755  1.00  0.00    -0.352 N 
ATOM      4  C   UNL A   1      34.830  21.583  26.112  1.00  0.00     0.251 C 
ATOM      5  O   UNL A   1      34.298  21.354  27.203  1.00  0.00    -0.270 OA
ATOM      6  H   UNL A   1      35.928  20.015  26.438  1.00  0.00     0.163 HD
BRANCH   4   7
ATOM      7  C   UNL A   1      34.383  22.751  25.301  1.00  0.00     0.067 C 
ATOM      8  C   UNL A   1      33.071  26.021  21.581  1.00  0.00     0.048 C 
ATOM      9  C   UNL A   1      33.380  26.152  23.045  1.00  0.00    -0.007 A 
ATOM     10  C   UNL A   1      33.243  27.384  23.695  1.00  0.00     0.023 A 
ATOM     11  C   UNL A   1      33.769  25.033  23.795  1.00  0.00     0.130 A 
ATOM     12  C   UNL A   1      33.514  27.488  25.060  1.00  0.00     0.019 A 
ATOM     13  C   UNL A   1      34.043  25.137  25.163  1.00  0.00     0.019 A 
ATOM     14  O   UNL A   1      33.914  23.854  23.120  1.00  0.00    -0.475 OA
ATOM     15  Br  UNL A   1      33.339  29.164  25.920  1.00  0.00    -0.051 Br
ATOM     16  C   UNL A   1      33.918  26.375  25.798  1.00  0.00     0.027 A 
ATOM     17  C   UNL A   1      34.486  23.955  25.894  1.00  0.00     0.025 C 
ATOM     18  C   UNL A   1      33.816  22.644  23.916  1.00  0.00     0.314 C 
BRANCH  18  19
ATOM     19  C   UNL A   1      32.361  22.139  23.902  1.00  0.00     0.429 C 
ATOM     20  F   UNL A   1      31.722  22.576  22.787  1.00  0.00    -0.167 F 
ATOM     21  F   UNL A   1      32.280  20.786  23.882  1.00  0.00    -0.167 F 
ATOM     22  F   UNL A   1      31.648  22.558  24.969  1.00  0.00    -0.167 F 
ENDBRANCH  18  19
ENDBRANCH   4   7
ENDBRANCH   2   3
ENDBRANCH   1   2
BRANCH   1  23
ATOM     23  C   UNL A   1      38.959  20.166  25.734  1.00  0.00     0.118 C 
BRANCH  23  24
ATOM     24  N   UNL A   1      40.109  19.270  25.833  1.00  0.00    -0.352 N 
ATOM     25  C   UNL A   1      41.434  19.552  26.058  1.00  0.00     0.251 C 
ATOM     26  H   UNL A   1      39.902  18.314  25.721  1.00  0.00     0.163 HD
ATOM     27  O   UNL A   1      42.291  18.703  25.825  1.00  0.00    -0.269 OA
BRANCH  25  28
ATOM     28  C   UNL A   1      41.827  20.876  26.575  1.00  0.00     0.039 A 
ATOM     29  C   UNL A   1      42.253  21.863  25.683  1.00  0.00     0.014 A 
ATOM     30  C   UNL A   1      41.793  21.131  27.947  1.00  0.00     0.014 A 
ATOM     31  C   UNL A   1      42.575  23.132  26.167  1.00  0.00     0.010 A 
ATOM     32  C   UNL A   1      42.016  22.418  28.415  1.00  0.00     0.010 A 
ATOM     33  C   UNL A   1      42.422  23.428  27.532  1.00  0.00    -0.014 A 
BRANCH  33  34
ATOM     34  C   UNL A   1      42.705  24.780  28.067  1.00  0.00     0.031 A 
ATOM     35  C   UNL A   1      44.107  25.147  28.465  1.00  0.00     0.074 A 
ATOM     36  C   UNL A   1      41.692  25.649  28.252  1.00  0.00     0.049 A 
ATOM     37  N   UNL A   1      44.547  26.248  29.018  1.00  0.00    -0.248 NA
ATOM     38  C   UNL A   1      45.150  24.130  28.241  1.00  0.00     0.031 C 
ATOM     39  C   UNL A   1      40.285  25.386  27.945  1.00  0.00     0.029 A 
ATOM     40  N   UNL A   1      41.691  26.928  28.745  1.00  0.00    -0.354 N 
ATOM     41  C   UNL A   1      45.907  26.052  29.213  1.00  0.00     0.074 A 
ATOM     42  C   UNL A   1      46.211  24.705  28.786  1.00  0.00     0.031 C 
ATOM     43  C   UNL A   1      39.563  26.484  28.219  1.00  0.00     0.029 A 
ATOM     44  C   UNL A   1      40.447  27.512  28.758  1.00  0.00     0.049 A 
ATOM     45  H   UNL A   1      42.504  27.385  29.059  1.00  0.00     0.167 HD
ATOM     46  C   UNL A   1      46.828  26.929  29.673  1.00  0.00     0.037 A 
ATOM     47  C   UNL A   1      40.066  28.739  29.158  1.00  0.00     0.037 A 
ATOM     48  C   UNL A   1      46.524  28.279  30.067  1.00  0.00     0.049 A 
ATOM     49  C   UNL A   1      41.106  29.691  29.684  1.00  0.00     0.074 A 
ATOM     50  C   UNL A   1      47.393  29.264  30.500  1.00  0.00     0.029 A 
ATOM     51  N   UNL A   1      45.253  28.831  30.067  1.00  0.00    -0.354 N 
ATOM     52  N   UNL A   1      42.398  29.512  29.811  1.00  0.00    -0.248 NA
ATOM     53  C   UNL A   1      40.636  31.013  30.121  1.00  0.00     0.031 C 
ATOM     54  C   UNL A   1      46.640  30.402  30.803  1.00  0.00     0.029 A 
ATOM     55  C   UNL A   1      45.310  30.139  30.514  1.00  0.00     0.049 A 
ATOM     56  H   UNL A   1      44.432  28.363  29.792  1.00  0.00     0.167 HD
ATOM     57  C   UNL A   1      42.899  30.702  30.321  1.00  0.00     0.074 A 
ATOM     58  C   UNL A   1      41.773  31.602  30.465  1.00  0.00     0.031 C 
ATOM     59  C   UNL A   1      44.176  31.021  30.644  1.00  0.00     0.037 A 
BRANCH  46  60
ATOM     60  C   UNL A   1      48.252  26.466  29.752  1.00  0.00     0.057 A 
ATOM     61  C   UNL A   1      49.157  26.693  28.706  1.00  0.00     0.134 A 
ATOM     62  C   UNL A   1      48.740  25.830  30.901  1.00  0.00     0.134 A 
ATOM     63  F   UNL A   1      48.751  27.285  27.573  1.00  0.00    -0.206 F 
ATOM     64  C   UNL A   1      50.490  26.289  28.792  1.00  0.00     0.040 A 
ATOM     65  C   UNL A   1      50.078  25.444  31.008  1.00  0.00     0.040 A 
ATOM     66  F   UNL A   1      47.929  25.583  31.940  1.00  0.00    -0.206 F 
ATOM     67  C   UNL A   1      50.955  25.670  29.950  1.00  0.00     0.006 A 
ENDBRANCH  46  60
BRANCH  47  68
ATOM     68  C   UNL A   1      38.645  29.149  29.035  1.00  0.00     0.057 A 
ATOM     69  C   UNL A   1      37.787  29.101  30.140  1.00  0.00     0.134 A 
ATOM     70  C   UNL A   1      38.114  29.616  27.828  1.00  0.00     0.134 A 
ATOM     71  F   UNL A   1      38.234  28.648  31.321  1.00  0.00    -0.206 F 
ATOM     72  C   UNL A   1      36.452  29.494  30.048  1.00  0.00     0.040 A 
ATOM     73  C   UNL A   1      36.786  30.035  27.726  1.00  0.00     0.040 A 
ATOM     74  F   UNL A   1      38.886  29.696  26.734  1.00  0.00    -0.206 F 
ATOM     75  C   UNL A   1      35.950  29.969  28.838  1.00  0.00     0.006 A 
ENDBRANCH  47  68
BRANCH  59  76
ATOM     76  C   UNL A   1      44.435  32.401  31.170  1.00  0.00     0.057 A 
ATOM     77  C   UNL A   1      44.462  32.668  32.544  1.00  0.00     0.134 A 
ATOM     78  C   UNL A   1      44.749  33.449  30.297  1.00  0.00     0.134 A 
ATOM     79  F   UNL A   1      44.161  31.707  33.430  1.00  0.00    -0.206 F 
ATOM     80  C   UNL A   1      44.784  33.935  33.031  1.00  0.00     0.040 A 
ATOM     81  C   UNL A   1      45.098  34.713  30.773  1.00  0.00     0.040 A 
ATOM     82  F   UNL A   1      44.752  33.254  28.969  1.00  0.00    -0.206 F 
ATOM     83  C   UNL A   1      45.114  34.959  32.144  1.00  0.00     0.006 A 
ENDBRANCH  59  76
ENDBRANCH  33  34
ENDBRANCH  25  28
ENDBRANCH  23  24
ENDBRANCH   1  23
TORSDOF 11
ENDMDL
MODEL 2
REMARK VINA RESULT:     -12.2      0.077      1.386
REMARK SMILES Cc1cc(Br)cc2c1O[C@H](C(F)(F)F)C(C(=O)NCCCNC(=O)c1ccc(-c3c4nc(c(-c5c(F)cccc5F)c5ccc([nH]5)c(-c5c(F)cccc5F)c5nc(c(-c6c(F)cccc6F)c6ccc3[nH]6)C=C5)C=C4)cc1)=C2
REMARK SMILES IDX 20 1 19 2 18 3 16 4 17 5 15 7 1 8 2 9 3 10 8 11 4 12 7 13
REMARK SMILES IDX 9 14 5 15 6 16 79 17 10 18 11 19 12 20 13 21 14 22 21 23
REMARK SMILES IDX 22 24 23 25 24 27 25 28 26 29 78 30 27 31 77 32 28 33 29 34
REMARK SMILES IDX 30 35 71 36 31 37 76 38 70 39 72 40 32 41 75 42 69 43 68 44
REMARK SMILES IDX 33 46 59 47 42 48 58 49 43 50 46 51 57 52 73 53 44 54 45 55
REMARK SMILES IDX 56 57 74 58 47 59 34 60 35 61 40 62 36 63 37 64 39 65 41 66
REMARK SMILES IDX 38 67 60 68 61 69 66 70 62 71 63 72 65 73 67 74 64 75 48 76
REMARK SMILES IDX 49 77 54 78 50 79 51 80 53 81 55 82 52 83
REMARK H PARENT 18 6 22 26 72 45 46 56
REMARK Flexibility Score: inf
ROOT
ATOM      1  C   UNL A   1      37.802  19.575  24.943  1.00  0.00     0.042 C 
ENDROOT
BRANCH   1   2
ATOM      2  C   UNL A   1      36.709  20.584  24.624  1.00  0.00     0.118 C 
BRANCH   2   3
ATOM      3  N   UNL A   1      35.798  20.767  25.744  1.00  0.00    -0.352 N 
ATOM      4  C   UNL A   1      34.825  21.635  26.103  1.00  0.00     0.251 C 
ATOM      5  O   UNL A   1      34.296  21.405  27.195  1.00  0.00    -0.270 OA
ATOM      6  H   UNL A   1      35.924  20.068  26.426  1.00  0.00     0.163 HD
BRANCH   4   7
ATOM      7  C   UNL A   1      34.375  22.804  25.293  1.00  0.00     0.067 C 
ATOM      8  C   UNL A   1      33.056  26.074  21.577  1.00  0.00     0.048 C 
ATOM      9  C   UNL A   1      33.365  26.204  23.040  1.00  0.00    -0.007 A 
ATOM     10  C   UNL A   1      33.227  27.435  23.692  1.00  0.00     0.023 A 
ATOM     11  C   UNL A   1      33.757  25.086  23.789  1.00  0.00     0.130 A 
ATOM     12  C   UNL A   1      33.499  27.539  25.057  1.00  0.00     0.019 A 
ATOM     13  C   UNL A   1      34.032  25.188  25.158  1.00  0.00     0.019 A 
ATOM     14  O   UNL A   1      33.903  23.907  23.113  1.00  0.00    -0.475 OA
ATOM     15  Br  UNL A   1      33.321  29.214  25.918  1.00  0.00    -0.051 Br
ATOM     16  C   UNL A   1      33.905  26.426  25.793  1.00  0.00     0.027 A 
ATOM     17  C   UNL A   1      34.477  24.007  25.887  1.00  0.00     0.025 C 
ATOM     18  C   UNL A   1      33.808  22.697  23.908  1.00  0.00     0.314 C 
BRANCH  18  19
ATOM     19  C   UNL A   1      32.353  22.189  23.895  1.00  0.00     0.429 C 
ATOM     20  F   UNL A   1      31.714  22.563  25.031  1.00  0.00    -0.167 F 
ATOM     21  F   UNL A   1      31.633  22.700  22.867  1.00  0.00    -0.167 F 
ATOM     22  F   UNL A   1      32.266  20.844  23.803  1.00  0.00    -0.167 F 
ENDBRANCH  18  19
ENDBRANCH   4   7
ENDBRANCH   2   3
ENDBRANCH   1   2
BRANCH   1  23
ATOM     23  C   UNL A   1      38.939  20.199  25.741  1.00  0.00     0.118 C 
BRANCH  23  24
ATOM     24  N   UNL A   1      40.088  19.301  25.838  1.00  0.00    -0.352 N 
ATOM     25  C   UNL A   1      41.413  19.580  26.061  1.00  0.00     0.251 C 
ATOM     26  H   UNL A   1      39.878  18.346  25.726  1.00  0.00     0.163 HD
ATOM     27  O   UNL A   1      42.268  18.729  25.827  1.00  0.00    -0.269 OA
BRANCH  25  28
ATOM     28  C   UNL A   1      41.810  20.903  26.577  1.00  0.00     0.039 A 
ATOM     29  C   UNL A   1      42.246  21.886  25.686  1.00  0.00     0.014 A 
ATOM     30  C   UNL A   1      41.769  21.162  27.949  1.00  0.00     0.014 A 
ATOM     31  C   UNL A   1      42.572  23.154  26.170  1.00  0.00     0.010 A 
ATOM     32  C   UNL A   1      41.995  22.449  28.415  1.00  0.00     0.010 A 
ATOM     33  C   UNL A   1      42.412  23.454  27.533  1.00  0.00    -0.014 A 
BRANCH  33  34
ATOM     34  C   UNL A   1      42.698  24.806  28.066  1.00  0.00     0.031 A 
ATOM     35  C   UNL A   1      44.103  25.170  28.462  1.00  0.00     0.074 A 
ATOM     36  C   UNL A   1      41.688  25.677  28.254  1.00  0.00     0.049 A 
ATOM     37  N   UNL A   1      44.545  26.271  29.013  1.00  0.00    -0.248 NA
ATOM     38  C   UNL A   1      45.143  24.152  28.235  1.00  0.00     0.031 C 
ATOM     39  C   UNL A   1      40.280  25.416  27.950  1.00  0.00     0.029 A 
ATOM     40  N   UNL A   1      41.691  26.956  28.746  1.00  0.00    -0.354 N 
ATOM     41  C   UNL A   1      45.906  26.073  29.205  1.00  0.00     0.074 A 
ATOM     42  C   UNL A   1      46.207  24.725  28.778  1.00  0.00     0.031 C 
ATOM     43  C   UNL A   1      39.560  26.516  28.226  1.00  0.00     0.029 A 
ATOM     44  C   UNL A   1      40.448  27.542  28.762  1.00  0.00     0.049 A 
ATOM     45  H   UNL A   1      42.505  27.412  29.058  1.00  0.00     0.167 HD
ATOM     46  C   UNL A   1      46.830  26.948  29.663  1.00  0.00     0.037 A 
ATOM     47  C   UNL A   1      40.070  28.770  29.163  1.00  0.00     0.037 A 
ATOM     48  C   UNL A   1      46.529  28.299  30.056  1.00  0.00     0.049 A 
ATOM     49  C   UNL A   1      41.112  29.720  29.686  1.00  0.00     0.074 A 
ATOM     50  C   UNL A   1      47.400  29.282  30.487  1.00  0.00     0.029 A 
ATOM     51  N   UNL A   1      45.258  28.853  30.060  1.00  0.00    -0.354 N 
ATOM     52  N   UNL A   1      42.405  29.539  29.810  1.00  0.00    -0.248 NA
ATOM     53  C   UNL A   1      40.646  31.043  30.123  1.00  0.00     0.031 C 
ATOM     54  C   UNL A   1      46.650  30.422  30.792  1.00  0.00     0.029 A 
ATOM     55  C   UNL A   1      45.319  30.162  30.506  1.00  0.00     0.049 A 
ATOM     56  H   UNL A   1      44.436  28.387  29.787  1.00  0.00     0.167 HD
ATOM     57  C   UNL A   1      42.909  30.728  30.318  1.00  0.00     0.074 A 
ATOM     58  C   UNL A   1      41.784  31.631  30.465  1.00  0.00     0.031 C 
ATOM     59  C   UNL A   1      44.187  31.045  30.638  1.00  0.00     0.037 A 
BRANCH  46  60
ATOM     60  C   UNL A   1      48.253  26.482  29.738  1.00  0.00     0.057 A 
ATOM     61  C   UNL A   1      49.157  26.710  28.692  1.00  0.00     0.134 A 
ATOM     62  C   UNL A   1      48.742  25.843  30.885  1.00  0.00     0.134 A 
ATOM     63  F   UNL A   1      48.749  27.305  27.560  1.00  0.00    -0.206 F 
ATOM     64  C   UNL A   1      50.489  26.303  28.774  1.00  0.00     0.040 A 
ATOM     65  C   UNL A   1      50.079  25.455  30.990  1.00  0.00     0.040 A 
ATOM     66  F   UNL A   1      47.932  25.596  31.925  1.00  0.00    -0.206 F 
ATOM     67  C   UNL A   1      50.955  25.682  29.931  1.00  0.00     0.006 A 
ENDBRANCH  46  60
BRANCH  47  68
ATOM     68  C   UNL A   1      38.650  29.183  29.043  1.00  0.00     0.057 A 
ATOM     69  C   UNL A   1      38.130  29.614  27.816  1.00  0.00     0.134 A 
ATOM     70  C   UNL A   1      37.773  29.138  30.133  1.00  0.00     0.134 A 
ATOM     71  F   UNL A   1      38.924  29.694  26.738  1.00  0.00    -0.206 F 
ATOM     72  C   UNL A   1      36.794  29.994  27.680  1.00  0.00     0.040 A 
ATOM     73  C   UNL A   1      36.429  29.492  30.006  1.00  0.00     0.040 A 
ATOM     74  F   UNL A   1      38.206  28.724  31.333  1.00  0.00    -0.206 F 
ATOM     75  C   UNL A   1      35.937  29.927  28.777  1.00  0.00     0.006 A 
ENDBRANCH  47  68
BRANCH  59  76
ATOM     76  C   UNL A   1      44.450  32.425  31.163  1.00  0.00     0.057 A 
ATOM     77  C   UNL A   1      44.690  33.502  30.303  1.00  0.00     0.134 A 
ATOM     78  C   UNL A   1      44.373  32.692  32.536  1.00  0.00     0.134 A 
ATOM     79  F   UNL A   1      44.785  33.308  28.979  1.00  0.00    -0.206 F 
ATOM     80  C   UNL A   1      44.853  34.799  30.791  1.00  0.00     0.040 A 
ATOM     81  C   UNL A   1      44.508  33.988  33.033  1.00  0.00     0.040 A 
ATOM     82  F   UNL A   1      44.134  31.703  33.411  1.00  0.00    -0.206 F 
ATOM     83  C   UNL A   1      44.751  35.046  32.160  1.00  0.00     0.006 A 
ENDBRANCH  59  76
ENDBRANCH  33  34
ENDBRANCH  25  28
ENDBRANCH  23  24
ENDBRANCH   1  23
TORSDOF 11
ENDMDL
MODEL 3
REMARK VINA RESULT:     -12.1      2.506      7.378
REMARK SMILES Cc1cc(Br)cc2c1O[C@H](C(F)(F)F)C(C(=O)NCCCNC(=O)c1ccc(-c3c4nc(c(-c5c(F)cccc5F)c5ccc([nH]5)c(-c5c(F)cccc5F)c5nc(c(-c6c(F)cccc6F)c6ccc3[nH]6)C=C5)C=C4)cc1)=C2
REMARK SMILES IDX 20 1 19 2 18 3 16 4 17 5 15 7 1 8 2 9 3 10 8 11 4 12 7 13
REMARK SMILES IDX 9 14 5 15 6 16 79 17 10 18 11 19 12 20 13 21 14 22 21 23
REMARK SMILES IDX 22 24 23 25 24 27 25 28 26 29 78 30 27 31 77 32 28 33 29 34
REMARK SMILES IDX 30 35 71 36 31 37 76 38 70 39 72 40 32 41 75 42 69 43 68 44
REMARK SMILES IDX 33 46 59 47 42 48 58 49 43 50 46 51 57 52 73 53 44 54 45 55
REMARK SMILES IDX 56 57 74 58 47 59 34 60 35 61 40 62 36 63 37 64 39 65 41 66
REMARK SMILES IDX 38 67 60 68 61 69 66 70 62 71 63 72 65 73 67 74 64 75 48 76
REMARK SMILES IDX 49 77 54 78 50 79 51 80 53 81 55 82 52 83
REMARK H PARENT 18 6 22 26 72 45 46 56
REMARK Flexibility Score: inf
ROOT
ATOM      1  C   UNL A   1      34.081  28.218  25.678  1.00  0.00     0.042 C 
ENDROOT
BRANCH   1   2
ATOM      2  C   UNL A   1      32.964  27.618  24.839  1.00  0.00     0.118 C 
BRANCH   2   3
ATOM      3  N   UNL A   1      31.935  27.005  25.665  1.00  0.00    -0.352 N 
ATOM      4  C   UNL A   1      31.611  25.763  26.093  1.00  0.00     0.251 C 
ATOM      5  O   UNL A   1      30.602  25.702  26.804  1.00  0.00    -0.270 OA
ATOM      6  H   UNL A   1      31.302  27.678  26.006  1.00  0.00     0.163 HD
BRANCH   4   7
ATOM      7  C   UNL A   1      32.365  24.519  25.769  1.00  0.00     0.067 C 
ATOM      8  C   UNL A   1      33.849  19.741  24.664  1.00  0.00     0.048 C 
ATOM      9  C   UNL A   1      34.548  20.986  25.130  1.00  0.00    -0.007 A 
ATOM     10  C   UNL A   1      35.942  21.013  25.263  1.00  0.00     0.023 A 
ATOM     11  C   UNL A   1      33.822  22.154  25.399  1.00  0.00     0.130 A 
ATOM     12  C   UNL A   1      36.582  22.182  25.679  1.00  0.00     0.019 A 
ATOM     13  C   UNL A   1      34.462  23.326  25.818  1.00  0.00     0.019 A 
ATOM     14  O   UNL A   1      32.463  22.081  25.281  1.00  0.00    -0.475 OA
ATOM     15  Br  UNL A   1      38.463  22.197  25.867  1.00  0.00    -0.051 Br
ATOM     16  C   UNL A   1      35.852  23.337  25.961  1.00  0.00     0.027 A 
ATOM     17  C   UNL A   1      33.662  24.505  26.127  1.00  0.00     0.025 C 
ATOM     18  C   UNL A   1      31.770  23.337  25.062  1.00  0.00     0.314 C 
BRANCH  18  19
ATOM     19  C   UNL A   1      31.599  23.569  23.548  1.00  0.00     0.429 C 
ATOM     20  F   UNL A   1      30.340  23.995  23.277  1.00  0.00    -0.167 F 
ATOM     21  F   UNL A   1      32.435  24.523  23.070  1.00  0.00    -0.167 F 
ATOM     22  F   UNL A   1      31.818  22.455  22.817  1.00  0.00    -0.167 F 
ENDBRANCH  18  19
ENDBRANCH   4   7
ENDBRANCH   2   3
ENDBRANCH   1   2
BRANCH   1  23
ATOM     23  C   UNL A   1      33.667  28.402  27.132  1.00  0.00     0.118 C 
BRANCH  23  24
ATOM     24  N   UNL A   1      33.640  29.813  27.512  1.00  0.00    -0.352 N 
ATOM     25  C   UNL A   1      34.563  30.562  28.197  1.00  0.00     0.251 C 
ATOM     26  H   UNL A   1      32.832  30.302  27.234  1.00  0.00     0.163 HD
ATOM     27  O   UNL A   1      34.242  31.650  28.669  1.00  0.00    -0.269 OA
BRANCH  25  28
ATOM     28  C   UNL A   1      35.938  30.058  28.370  1.00  0.00     0.039 A 
ATOM     29  C   UNL A   1      36.850  30.174  27.320  1.00  0.00     0.014 A 
ATOM     30  C   UNL A   1      36.316  29.450  29.570  1.00  0.00     0.014 A 
ATOM     31  C   UNL A   1      38.166  29.744  27.503  1.00  0.00     0.010 A 
ATOM     32  C   UNL A   1      37.645  29.116  29.785  1.00  0.00     0.010 A 
ATOM     33  C   UNL A   1      38.580  29.247  28.750  1.00  0.00    -0.014 A 
BRANCH  33  34
ATOM     34  C   UNL A   1      39.982  28.833  28.990  1.00  0.00     0.031 A 
ATOM     35  C   UNL A   1      40.939  29.786  29.652  1.00  0.00     0.074 A 
ATOM     36  C   UNL A   1      40.406  27.631  28.554  1.00  0.00     0.049 A 
ATOM     37  N   UNL A   1      42.218  29.641  29.885  1.00  0.00    -0.248 NA
ATOM     38  C   UNL A   1      40.393  31.084  30.083  1.00  0.00     0.031 C 
ATOM     39  C   UNL A   1      39.579  26.644  27.858  1.00  0.00     0.029 A 
ATOM     40  N   UNL A   1      41.639  27.036  28.632  1.00  0.00    -0.354 N 
ATOM     41  C   UNL A   1      42.627  30.828  30.478  1.00  0.00     0.074 A 
ATOM     42  C   UNL A   1      41.481  31.708  30.508  1.00  0.00     0.031 C 
ATOM     43  C   UNL A   1      40.317  25.551  27.608  1.00  0.00     0.029 A 
ATOM     44  C   UNL A   1      41.676  25.775  28.089  1.00  0.00     0.049 A 
ATOM     45  H   UNL A   1      42.422  27.471  29.039  1.00  0.00     0.167 HD
ATOM     46  C   UNL A   1      43.840  31.143  30.986  1.00  0.00     0.037 A 
ATOM     47  C   UNL A   1      42.694  24.899  27.992  1.00  0.00     0.037 A 
ATOM     48  C   UNL A   1      44.968  30.249  30.982  1.00  0.00     0.049 A 
ATOM     49  C   UNL A   1      44.039  25.279  28.548  1.00  0.00     0.074 A 
ATOM     50  C   UNL A   1      46.227  30.453  31.515  1.00  0.00     0.029 A 
ATOM     51  N   UNL A   1      44.966  28.982  30.420  1.00  0.00    -0.354 N 
ATOM     52  N   UNL A   1      44.398  26.383  29.156  1.00  0.00    -0.248 NA
ATOM     53  C   UNL A   1      45.119  24.292  28.404  1.00  0.00     0.031 C 
ATOM     54  C   UNL A   1      47.002  29.323  31.240  1.00  0.00     0.029 A 
ATOM     55  C   UNL A   1      46.211  28.399  30.576  1.00  0.00     0.049 A 
ATOM     56  H   UNL A   1      44.195  28.560  29.976  1.00  0.00     0.167 HD
ATOM     57  C   UNL A   1      45.736  26.218  29.487  1.00  0.00     0.074 A 
ATOM     58  C   UNL A   1      46.121  24.899  29.026  1.00  0.00     0.031 C 
ATOM     59  C   UNL A   1      46.571  27.081  30.114  1.00  0.00     0.037 A 
BRANCH  46  60
ATOM     60  C   UNL A   1      44.004  32.496  31.610  1.00  0.00     0.057 A 
ATOM     61  C   UNL A   1      44.400  33.610  30.857  1.00  0.00     0.134 A 
ATOM     62  C   UNL A   1      43.717  32.703  32.965  1.00  0.00     0.134 A 
ATOM     63  F   UNL A   1      44.702  33.477  29.557  1.00  0.00    -0.206 F 
ATOM     64  C   UNL A   1      44.523  34.875  31.432  1.00  0.00     0.040 A 
ATOM     65  C   UNL A   1      43.811  33.970  33.546  1.00  0.00     0.040 A 
ATOM     66  F   UNL A   1      43.330  31.682  33.744  1.00  0.00    -0.206 F 
ATOM     67  C   UNL A   1      44.219  35.059  32.778  1.00  0.00     0.006 A 
ENDBRANCH  46  60
BRANCH  47  68
ATOM     68  C   UNL A   1      42.465  23.564  27.384  1.00  0.00     0.057 A 
ATOM     69  C   UNL A   1      42.652  23.361  26.012  1.00  0.00     0.134 A 
ATOM     70  C   UNL A   1      42.078  22.460  28.152  1.00  0.00     0.134 A 
ATOM     71  F   UNL A   1      43.008  24.384  25.221  1.00  0.00    -0.206 F 
ATOM     72  C   UNL A   1      42.456  22.111  25.423  1.00  0.00     0.040 A 
ATOM     73  C   UNL A   1      41.900  21.199  27.580  1.00  0.00     0.040 A 
ATOM     74  F   UNL A   1      41.892  22.586  29.474  1.00  0.00    -0.206 F 
ATOM     75  C   UNL A   1      42.084  21.023  26.211  1.00  0.00     0.006 A 
ENDBRANCH  47  68
BRANCH  59  76
ATOM     76  C   UNL A   1      47.981  26.630  30.356  1.00  0.00     0.057 A 
ATOM     77  C   UNL A   1      48.343  25.952  31.526  1.00  0.00     0.134 A 
ATOM     78  C   UNL A   1      48.962  26.798  29.371  1.00  0.00     0.134 A 
ATOM     79  F   UNL A   1      47.451  25.770  32.510  1.00  0.00    -0.206 F 
ATOM     80  C   UNL A   1      49.636  25.463  31.711  1.00  0.00     0.040 A 
ATOM     81  C   UNL A   1      50.251  26.290  29.533  1.00  0.00     0.040 A 
ATOM     82  F   UNL A   1      48.675  27.429  28.221  1.00  0.00    -0.206 F 
ATOM     83  C   UNL A   1      50.591  25.621  30.707  1.00  0.00     0.006 A 
ENDBRANCH  59  76
ENDBRANCH  33  34
ENDBRANCH  25  28
ENDBRANCH  23  24
ENDBRANCH   1  23
TORSDOF 11
ENDMDL
