MODEL 1
REMARK VINA RESULT:     -12.7      0.000      0.000
REMARK SMILES Cc1ccc(NC(=O)C[C@@H](C(=O)NCCCNC(=O)c2ccc(-c3c4nc(c(-c5c(F)cccc5F)c5ccc([nH]5)c(-c5c(F)cccc5F)c5nc(c(-c6c(F)cccc6F)c6ccc3[nH]6)C=C5)C=C4)cc2)[NH+]2CCOCC2)cc1
REMARK SMILES IDX 14 1 13 2 11 3 12 4 10 6 9 7 7 8 6 9 8 11 5 12 1 13 2 14
REMARK SMILES IDX 3 15 81 16 4 17 80 18 74 19 75 20 79 21 76 23 78 24 77 25
REMARK SMILES IDX 15 26 16 27 17 28 18 29 19 31 20 32 21 33 73 34 22 35 72 36
REMARK SMILES IDX 23 37 24 38 25 39 66 40 26 41 71 42 65 43 67 44 27 45 70 46
REMARK SMILES IDX 64 47 63 48 28 50 54 51 37 52 53 53 38 54 41 55 52 56 68 57
REMARK SMILES IDX 39 58 40 59 51 61 69 62 42 63 29 64 30 65 35 66 31 67 32 68
REMARK SMILES IDX 34 69 36 70 33 71 55 72 56 73 61 74 57 75 58 76 60 77 62 78
REMARK SMILES IDX 59 79 43 80 44 81 49 82 45 83 46 84 48 85 50 86 47 87
REMARK H PARENT 13 5 6 10 74 22 17 30 67 49 41 60
REMARK Flexibility Score: inf
ROOT
ATOM      1  C   UNL A   1      32.292  30.196  26.231  1.00  0.00     0.118 C 
ENDROOT
BRANCH   1   2
ATOM      2  N   UNL A   1      33.061  29.839  25.057  1.00  0.00    -0.351 N 
ATOM      3  C   UNL A   1      32.956  28.811  24.172  1.00  0.00     0.278 C 
ATOM      4  O   UNL A   1      33.540  29.006  23.100  1.00  0.00    -0.268 OA
ATOM      5  H   UNL A   1      33.801  30.459  24.862  1.00  0.00     0.163 HD
BRANCH   3   6
ATOM      6  C   UNL A   1      32.124  27.514  24.460  1.00  0.00     0.283 C 
BRANCH   6   7
ATOM      7  C   UNL A   1      30.611  27.765  24.656  1.00  0.00     0.175 C 
BRANCH   7   8
ATOM      8  C   UNL A   1      29.605  27.120  23.737  1.00  0.00     0.230 C 
ATOM      9  N   UNL A   1      28.714  27.828  22.986  1.00  0.00    -0.326 N 
ATOM     10  H   UNL A   1      28.114  27.268  22.440  1.00  0.00     0.169 HD
ATOM     11  O   UNL A   1      29.585  25.886  23.641  1.00  0.00    -0.274 OA
BRANCH   9  12
ATOM     12  C   UNL A   1      28.495  29.208  22.848  1.00  0.00     0.041 A 
ATOM     13  C   UNL A   1      28.635  33.507  22.889  1.00  0.00     0.044 C 
ATOM     14  C   UNL A   1      28.510  32.018  22.766  1.00  0.00    -0.051 A 
ATOM     15  C   UNL A   1      27.572  31.335  23.541  1.00  0.00     0.005 A 
ATOM     16  C   UNL A   1      29.371  31.284  21.946  1.00  0.00     0.005 A 
ATOM     17  C   UNL A   1      27.556  29.938  23.570  1.00  0.00     0.026 A 
ATOM     18  C   UNL A   1      29.349  29.887  21.972  1.00  0.00     0.026 A 
ENDBRANCH   9  12
ENDBRANCH   7   8
ENDBRANCH   6   7
BRANCH   6  19
ATOM     19  N   UNL A   1      32.717  26.809  25.647  1.00  0.00    -0.320 N 
ATOM     20  C   UNL A   1      34.068  26.250  25.413  1.00  0.00     0.291 C 
ATOM     21  C   UNL A   1      31.908  25.807  26.364  1.00  0.00     0.291 C 
ATOM     22  H   UNL A   1      32.758  27.610  26.277  1.00  0.00     0.348 HD
ATOM     23  C   UNL A   1      34.070  24.822  24.843  1.00  0.00     0.221 C 
ATOM     24  C   UNL A   1      31.960  24.391  25.777  1.00  0.00     0.221 C 
ATOM     25  O   UNL A   1      33.307  23.928  25.659  1.00  0.00    -0.370 OA
ENDBRANCH   6  19
ENDBRANCH   3   6
ENDBRANCH   1   2
BRANCH   1  26
ATOM     26  C   UNL A   1      33.072  30.985  27.287  1.00  0.00     0.042 C 
BRANCH  26  27
ATOM     27  C   UNL A   1      34.435  30.410  27.679  1.00  0.00     0.118 C 
BRANCH  27  28
ATOM     28  N   UNL A   1      35.099  31.184  28.729  1.00  0.00    -0.352 N 
ATOM     29  C   UNL A   1      36.316  30.980  29.351  1.00  0.00     0.251 C 
ATOM     30  H   UNL A   1      34.601  31.973  29.043  1.00  0.00     0.163 HD
ATOM     31  O   UNL A   1      36.796  31.858  30.062  1.00  0.00    -0.269 OA
BRANCH  29  32
ATOM     32  C   UNL A   1      37.100  29.759  29.060  1.00  0.00     0.039 A 
ATOM     33  C   UNL A   1      37.367  28.875  30.111  1.00  0.00     0.014 A 
ATOM     34  C   UNL A   1      37.692  29.565  27.815  1.00  0.00     0.014 A 
ATOM     35  C   UNL A   1      38.422  27.972  29.992  1.00  0.00     0.010 A 
ATOM     36  C   UNL A   1      38.784  28.720  27.718  1.00  0.00     0.010 A 
ATOM     37  C   UNL A   1      39.201  27.990  28.835  1.00  0.00    -0.014 A 
BRANCH  37  38
ATOM     38  C   UNL A   1      40.539  27.408  28.786  1.00  0.00     0.031 A 
ATOM     39  C   UNL A   1      40.753  25.990  28.437  1.00  0.00     0.074 A 
ATOM     40  C   UNL A   1      41.607  28.202  29.026  1.00  0.00     0.049 A 
ATOM     41  N   UNL A   1      41.786  25.302  28.794  1.00  0.00    -0.248 NA
ATOM     42  C   UNL A   1      39.788  25.224  27.664  1.00  0.00     0.031 C 
ATOM     43  C   UNL A   1      43.017  27.878  28.826  1.00  0.00     0.029 A 
ATOM     44  N   UNL A   1      41.626  29.423  29.717  1.00  0.00    -0.354 N 
ATOM     45  C   UNL A   1      41.763  24.113  28.102  1.00  0.00     0.074 A 
ATOM     46  C   UNL A   1      40.468  24.092  27.456  1.00  0.00     0.031 C 
ATOM     47  C   UNL A   1      43.754  28.668  29.623  1.00  0.00     0.029 A 
ATOM     48  C   UNL A   1      42.834  29.425  30.453  1.00  0.00     0.049 A 
ATOM     49  H   UNL A   1      40.942  30.131  29.695  1.00  0.00     0.167 HD
ATOM     50  C   UNL A   1      42.887  23.338  28.055  1.00  0.00     0.037 A 
ATOM     51  C   UNL A   1      42.818  29.425  31.817  1.00  0.00     0.037 A 
ATOM     52  C   UNL A   1      43.961  23.892  28.877  1.00  0.00     0.049 A 
ATOM     53  C   UNL A   1      43.440  28.202  32.458  1.00  0.00     0.074 A 
ATOM     54  C   UNL A   1      45.080  24.665  28.609  1.00  0.00     0.029 A 
ATOM     55  N   UNL A   1      43.812  23.903  30.253  1.00  0.00    -0.354 N 
ATOM     56  N   UNL A   1      43.906  27.180  31.797  1.00  0.00    -0.248 NA
ATOM     57  C   UNL A   1      43.493  27.997  33.909  1.00  0.00     0.031 C 
ATOM     58  C   UNL A   1      45.571  25.179  29.841  1.00  0.00     0.029 A 
ATOM     59  C   UNL A   1      44.753  24.716  30.855  1.00  0.00     0.049 A 
ATOM     60  H   UNL A   1      43.123  23.396  30.741  1.00  0.00     0.167 HD
ATOM     61  C   UNL A   1      44.244  26.191  32.679  1.00  0.00     0.074 A 
ATOM     62  C   UNL A   1      43.984  26.749  33.991  1.00  0.00     0.031 C 
ATOM     63  C   UNL A   1      44.669  24.961  32.282  1.00  0.00     0.037 A 
BRANCH  50  64
ATOM     64  C   UNL A   1      43.095  22.215  27.063  1.00  0.00     0.057 A 
ATOM     65  C   UNL A   1      42.346  21.024  27.151  1.00  0.00     0.134 A 
ATOM     66  C   UNL A   1      44.047  22.219  26.030  1.00  0.00     0.134 A 
ATOM     67  F   UNL A   1      41.315  20.898  27.997  1.00  0.00    -0.206 F 
ATOM     68  C   UNL A   1      42.616  19.890  26.373  1.00  0.00     0.040 A 
ATOM     69  C   UNL A   1      44.370  21.076  25.283  1.00  0.00     0.040 A 
ATOM     70  F   UNL A   1      44.666  23.345  25.654  1.00  0.00    -0.206 F 
ATOM     71  C   UNL A   1      43.663  19.897  25.466  1.00  0.00     0.006 A 
ENDBRANCH  50  64
BRANCH  51  72
ATOM     72  C   UNL A   1      41.687  30.199  32.386  1.00  0.00     0.057 A 
ATOM     73  C   UNL A   1      41.748  31.603  32.361  1.00  0.00     0.134 A 
ATOM     74  C   UNL A   1      40.439  29.618  32.624  1.00  0.00     0.134 A 
ATOM     75  F   UNL A   1      42.917  32.224  32.142  1.00  0.00    -0.206 F 
ATOM     76  C   UNL A   1      40.600  32.393  32.455  1.00  0.00     0.040 A 
ATOM     77  C   UNL A   1      39.284  30.400  32.734  1.00  0.00     0.040 A 
ATOM     78  F   UNL A   1      40.299  28.285  32.641  1.00  0.00    -0.206 F 
ATOM     79  C   UNL A   1      39.357  31.787  32.610  1.00  0.00     0.006 A 
ENDBRANCH  51  72
BRANCH  63  80
ATOM     80  C   UNL A   1      45.057  23.893  33.249  1.00  0.00     0.057 A 
ATOM     81  C   UNL A   1      44.141  22.927  33.686  1.00  0.00     0.134 A 
ATOM     82  C   UNL A   1      46.317  23.886  33.869  1.00  0.00     0.134 A 
ATOM     83  F   UNL A   1      42.905  22.871  33.168  1.00  0.00    -0.206 F 
ATOM     84  C   UNL A   1      44.463  22.001  34.682  1.00  0.00     0.040 A 
ATOM     85  C   UNL A   1      46.640  22.991  34.891  1.00  0.00     0.040 A 
ATOM     86  F   UNL A   1      47.280  24.743  33.493  1.00  0.00    -0.206 F 
ATOM     87  C   UNL A   1      45.710  22.042  35.299  1.00  0.00     0.006 A 
ENDBRANCH  63  80
ENDBRANCH  37  38
ENDBRANCH  29  32
ENDBRANCH  27  28
ENDBRANCH  26  27
ENDBRANCH   1  26
TORSDOF 14
ENDMDL
MODEL 2
REMARK VINA RESULT:     -12.5      1.316      4.089
REMARK SMILES Cc1ccc(NC(=O)C[C@@H](C(=O)NCCCNC(=O)c2ccc(-c3c4nc(c(-c5c(F)cccc5F)c5ccc([nH]5)c(-c5c(F)cccc5F)c5nc(c(-c6c(F)cccc6F)c6ccc3[nH]6)C=C5)C=C4)cc2)[NH+]2CCOCC2)cc1
REMARK SMILES IDX 14 1 13 2 11 3 12 4 10 6 9 7 7 8 6 9 8 11 5 12 1 13 2 14
REMARK SMILES IDX 3 15 81 16 4 17 80 18 74 19 75 20 79 21 76 23 78 24 77 25
REMARK SMILES IDX 15 26 16 27 17 28 18 29 19 31 20 32 21 33 73 34 22 35 72 36
REMARK SMILES IDX 23 37 24 38 25 39 66 40 26 41 71 42 65 43 67 44 27 45 70 46
REMARK SMILES IDX 64 47 63 48 28 50 54 51 37 52 53 53 38 54 41 55 52 56 68 57
REMARK SMILES IDX 39 58 40 59 51 61 69 62 42 63 29 64 30 65 35 66 31 67 32 68
REMARK SMILES IDX 34 69 36 70 33 71 55 72 56 73 61 74 57 75 58 76 60 77 62 78
REMARK SMILES IDX 59 79 43 80 44 81 49 82 45 83 46 84 48 85 50 86 47 87
REMARK H PARENT 13 5 6 10 74 22 17 30 67 49 41 60
REMARK Flexibility Score: inf
ROOT
ATOM      1  C   UNL A   1      32.994  29.778  26.353  1.00  0.00     0.118 C 
ENDROOT
BRANCH   1   2
ATOM      2  N   UNL A   1      33.805  29.330  25.241  1.00  0.00    -0.351 N 
ATOM      3  C   UNL A   1      33.629  28.344  24.318  1.00  0.00     0.278 C 
ATOM      4  O   UNL A   1      34.330  28.469  23.307  1.00  0.00    -0.268 OA
ATOM      5  H   UNL A   1      34.643  29.835  25.129  1.00  0.00     0.163 HD
BRANCH   3   6
ATOM      6  C   UNL A   1      32.592  27.182  24.493  1.00  0.00     0.283 C 
BRANCH   6   7
ATOM      7  C   UNL A   1      33.231  25.806  24.793  1.00  0.00     0.175 C 
BRANCH   7   8
ATOM      8  C   UNL A   1      32.828  25.029  26.020  1.00  0.00     0.230 C 
ATOM      9  N   UNL A   1      33.444  23.879  26.415  1.00  0.00    -0.326 N 
ATOM     10  H   UNL A   1      33.064  23.479  27.231  1.00  0.00     0.169 HD
ATOM     11  O   UNL A   1      31.899  25.453  26.720  1.00  0.00    -0.274 OA
BRANCH   9  12
ATOM     12  C   UNL A   1      34.520  23.159  25.870  1.00  0.00     0.041 A 
ATOM     13  C   UNL A   1      37.650  20.369  24.912  1.00  0.00     0.044 C 
ATOM     14  C   UNL A   1      36.558  21.375  25.117  1.00  0.00    -0.051 A 
ATOM     15  C   UNL A   1      36.870  22.646  25.602  1.00  0.00     0.005 A 
ATOM     16  C   UNL A   1      35.217  21.044  24.908  1.00  0.00     0.005 A 
ATOM     17  C   UNL A   1      35.856  23.538  25.962  1.00  0.00     0.026 A 
ATOM     18  C   UNL A   1      34.205  21.938  25.263  1.00  0.00     0.026 A 
ENDBRANCH   9  12
ENDBRANCH   7   8
ENDBRANCH   6   7
BRANCH   6  19
ATOM     19  N   UNL A   1      31.718  27.121  23.272  1.00  0.00    -0.320 N 
ATOM     20  C   UNL A   1      31.189  28.432  22.834  1.00  0.00     0.291 C 
ATOM     21  C   UNL A   1      30.629  26.129  23.219  1.00  0.00     0.291 C 
ATOM     22  H   UNL A   1      32.419  26.774  22.618  1.00  0.00     0.348 HD
ATOM     23  C   UNL A   1      29.859  28.828  23.495  1.00  0.00     0.221 C 
ATOM     24  C   UNL A   1      29.313  26.575  23.866  1.00  0.00     0.221 C 
ATOM     25  O   UNL A   1      28.861  27.817  23.320  1.00  0.00    -0.370 OA
ENDBRANCH   6  19
ENDBRANCH   3   6
ENDBRANCH   1   2
BRANCH   1  26
ATOM     26  C   UNL A   1      33.780  30.076  27.634  1.00  0.00     0.042 C 
BRANCH  26  27
ATOM     27  C   UNL A   1      34.843  31.172  27.526  1.00  0.00     0.118 C 
BRANCH  27  28
ATOM     28  N   UNL A   1      35.303  31.651  28.831  1.00  0.00    -0.352 N 
ATOM     29  C   UNL A   1      36.330  31.195  29.634  1.00  0.00     0.251 C 
ATOM     30  H   UNL A   1      34.802  32.418  29.193  1.00  0.00     0.163 HD
ATOM     31  O   UNL A   1      36.695  31.861  30.599  1.00  0.00    -0.269 OA
BRANCH  29  32
ATOM     32  C   UNL A   1      37.073  29.971  29.262  1.00  0.00     0.039 A 
ATOM     33  C   UNL A   1      37.290  29.001  30.247  1.00  0.00     0.014 A 
ATOM     34  C   UNL A   1      37.677  29.849  28.014  1.00  0.00     0.014 A 
ATOM     35  C   UNL A   1      38.313  28.070  30.074  1.00  0.00     0.010 A 
ATOM     36  C   UNL A   1      38.739  28.973  27.868  1.00  0.00     0.010 A 
ATOM     37  C   UNL A   1      39.111  28.146  28.932  1.00  0.00    -0.014 A 
BRANCH  37  38
ATOM     38  C   UNL A   1      40.428  27.519  28.857  1.00  0.00     0.031 A 
ATOM     39  C   UNL A   1      40.584  26.084  28.553  1.00  0.00     0.074 A 
ATOM     40  C   UNL A   1      41.528  28.286  29.028  1.00  0.00     0.049 A 
ATOM     41  N   UNL A   1      41.608  25.376  28.898  1.00  0.00    -0.248 NA
ATOM     42  C   UNL A   1      39.568  25.321  27.845  1.00  0.00     0.031 C 
ATOM     43  C   UNL A   1      42.919  27.910  28.790  1.00  0.00     0.029 A 
ATOM     44  N   UNL A   1      41.611  29.531  29.672  1.00  0.00    -0.354 N 
ATOM     45  C   UNL A   1      41.522  24.164  28.253  1.00  0.00     0.074 A 
ATOM     46  C   UNL A   1      40.204  24.161  27.655  1.00  0.00     0.031 C 
ATOM     47  C   UNL A   1      43.709  28.703  29.530  1.00  0.00     0.029 A 
ATOM     48  C   UNL A   1      42.845  29.520  30.363  1.00  0.00     0.049 A 
ATOM     49  H   UNL A   1      40.949  30.258  29.648  1.00  0.00     0.167 HD
ATOM     50  C   UNL A   1      42.618  23.351  28.194  1.00  0.00     0.037 A 
ATOM     51  C   UNL A   1      42.880  29.570  31.726  1.00  0.00     0.037 A 
ATOM     52  C   UNL A   1      43.739  23.899  28.957  1.00  0.00     0.049 A 
ATOM     53  C   UNL A   1      43.486  28.351  32.390  1.00  0.00     0.074 A 
ATOM     54  C   UNL A   1      44.871  24.625  28.619  1.00  0.00     0.029 A 
ATOM     55  N   UNL A   1      43.641  23.965  30.335  1.00  0.00    -0.354 N 
ATOM     56  N   UNL A   1      43.895  27.291  31.752  1.00  0.00    -0.248 NA
ATOM     57  C   UNL A   1      43.586  28.197  33.844  1.00  0.00     0.031 C 
ATOM     58  C   UNL A   1      45.423  25.168  29.813  1.00  0.00     0.029 A 
ATOM     59  C   UNL A   1      44.629  24.768  30.872  1.00  0.00     0.049 A 
ATOM     60  H   UNL A   1      42.956  23.499  30.867  1.00  0.00     0.167 HD
ATOM     61  C   UNL A   1      44.234  26.324  32.657  1.00  0.00     0.074 A 
ATOM     62  C   UNL A   1      44.041  26.938  33.955  1.00  0.00     0.031 C 
ATOM     63  C   UNL A   1      44.606  25.067  32.291  1.00  0.00     0.037 A 
BRANCH  50  64
ATOM     64  C   UNL A   1      42.754  22.186  27.238  1.00  0.00     0.057 A 
ATOM     65  C   UNL A   1      41.969  21.026  27.395  1.00  0.00     0.134 A 
ATOM     66  C   UNL A   1      43.670  22.120  26.175  1.00  0.00     0.134 A 
ATOM     67  F   UNL A   1      40.964  20.967  28.279  1.00  0.00    -0.206 F 
ATOM     68  C   UNL A   1      42.174  19.857  26.651  1.00  0.00     0.040 A 
ATOM     69  C   UNL A   1      43.928  20.941  25.460  1.00  0.00     0.040 A 
ATOM     70  F   UNL A   1      44.313  23.210  25.738  1.00  0.00    -0.206 F 
ATOM     71  C   UNL A   1      43.189  19.795  25.710  1.00  0.00     0.006 A 
ENDBRANCH  50  64
BRANCH  51  72
ATOM     72  C   UNL A   1      41.795  30.400  32.307  1.00  0.00     0.057 A 
ATOM     73  C   UNL A   1      41.919  31.799  32.264  1.00  0.00     0.134 A 
ATOM     74  C   UNL A   1      40.526  29.879  32.573  1.00  0.00     0.134 A 
ATOM     75  F   UNL A   1      43.111  32.364  32.017  1.00  0.00    -0.206 F 
ATOM     76  C   UNL A   1      40.809  32.641  32.369  1.00  0.00     0.040 A 
ATOM     77  C   UNL A   1      39.411  30.713  32.694  1.00  0.00     0.040 A 
ATOM     78  F   UNL A   1      40.326  28.554  32.608  1.00  0.00    -0.206 F 
ATOM     79  C   UNL A   1      39.544  32.094  32.553  1.00  0.00     0.006 A 
ENDBRANCH  51  72
BRANCH  63  80
ATOM     80  C   UNL A   1      44.996  24.023  33.283  1.00  0.00     0.057 A 
ATOM     81  C   UNL A   1      46.305  23.922  33.769  1.00  0.00     0.134 A 
ATOM     82  C   UNL A   1      44.104  23.010  33.672  1.00  0.00     0.134 A 
ATOM     83  F   UNL A   1      47.234  24.831  33.433  1.00  0.00    -0.206 F 
ATOM     84  C   UNL A   1      46.705  22.873  34.602  1.00  0.00     0.040 A 
ATOM     85  C   UNL A   1      44.499  21.937  34.473  1.00  0.00     0.040 A 
ATOM     86  F   UNL A   1      42.816  23.037  33.295  1.00  0.00    -0.206 F 
ATOM     87  C   UNL A   1      45.805  21.868  34.943  1.00  0.00     0.006 A 
ENDBRANCH  63  80
ENDBRANCH  37  38
ENDBRANCH  29  32
ENDBRANCH  27  28
ENDBRANCH  26  27
ENDBRANCH   1  26
TORSDOF 14
ENDMDL
MODEL 3
REMARK VINA RESULT:     -12.5      4.004      9.315
REMARK SMILES Cc1ccc(NC(=O)C[C@@H](C(=O)NCCCNC(=O)c2ccc(-c3c4nc(c(-c5c(F)cccc5F)c5ccc([nH]5)c(-c5c(F)cccc5F)c5nc(c(-c6c(F)cccc6F)c6ccc3[nH]6)C=C5)C=C4)cc2)[NH+]2CCOCC2)cc1
REMARK SMILES IDX 14 1 13 2 11 3 12 4 10 6 9 7 7 8 6 9 8 11 5 12 1 13 2 14
REMARK SMILES IDX 3 15 81 16 4 17 80 18 74 19 75 20 79 21 76 23 78 24 77 25
REMARK SMILES IDX 15 26 16 27 17 28 18 29 19 31 20 32 21 33 73 34 22 35 72 36
REMARK SMILES IDX 23 37 24 38 25 39 66 40 26 41 71 42 65 43 67 44 27 45 70 46
REMARK SMILES IDX 64 47 63 48 28 50 54 51 37 52 53 53 38 54 41 55 52 56 68 57
REMARK SMILES IDX 39 58 40 59 51 61 69 62 42 63 29 64 30 65 35 66 31 67 32 68
REMARK SMILES IDX 34 69 36 70 33 71 55 72 56 73 61 74 57 75 58 76 60 77 62 78
REMARK SMILES IDX 59 79 43 80 44 81 49 82 45 83 46 84 48 85 50 86 47 87
REMARK H PARENT 13 5 6 10 74 22 17 30 67 49 41 60
REMARK Flexibility Score: inf
ROOT
ATOM      1  C   UNL A   1      36.726  21.412  25.477  1.00  0.00     0.118 C 
ENDROOT
BRANCH   1   2
ATOM      2  N   UNL A   1      35.957  22.022  26.541  1.00  0.00    -0.351 N 
ATOM      3  C   UNL A   1      34.720  22.589  26.567  1.00  0.00     0.278 C 
ATOM      4  O   UNL A   1      34.231  22.682  27.700  1.00  0.00    -0.268 OA
ATOM      5  H   UNL A   1      36.415  22.025  27.412  1.00  0.00     0.163 HD
BRANCH   3   6
ATOM      6  C   UNL A   1      33.955  23.039  25.275  1.00  0.00     0.283 C 
BRANCH   6   7
ATOM      7  C   UNL A   1      33.697  24.561  25.192  1.00  0.00     0.175 C 
BRANCH   7   8
ATOM      8  C   UNL A   1      33.965  25.312  23.913  1.00  0.00     0.230 C 
ATOM      9  N   UNL A   1      33.729  26.647  23.764  1.00  0.00    -0.326 N 
ATOM     10  H   UNL A   1      33.946  26.996  22.869  1.00  0.00     0.169 HD
ATOM     11  O   UNL A   1      34.434  24.700  22.946  1.00  0.00    -0.274 OA
BRANCH   9  12
ATOM     12  C   UNL A   1      33.234  27.615  24.653  1.00  0.00     0.041 A 
ATOM     13  C   UNL A   1      31.809  31.152  26.642  1.00  0.00     0.044 C 
ATOM     14  C   UNL A   1      32.235  29.849  26.036  1.00  0.00    -0.051 A 
ATOM     15  C   UNL A   1      33.472  29.298  26.376  1.00  0.00     0.005 A 
ATOM     16  C   UNL A   1      31.452  29.206  25.074  1.00  0.00     0.005 A 
ATOM     17  C   UNL A   1      33.961  28.179  25.697  1.00  0.00     0.026 A 
ATOM     18  C   UNL A   1      31.941  28.084  24.401  1.00  0.00     0.026 A 
ENDBRANCH   9  12
ENDBRANCH   7   8
ENDBRANCH   6   7
BRANCH   6  19
ATOM     19  N   UNL A   1      32.672  22.263  25.173  1.00  0.00    -0.320 N 
ATOM     20  C   UNL A   1      32.814  20.813  25.438  1.00  0.00     0.291 C 
ATOM     21  C   UNL A   1      31.815  22.447  23.988  1.00  0.00     0.291 C 
ATOM     22  H   UNL A   1      32.171  22.724  25.932  1.00  0.00     0.348 HD
ATOM     23  C   UNL A   1      33.161  19.976  24.195  1.00  0.00     0.221 C 
ATOM     24  C   UNL A   1      32.180  21.573  22.782  1.00  0.00     0.221 C 
ATOM     25  O   UNL A   1      32.222  20.190  23.136  1.00  0.00    -0.370 OA
ENDBRANCH   6  19
ENDBRANCH   3   6
ENDBRANCH   1   2
BRANCH   1  26
ATOM     26  C   UNL A   1      38.236  21.648  25.568  1.00  0.00     0.042 C 
BRANCH  26  27
ATOM     27  C   UNL A   1      38.670  23.061  25.966  1.00  0.00     0.118 C 
BRANCH  27  28
ATOM     28  N   UNL A   1      40.103  23.158  26.250  1.00  0.00    -0.352 N 
ATOM     29  C   UNL A   1      40.835  24.199  26.790  1.00  0.00     0.251 C 
ATOM     30  H   UNL A   1      40.628  22.358  26.021  1.00  0.00     0.163 HD
ATOM     31  O   UNL A   1      41.995  24.012  27.145  1.00  0.00    -0.269 OA
BRANCH  29  32
ATOM     32  C   UNL A   1      40.184  25.500  27.057  1.00  0.00     0.039 A 
ATOM     33  C   UNL A   1      40.710  26.643  26.445  1.00  0.00     0.014 A 
ATOM     34  C   UNL A   1      39.175  25.617  28.009  1.00  0.00     0.014 A 
ATOM     35  C   UNL A   1      40.420  27.898  26.979  1.00  0.00     0.010 A 
ATOM     36  C   UNL A   1      38.940  26.853  28.586  1.00  0.00     0.010 A 
ATOM     37  C   UNL A   1      39.631  27.978  28.127  1.00  0.00    -0.014 A 
BRANCH  37  38
ATOM     38  C   UNL A   1      39.621  29.160  28.985  1.00  0.00     0.031 A 
ATOM     39  C   UNL A   1      38.588  30.206  28.848  1.00  0.00     0.074 A 
ATOM     40  C   UNL A   1      40.557  29.273  29.954  1.00  0.00     0.049 A 
ATOM     41  N   UNL A   1      38.745  31.434  29.217  1.00  0.00    -0.248 NA
ATOM     42  C   UNL A   1      37.287  29.943  28.253  1.00  0.00     0.031 C 
ATOM     43  C   UNL A   1      40.600  30.251  31.038  1.00  0.00     0.029 A 
ATOM     44  N   UNL A   1      41.801  28.627  30.020  1.00  0.00    -0.354 N 
ATOM     45  C   UNL A   1      37.518  32.053  29.159  1.00  0.00     0.074 A 
ATOM     46  C   UNL A   1      36.657  31.096  28.498  1.00  0.00     0.031 C 
ATOM     47  C   UNL A   1      41.871  30.375  31.452  1.00  0.00     0.029 A 
ATOM     48  C   UNL A   1      42.696  29.580  30.560  1.00  0.00     0.049 A 
ATOM     49  H   UNL A   1      42.008  27.704  29.748  1.00  0.00     0.167 HD
ATOM     50  C   UNL A   1      37.338  33.254  29.785  1.00  0.00     0.037 A 
ATOM     51  C   UNL A   1      43.739  30.054  29.818  1.00  0.00     0.037 A 
ATOM     52  C   UNL A   1      38.584  33.754  30.364  1.00  0.00     0.049 A 
ATOM     53  C   UNL A   1      43.691  31.540  29.533  1.00  0.00     0.074 A 
ATOM     54  C   UNL A   1      39.131  33.732  31.638  1.00  0.00     0.029 A 
ATOM     55  N   UNL A   1      39.605  34.146  29.517  1.00  0.00    -0.354 N 
ATOM     56  N   UNL A   1      42.718  32.329  29.894  1.00  0.00    -0.248 NA
ATOM     57  C   UNL A   1      44.699  32.235  28.727  1.00  0.00     0.031 C 
ATOM     58  C   UNL A   1      40.510  34.070  31.535  1.00  0.00     0.029 A 
ATOM     59  C   UNL A   1      40.795  34.301  30.202  1.00  0.00     0.049 A 
ATOM     60  H   UNL A   1      39.498  34.297  28.550  1.00  0.00     0.167 HD
ATOM     61  C   UNL A   1      42.912  33.565  29.342  1.00  0.00     0.074 A 
ATOM     62  C   UNL A   1      44.172  33.467  28.633  1.00  0.00     0.031 C 
ATOM     63  C   UNL A   1      42.010  34.576  29.458  1.00  0.00     0.037 A 
BRANCH  50  64
ATOM     64  C   UNL A   1      35.982  33.852  30.088  1.00  0.00     0.057 A 
ATOM     65  C   UNL A   1      35.150  34.323  29.052  1.00  0.00     0.134 A 
ATOM     66  C   UNL A   1      35.455  34.039  31.377  1.00  0.00     0.134 A 
ATOM     67  F   UNL A   1      35.441  34.113  27.761  1.00  0.00    -0.206 F 
ATOM     68  C   UNL A   1      33.968  35.039  29.285  1.00  0.00     0.040 A 
ATOM     69  C   UNL A   1      34.306  34.804  31.630  1.00  0.00     0.040 A 
ATOM     70  F   UNL A   1      35.994  33.440  32.446  1.00  0.00    -0.206 F 
ATOM     71  C   UNL A   1      33.566  35.324  30.579  1.00  0.00     0.006 A 
ENDBRANCH  50  64
BRANCH  51  72
ATOM     72  C   UNL A   1      44.316  29.034  28.907  1.00  0.00     0.057 A 
ATOM     73  C   UNL A   1      43.980  29.078  27.543  1.00  0.00     0.134 A 
ATOM     74  C   UNL A   1      45.426  28.264  29.267  1.00  0.00     0.134 A 
ATOM     75  F   UNL A   1      42.924  29.796  27.132  1.00  0.00    -0.206 F 
ATOM     76  C   UNL A   1      44.777  28.476  26.568  1.00  0.00     0.040 A 
ATOM     77  C   UNL A   1      46.223  27.645  28.299  1.00  0.00     0.040 A 
ATOM     78  F   UNL A   1      45.820  28.192  30.546  1.00  0.00    -0.206 F 
ATOM     79  C   UNL A   1      45.923  27.782  26.944  1.00  0.00     0.006 A 
ENDBRANCH  51  72
BRANCH  63  80
ATOM     80  C   UNL A   1      42.238  35.929  28.872  1.00  0.00     0.057 A 
ATOM     81  C   UNL A   1      41.739  36.279  27.611  1.00  0.00     0.134 A 
ATOM     82  C   UNL A   1      43.076  36.868  29.497  1.00  0.00     0.134 A 
ATOM     83  F   UNL A   1      40.948  35.437  26.929  1.00  0.00    -0.206 F 
ATOM     84  C   UNL A   1      42.053  37.499  27.005  1.00  0.00     0.040 A 
ATOM     85  C   UNL A   1      43.427  38.074  28.887  1.00  0.00     0.040 A 
ATOM     86  F   UNL A   1      43.572  36.647  30.725  1.00  0.00    -0.206 F 
ATOM     87  C   UNL A   1      42.912  38.394  27.637  1.00  0.00     0.006 A 
ENDBRANCH  63  80
ENDBRANCH  37  38
ENDBRANCH  29  32
ENDBRANCH  27  28
ENDBRANCH  26  27
ENDBRANCH   1  26
TORSDOF 14
ENDMDL
