MODEL 1
REMARK VINA RESULT:     -11.8      0.000      0.000
REMARK SMILES COc1ccc2c(c1)C=C(C(=O)NCCCNC(=O)c1ccc(-c3c4nc(c(-c5c(F)cccc5F)c5ccc([nH]5)c(-c5c(F)cccc5F)c5nc(c(-c6c(F)cccc6F)c6ccc3[nH]6)C=C5)C=C4)cc1)[C@H](C(F)(F)F)O2
REMARK SMILES IDX 15 1 14 2 13 3 11 4 12 5 10 7 3 8 4 9 8 10 5 11 7 12 6 13
REMARK SMILES IDX 9 14 79 15 74 16 2 17 1 18 75 19 76 20 77 21 78 22 16 23
REMARK SMILES IDX 17 24 18 25 19 27 20 28 21 29 73 30 22 31 72 32 23 33 24 34
REMARK SMILES IDX 25 35 66 36 26 37 71 38 65 39 67 40 27 41 70 42 64 43 63 44
REMARK SMILES IDX 28 46 54 47 37 48 53 49 38 50 41 51 52 52 68 53 39 54 40 55
REMARK SMILES IDX 51 57 69 58 42 59 29 60 30 61 35 62 31 63 32 64 34 65 36 66
REMARK SMILES IDX 33 67 55 68 56 69 61 70 57 71 58 72 60 73 62 74 59 75 43 76
REMARK SMILES IDX 44 77 49 78 45 79 46 80 48 81 50 82 47 83
REMARK H PARENT 13 6 17 26 67 45 41 56
REMARK Flexibility Score: inf
ROOT
ATOM      1  C   UNL A   1      34.033  28.501  25.744  1.00  0.00     0.042 C 
ENDROOT
BRANCH   1   2
ATOM      2  C   UNL A   1      33.885  27.077  25.195  1.00  0.00     0.118 C 
BRANCH   2   3
ATOM      3  N   UNL A   1      34.066  27.059  23.751  1.00  0.00    -0.352 N 
ATOM      4  C   UNL A   1      33.206  27.188  22.707  1.00  0.00     0.251 C 
ATOM      5  O   UNL A   1      33.643  27.006  21.573  1.00  0.00    -0.270 OA
ATOM      6  H   UNL A   1      35.001  26.924  23.474  1.00  0.00     0.163 HD
BRANCH   4   7
ATOM      7  C   UNL A   1      31.789  27.602  22.873  1.00  0.00     0.067 C 
ATOM      8  C   UNL A   1      28.152  30.761  22.629  1.00  0.00     0.119 A 
ATOM      9  C   UNL A   1      27.243  29.761  22.969  1.00  0.00     0.050 A 
ATOM     10  C   UNL A   1      29.511  30.472  22.524  1.00  0.00     0.058 A 
ATOM     11  C   UNL A   1      27.705  28.468  23.228  1.00  0.00     0.051 A 
ATOM     12  C   UNL A   1      29.973  29.180  22.790  1.00  0.00     0.021 A 
ATOM     13  C   UNL A   1      29.068  28.181  23.141  1.00  0.00     0.128 A 
ATOM     14  C   UNL A   1      31.379  28.852  22.624  1.00  0.00     0.025 C 
ATOM     15  O   UNL A   1      29.433  26.884  23.343  1.00  0.00    -0.475 OA
ATOM     16  C   UNL A   1      30.851  26.580  23.511  1.00  0.00     0.314 C 
BRANCH   8  17
ATOM     17  O   UNL A   1      27.762  32.028  22.289  1.00  0.00    -0.497 OA
ATOM     18  C   UNL A   1      28.000  32.308  20.912  1.00  0.00     0.278 C 
ENDBRANCH   8  17
BRANCH  16  19
ATOM     19  C   UNL A   1      31.052  25.110  23.077  1.00  0.00     0.429 C 
ATOM     20  F   UNL A   1      31.965  24.460  23.833  1.00  0.00    -0.167 F 
ATOM     21  F   UNL A   1      29.900  24.400  23.214  1.00  0.00    -0.167 F 
ATOM     22  F   UNL A   1      31.425  25.003  21.782  1.00  0.00    -0.167 F 
ENDBRANCH  16  19
ENDBRANCH   4   7
ENDBRANCH   2   3
ENDBRANCH   1   2
BRANCH   1  23
ATOM     23  C   UNL A   1      33.831  28.599  27.256  1.00  0.00     0.118 C 
BRANCH  23  24
ATOM     24  N   UNL A   1      33.772  29.980  27.708  1.00  0.00    -0.352 N 
ATOM     25  C   UNL A   1      34.687  30.721  28.413  1.00  0.00     0.251 C 
ATOM     26  H   UNL A   1      32.945  30.459  27.471  1.00  0.00     0.163 HD
ATOM     27  O   UNL A   1      34.348  31.803  28.884  1.00  0.00    -0.269 OA
BRANCH  25  28
ATOM     28  C   UNL A   1      36.070  30.236  28.623  1.00  0.00     0.039 A 
ATOM     29  C   UNL A   1      36.963  30.282  27.547  1.00  0.00     0.014 A 
ATOM     30  C   UNL A   1      36.475  29.674  29.838  1.00  0.00     0.014 A 
ATOM     31  C   UNL A   1      38.272  29.815  27.702  1.00  0.00     0.010 A 
ATOM     32  C   UNL A   1      37.798  29.258  30.008  1.00  0.00     0.010 A 
ATOM     33  C   UNL A   1      38.707  29.322  28.942  1.00  0.00    -0.014 A 
BRANCH  33  34
ATOM     34  C   UNL A   1      40.114  28.885  29.141  1.00  0.00     0.031 A 
ATOM     35  C   UNL A   1      41.138  29.835  29.701  1.00  0.00     0.074 A 
ATOM     36  C   UNL A   1      40.485  27.650  28.752  1.00  0.00     0.049 A 
ATOM     37  N   UNL A   1      42.424  29.658  29.870  1.00  0.00    -0.248 NA
ATOM     38  C   UNL A   1      40.659  31.168  30.101  1.00  0.00     0.031 C 
ATOM     39  C   UNL A   1      39.598  26.652  28.149  1.00  0.00     0.029 A 
ATOM     40  N   UNL A   1      41.708  27.029  28.786  1.00  0.00    -0.354 N 
ATOM     41  C   UNL A   1      42.911  30.858  30.370  1.00  0.00     0.074 A 
ATOM     42  C   UNL A   1      41.789  31.768  30.450  1.00  0.00     0.031 C 
ATOM     43  C   UNL A   1      40.306  25.545  27.874  1.00  0.00     0.029 A 
ATOM     44  C   UNL A   1      41.699  25.764  28.251  1.00  0.00     0.049 A 
ATOM     45  H   UNL A   1      42.516  27.451  29.160  1.00  0.00     0.167 HD
ATOM     46  C   UNL A   1      44.176  31.168  30.743  1.00  0.00     0.037 A 
ATOM     47  C   UNL A   1      42.702  24.885  28.067  1.00  0.00     0.037 A 
ATOM     48  C   UNL A   1      45.284  30.249  30.702  1.00  0.00     0.049 A 
ATOM     49  C   UNL A   1      44.091  25.247  28.513  1.00  0.00     0.074 A 
ATOM     50  C   UNL A   1      46.582  30.445  31.143  1.00  0.00     0.029 A 
ATOM     51  N   UNL A   1      45.225  28.963  30.189  1.00  0.00    -0.354 N 
ATOM     52  N   UNL A   1      44.518  26.358  29.061  1.00  0.00    -0.248 NA
ATOM     53  C   UNL A   1      45.136  24.230  28.322  1.00  0.00     0.031 C 
ATOM     54  C   UNL A   1      47.318  29.291  30.861  1.00  0.00     0.029 A 
ATOM     55  C   UNL A   1      46.470  28.362  30.281  1.00  0.00     0.049 A 
ATOM     56  H   UNL A   1      44.419  28.539  29.816  1.00  0.00     0.167 HD
ATOM     57  C   UNL A   1      45.873  26.167  29.299  1.00  0.00     0.074 A 
ATOM     58  C   UNL A   1      46.193  24.828  28.853  1.00  0.00     0.031 C 
ATOM     59  C   UNL A   1      46.772  27.026  29.839  1.00  0.00     0.037 A 
BRANCH  46  60
ATOM     60  C   UNL A   1      44.441  32.561  31.234  1.00  0.00     0.057 A 
ATOM     61  C   UNL A   1      44.804  33.595  30.362  1.00  0.00     0.134 A 
ATOM     62  C   UNL A   1      44.264  32.885  32.584  1.00  0.00     0.134 A 
ATOM     63  F   UNL A   1      44.998  33.348  29.058  1.00  0.00    -0.206 F 
ATOM     64  C   UNL A   1      44.995  34.900  30.819  1.00  0.00     0.040 A 
ATOM     65  C   UNL A   1      44.429  34.191  33.049  1.00  0.00     0.040 A 
ATOM     66  F   UNL A   1      43.909  31.942  33.471  1.00  0.00    -0.206 F 
ATOM     67  C   UNL A   1      44.799  35.202  32.165  1.00  0.00     0.006 A 
ENDBRANCH  46  60
BRANCH  47  68
ATOM     68  C   UNL A   1      42.432  23.570  27.434  1.00  0.00     0.057 A 
ATOM     69  C   UNL A   1      42.083  22.454  28.202  1.00  0.00     0.134 A 
ATOM     70  C   UNL A   1      42.534  23.395  26.049  1.00  0.00     0.134 A 
ATOM     71  F   UNL A   1      41.988  22.556  29.536  1.00  0.00    -0.206 F 
ATOM     72  C   UNL A   1      41.867  21.204  27.620  1.00  0.00     0.040 A 
ATOM     73  C   UNL A   1      42.297  22.156  25.450  1.00  0.00     0.040 A 
ATOM     74  F   UNL A   1      42.857  24.427  25.257  1.00  0.00    -0.206 F 
ATOM     75  C   UNL A   1      41.971  21.054  26.238  1.00  0.00     0.006 A 
ENDBRANCH  47  68
BRANCH  59  76
ATOM     76  C   UNL A   1      48.179  26.533  29.999  1.00  0.00     0.057 A 
ATOM     77  C   UNL A   1      49.150  26.746  29.013  1.00  0.00     0.134 A 
ATOM     78  C   UNL A   1      48.574  25.870  31.167  1.00  0.00     0.134 A 
ATOM     79  F   UNL A   1      48.831  27.363  27.866  1.00  0.00    -0.206 F 
ATOM     80  C   UNL A   1      50.463  26.298  29.176  1.00  0.00     0.040 A 
ATOM     81  C   UNL A   1      49.889  25.439  31.351  1.00  0.00     0.040 A 
ATOM     82  F   UNL A   1      47.692  25.641  32.152  1.00  0.00    -0.206 F 
ATOM     83  C   UNL A   1      50.836  25.649  30.351  1.00  0.00     0.006 A 
ENDBRANCH  59  76
ENDBRANCH  33  34
ENDBRANCH  25  28
ENDBRANCH  23  24
ENDBRANCH   1  23
TORSDOF 12
ENDMDL
MODEL 2
REMARK VINA RESULT:     -11.7      2.882      4.632
REMARK SMILES COc1ccc2c(c1)C=C(C(=O)NCCCNC(=O)c1ccc(-c3c4nc(c(-c5c(F)cccc5F)c5ccc([nH]5)c(-c5c(F)cccc5F)c5nc(c(-c6c(F)cccc6F)c6ccc3[nH]6)C=C5)C=C4)cc1)[C@H](C(F)(F)F)O2
REMARK SMILES IDX 15 1 14 2 13 3 11 4 12 5 10 7 3 8 4 9 8 10 5 11 7 12 6 13
REMARK SMILES IDX 9 14 79 15 74 16 2 17 1 18 75 19 76 20 77 21 78 22 16 23
REMARK SMILES IDX 17 24 18 25 19 27 20 28 21 29 73 30 22 31 72 32 23 33 24 34
REMARK SMILES IDX 25 35 66 36 26 37 71 38 65 39 67 40 27 41 70 42 64 43 63 44
REMARK SMILES IDX 28 46 54 47 37 48 53 49 38 50 41 51 52 52 68 53 39 54 40 55
REMARK SMILES IDX 51 57 69 58 42 59 29 60 30 61 35 62 31 63 32 64 34 65 36 66
REMARK SMILES IDX 33 67 55 68 56 69 61 70 57 71 58 72 60 73 62 74 59 75 43 76
REMARK SMILES IDX 44 77 49 78 45 79 46 80 48 81 50 82 47 83
REMARK H PARENT 13 6 17 26 67 45 41 56
REMARK Flexibility Score: inf
ROOT
ATOM      1  C   UNL A   1      32.982  28.089  26.973  1.00  0.00     0.042 C 
ENDROOT
BRANCH   1   2
ATOM      2  C   UNL A   1      31.722  27.782  26.156  1.00  0.00     0.118 C 
BRANCH   2   3
ATOM      3  N   UNL A   1      31.082  26.564  26.632  1.00  0.00    -0.352 N 
ATOM      4  C   UNL A   1      31.291  25.246  26.376  1.00  0.00     0.251 C 
ATOM      5  O   UNL A   1      30.497  24.434  26.845  1.00  0.00    -0.270 OA
ATOM      6  H   UNL A   1      30.348  26.728  27.267  1.00  0.00     0.163 HD
BRANCH   4   7
ATOM      7  C   UNL A   1      32.466  24.746  25.617  1.00  0.00     0.067 C 
ATOM      8  C   UNL A   1      36.766  22.594  25.232  1.00  0.00     0.119 A 
ATOM      9  C   UNL A   1      36.681  22.645  23.842  1.00  0.00     0.050 A 
ATOM     10  C   UNL A   1      35.738  23.109  26.019  1.00  0.00     0.058 A 
ATOM     11  C   UNL A   1      35.568  23.237  23.239  1.00  0.00     0.051 A 
ATOM     12  C   UNL A   1      34.628  23.707  25.415  1.00  0.00     0.021 A 
ATOM     13  C   UNL A   1      34.546  23.769  24.027  1.00  0.00     0.128 A 
ATOM     14  C   UNL A   1      33.522  24.190  26.225  1.00  0.00     0.025 C 
ATOM     15  O   UNL A   1      33.464  24.270  23.367  1.00  0.00    -0.475 OA
ATOM     16  C   UNL A   1      32.494  25.056  24.122  1.00  0.00     0.314 C 
BRANCH   8  17
ATOM     17  O   UNL A   1      37.789  21.963  25.886  1.00  0.00    -0.497 OA
ATOM     18  C   UNL A   1      38.841  22.863  26.225  1.00  0.00     0.278 C 
ENDBRANCH   8  17
BRANCH  16  19
ATOM     19  C   UNL A   1      31.142  24.938  23.379  1.00  0.00     0.429 C 
ATOM     20  F   UNL A   1      30.314  25.975  23.631  1.00  0.00    -0.167 F 
ATOM     21  F   UNL A   1      31.325  24.941  22.031  1.00  0.00    -0.167 F 
ATOM     22  F   UNL A   1      30.488  23.793  23.681  1.00  0.00    -0.167 F 
ENDBRANCH  16  19
ENDBRANCH   4   7
ENDBRANCH   2   3
ENDBRANCH   1   2
BRANCH   1  23
ATOM     23  C   UNL A   1      33.973  29.002  26.251  1.00  0.00     0.118 C 
BRANCH  23  24
ATOM     24  N   UNL A   1      33.902  30.373  26.734  1.00  0.00    -0.352 N 
ATOM     25  C   UNL A   1      34.647  31.013  27.693  1.00  0.00     0.251 C 
ATOM     26  H   UNL A   1      33.211  30.928  26.306  1.00  0.00     0.163 HD
ATOM     27  O   UNL A   1      34.279  32.109  28.105  1.00  0.00    -0.269 OA
BRANCH  25  28
ATOM     28  C   UNL A   1      35.878  30.402  28.243  1.00  0.00     0.039 A 
ATOM     29  C   UNL A   1      37.058  30.491  27.497  1.00  0.00     0.014 A 
ATOM     30  C   UNL A   1      35.869  29.687  29.445  1.00  0.00     0.014 A 
ATOM     31  C   UNL A   1      38.236  29.909  27.976  1.00  0.00     0.010 A 
ATOM     32  C   UNL A   1      37.058  29.154  29.949  1.00  0.00     0.010 A 
ATOM     33  C   UNL A   1      38.251  29.258  29.219  1.00  0.00    -0.014 A 
BRANCH  33  34
ATOM     34  C   UNL A   1      39.510  28.694  29.773  1.00  0.00     0.031 A 
ATOM     35  C   UNL A   1      40.180  29.337  30.957  1.00  0.00     0.074 A 
ATOM     36  C   UNL A   1      40.088  27.641  29.164  1.00  0.00     0.049 A 
ATOM     37  N   UNL A   1      41.320  29.035  31.526  1.00  0.00    -0.248 NA
ATOM     38  C   UNL A   1      39.491  30.486  31.567  1.00  0.00     0.031 C 
ATOM     39  C   UNL A   1      39.565  26.959  27.978  1.00  0.00     0.029 A 
ATOM     40  N   UNL A   1      41.253  26.971  29.445  1.00  0.00    -0.354 N 
ATOM     41  C   UNL A   1      41.497  29.966  32.541  1.00  0.00     0.074 A 
ATOM     42  C   UNL A   1      40.363  30.864  32.492  1.00  0.00     0.031 C 
ATOM     43  C   UNL A   1      40.403  25.967  27.636  1.00  0.00     0.029 A 
ATOM     44  C   UNL A   1      41.535  25.962  28.557  1.00  0.00     0.049 A 
ATOM     45  H   UNL A   1      41.829  27.192  30.211  1.00  0.00     0.167 HD
ATOM     46  C   UNL A   1      42.506  30.056  33.440  1.00  0.00     0.037 A 
ATOM     47  C   UNL A   1      42.596  25.135  28.481  1.00  0.00     0.037 A 
ATOM     48  C   UNL A   1      43.612  29.138  33.514  1.00  0.00     0.049 A 
ATOM     49  C   UNL A   1      43.688  25.242  29.508  1.00  0.00     0.074 A 
ATOM     50  C   UNL A   1      44.635  29.095  34.447  1.00  0.00     0.029 A 
ATOM     51  N   UNL A   1      43.843  28.104  32.620  1.00  0.00    -0.354 N 
ATOM     52  N   UNL A   1      43.799  26.076  30.512  1.00  0.00    -0.248 NA
ATOM     53  C   UNL A   1      44.800  24.286  29.396  1.00  0.00     0.031 C 
ATOM     54  C   UNL A   1      45.505  28.060  34.094  1.00  0.00     0.029 A 
ATOM     55  C   UNL A   1      45.004  27.432  32.966  1.00  0.00     0.049 A 
ATOM     56  H   UNL A   1      43.267  27.880  31.854  1.00  0.00     0.167 HD
ATOM     57  C   UNL A   1      44.977  25.734  31.162  1.00  0.00     0.074 A 
ATOM     58  C   UNL A   1      45.537  24.605  30.450  1.00  0.00     0.031 C 
ATOM     59  C   UNL A   1      45.545  26.306  32.251  1.00  0.00     0.037 A 
BRANCH  46  60
ATOM     60  C   UNL A   1      42.466  31.184  34.428  1.00  0.00     0.057 A 
ATOM     61  C   UNL A   1      41.854  31.050  35.680  1.00  0.00     0.134 A 
ATOM     62  C   UNL A   1      43.108  32.398  34.149  1.00  0.00     0.134 A 
ATOM     63  F   UNL A   1      41.214  29.916  36.004  1.00  0.00    -0.206 F 
ATOM     64  C   UNL A   1      41.868  32.086  36.614  1.00  0.00     0.040 A 
ATOM     65  C   UNL A   1      43.150  33.433  35.084  1.00  0.00     0.040 A 
ATOM     66  F   UNL A   1      43.721  32.589  32.971  1.00  0.00    -0.206 F 
ATOM     67  C   UNL A   1      42.525  33.280  36.320  1.00  0.00     0.006 A 
ENDBRANCH  46  60
BRANCH  47  68
ATOM     68  C   UNL A   1      42.678  24.128  27.394  1.00  0.00     0.057 A 
ATOM     69  C   UNL A   1      42.233  22.815  27.589  1.00  0.00     0.134 A 
ATOM     70  C   UNL A   1      43.217  24.449  26.143  1.00  0.00     0.134 A 
ATOM     71  F   UNL A   1      41.725  22.443  28.772  1.00  0.00    -0.206 F 
ATOM     72  C   UNL A   1      42.344  21.850  26.586  1.00  0.00     0.040 A 
ATOM     73  C   UNL A   1      43.311  23.501  25.123  1.00  0.00     0.040 A 
ATOM     74  F   UNL A   1      43.652  25.692  25.892  1.00  0.00    -0.206 F 
ATOM     75  C   UNL A   1      42.881  22.194  25.347  1.00  0.00     0.006 A 
ENDBRANCH  47  68
BRANCH  59  76
ATOM     76  C   UNL A   1      46.823  25.703  32.753  1.00  0.00     0.057 A 
ATOM     77  C   UNL A   1      48.072  26.120  32.274  1.00  0.00     0.134 A 
ATOM     78  C   UNL A   1      46.805  24.722  33.751  1.00  0.00     0.134 A 
ATOM     79  F   UNL A   1      48.155  27.047  31.308  1.00  0.00    -0.206 F 
ATOM     80  C   UNL A   1      49.258  25.565  32.757  1.00  0.00     0.040 A 
ATOM     81  C   UNL A   1      47.986  24.177  34.259  1.00  0.00     0.040 A 
ATOM     82  F   UNL A   1      45.642  24.285  34.257  1.00  0.00    -0.206 F 
ATOM     83  C   UNL A   1      49.217  24.596  33.757  1.00  0.00     0.006 A 
ENDBRANCH  59  76
ENDBRANCH  33  34
ENDBRANCH  25  28
ENDBRANCH  23  24
ENDBRANCH   1  23
TORSDOF 12
ENDMDL
MODEL 3
REMARK VINA RESULT:     -11.7      1.914      4.153
REMARK SMILES COc1ccc2c(c1)C=C(C(=O)NCCCNC(=O)c1ccc(-c3c4nc(c(-c5c(F)cccc5F)c5ccc([nH]5)c(-c5c(F)cccc5F)c5nc(c(-c6c(F)cccc6F)c6ccc3[nH]6)C=C5)C=C4)cc1)[C@H](C(F)(F)F)O2
REMARK SMILES IDX 15 1 14 2 13 3 11 4 12 5 10 7 3 8 4 9 8 10 5 11 7 12 6 13
REMARK SMILES IDX 9 14 79 15 74 16 2 17 1 18 75 19 76 20 77 21 78 22 16 23
REMARK SMILES IDX 17 24 18 25 19 27 20 28 21 29 73 30 22 31 72 32 23 33 24 34
REMARK SMILES IDX 25 35 66 36 26 37 71 38 65 39 67 40 27 41 70 42 64 43 63 44
REMARK SMILES IDX 28 46 54 47 37 48 53 49 38 50 41 51 52 52 68 53 39 54 40 55
REMARK SMILES IDX 51 57 69 58 42 59 29 60 30 61 35 62 31 63 32 64 34 65 36 66
REMARK SMILES IDX 33 67 55 68 56 69 61 70 57 71 58 72 60 73 62 74 59 75 43 76
REMARK SMILES IDX 44 77 49 78 45 79 46 80 48 81 50 82 47 83
REMARK H PARENT 13 6 17 26 67 45 41 56
REMARK Flexibility Score: inf
ROOT
ATOM      1  C   UNL A   1      34.049  28.594  25.600  1.00  0.00     0.042 C 
ENDROOT
BRANCH   1   2
ATOM      2  C   UNL A   1      32.706  28.790  24.888  1.00  0.00     0.118 C 
BRANCH   2   3
ATOM      3  N   UNL A   1      31.737  27.797  25.329  1.00  0.00    -0.352 N 
ATOM      4  C   UNL A   1      31.667  26.447  25.195  1.00  0.00     0.251 C 
ATOM      5  O   UNL A   1      30.645  25.881  25.578  1.00  0.00    -0.270 OA
ATOM      6  H   UNL A   1      30.978  28.182  25.825  1.00  0.00     0.163 HD
BRANCH   4   7
ATOM      7  C   UNL A   1      32.789  25.626  24.670  1.00  0.00     0.067 C 
ATOM      8  C   UNL A   1      36.580  22.682  25.144  1.00  0.00     0.119 A 
ATOM      9  C   UNL A   1      36.653  22.531  23.760  1.00  0.00     0.050 A 
ATOM     10  C   UNL A   1      35.601  23.493  25.713  1.00  0.00     0.058 A 
ATOM     11  C   UNL A   1      35.751  23.219  22.943  1.00  0.00     0.051 A 
ATOM     12  C   UNL A   1      34.704  24.186  24.895  1.00  0.00     0.021 A 
ATOM     13  C   UNL A   1      34.782  24.046  23.512  1.00  0.00     0.128 A 
ATOM     14  C   UNL A   1      33.641  24.985  25.480  1.00  0.00     0.025 C 
ATOM     15  O   UNL A   1      33.898  24.631  22.654  1.00  0.00    -0.475 OA
ATOM     16  C   UNL A   1      33.034  25.690  23.164  1.00  0.00     0.314 C 
BRANCH   8  17
ATOM     17  O   UNL A   1      37.380  21.981  26.004  1.00  0.00    -0.497 OA
ATOM     18  C   UNL A   1      38.696  22.524  26.072  1.00  0.00     0.278 C 
ENDBRANCH   8  17
BRANCH  16  19
ATOM     19  C   UNL A   1      31.771  25.712  22.271  1.00  0.00     0.429 C 
ATOM     20  F   UNL A   1      31.153  26.913  22.266  1.00  0.00    -0.167 F 
ATOM     21  F   UNL A   1      32.090  25.463  20.972  1.00  0.00    -0.167 F 
ATOM     22  F   UNL A   1      30.868  24.774  22.637  1.00  0.00    -0.167 F 
ENDBRANCH  16  19
ENDBRANCH   4   7
ENDBRANCH   2   3
ENDBRANCH   1   2
BRANCH   1  23
ATOM     23  C   UNL A   1      33.945  28.629  27.125  1.00  0.00     0.118 C 
BRANCH  23  24
ATOM     24  N   UNL A   1      33.857  29.989  27.633  1.00  0.00    -0.352 N 
ATOM     25  C   UNL A   1      34.745  30.709  28.393  1.00  0.00     0.251 C 
ATOM     26  H   UNL A   1      33.032  30.469  27.394  1.00  0.00     0.163 HD
ATOM     27  O   UNL A   1      34.381  31.766  28.900  1.00  0.00    -0.269 OA
BRANCH  25  28
ATOM     28  C   UNL A   1      36.127  30.229  28.620  1.00  0.00     0.039 A 
ATOM     29  C   UNL A   1      37.038  30.293  27.559  1.00  0.00     0.014 A 
ATOM     30  C   UNL A   1      36.516  29.656  29.835  1.00  0.00     0.014 A 
ATOM     31  C   UNL A   1      38.346  29.832  27.731  1.00  0.00     0.010 A 
ATOM     32  C   UNL A   1      37.838  29.246  30.022  1.00  0.00     0.010 A 
ATOM     33  C   UNL A   1      38.765  29.328  28.972  1.00  0.00    -0.014 A 
BRANCH  33  34
ATOM     34  C   UNL A   1      40.170  28.897  29.189  1.00  0.00     0.031 A 
ATOM     35  C   UNL A   1      41.180  29.847  29.774  1.00  0.00     0.074 A 
ATOM     36  C   UNL A   1      40.554  27.668  28.793  1.00  0.00     0.049 A 
ATOM     37  N   UNL A   1      42.464  29.675  29.962  1.00  0.00    -0.248 NA
ATOM     38  C   UNL A   1      40.687  31.173  30.180  1.00  0.00     0.031 C 
ATOM     39  C   UNL A   1      39.683  26.671  28.166  1.00  0.00     0.029 A 
ATOM     40  N   UNL A   1      41.781  27.053  28.841  1.00  0.00    -0.354 N 
ATOM     41  C   UNL A   1      42.936  30.873  30.482  1.00  0.00     0.074 A 
ATOM     42  C   UNL A   1      41.808  31.776  30.553  1.00  0.00     0.031 C 
ATOM     43  C   UNL A   1      40.402  25.571  27.891  1.00  0.00     0.029 A 
ATOM     44  C   UNL A   1      41.787  25.794  28.292  1.00  0.00     0.049 A 
ATOM     45  H   UNL A   1      42.580  27.476  29.232  1.00  0.00     0.167 HD
ATOM     46  C   UNL A   1      44.194  31.186  30.878  1.00  0.00     0.037 A 
ATOM     47  C   UNL A   1      42.799  24.922  28.116  1.00  0.00     0.037 A 
ATOM     48  C   UNL A   1      45.307  30.274  30.846  1.00  0.00     0.049 A 
ATOM     49  C   UNL A   1      44.178  25.288  28.587  1.00  0.00     0.074 A 
ATOM     50  C   UNL A   1      46.596  30.472  31.309  1.00  0.00     0.029 A 
ATOM     51  N   UNL A   1      45.264  28.993  30.319  1.00  0.00    -0.354 N 
ATOM     52  N   UNL A   1      44.590  26.395  29.153  1.00  0.00    -0.248 NA
ATOM     53  C   UNL A   1      45.232  24.279  28.403  1.00  0.00     0.031 C 
ATOM     54  C   UNL A   1      47.344  29.326  31.027  1.00  0.00     0.029 A 
ATOM     55  C   UNL A   1      46.511  28.398  30.424  1.00  0.00     0.049 A 
ATOM     56  H   UNL A   1      44.466  28.568  29.928  1.00  0.00     0.167 HD
ATOM     57  C   UNL A   1      45.942  26.210  29.411  1.00  0.00     0.074 A 
ATOM     58  C   UNL A   1      46.277  24.877  28.957  1.00  0.00     0.031 C 
ATOM     59  C   UNL A   1      46.827  27.068  29.973  1.00  0.00     0.037 A 
BRANCH  46  60
ATOM     60  C   UNL A   1      44.442  32.575  31.387  1.00  0.00     0.057 A 
ATOM     61  C   UNL A   1      44.295  32.903  32.741  1.00  0.00     0.134 A 
ATOM     62  C   UNL A   1      44.898  33.579  30.524  1.00  0.00     0.134 A 
ATOM     63  F   UNL A   1      43.852  31.989  33.617  1.00  0.00    -0.206 F 
ATOM     64  C   UNL A   1      44.581  34.185  33.215  1.00  0.00     0.040 A 
ATOM     65  C   UNL A   1      45.210  34.857  30.991  1.00  0.00     0.040 A 
ATOM     66  F   UNL A   1      45.068  33.329  29.216  1.00  0.00    -0.206 F 
ATOM     67  C   UNL A   1      45.047  35.164  32.340  1.00  0.00     0.006 A 
ENDBRANCH  46  60
BRANCH  47  68
ATOM     68  C   UNL A   1      42.547  23.613  27.465  1.00  0.00     0.057 A 
ATOM     69  C   UNL A   1      42.656  23.461  26.078  1.00  0.00     0.134 A 
ATOM     70  C   UNL A   1      42.176  22.488  28.211  1.00  0.00     0.134 A 
ATOM     71  F   UNL A   1      42.990  24.507  25.309  1.00  0.00    -0.206 F 
ATOM     72  C   UNL A   1      42.381  22.244  25.452  1.00  0.00     0.040 A 
ATOM     73  C   UNL A   1      41.922  21.258  27.601  1.00  0.00     0.040 A 
ATOM     74  F   UNL A   1      42.062  22.567  29.544  1.00  0.00    -0.206 F 
ATOM     75  C   UNL A   1      42.016  21.136  26.216  1.00  0.00     0.006 A 
ENDBRANCH  47  68
BRANCH  59  76
ATOM     76  C   UNL A   1      48.234  26.582  30.151  1.00  0.00     0.057 A 
ATOM     77  C   UNL A   1      48.629  25.873  31.292  1.00  0.00     0.134 A 
ATOM     78  C   UNL A   1      49.194  26.796  29.155  1.00  0.00     0.134 A 
ATOM     79  F   UNL A   1      47.760  25.648  32.288  1.00  0.00    -0.206 F 
ATOM     80  C   UNL A   1      49.938  25.409  31.444  1.00  0.00     0.040 A 
ATOM     81  C   UNL A   1      50.499  26.316  29.284  1.00  0.00     0.040 A 
ATOM     82  F   UNL A   1      48.877  27.462  28.034  1.00  0.00    -0.206 F 
ATOM     83  C   UNL A   1      50.874  25.625  30.435  1.00  0.00     0.006 A 
ENDBRANCH  59  76
ENDBRANCH  33  34
ENDBRANCH  25  28
ENDBRANCH  23  24
ENDBRANCH   1  23
TORSDOF 12
ENDMDL
