MODEL 1
REMARK VINA RESULT:     -13.2      0.000      0.000
REMARK SMILES Cc1cccc(-c2ncc(C[NH+]3CCC4(CC3)NC(=O)C[C@H]4C(=O)NCCCNC(=O)c3ccc(-c4c5nc(c(-c6c(F)cccc6F)c6ccc([nH]6)c(-c6c(F)cccc6F)c6nc(c(-c7c(F)cccc7F)c7ccc4[nH]7)C=C6)C=C5)cc3)cn2)c1
REMARK SMILES IDX 26 1 25 2 23 3 24 4 22 6 12 7 13 8 17 9 14 11 16 12 15 13
REMARK SMILES IDX 18 14 19 15 21 17 20 18 11 19 10 20 7 21 8 22 87 23 9 24
REMARK SMILES IDX 86 25 6 26 1 27 2 28 3 29 88 30 4 31 5 32 27 33 28 34 29 35
REMARK SMILES IDX 30 36 31 38 32 39 33 40 85 41 34 42 84 43 35 44 36 45 37 46
REMARK SMILES IDX 78 47 38 48 83 49 77 50 79 51 39 52 82 53 76 54 75 55 40 57
REMARK SMILES IDX 66 58 49 59 65 60 50 61 53 62 64 63 80 64 51 65 52 66 63 68
REMARK SMILES IDX 81 69 54 70 41 71 42 72 47 73 43 74 44 75 46 76 48 77 45 78
REMARK SMILES IDX 67 79 68 80 73 81 69 82 70 83 72 84 74 85 71 86 55 87 56 88
REMARK SMILES IDX 61 89 57 90 58 91 60 92 62 93 59 94
REMARK H PARENT 25 5 12 10 18 16 29 37 79 56 53 67
REMARK Flexibility Score: inf
ROOT
ATOM      1  C   UNL A   1      31.049  29.839  25.701  1.00  0.00     0.117 C 
ENDROOT
BRANCH   1   2
ATOM      2  N   UNL A   1      30.811  29.652  24.269  1.00  0.00    -0.356 N 
ATOM      3  C   UNL A   1      31.347  28.850  23.301  1.00  0.00     0.226 C 
ATOM      4  O   UNL A   1      30.820  28.929  22.184  1.00  0.00    -0.275 OA
ATOM      5  H   UNL A   1      30.101  30.239  23.923  1.00  0.00     0.163 HD
BRANCH   3   6
ATOM      6  C   UNL A   1      32.586  27.945  23.457  1.00  0.00     0.114 C 
ATOM      7  N   UNL A   1      31.761  25.403  26.655  1.00  0.00    -0.331 N 
ATOM      8  C   UNL A   1      33.145  25.625  26.257  1.00  0.00     0.264 C 
ATOM      9  C   UNL A   1      30.897  26.400  26.058  1.00  0.00     0.264 C 
ATOM     10  H   UNL A   1      31.776  25.546  27.665  1.00  0.00     0.348 HD
ATOM     11  C   UNL A   1      33.415  25.796  24.754  1.00  0.00     0.091 C 
ATOM     12  C   UNL A   1      30.931  26.337  24.545  1.00  0.00     0.091 C 
ATOM     13  C   UNL A   1      32.311  26.487  23.897  1.00  0.00     0.063 C 
ATOM     14  N   UNL A   1      32.390  25.807  22.609  1.00  0.00    -0.349 N 
ATOM     15  C   UNL A   1      33.108  26.487  21.648  1.00  0.00     0.221 C 
ATOM     16  H   UNL A   1      31.966  24.935  22.440  1.00  0.00     0.164 HD
ATOM     17  C   UNL A   1      33.391  27.873  22.159  1.00  0.00     0.116 C 
ATOM     18  O   UNL A   1      33.427  26.043  20.569  1.00  0.00    -0.275 OA
BRANCH   7  19
ATOM     19  C   UNL A   1      31.225  24.029  26.738  1.00  0.00     0.302 C 
BRANCH  19  20
ATOM     20  C   UNL A   1      31.970  22.939  26.016  1.00  0.00     0.043 A 
ATOM     21  C   UNL A   1      32.862  20.641  24.851  1.00  0.00     0.159 A 
ATOM     22  N   UNL A   1      32.084  21.463  24.120  1.00  0.00    -0.236 NA
ATOM     23  N   UNL A   1      33.309  20.922  26.092  1.00  0.00    -0.236 NA
ATOM     24  C   UNL A   1      31.700  22.616  24.706  1.00  0.00     0.124 A 
ATOM     25  C   UNL A   1      32.858  22.076  26.642  1.00  0.00     0.124 A 
BRANCH  21  26
ATOM     26  C   UNL A   1      33.119  19.303  24.299  1.00  0.00     0.019 A 
ATOM     27  C   UNL A   1      35.241  16.207  25.113  1.00  0.00     0.044 C 
ATOM     28  C   UNL A   1      34.267  17.124  24.431  1.00  0.00    -0.050 A 
ATOM     29  C   UNL A   1      33.603  16.713  23.275  1.00  0.00     0.003 A 
ATOM     30  C   UNL A   1      33.994  18.401  24.942  1.00  0.00     0.015 A 
ATOM     31  C   UNL A   1      32.722  17.579  22.626  1.00  0.00     0.001 A 
ATOM     32  C   UNL A   1      32.498  18.869  23.123  1.00  0.00     0.012 A 
ENDBRANCH  21  26
ENDBRANCH  19  20
ENDBRANCH   7  19
ENDBRANCH   3   6
ENDBRANCH   1   2
BRANCH   1  33
ATOM     33  C   UNL A   1      31.585  31.208  26.111  1.00  0.00     0.042 C 
BRANCH  33  34
ATOM     34  C   UNL A   1      32.816  31.188  27.003  1.00  0.00     0.118 C 
BRANCH  34  35
ATOM     35  N   UNL A   1      33.598  29.962  26.809  1.00  0.00    -0.352 N 
ATOM     36  C   UNL A   1      34.815  29.547  27.319  1.00  0.00     0.251 C 
ATOM     37  H   UNL A   1      33.178  29.313  26.199  1.00  0.00     0.163 HD
ATOM     38  O   UNL A   1      35.263  28.444  27.024  1.00  0.00    -0.269 OA
BRANCH  36  39
ATOM     39  C   UNL A   1      35.470  30.340  28.381  1.00  0.00     0.039 A 
ATOM     40  C   UNL A   1      36.334  31.335  27.907  1.00  0.00     0.014 A 
ATOM     41  C   UNL A   1      35.655  29.759  29.626  1.00  0.00     0.014 A 
ATOM     42  C   UNL A   1      37.593  31.432  28.469  1.00  0.00     0.010 A 
ATOM     43  C   UNL A   1      36.942  29.745  30.100  1.00  0.00     0.010 A 
ATOM     44  C   UNL A   1      37.918  30.513  29.456  1.00  0.00    -0.014 A 
BRANCH  44  45
ATOM     45  C   UNL A   1      39.262  30.316  29.947  1.00  0.00     0.031 A 
ATOM     46  C   UNL A   1      39.900  29.052  29.570  1.00  0.00     0.074 A 
ATOM     47  C   UNL A   1      39.886  31.320  30.601  1.00  0.00     0.049 A 
ATOM     48  N   UNL A   1      40.871  28.511  30.206  1.00  0.00    -0.248 NA
ATOM     49  C   UNL A   1      39.428  28.245  28.446  1.00  0.00     0.031 C 
ATOM     50  C   UNL A   1      41.301  31.443  30.933  1.00  0.00     0.029 A 
ATOM     51  N   UNL A   1      39.282  32.386  31.281  1.00  0.00    -0.354 N 
ATOM     52  C   UNL A   1      41.354  27.489  29.419  1.00  0.00     0.074 A 
ATOM     53  C   UNL A   1      40.364  27.296  28.393  1.00  0.00     0.031 C 
ATOM     54  C   UNL A   1      41.434  32.300  31.961  1.00  0.00     0.029 A 
ATOM     55  C   UNL A   1      40.094  32.636  32.412  1.00  0.00     0.049 A 
ATOM     56  H   UNL A   1      38.461  32.865  31.024  1.00  0.00     0.167 HD
ATOM     57  C   UNL A   1      42.623  27.055  29.648  1.00  0.00     0.037 A 
ATOM     58  C   UNL A   1      39.613  32.407  33.670  1.00  0.00     0.037 A 
ATOM     59  C   UNL A   1      43.173  27.749  30.811  1.00  0.00     0.049 A 
ATOM     60  C   UNL A   1      40.378  31.310  34.376  1.00  0.00     0.074 A 
ATOM     61  C   UNL A   1      43.944  28.895  30.926  1.00  0.00     0.029 A 
ATOM     62  N   UNL A   1      42.595  27.536  32.057  1.00  0.00    -0.354 N 
ATOM     63  N   UNL A   1      41.011  30.346  33.761  1.00  0.00    -0.248 NA
ATOM     64  C   UNL A   1      40.548  31.254  35.825  1.00  0.00     0.031 C 
ATOM     65  C   UNL A   1      43.784  29.398  32.243  1.00  0.00     0.029 A 
ATOM     66  C   UNL A   1      42.934  28.548  32.932  1.00  0.00     0.049 A 
ATOM     67  H   UNL A   1      42.023  26.768  32.286  1.00  0.00     0.167 HD
ATOM     68  C   UNL A   1      41.687  29.579  34.679  1.00  0.00     0.074 A 
ATOM     69  C   UNL A   1      41.364  30.194  35.954  1.00  0.00     0.031 C 
ATOM     70  C   UNL A   1      42.478  28.522  34.314  1.00  0.00     0.037 A 
BRANCH  57  71
ATOM     71  C   UNL A   1      43.451  26.276  28.656  1.00  0.00     0.057 A 
ATOM     72  C   UNL A   1      44.162  26.951  27.643  1.00  0.00     0.134 A 
ATOM     73  C   UNL A   1      43.562  24.875  28.602  1.00  0.00     0.134 A 
ATOM     74  F   UNL A   1      44.221  28.288  27.592  1.00  0.00    -0.206 F 
ATOM     75  C   UNL A   1      44.851  26.289  26.619  1.00  0.00     0.040 A 
ATOM     76  C   UNL A   1      44.211  24.198  27.559  1.00  0.00     0.040 A 
ATOM     77  F   UNL A   1      43.096  24.093  29.583  1.00  0.00    -0.206 F 
ATOM     78  C   UNL A   1      44.856  24.905  26.557  1.00  0.00     0.006 A 
ENDBRANCH  57  71
BRANCH  58  79
ATOM     79  C   UNL A   1      38.149  32.681  33.764  1.00  0.00     0.057 A 
ATOM     80  C   UNL A   1      37.743  34.033  33.759  1.00  0.00     0.134 A 
ATOM     81  C   UNL A   1      37.198  31.737  33.369  1.00  0.00     0.134 A 
ATOM     82  F   UNL A   1      38.597  34.992  34.153  1.00  0.00    -0.206 F 
ATOM     83  C   UNL A   1      36.528  34.440  33.200  1.00  0.00     0.040 A 
ATOM     84  C   UNL A   1      35.963  32.135  32.838  1.00  0.00     0.040 A 
ATOM     85  F   UNL A   1      37.495  30.430  33.357  1.00  0.00    -0.206 F 
ATOM     86  C   UNL A   1      35.655  33.487  32.690  1.00  0.00     0.006 A 
ENDBRANCH  58  79
BRANCH  70  87
ATOM     87  C   UNL A   1      42.995  27.414  35.216  1.00  0.00     0.057 A 
ATOM     88  C   UNL A   1      44.186  27.472  35.953  1.00  0.00     0.134 A 
ATOM     89  C   UNL A   1      42.196  26.273  35.492  1.00  0.00     0.134 A 
ATOM     90  F   UNL A   1      44.994  28.538  35.913  1.00  0.00    -0.206 F 
ATOM     91  C   UNL A   1      44.584  26.453  36.831  1.00  0.00     0.040 A 
ATOM     92  C   UNL A   1      42.547  25.293  36.424  1.00  0.00     0.040 A 
ATOM     93  F   UNL A   1      41.015  26.061  34.895  1.00  0.00    -0.206 F 
ATOM     94  C   UNL A   1      43.759  25.367  37.083  1.00  0.00     0.006 A 
ENDBRANCH  70  87
ENDBRANCH  44  45
ENDBRANCH  36  39
ENDBRANCH  34  35
ENDBRANCH  33  34
ENDBRANCH   1  33
TORSDOF 13
ENDMDL
MODEL 2
REMARK VINA RESULT:     -13.1      2.309      3.830
REMARK SMILES Cc1cccc(-c2ncc(C[NH+]3CCC4(CC3)NC(=O)C[C@H]4C(=O)NCCCNC(=O)c3ccc(-c4c5nc(c(-c6c(F)cccc6F)c6ccc([nH]6)c(-c6c(F)cccc6F)c6nc(c(-c7c(F)cccc7F)c7ccc4[nH]7)C=C6)C=C5)cc3)cn2)c1
REMARK SMILES IDX 26 1 25 2 23 3 24 4 22 6 12 7 13 8 17 9 14 11 16 12 15 13
REMARK SMILES IDX 18 14 19 15 21 17 20 18 11 19 10 20 7 21 8 22 87 23 9 24
REMARK SMILES IDX 86 25 6 26 1 27 2 28 3 29 88 30 4 31 5 32 27 33 28 34 29 35
REMARK SMILES IDX 30 36 31 38 32 39 33 40 85 41 34 42 84 43 35 44 36 45 37 46
REMARK SMILES IDX 78 47 38 48 83 49 77 50 79 51 39 52 82 53 76 54 75 55 40 57
REMARK SMILES IDX 66 58 49 59 65 60 50 61 53 62 64 63 80 64 51 65 52 66 63 68
REMARK SMILES IDX 81 69 54 70 41 71 42 72 47 73 43 74 44 75 46 76 48 77 45 78
REMARK SMILES IDX 67 79 68 80 73 81 69 82 70 83 72 84 74 85 71 86 55 87 56 88
REMARK SMILES IDX 61 89 57 90 58 91 60 92 62 93 59 94
REMARK H PARENT 25 5 12 10 18 16 29 37 79 56 53 67
REMARK Flexibility Score: inf
ROOT
ATOM      1  C   UNL A   1      34.374  29.141  26.868  1.00  0.00     0.117 C 
ENDROOT
BRANCH   1   2
ATOM      2  N   UNL A   1      34.413  29.070  25.406  1.00  0.00    -0.356 N 
ATOM      3  C   UNL A   1      33.499  28.782  24.432  1.00  0.00     0.226 C 
ATOM      4  O   UNL A   1      33.900  28.899  23.266  1.00  0.00    -0.275 OA
ATOM      5  H   UNL A   1      35.303  29.279  25.040  1.00  0.00     0.163 HD
BRANCH   3   6
ATOM      6  C   UNL A   1      32.071  28.247  24.658  1.00  0.00     0.114 C 
ATOM      7  N   UNL A   1      31.887  24.580  22.688  1.00  0.00    -0.331 N 
ATOM      8  C   UNL A   1      30.653  25.293  22.989  1.00  0.00     0.264 C 
ATOM      9  C   UNL A   1      33.028  25.459  22.837  1.00  0.00     0.264 C 
ATOM     10  H   UNL A   1      31.789  24.337  21.702  1.00  0.00     0.348 HD
ATOM     11  C   UNL A   1      30.608  26.073  24.311  1.00  0.00     0.091 C 
ATOM     12  C   UNL A   1      33.156  25.974  24.256  1.00  0.00     0.091 C 
ATOM     13  C   UNL A   1      31.937  26.714  24.816  1.00  0.00     0.063 C 
ATOM     14  N   UNL A   1      31.848  26.608  26.267  1.00  0.00    -0.349 N 
ATOM     15  C   UNL A   1      31.430  27.760  26.899  1.00  0.00     0.221 C 
ATOM     16  H   UNL A   1      32.068  25.782  26.755  1.00  0.00     0.164 HD
ATOM     17  C   UNL A   1      31.428  28.879  25.894  1.00  0.00     0.116 C 
ATOM     18  O   UNL A   1      31.142  27.850  28.071  1.00  0.00    -0.275 OA
BRANCH   7  19
ATOM     19  C   UNL A   1      32.067  23.185  23.137  1.00  0.00     0.302 C 
BRANCH  19  20
ATOM     20  C   UNL A   1      33.423  22.781  23.652  1.00  0.00     0.043 A 
ATOM     21  C   UNL A   1      35.895  22.591  24.785  1.00  0.00     0.159 A 
ATOM     22  N   UNL A   1      34.822  22.314  25.550  1.00  0.00    -0.236 NA
ATOM     23  N   UNL A   1      35.836  22.866  23.465  1.00  0.00    -0.236 NA
ATOM     24  C   UNL A   1      33.616  22.368  24.950  1.00  0.00     0.124 A 
ATOM     25  C   UNL A   1      34.595  22.943  22.926  1.00  0.00     0.124 A 
BRANCH  21  26
ATOM     26  C   UNL A   1      37.187  22.730  25.472  1.00  0.00     0.019 A 
ATOM     27  C   UNL A   1      39.064  25.331  27.586  1.00  0.00     0.044 C 
ATOM     28  C   UNL A   1      38.736  24.058  26.858  1.00  0.00    -0.050 A 
ATOM     29  C   UNL A   1      39.651  23.007  26.829  1.00  0.00     0.003 A 
ATOM     30  C   UNL A   1      37.506  23.895  26.204  1.00  0.00     0.015 A 
ATOM     31  C   UNL A   1      39.356  21.838  26.126  1.00  0.00     0.001 A 
ATOM     32  C   UNL A   1      38.144  21.710  25.438  1.00  0.00     0.012 A 
ENDBRANCH  21  26
ENDBRANCH  19  20
ENDBRANCH   7  19
ENDBRANCH   3   6
ENDBRANCH   1   2
BRANCH   1  33
ATOM     33  C   UNL A   1      35.729  29.246  27.562  1.00  0.00     0.042 C 
BRANCH  33  34
ATOM     34  C   UNL A   1      35.757  30.107  28.815  1.00  0.00     0.118 C 
BRANCH  34  35
ATOM     35  N   UNL A   1      34.769  31.190  28.742  1.00  0.00    -0.352 N 
ATOM     36  C   UNL A   1      34.714  32.437  29.339  1.00  0.00     0.251 C 
ATOM     37  H   UNL A   1      34.000  30.991  28.160  1.00  0.00     0.163 HD
ATOM     38  O   UNL A   1      33.778  33.193  29.099  1.00  0.00    -0.269 OA
BRANCH  36  39
ATOM     39  C   UNL A   1      35.882  32.938  30.094  1.00  0.00     0.039 A 
ATOM     40  C   UNL A   1      36.872  33.529  29.299  1.00  0.00     0.014 A 
ATOM     41  C   UNL A   1      36.191  32.345  31.308  1.00  0.00     0.014 A 
ATOM     42  C   UNL A   1      38.186  33.151  29.501  1.00  0.00     0.010 A 
ATOM     43  C   UNL A   1      37.465  31.854  31.432  1.00  0.00     0.010 A 
ATOM     44  C   UNL A   1      38.426  32.190  30.472  1.00  0.00    -0.014 A 
BRANCH  44  45
ATOM     45  C   UNL A   1      39.690  31.506  30.618  1.00  0.00     0.031 A 
ATOM     46  C   UNL A   1      39.839  30.267  29.851  1.00  0.00     0.074 A 
ATOM     47  C   UNL A   1      40.681  32.085  31.333  1.00  0.00     0.049 A 
ATOM     48  N   UNL A   1      40.662  29.330  30.139  1.00  0.00    -0.248 NA
ATOM     49  C   UNL A   1      38.991  29.956  28.701  1.00  0.00     0.031 C 
ATOM     50  C   UNL A   1      42.092  31.721  31.383  1.00  0.00     0.029 A 
ATOM     51  N   UNL A   1      40.542  33.050  32.339  1.00  0.00    -0.354 N 
ATOM     52  C   UNL A   1      40.687  28.467  29.065  1.00  0.00     0.074 A 
ATOM     53  C   UNL A   1      39.562  28.838  28.249  1.00  0.00     0.031 C 
ATOM     54  C   UNL A   1      42.624  32.197  32.523  1.00  0.00     0.029 A 
ATOM     55  C   UNL A   1      41.531  32.753  33.303  1.00  0.00     0.049 A 
ATOM     56  H   UNL A   1      39.888  33.787  32.368  1.00  0.00     0.167 HD
ATOM     57  C   UNL A   1      41.772  27.657  28.926  1.00  0.00     0.037 A 
ATOM     58  C   UNL A   1      41.172  32.332  34.553  1.00  0.00     0.037 A 
ATOM     59  C   UNL A   1      42.661  27.831  30.073  1.00  0.00     0.049 A 
ATOM     60  C   UNL A   1      41.635  30.919  34.829  1.00  0.00     0.074 A 
ATOM     61  C   UNL A   1      43.764  28.646  30.273  1.00  0.00     0.029 A 
ATOM     62  N   UNL A   1      42.214  27.456  31.335  1.00  0.00    -0.354 N 
ATOM     63  N   UNL A   1      41.843  30.022  33.900  1.00  0.00    -0.248 NA
ATOM     64  C   UNL A   1      41.967  30.429  36.163  1.00  0.00     0.031 C 
ATOM     65  C   UNL A   1      43.947  28.798  31.672  1.00  0.00     0.029 A 
ATOM     66  C   UNL A   1      42.970  28.061  32.319  1.00  0.00     0.049 A 
ATOM     67  H   UNL A   1      41.463  26.842  31.503  1.00  0.00     0.167 HD
ATOM     68  C   UNL A   1      42.355  28.881  34.468  1.00  0.00     0.074 A 
ATOM     69  C   UNL A   1      42.414  29.191  35.886  1.00  0.00     0.031 C 
ATOM     70  C   UNL A   1      42.714  27.787  33.727  1.00  0.00     0.037 A 
BRANCH  57  71
ATOM     71  C   UNL A   1      42.172  26.979  27.638  1.00  0.00     0.057 A 
ATOM     72  C   UNL A   1      42.409  25.590  27.613  1.00  0.00     0.134 A 
ATOM     73  C   UNL A   1      42.387  27.623  26.407  1.00  0.00     0.134 A 
ATOM     74  F   UNL A   1      42.182  24.815  28.682  1.00  0.00    -0.206 F 
ATOM     75  C   UNL A   1      42.897  24.916  26.487  1.00  0.00     0.040 A 
ATOM     76  C   UNL A   1      42.917  26.970  25.284  1.00  0.00     0.040 A 
ATOM     77  F   UNL A   1      42.045  28.901  26.210  1.00  0.00    -0.206 F 
ATOM     78  C   UNL A   1      43.180  25.610  25.322  1.00  0.00     0.006 A 
ENDBRANCH  57  71
BRANCH  58  79
ATOM     79  C   UNL A   1      39.897  32.961  35.006  1.00  0.00     0.057 A 
ATOM     80  C   UNL A   1      38.762  32.128  35.097  1.00  0.00     0.134 A 
ATOM     81  C   UNL A   1      39.887  34.125  35.779  1.00  0.00     0.134 A 
ATOM     82  F   UNL A   1      38.691  31.007  34.361  1.00  0.00    -0.206 F 
ATOM     83  C   UNL A   1      37.764  32.336  36.053  1.00  0.00     0.040 A 
ATOM     84  C   UNL A   1      38.872  34.359  36.718  1.00  0.00     0.040 A 
ATOM     85  F   UNL A   1      40.919  34.979  35.744  1.00  0.00    -0.206 F 
ATOM     86  C   UNL A   1      37.846  33.432  36.904  1.00  0.00     0.006 A 
ENDBRANCH  58  79
BRANCH  70  87
ATOM     87  C   UNL A   1      42.966  26.379  34.237  1.00  0.00     0.057 A 
ATOM     88  C   UNL A   1      42.018  25.585  34.897  1.00  0.00     0.134 A 
ATOM     89  C   UNL A   1      44.178  25.703  33.931  1.00  0.00     0.134 A 
ATOM     90  F   UNL A   1      40.778  26.020  35.147  1.00  0.00    -0.206 F 
ATOM     91  C   UNL A   1      42.275  24.261  35.284  1.00  0.00     0.040 A 
ATOM     92  C   UNL A   1      44.413  24.362  34.241  1.00  0.00     0.040 A 
ATOM     93  F   UNL A   1      45.190  26.300  33.286  1.00  0.00    -0.206 F 
ATOM     94  C   UNL A   1      43.468  23.638  34.943  1.00  0.00     0.006 A 
ENDBRANCH  70  87
ENDBRANCH  44  45
ENDBRANCH  36  39
ENDBRANCH  34  35
ENDBRANCH  33  34
ENDBRANCH   1  33
TORSDOF 13
ENDMDL
MODEL 3
REMARK VINA RESULT:     -13.1      1.905      2.764
REMARK SMILES Cc1cccc(-c2ncc(C[NH+]3CCC4(CC3)NC(=O)C[C@H]4C(=O)NCCCNC(=O)c3ccc(-c4c5nc(c(-c6c(F)cccc6F)c6ccc([nH]6)c(-c6c(F)cccc6F)c6nc(c(-c7c(F)cccc7F)c7ccc4[nH]7)C=C6)C=C5)cc3)cn2)c1
REMARK SMILES IDX 26 1 25 2 23 3 24 4 22 6 12 7 13 8 17 9 14 11 16 12 15 13
REMARK SMILES IDX 18 14 19 15 21 17 20 18 11 19 10 20 7 21 8 22 87 23 9 24
REMARK SMILES IDX 86 25 6 26 1 27 2 28 3 29 88 30 4 31 5 32 27 33 28 34 29 35
REMARK SMILES IDX 30 36 31 38 32 39 33 40 85 41 34 42 84 43 35 44 36 45 37 46
REMARK SMILES IDX 78 47 38 48 83 49 77 50 79 51 39 52 82 53 76 54 75 55 40 57
REMARK SMILES IDX 66 58 49 59 65 60 50 61 53 62 64 63 80 64 51 65 52 66 63 68
REMARK SMILES IDX 81 69 54 70 41 71 42 72 47 73 43 74 44 75 46 76 48 77 45 78
REMARK SMILES IDX 67 79 68 80 73 81 69 82 70 83 72 84 74 85 71 86 55 87 56 88
REMARK SMILES IDX 61 89 57 90 58 91 60 92 62 93 59 94
REMARK H PARENT 25 5 12 10 18 16 29 37 79 56 53 67
REMARK Flexibility Score: inf
ROOT
ATOM      1  C   UNL A   1      34.606  29.522  26.501  1.00  0.00     0.117 C 
ENDROOT
BRANCH   1   2
ATOM      2  N   UNL A   1      33.275  30.055  26.205  1.00  0.00    -0.356 N 
ATOM      3  C   UNL A   1      32.300  29.756  25.296  1.00  0.00     0.226 C 
ATOM      4  O   UNL A   1      31.248  30.401  25.403  1.00  0.00    -0.275 OA
ATOM      5  H   UNL A   1      33.025  30.800  26.797  1.00  0.00     0.163 HD
BRANCH   3   6
ATOM      6  C   UNL A   1      32.430  28.771  24.117  1.00  0.00     0.114 C 
ATOM      7  N   UNL A   1      33.214  25.044  25.809  1.00  0.00    -0.331 N 
ATOM      8  C   UNL A   1      33.567  25.285  24.416  1.00  0.00     0.264 C 
ATOM      9  C   UNL A   1      32.942  26.295  26.486  1.00  0.00     0.264 C 
ATOM     10  H   UNL A   1      34.061  24.636  26.204  1.00  0.00     0.348 HD
ATOM     11  C   UNL A   1      32.620  26.184  23.607  1.00  0.00     0.091 C 
ATOM     12  C   UNL A   1      31.774  27.029  25.860  1.00  0.00     0.091 C 
ATOM     13  C   UNL A   1      31.897  27.340  24.366  1.00  0.00     0.063 C 
ATOM     14  N   UNL A   1      30.597  27.428  23.713  1.00  0.00    -0.349 N 
ATOM     15  C   UNL A   1      30.501  28.425  22.765  1.00  0.00     0.221 C 
ATOM     16  H   UNL A   1      29.849  26.826  23.931  1.00  0.00     0.164 HD
ATOM     17  C   UNL A   1      31.721  29.297  22.868  1.00  0.00     0.116 C 
ATOM     18  O   UNL A   1      29.574  28.577  22.002  1.00  0.00    -0.275 OA
BRANCH   7  19
ATOM     19  C   UNL A   1      32.353  23.899  26.168  1.00  0.00     0.302 C 
BRANCH  19  20
ATOM     20  C   UNL A   1      32.663  22.564  25.546  1.00  0.00     0.043 A 
ATOM     21  C   UNL A   1      33.190  19.953  24.964  1.00  0.00     0.159 A 
ATOM     22  N   UNL A   1      31.903  20.350  24.995  1.00  0.00    -0.236 NA
ATOM     23  N   UNL A   1      34.244  20.781  25.110  1.00  0.00    -0.236 NA
ATOM     24  C   UNL A   1      31.676  21.657  25.236  1.00  0.00     0.124 A 
ATOM     25  C   UNL A   1      33.953  22.076  25.388  1.00  0.00     0.124 A 
BRANCH  21  26
ATOM     26  C   UNL A   1      33.439  18.506  24.902  1.00  0.00     0.019 A 
ATOM     27  C   UNL A   1      31.821  15.245  26.126  1.00  0.00     0.044 C 
ATOM     28  C   UNL A   1      32.766  16.197  25.452  1.00  0.00    -0.050 A 
ATOM     29  C   UNL A   1      33.881  15.717  24.766  1.00  0.00     0.003 A 
ATOM     30  C   UNL A   1      32.545  17.582  25.486  1.00  0.00     0.015 A 
ATOM     31  C   UNL A   1      34.774  16.607  24.167  1.00  0.00     0.001 A 
ATOM     32  C   UNL A   1      34.565  17.988  24.252  1.00  0.00     0.012 A 
ENDBRANCH  21  26
ENDBRANCH  19  20
ENDBRANCH   7  19
ENDBRANCH   3   6
ENDBRANCH   1   2
BRANCH   1  33
ATOM     33  C   UNL A   1      35.012  29.534  27.972  1.00  0.00     0.042 C 
BRANCH  33  34
ATOM     34  C   UNL A   1      35.601  30.842  28.477  1.00  0.00     0.118 C 
BRANCH  34  35
ATOM     35  N   UNL A   1      34.562  31.862  28.659  1.00  0.00    -0.352 N 
ATOM     36  C   UNL A   1      34.438  32.912  29.551  1.00  0.00     0.251 C 
ATOM     37  H   UNL A   1      33.811  31.784  28.026  1.00  0.00     0.163 HD
ATOM     38  O   UNL A   1      33.469  33.661  29.490  1.00  0.00    -0.269 OA
BRANCH  36  39
ATOM     39  C   UNL A   1      35.571  33.255  30.437  1.00  0.00     0.039 A 
ATOM     40  C   UNL A   1      36.583  33.998  29.817  1.00  0.00     0.014 A 
ATOM     41  C   UNL A   1      35.841  32.431  31.518  1.00  0.00     0.014 A 
ATOM     42  C   UNL A   1      37.893  33.593  29.990  1.00  0.00     0.010 A 
ATOM     43  C   UNL A   1      37.116  31.930  31.590  1.00  0.00     0.010 A 
ATOM     44  C   UNL A   1      38.109  32.456  30.756  1.00  0.00    -0.014 A 
BRANCH  44  45
ATOM     45  C   UNL A   1      39.374  31.763  30.811  1.00  0.00     0.031 A 
ATOM     46  C   UNL A   1      39.471  30.545  30.002  1.00  0.00     0.074 A 
ATOM     47  C   UNL A   1      40.408  32.316  31.483  1.00  0.00     0.049 A 
ATOM     48  N   UNL A   1      40.303  29.596  30.217  1.00  0.00    -0.248 NA
ATOM     49  C   UNL A   1      38.557  30.270  28.894  1.00  0.00     0.031 C 
ATOM     50  C   UNL A   1      41.817  31.944  31.443  1.00  0.00     0.029 A 
ATOM     51  N   UNL A   1      40.332  33.254  32.522  1.00  0.00    -0.354 N 
ATOM     52  C   UNL A   1      40.261  28.763  29.120  1.00  0.00     0.074 A 
ATOM     53  C   UNL A   1      39.094  29.163  28.380  1.00  0.00     0.031 C 
ATOM     54  C   UNL A   1      42.416  32.385  32.563  1.00  0.00     0.029 A 
ATOM     55  C   UNL A   1      41.373  32.925  33.420  1.00  0.00     0.049 A 
ATOM     56  H   UNL A   1      39.686  33.993  32.609  1.00  0.00     0.167 HD
ATOM     57  C   UNL A   1      41.331  27.952  28.897  1.00  0.00     0.037 A 
ATOM     58  C   UNL A   1      41.083  32.471  34.675  1.00  0.00     0.037 A 
ATOM     59  C   UNL A   1      42.286  28.090  29.995  1.00  0.00     0.049 A 
ATOM     60  C   UNL A   1      41.551  31.048  34.886  1.00  0.00     0.074 A 
ATOM     61  C   UNL A   1      43.403  28.894  30.154  1.00  0.00     0.029 A 
ATOM     62  N   UNL A   1      41.908  27.682  31.270  1.00  0.00    -0.354 N 
ATOM     63  N   UNL A   1      41.700  30.177  33.922  1.00  0.00    -0.248 NA
ATOM     64  C   UNL A   1      41.956  30.520  36.184  1.00  0.00     0.031 C 
ATOM     65  C   UNL A   1      43.666  29.006  31.544  1.00  0.00     0.029 A 
ATOM     66  C   UNL A   1      42.723  28.255  32.226  1.00  0.00     0.049 A 
ATOM     67  H   UNL A   1      41.164  27.067  31.464  1.00  0.00     0.167 HD
ATOM     68  C   UNL A   1      42.237  29.018  34.428  1.00  0.00     0.074 A 
ATOM     69  C   UNL A   1      42.379  29.288  35.848  1.00  0.00     0.031 C 
ATOM     70  C   UNL A   1      42.546  27.944  33.637  1.00  0.00     0.037 A 
BRANCH  57  71
ATOM     71  C   UNL A   1      41.653  27.309  27.570  1.00  0.00     0.057 A 
ATOM     72  C   UNL A   1      41.609  25.906  27.434  1.00  0.00     0.134 A 
ATOM     73  C   UNL A   1      42.053  27.989  26.406  1.00  0.00     0.134 A 
ATOM     74  F   UNL A   1      41.179  25.114  28.425  1.00  0.00    -0.206 F 
ATOM     75  C   UNL A   1      42.010  25.237  26.271  1.00  0.00     0.040 A 
ATOM     76  C   UNL A   1      42.499  27.330  25.250  1.00  0.00     0.040 A 
ATOM     77  F   UNL A   1      41.983  29.321  26.308  1.00  0.00    -0.206 F 
ATOM     78  C   UNL A   1      42.484  25.947  25.180  1.00  0.00     0.006 A 
ENDBRANCH  57  71
BRANCH  58  79
ATOM     79  C   UNL A   1      39.840  33.093  35.218  1.00  0.00     0.057 A 
ATOM     80  C   UNL A   1      38.683  32.287  35.270  1.00  0.00     0.134 A 
ATOM     81  C   UNL A   1      39.886  34.186  36.088  1.00  0.00     0.134 A 
ATOM     82  F   UNL A   1      38.559  31.237  34.443  1.00  0.00    -0.206 F 
ATOM     83  C   UNL A   1      37.717  32.440  36.269  1.00  0.00     0.040 A 
ATOM     84  C   UNL A   1      38.903  34.366  37.073  1.00  0.00     0.040 A 
ATOM     85  F   UNL A   1      40.942  35.011  36.097  1.00  0.00    -0.206 F 
ATOM     86  C   UNL A   1      37.856  33.454  37.208  1.00  0.00     0.006 A 
ENDBRANCH  58  79
BRANCH  70  87
ATOM     87  C   UNL A   1      42.818  26.520  34.094  1.00  0.00     0.057 A 
ATOM     88  C   UNL A   1      44.017  25.827  33.882  1.00  0.00     0.134 A 
ATOM     89  C   UNL A   1      41.891  25.836  34.925  1.00  0.00     0.134 A 
ATOM     90  F   UNL A   1      45.049  26.377  33.232  1.00  0.00    -0.206 F 
ATOM     91  C   UNL A   1      44.249  24.540  34.389  1.00  0.00     0.040 A 
ATOM     92  C   UNL A   1      42.144  24.589  35.500  1.00  0.00     0.040 A 
ATOM     93  F   UNL A   1      40.699  26.356  35.251  1.00  0.00    -0.206 F 
ATOM     94  C   UNL A   1      43.319  23.922  35.214  1.00  0.00     0.006 A 
ENDBRANCH  70  87
ENDBRANCH  44  45
ENDBRANCH  36  39
ENDBRANCH  34  35
ENDBRANCH  33  34
ENDBRANCH   1  33
TORSDOF 13
ENDMDL
