MODEL 1
REMARK VINA RESULT:     -12.8      0.000      0.000
REMARK SMILES CC1(C)S[C@H]2[C@H](NC(=O)[C@@H]([NH3+])c3ccccc3)C(=O)N2[C@H]1C(=O)NCCCNC(=O)c1ccc(-c2c3nc(c(-c4c(F)cccc4F)c4ccc([nH]4)c(-c4c(F)cccc4F)c4nc(c(-c5c(F)cccc5F)c5ccc2[nH]5)C=C4)C=C3)cc1
REMARK SMILES IDX 25 1 24 2 22 3 23 4 21 6 1 7 2 8 3 9 4 10 5 11 20 12 6 13
REMARK SMILES IDX 18 14 19 15 7 16 8 17 9 19 10 20 11 21 12 25 13 26 17 27
REMARK SMILES IDX 14 28 16 29 15 30 26 31 27 32 28 33 29 34 30 36 31 37 32 38
REMARK SMILES IDX 84 39 33 40 83 41 34 42 35 43 36 44 77 45 37 46 82 47 76 48
REMARK SMILES IDX 78 49 38 50 81 51 75 52 74 53 39 55 65 56 48 57 64 58 49 59
REMARK SMILES IDX 52 60 63 61 79 62 50 63 51 64 62 66 80 67 53 68 40 69 41 70
REMARK SMILES IDX 46 71 42 72 43 73 45 74 47 75 44 76 66 77 67 78 72 79 68 80
REMARK SMILES IDX 69 81 71 82 73 83 70 84 54 85 55 86 60 87 56 88 57 89 59 90
REMARK SMILES IDX 61 91 58 92
REMARK H PARENT 24 5 7 18 11 22 11 23 11 24 28 35 78 54 52 65
REMARK Flexibility Score: inf
ROOT
ATOM      1  C   UNL A   1      37.245  22.134  25.709  1.00  0.00     0.117 C 
ENDROOT
BRANCH   1   2
ATOM      2  N   UNL A   1      36.031  21.851  26.458  1.00  0.00    -0.354 N 
ATOM      3  C   UNL A   1      34.726  21.736  26.111  1.00  0.00     0.244 C 
ATOM      4  O   UNL A   1      33.954  21.521  27.058  1.00  0.00    -0.273 OA
ATOM      5  H   UNL A   1      36.190  21.714  27.419  1.00  0.00     0.163 HD
BRANCH   3   6
ATOM      6  C   UNL A   1      34.129  21.995  24.711  1.00  0.00     0.191 C 
ATOM      7  C   UNL A   1      32.470  20.066  24.561  1.00  0.00     0.026 C 
ATOM      8  C   UNL A   1      32.653  21.589  24.500  1.00  0.00     0.042 C 
ATOM      9  C   UNL A   1      31.628  22.256  25.418  1.00  0.00     0.026 C 
ATOM     10  S   UNL A   1      32.265  22.142  22.763  1.00  0.00    -0.125 SA
ATOM     11  C   UNL A   1      33.651  23.344  22.677  1.00  0.00     0.176 C 
ATOM     12  N   UNL A   1      34.391  23.204  23.942  1.00  0.00    -0.313 N 
ATOM     13  C   UNL A   1      33.280  24.780  23.112  1.00  0.00     0.205 C 
ATOM     14  C   UNL A   1      34.272  24.512  24.280  1.00  0.00     0.249 C 
ATOM     15  O   UNL A   1      34.777  25.153  25.160  1.00  0.00    -0.272 OA
BRANCH  13  16
ATOM     16  N   UNL A   1      33.683  25.877  22.205  1.00  0.00    -0.336 N 
ATOM     17  C   UNL A   1      33.573  27.223  22.433  1.00  0.00     0.283 C 
ATOM     18  H   UNL A   1      34.072  25.610  21.341  1.00  0.00     0.164 HD
ATOM     19  O   UNL A   1      34.040  27.991  21.585  1.00  0.00    -0.268 OA
BRANCH  17  20
ATOM     20  C   UNL A   1      32.815  27.771  23.674  1.00  0.00     0.302 C 
BRANCH  20  21
ATOM     21  N   UNL A   1      33.480  29.022  24.110  1.00  0.00    -0.343 N 
ATOM     22  H   UNL A   1      34.484  28.947  23.949  1.00  0.00     0.345 HD
ATOM     23  H   UNL A   1      33.305  29.171  25.103  1.00  0.00     0.345 HD
ATOM     24  H   UNL A   1      33.107  29.808  23.577  1.00  0.00     0.345 HD
ENDBRANCH  20  21
BRANCH  20  25
ATOM     25  C   UNL A   1      31.306  27.891  23.488  1.00  0.00     0.019 A 
ATOM     26  C   UNL A   1      30.779  29.007  22.815  1.00  0.00     0.010 A 
ATOM     27  C   UNL A   1      30.403  26.906  23.932  1.00  0.00     0.010 A 
ATOM     28  C   UNL A   1      29.402  29.147  22.622  1.00  0.00     0.001 A 
ATOM     29  C   UNL A   1      29.028  27.046  23.736  1.00  0.00     0.001 A 
ATOM     30  C   UNL A   1      28.527  28.168  23.082  1.00  0.00     0.000 A 
ENDBRANCH  20  25
ENDBRANCH  17  20
ENDBRANCH  13  16
ENDBRANCH   3   6
ENDBRANCH   1   2
BRANCH   1  31
ATOM     31  C   UNL A   1      37.878  23.464  26.120  1.00  0.00     0.042 C 
BRANCH  31  32
ATOM     32  C   UNL A   1      39.261  23.301  26.746  1.00  0.00     0.118 C 
BRANCH  32  33
ATOM     33  N   UNL A   1      40.310  23.973  25.996  1.00  0.00    -0.352 N 
ATOM     34  C   UNL A   1      40.903  25.202  26.138  1.00  0.00     0.251 C 
ATOM     35  H   UNL A   1      40.661  23.445  25.243  1.00  0.00     0.163 HD
ATOM     36  O   UNL A   1      41.672  25.587  25.258  1.00  0.00    -0.269 OA
BRANCH  34  37
ATOM     37  C   UNL A   1      40.630  26.103  27.286  1.00  0.00     0.039 A 
ATOM     38  C   UNL A   1      41.342  27.309  27.352  1.00  0.00     0.014 A 
ATOM     39  C   UNL A   1      39.792  25.754  28.346  1.00  0.00     0.014 A 
ATOM     40  C   UNL A   1      41.187  28.173  28.442  1.00  0.00     0.010 A 
ATOM     41  C   UNL A   1      39.596  26.638  29.411  1.00  0.00     0.010 A 
ATOM     42  C   UNL A   1      40.299  27.851  29.475  1.00  0.00    -0.014 A 
BRANCH  42  43
ATOM     43  C   UNL A   1      40.137  28.722  30.666  1.00  0.00     0.031 A 
ATOM     44  C   UNL A   1      39.069  29.781  30.676  1.00  0.00     0.074 A 
ATOM     45  C   UNL A   1      40.961  28.610  31.724  1.00  0.00     0.049 A 
ATOM     46  N   UNL A   1      38.930  30.806  31.478  1.00  0.00    -0.248 NA
ATOM     47  C   UNL A   1      38.035  29.684  29.634  1.00  0.00     0.031 C 
ATOM     48  C   UNL A   1      42.028  27.622  31.875  1.00  0.00     0.029 A 
ATOM     49  N   UNL A   1      41.025  29.353  32.877  1.00  0.00    -0.354 N 
ATOM     50  C   UNL A   1      37.843  31.518  30.991  1.00  0.00     0.074 A 
ATOM     51  C   UNL A   1      37.329  30.784  29.852  1.00  0.00     0.031 C 
ATOM     52  C   UNL A   1      42.629  27.807  33.062  1.00  0.00     0.029 A 
ATOM     53  C   UNL A   1      42.019  28.950  33.733  1.00  0.00     0.049 A 
ATOM     54  H   UNL A   1      40.417  30.102  33.071  1.00  0.00     0.167 HD
ATOM     55  C   UNL A   1      37.336  32.692  31.436  1.00  0.00     0.037 A 
ATOM     56  C   UNL A   1      42.407  29.461  34.916  1.00  0.00     0.037 A 
ATOM     57  C   UNL A   1      37.801  33.395  32.600  1.00  0.00     0.049 A 
ATOM     58  C   UNL A   1      41.746  30.694  35.458  1.00  0.00     0.074 A 
ATOM     59  C   UNL A   1      37.405  34.630  33.086  1.00  0.00     0.029 A 
ATOM     60  N   UNL A   1      38.738  32.895  33.489  1.00  0.00    -0.354 N 
ATOM     61  N   UNL A   1      40.818  31.437  34.911  1.00  0.00    -0.248 NA
ATOM     62  C   UNL A   1      42.204  31.168  36.773  1.00  0.00     0.031 C 
ATOM     63  C   UNL A   1      38.088  34.866  34.287  1.00  0.00     0.029 A 
ATOM     64  C   UNL A   1      38.905  33.777  34.543  1.00  0.00     0.049 A 
ATOM     65  H   UNL A   1      39.215  32.041  33.387  1.00  0.00     0.167 HD
ATOM     66  C   UNL A   1      40.596  32.480  35.800  1.00  0.00     0.074 A 
ATOM     67  C   UNL A   1      41.466  32.259  36.937  1.00  0.00     0.031 C 
ATOM     68  C   UNL A   1      39.763  33.539  35.670  1.00  0.00     0.037 A 
BRANCH  55  69
ATOM     69  C   UNL A   1      36.241  33.306  30.627  1.00  0.00     0.057 A 
ATOM     70  C   UNL A   1      34.906  33.255  31.039  1.00  0.00     0.134 A 
ATOM     71  C   UNL A   1      36.532  33.967  29.428  1.00  0.00     0.134 A 
ATOM     72  F   UNL A   1      34.567  32.619  32.170  1.00  0.00    -0.206 F 
ATOM     73  C   UNL A   1      33.892  33.839  30.278  1.00  0.00     0.040 A 
ATOM     74  C   UNL A   1      35.528  34.560  28.662  1.00  0.00     0.040 A 
ATOM     75  F   UNL A   1      37.795  34.040  28.982  1.00  0.00    -0.206 F 
ATOM     76  C   UNL A   1      34.203  34.496  29.088  1.00  0.00     0.006 A 
ENDBRANCH  55  69
BRANCH  56  77
ATOM     77  C   UNL A   1      43.505  28.815  35.666  1.00  0.00     0.057 A 
ATOM     78  C   UNL A   1      44.829  29.232  35.496  1.00  0.00     0.134 A 
ATOM     79  C   UNL A   1      43.256  27.773  36.563  1.00  0.00     0.134 A 
ATOM     80  F   UNL A   1      45.121  30.217  34.634  1.00  0.00    -0.206 F 
ATOM     81  C   UNL A   1      45.874  28.628  36.194  1.00  0.00     0.040 A 
ATOM     82  C   UNL A   1      44.291  27.164  37.272  1.00  0.00     0.040 A 
ATOM     83  F   UNL A   1      42.003  27.335  36.760  1.00  0.00    -0.206 F 
ATOM     84  C   UNL A   1      45.605  27.591  37.087  1.00  0.00     0.006 A 
ENDBRANCH  56  77
BRANCH  68  85
ATOM     85  C   UNL A   1      39.759  34.537  36.781  1.00  0.00     0.057 A 
ATOM     86  C   UNL A   1      40.543  35.695  36.710  1.00  0.00     0.134 A 
ATOM     87  C   UNL A   1      38.957  34.357  37.912  1.00  0.00     0.134 A 
ATOM     88  F   UNL A   1      41.338  35.915  35.653  1.00  0.00    -0.206 F 
ATOM     89  C   UNL A   1      40.528  36.644  37.734  1.00  0.00     0.040 A 
ATOM     90  C   UNL A   1      38.934  35.298  38.941  1.00  0.00     0.040 A 
ATOM     91  F   UNL A   1      38.193  33.261  38.036  1.00  0.00    -0.206 F 
ATOM     92  C   UNL A   1      39.721  36.447  38.853  1.00  0.00     0.006 A 
ENDBRANCH  68  85
ENDBRANCH  42  43
ENDBRANCH  34  37
ENDBRANCH  32  33
ENDBRANCH  31  32
ENDBRANCH   1  31
TORSDOF 14
ENDMDL
MODEL 2
REMARK VINA RESULT:     -12.7      2.576      7.751
REMARK SMILES CC1(C)S[C@H]2[C@H](NC(=O)[C@@H]([NH3+])c3ccccc3)C(=O)N2[C@H]1C(=O)NCCCNC(=O)c1ccc(-c2c3nc(c(-c4c(F)cccc4F)c4ccc([nH]4)c(-c4c(F)cccc4F)c4nc(c(-c5c(F)cccc5F)c5ccc2[nH]5)C=C4)C=C3)cc1
REMARK SMILES IDX 25 1 24 2 22 3 23 4 21 6 1 7 2 8 3 9 4 10 5 11 20 12 6 13
REMARK SMILES IDX 18 14 19 15 7 16 8 17 9 19 10 20 11 21 12 25 13 26 17 27
REMARK SMILES IDX 14 28 16 29 15 30 26 31 27 32 28 33 29 34 30 36 31 37 32 38
REMARK SMILES IDX 84 39 33 40 83 41 34 42 35 43 36 44 77 45 37 46 82 47 76 48
REMARK SMILES IDX 78 49 38 50 81 51 75 52 74 53 39 55 65 56 48 57 64 58 49 59
REMARK SMILES IDX 52 60 63 61 79 62 50 63 51 64 62 66 80 67 53 68 40 69 41 70
REMARK SMILES IDX 46 71 42 72 43 73 45 74 47 75 44 76 66 77 67 78 72 79 68 80
REMARK SMILES IDX 69 81 71 82 73 83 70 84 54 85 55 86 60 87 56 88 57 89 59 90
REMARK SMILES IDX 61 91 58 92
REMARK H PARENT 24 5 7 18 11 22 11 23 11 24 28 35 78 54 52 65
REMARK Flexibility Score: inf
ROOT
ATOM      1  C   UNL A   1      31.734  28.805  22.790  1.00  0.00     0.117 C 
ENDROOT
BRANCH   1   2
ATOM      2  N   UNL A   1      31.654  27.557  22.047  1.00  0.00    -0.354 N 
ATOM      3  C   UNL A   1      31.931  26.267  22.358  1.00  0.00     0.244 C 
ATOM      4  O   UNL A   1      31.771  25.464  21.425  1.00  0.00    -0.273 OA
ATOM      5  H   UNL A   1      31.330  27.673  21.125  1.00  0.00     0.163 HD
BRANCH   3   6
ATOM      6  C   UNL A   1      32.552  25.760  23.677  1.00  0.00     0.191 C 
ATOM      7  C   UNL A   1      30.704  26.380  25.318  1.00  0.00     0.026 C 
ATOM      8  C   UNL A   1      31.571  25.245  24.754  1.00  0.00     0.042 C 
ATOM      9  C   UNL A   1      30.670  24.078  24.350  1.00  0.00     0.026 C 
ATOM     10  S   UNL A   1      32.671  24.630  26.127  1.00  0.00    -0.125 SA
ATOM     11  C   UNL A   1      34.155  24.454  25.059  1.00  0.00     0.176 C 
ATOM     12  N   UNL A   1      33.762  24.952  23.730  1.00  0.00    -0.313 N 
ATOM     13  C   UNL A   1      34.326  23.053  24.428  1.00  0.00     0.205 C 
ATOM     14  C   UNL A   1      34.092  23.805  23.086  1.00  0.00     0.249 C 
ATOM     15  O   UNL A   1      34.159  23.543  21.916  1.00  0.00    -0.272 OA
BRANCH  13  16
ATOM     16  N   UNL A   1      35.658  22.424  24.553  1.00  0.00    -0.336 N 
ATOM     17  C   UNL A   1      35.938  21.160  25.002  1.00  0.00     0.283 C 
ATOM     18  H   UNL A   1      36.429  22.973  24.285  1.00  0.00     0.164 HD
ATOM     19  O   UNL A   1      37.113  20.781  24.960  1.00  0.00    -0.268 OA
BRANCH  17  20
ATOM     20  C   UNL A   1      34.832  20.261  25.622  1.00  0.00     0.302 C 
BRANCH  20  21
ATOM     21  N   UNL A   1      34.020  21.092  26.543  1.00  0.00    -0.343 N 
ATOM     22  H   UNL A   1      34.183  20.793  27.504  1.00  0.00     0.345 HD
ATOM     23  H   UNL A   1      33.032  20.985  26.315  1.00  0.00     0.345 HD
ATOM     24  H   UNL A   1      34.288  22.072  26.442  1.00  0.00     0.345 HD
ENDBRANCH  20  21
BRANCH  20  25
ATOM     25  C   UNL A   1      34.018  19.471  24.602  1.00  0.00     0.019 A 
ATOM     26  C   UNL A   1      34.388  18.150  24.295  1.00  0.00     0.010 A 
ATOM     27  C   UNL A   1      32.875  19.996  23.969  1.00  0.00     0.010 A 
ATOM     28  C   UNL A   1      33.662  17.397  23.369  1.00  0.00     0.001 A 
ATOM     29  C   UNL A   1      32.149  19.241  23.046  1.00  0.00     0.001 A 
ATOM     30  C   UNL A   1      32.544  17.941  22.745  1.00  0.00     0.000 A 
ENDBRANCH  20  25
ENDBRANCH  17  20
ENDBRANCH  13  16
ENDBRANCH   3   6
ENDBRANCH   1   2
BRANCH   1  31
ATOM     31  C   UNL A   1      33.160  29.112  23.247  1.00  0.00     0.042 C 
BRANCH  31  32
ATOM     32  C   UNL A   1      33.329  29.055  24.763  1.00  0.00     0.118 C 
BRANCH  32  33
ATOM     33  N   UNL A   1      32.648  30.138  25.454  1.00  0.00    -0.352 N 
ATOM     34  C   UNL A   1      32.966  30.859  26.577  1.00  0.00     0.251 C 
ATOM     35  H   UNL A   1      31.797  30.404  25.038  1.00  0.00     0.163 HD
ATOM     36  O   UNL A   1      32.123  31.630  27.037  1.00  0.00    -0.269 OA
BRANCH  34  37
ATOM     37  C   UNL A   1      34.265  30.725  27.283  1.00  0.00     0.039 A 
ATOM     38  C   UNL A   1      34.690  29.434  27.629  1.00  0.00     0.014 A 
ATOM     39  C   UNL A   1      35.016  31.821  27.712  1.00  0.00     0.014 A 
ATOM     40  C   UNL A   1      35.870  29.239  28.356  1.00  0.00     0.010 A 
ATOM     41  C   UNL A   1      36.221  31.628  28.394  1.00  0.00     0.010 A 
ATOM     42  C   UNL A   1      36.654  30.336  28.732  1.00  0.00    -0.014 A 
BRANCH  42  43
ATOM     43  C   UNL A   1      37.890  30.173  29.538  1.00  0.00     0.031 A 
ATOM     44  C   UNL A   1      39.051  29.400  28.976  1.00  0.00     0.074 A 
ATOM     45  C   UNL A   1      37.974  30.671  30.785  1.00  0.00     0.049 A 
ATOM     46  N   UNL A   1      40.096  28.913  29.594  1.00  0.00    -0.248 NA
ATOM     47  C   UNL A   1      39.018  29.119  27.532  1.00  0.00     0.031 C 
ATOM     48  C   UNL A   1      36.946  31.460  31.462  1.00  0.00     0.029 A 
ATOM     49  N   UNL A   1      38.984  30.571  31.710  1.00  0.00    -0.354 N 
ATOM     50  C   UNL A   1      40.804  28.204  28.635  1.00  0.00     0.074 A 
ATOM     51  C   UNL A   1      40.095  28.362  27.381  1.00  0.00     0.031 C 
ATOM     52  C   UNL A   1      37.386  31.791  32.688  1.00  0.00     0.029 A 
ATOM     53  C   UNL A   1      38.705  31.201  32.897  1.00  0.00     0.049 A 
ATOM     54  H   UNL A   1      39.828  30.093  31.539  1.00  0.00     0.167 HD
ATOM     55  C   UNL A   1      41.929  27.466  28.790  1.00  0.00     0.037 A 
ATOM     56  C   UNL A   1      39.423  31.274  34.033  1.00  0.00     0.037 A 
ATOM     57  C   UNL A   1      42.670  27.354  30.016  1.00  0.00     0.049 A 
ATOM     58  C   UNL A   1      40.733  30.551  34.144  1.00  0.00     0.074 A 
ATOM     59  C   UNL A   1      43.776  26.567  30.294  1.00  0.00     0.029 A 
ATOM     60  N   UNL A   1      42.405  28.090  31.157  1.00  0.00    -0.354 N 
ATOM     61  N   UNL A   1      41.315  29.766  33.274  1.00  0.00    -0.248 NA
ATOM     62  C   UNL A   1      41.473  30.711  35.405  1.00  0.00     0.031 C 
ATOM     63  C   UNL A   1      44.195  26.849  31.601  1.00  0.00     0.029 A 
ATOM     64  C   UNL A   1      43.348  27.810  32.130  1.00  0.00     0.049 A 
ATOM     65  H   UNL A   1      41.656  28.720  31.262  1.00  0.00     0.167 HD
ATOM     66  C   UNL A   1      42.476  29.317  33.888  1.00  0.00     0.074 A 
ATOM     67  C   UNL A   1      42.532  29.940  35.194  1.00  0.00     0.031 C 
ATOM     68  C   UNL A   1      43.398  28.445  33.418  1.00  0.00     0.037 A 
BRANCH  55  69
ATOM     69  C   UNL A   1      42.397  26.689  27.604  1.00  0.00     0.057 A 
ATOM     70  C   UNL A   1      41.957  25.384  27.359  1.00  0.00     0.134 A 
ATOM     71  C   UNL A   1      43.288  27.262  26.689  1.00  0.00     0.134 A 
ATOM     72  F   UNL A   1      41.117  24.780  28.212  1.00  0.00    -0.206 F 
ATOM     73  C   UNL A   1      42.396  24.671  26.243  1.00  0.00     0.040 A 
ATOM     74  C   UNL A   1      43.729  26.561  25.566  1.00  0.00     0.040 A 
ATOM     75  F   UNL A   1      43.747  28.509  26.878  1.00  0.00    -0.206 F 
ATOM     76  C   UNL A   1      43.282  25.261  25.342  1.00  0.00     0.006 A 
ENDBRANCH  55  69
BRANCH  56  77
ATOM     77  C   UNL A   1      38.902  32.051  35.178  1.00  0.00     0.057 A 
ATOM     78  C   UNL A   1      38.251  31.413  36.237  1.00  0.00     0.134 A 
ATOM     79  C   UNL A   1      39.043  33.440  35.236  1.00  0.00     0.134 A 
ATOM     80  F   UNL A   1      38.076  30.083  36.219  1.00  0.00    -0.206 F 
ATOM     81  C   UNL A   1      37.751  32.133  37.321  1.00  0.00     0.040 A 
ATOM     82  C   UNL A   1      38.553  34.173  36.317  1.00  0.00     0.040 A 
ATOM     83  F   UNL A   1      39.658  34.100  34.243  1.00  0.00    -0.206 F 
ATOM     84  C   UNL A   1      37.903  33.519  37.363  1.00  0.00     0.006 A 
ENDBRANCH  56  77
BRANCH  68  85
ATOM     85  C   UNL A   1      44.539  28.112  34.323  1.00  0.00     0.057 A 
ATOM     86  C   UNL A   1      44.458  27.038  35.217  1.00  0.00     0.134 A 
ATOM     87  C   UNL A   1      45.728  28.848  34.287  1.00  0.00     0.134 A 
ATOM     88  F   UNL A   1      43.338  26.304  35.299  1.00  0.00    -0.206 F 
ATOM     89  C   UNL A   1      45.527  26.707  36.051  1.00  0.00     0.040 A 
ATOM     90  C   UNL A   1      46.803  28.526  35.116  1.00  0.00     0.040 A 
ATOM     91  F   UNL A   1      45.856  29.893  33.456  1.00  0.00    -0.206 F 
ATOM     92  C   UNL A   1      46.705  27.452  36.001  1.00  0.00     0.006 A 
ENDBRANCH  68  85
ENDBRANCH  42  43
ENDBRANCH  34  37
ENDBRANCH  32  33
ENDBRANCH  31  32
ENDBRANCH   1  31
TORSDOF 14
ENDMDL
MODEL 3
REMARK VINA RESULT:     -12.7      1.971      6.559
REMARK SMILES CC1(C)S[C@H]2[C@H](NC(=O)[C@@H]([NH3+])c3ccccc3)C(=O)N2[C@H]1C(=O)NCCCNC(=O)c1ccc(-c2c3nc(c(-c4c(F)cccc4F)c4ccc([nH]4)c(-c4c(F)cccc4F)c4nc(c(-c5c(F)cccc5F)c5ccc2[nH]5)C=C4)C=C3)cc1
REMARK SMILES IDX 25 1 24 2 22 3 23 4 21 6 1 7 2 8 3 9 4 10 5 11 20 12 6 13
REMARK SMILES IDX 18 14 19 15 7 16 8 17 9 19 10 20 11 21 12 25 13 26 17 27
REMARK SMILES IDX 14 28 16 29 15 30 26 31 27 32 28 33 29 34 30 36 31 37 32 38
REMARK SMILES IDX 84 39 33 40 83 41 34 42 35 43 36 44 77 45 37 46 82 47 76 48
REMARK SMILES IDX 78 49 38 50 81 51 75 52 74 53 39 55 65 56 48 57 64 58 49 59
REMARK SMILES IDX 52 60 63 61 79 62 50 63 51 64 62 66 80 67 53 68 40 69 41 70
REMARK SMILES IDX 46 71 42 72 43 73 45 74 47 75 44 76 66 77 67 78 72 79 68 80
REMARK SMILES IDX 69 81 71 82 73 83 70 84 54 85 55 86 60 87 56 88 57 89 59 90
REMARK SMILES IDX 61 91 58 92
REMARK H PARENT 24 5 7 18 11 22 11 23 11 24 28 35 78 54 52 65
REMARK Flexibility Score: inf
ROOT
ATOM      1  C   UNL A   1      35.220  23.399  23.634  1.00  0.00     0.117 C 
ENDROOT
BRANCH   1   2
ATOM      2  N   UNL A   1      34.493  22.145  23.749  1.00  0.00    -0.354 N 
ATOM      3  C   UNL A   1      33.267  21.817  24.225  1.00  0.00     0.244 C 
ATOM      4  O   UNL A   1      33.004  20.605  24.191  1.00  0.00    -0.273 OA
ATOM      5  H   UNL A   1      34.996  21.371  23.408  1.00  0.00     0.163 HD
BRANCH   3   6
ATOM      6  C   UNL A   1      32.274  22.773  24.922  1.00  0.00     0.191 C 
ATOM      7  C   UNL A   1      32.864  22.340  27.363  1.00  0.00     0.026 C 
ATOM      8  C   UNL A   1      32.734  23.398  26.258  1.00  0.00     0.042 C 
ATOM      9  C   UNL A   1      34.011  24.236  26.212  1.00  0.00     0.026 C 
ATOM     10  S   UNL A   1      31.347  24.550  26.731  1.00  0.00    -0.125 SA
ATOM     11  C   UNL A   1      30.663  24.664  25.030  1.00  0.00     0.176 C 
ATOM     12  N   UNL A   1      31.473  23.753  24.203  1.00  0.00    -0.313 N 
ATOM     13  C   UNL A   1      31.221  25.838  24.194  1.00  0.00     0.205 C 
ATOM     14  C   UNL A   1      31.833  24.711  23.313  1.00  0.00     0.249 C 
ATOM     15  O   UNL A   1      32.403  24.641  22.259  1.00  0.00    -0.272 OA
BRANCH  13  16
ATOM     16  N   UNL A   1      30.234  26.692  23.500  1.00  0.00    -0.336 N 
ATOM     17  C   UNL A   1      30.473  27.871  22.845  1.00  0.00     0.283 C 
ATOM     18  H   UNL A   1      29.301  26.378  23.508  1.00  0.00     0.164 HD
ATOM     19  O   UNL A   1      29.527  28.404  22.254  1.00  0.00    -0.268 OA
BRANCH  17  20
ATOM     20  C   UNL A   1      31.863  28.562  22.912  1.00  0.00     0.302 C 
BRANCH  20  21
ATOM     21  N   UNL A   1      31.879  29.670  21.927  1.00  0.00    -0.343 N 
ATOM     22  H   UNL A   1      32.822  30.051  21.858  1.00  0.00     0.345 HD
ATOM     23  H   UNL A   1      31.237  30.403  22.230  1.00  0.00     0.345 HD
ATOM     24  H   UNL A   1      31.587  29.318  21.015  1.00  0.00     0.345 HD
ENDBRANCH  20  21
BRANCH  20  25
ATOM     25  C   UNL A   1      32.301  28.962  24.317  1.00  0.00     0.019 A 
ATOM     26  C   UNL A   1      33.572  28.578  24.781  1.00  0.00     0.010 A 
ATOM     27  C   UNL A   1      31.497  29.739  25.173  1.00  0.00     0.010 A 
ATOM     28  C   UNL A   1      34.006  28.930  26.061  1.00  0.00     0.001 A 
ATOM     29  C   UNL A   1      31.935  30.093  26.451  1.00  0.00     0.001 A 
ATOM     30  C   UNL A   1      33.189  29.687  26.895  1.00  0.00     0.000 A 
ENDBRANCH  20  25
ENDBRANCH  17  20
ENDBRANCH  13  16
ENDBRANCH   3   6
ENDBRANCH   1   2
BRANCH   1  31
ATOM     31  C   UNL A   1      36.731  23.201  23.759  1.00  0.00     0.042 C 
BRANCH  31  32
ATOM     32  C   UNL A   1      37.256  23.474  25.167  1.00  0.00     0.118 C 
BRANCH  32  33
ATOM     33  N   UNL A   1      38.532  22.831  25.435  1.00  0.00    -0.352 N 
ATOM     34  C   UNL A   1      39.634  23.230  26.148  1.00  0.00     0.251 C 
ATOM     35  H   UNL A   1      38.623  21.940  25.026  1.00  0.00     0.163 HD
ATOM     36  O   UNL A   1      40.653  22.542  26.086  1.00  0.00    -0.269 OA
BRANCH  34  37
ATOM     37  C   UNL A   1      39.664  24.471  26.962  1.00  0.00     0.039 A 
ATOM     38  C   UNL A   1      40.358  25.574  26.445  1.00  0.00     0.014 A 
ATOM     39  C   UNL A   1      39.136  24.549  28.252  1.00  0.00     0.014 A 
ATOM     40  C   UNL A   1      40.486  26.752  27.189  1.00  0.00     0.010 A 
ATOM     41  C   UNL A   1      39.218  25.742  28.977  1.00  0.00     0.010 A 
ATOM     42  C   UNL A   1      39.902  26.851  28.457  1.00  0.00    -0.014 A 
BRANCH  42  43
ATOM     43  C   UNL A   1      40.051  28.069  29.293  1.00  0.00     0.031 A 
ATOM     44  C   UNL A   1      41.217  28.191  30.235  1.00  0.00     0.074 A 
ATOM     45  C   UNL A   1      39.132  29.052  29.254  1.00  0.00     0.049 A 
ATOM     46  N   UNL A   1      41.391  29.021  31.230  1.00  0.00    -0.248 NA
ATOM     47  C   UNL A   1      42.320  27.236  30.043  1.00  0.00     0.031 C 
ATOM     48  C   UNL A   1      37.960  29.093  28.381  1.00  0.00     0.029 A 
ATOM     49  N   UNL A   1      39.046  30.210  29.986  1.00  0.00    -0.354 N 
ATOM     50  C   UNL A   1      42.583  28.642  31.831  1.00  0.00     0.074 A 
ATOM     51  C   UNL A   1      43.114  27.535  31.061  1.00  0.00     0.031 C 
ATOM     52  C   UNL A   1      37.282  30.229  28.613  1.00  0.00     0.029 A 
ATOM     53  C   UNL A   1      37.947  30.972  29.679  1.00  0.00     0.049 A 
ATOM     54  H   UNL A   1      39.709  30.470  30.666  1.00  0.00     0.167 HD
ATOM     55  C   UNL A   1      43.168  29.152  32.941  1.00  0.00     0.037 A 
ATOM     56  C   UNL A   1      37.513  32.129  30.214  1.00  0.00     0.037 A 
ATOM     57  C   UNL A   1      42.679  30.287  33.675  1.00  0.00     0.049 A 
ATOM     58  C   UNL A   1      38.249  32.749  31.365  1.00  0.00     0.074 A 
ATOM     59  C   UNL A   1      43.156  30.829  34.856  1.00  0.00     0.029 A 
ATOM     60  N   UNL A   1      41.624  31.084  33.265  1.00  0.00    -0.354 N 
ATOM     61  N   UNL A   1      39.292  32.297  32.014  1.00  0.00    -0.248 NA
ATOM     62  C   UNL A   1      37.732  34.031  31.869  1.00  0.00     0.031 C 
ATOM     63  C   UNL A   1      42.402  31.973  35.148  1.00  0.00     0.029 A 
ATOM     64  C   UNL A   1      41.458  32.138  34.147  1.00  0.00     0.049 A 
ATOM     65  H   UNL A   1      41.072  30.924  32.466  1.00  0.00     0.167 HD
ATOM     66  C   UNL A   1      39.542  33.222  33.018  1.00  0.00     0.074 A 
ATOM     67  C   UNL A   1      38.560  34.278  32.875  1.00  0.00     0.031 C 
ATOM     68  C   UNL A   1      40.487  33.184  33.986  1.00  0.00     0.037 A 
BRANCH  55  69
ATOM     69  C   UNL A   1      44.385  28.450  33.447  1.00  0.00     0.057 A 
ATOM     70  C   UNL A   1      45.672  28.857  33.084  1.00  0.00     0.134 A 
ATOM     71  C   UNL A   1      44.263  27.362  34.320  1.00  0.00     0.134 A 
ATOM     72  F   UNL A   1      45.848  29.882  32.238  1.00  0.00    -0.206 F 
ATOM     73  C   UNL A   1      46.803  28.198  33.570  1.00  0.00     0.040 A 
ATOM     74  C   UNL A   1      45.385  26.699  34.816  1.00  0.00     0.040 A 
ATOM     75  F   UNL A   1      43.051  26.925  34.695  1.00  0.00    -0.206 F 
ATOM     76  C   UNL A   1      46.660  27.118  34.441  1.00  0.00     0.006 A 
ENDBRANCH  55  69
BRANCH  56  77
ATOM     77  C   UNL A   1      36.295  32.771  29.676  1.00  0.00     0.057 A 
ATOM     78  C   UNL A   1      35.059  32.597  30.306  1.00  0.00     0.134 A 
ATOM     79  C   UNL A   1      36.341  33.567  28.529  1.00  0.00     0.134 A 
ATOM     80  F   UNL A   1      34.961  31.828  31.400  1.00  0.00    -0.206 F 
ATOM     81  C   UNL A   1      33.901  33.193  29.807  1.00  0.00     0.040 A 
ATOM     82  C   UNL A   1      35.192  34.174  28.022  1.00  0.00     0.040 A 
ATOM     83  F   UNL A   1      37.502  33.763  27.887  1.00  0.00    -0.206 F 
ATOM     84  C   UNL A   1      33.967  33.987  28.661  1.00  0.00     0.006 A 
ENDBRANCH  56  77
BRANCH  68  85
ATOM     85  C   UNL A   1      40.499  34.311  34.966  1.00  0.00     0.057 A 
ATOM     86  C   UNL A   1      41.246  35.470  34.721  1.00  0.00     0.134 A 
ATOM     87  C   UNL A   1      39.747  34.252  36.144  1.00  0.00     0.134 A 
ATOM     88  F   UNL A   1      41.992  35.576  33.612  1.00  0.00    -0.206 F 
ATOM     89  C   UNL A   1      41.245  36.536  35.622  1.00  0.00     0.040 A 
ATOM     90  C   UNL A   1      39.740  35.312  37.051  1.00  0.00     0.040 A 
ATOM     91  F   UNL A   1      39.020  33.163  36.433  1.00  0.00    -0.206 F 
ATOM     92  C   UNL A   1      40.490  36.459  36.791  1.00  0.00     0.006 A 
ENDBRANCH  68  85
ENDBRANCH  42  43
ENDBRANCH  34  37
ENDBRANCH  32  33
ENDBRANCH  31  32
ENDBRANCH   1  31
TORSDOF 14
ENDMDL
