MODEL 1
REMARK VINA RESULT:     -13.4      0.000      0.000
REMARK SMILES O=C(NCCCNC(=O)c1ccc(-c2c3nc(c(-c4c(F)cccc4F)c4ccc([nH]4)c(-c4c(F)cccc4F)c4nc(c(-c5c(F)cccc5F)c5ccc2[nH]5)C=C4)C=C3)cc1)C1=Cc2cc(Cl)cc(-c3ccc(Cl)cc3)c2O[C@@H]1C(F)(F)F
REMARK SMILES IDX 5 1 4 2 3 3 1 4 2 5 64 7 65 8 81 9 66 10 80 11 67 12 79 13
REMARK SMILES IDX 68 14 71 15 69 16 70 17 82 18 83 19 84 20 85 21 72 22 73 23
REMARK SMILES IDX 78 24 74 25 77 26 75 27 76 28 6 29 7 30 8 31 9 33 10 34
REMARK SMILES IDX 11 35 63 36 12 37 62 38 13 39 14 40 15 41 56 42 16 43 61 44
REMARK SMILES IDX 55 45 57 46 17 47 60 48 54 49 53 50 18 52 44 53 27 54 43 55
REMARK SMILES IDX 28 56 31 57 42 58 58 59 29 60 30 61 41 63 59 64 32 65 19 66
REMARK SMILES IDX 20 67 25 68 21 69 22 70 24 71 26 72 23 73 45 74 46 75 51 76
REMARK SMILES IDX 47 77 48 78 50 79 52 80 49 81 33 82 34 83 39 84 35 85 36 86
REMARK SMILES IDX 38 87 40 88 37 89
REMARK H PARENT 3 6 7 32 57 51 31 62
REMARK Flexibility Score: inf
ROOT
ATOM      1  C   UNL A   1      32.940  28.335  27.262  1.00  0.00     0.042 C 
ENDROOT
BRANCH   1   2
ATOM      2  C   UNL A   1      32.644  27.231  26.244  1.00  0.00     0.118 C 
BRANCH   2   3
ATOM      3  N   UNL A   1      31.793  26.166  26.787  1.00  0.00    -0.352 N 
ATOM      4  O   UNL A   1      31.189  24.027  27.251  1.00  0.00    -0.270 OA
ATOM      5  C   UNL A   1      31.833  24.811  26.570  1.00  0.00     0.251 C 
ATOM      6  H   UNL A   1      31.085  26.469  27.399  1.00  0.00     0.163 HD
BRANCH   5   7
ATOM      7  C   UNL A   1      32.735  24.345  25.510  1.00  0.00     0.067 C 
ATOM      8  C   UNL A   1      34.047  24.540  25.686  1.00  0.00     0.025 C 
ATOM      9  C   UNL A   1      32.189  23.388  24.500  1.00  0.00     0.314 C 
ATOM     10  C   UNL A   1      34.893  23.440  25.219  1.00  0.00     0.019 A 
ATOM     11  O   UNL A   1      32.939  22.147  24.513  1.00  0.00    -0.475 OA
ATOM     12  C   UNL A   1      36.250  23.472  25.542  1.00  0.00     0.032 A 
ATOM     13  C   UNL A   1      34.276  22.228  24.833  1.00  0.00     0.135 A 
ATOM     14  C   UNL A   1      36.970  22.283  25.577  1.00  0.00     0.042 A 
ATOM     15  C   UNL A   1      34.985  21.019  24.932  1.00  0.00     0.026 A 
ATOM     16  Cl  UNL A   1      38.600  22.300  26.129  1.00  0.00    -0.084 Cl
ATOM     17  C   UNL A   1      36.344  21.069  25.299  1.00  0.00     0.033 A 
BRANCH   9  18
ATOM     18  C   UNL A   1      32.109  24.013  23.096  1.00  0.00     0.429 C 
ATOM     19  F   UNL A   1      30.831  24.330  22.774  1.00  0.00    -0.167 F 
ATOM     20  F   UNL A   1      32.824  25.161  23.019  1.00  0.00    -0.167 F 
ATOM     21  F   UNL A   1      32.572  23.187  22.130  1.00  0.00    -0.167 F 
ENDBRANCH   9  18
BRANCH  15  22
ATOM     22  C   UNL A   1      34.320  19.706  24.888  1.00  0.00    -0.015 A 
ATOM     23  C   UNL A   1      33.094  19.520  25.555  1.00  0.00     0.010 A 
ATOM     24  C   UNL A   1      34.928  18.591  24.300  1.00  0.00     0.010 A 
ATOM     25  C   UNL A   1      32.533  18.251  25.707  1.00  0.00     0.021 A 
ATOM     26  C   UNL A   1      34.355  17.321  24.427  1.00  0.00     0.021 A 
ATOM     27  C   UNL A   1      33.175  17.153  25.151  1.00  0.00     0.041 A 
ATOM     28  Cl  UNL A   1      32.515  15.581  25.376  1.00  0.00    -0.084 Cl
ENDBRANCH  15  22
ENDBRANCH   5   7
ENDBRANCH   2   3
ENDBRANCH   1   2
BRANCH   1  29
ATOM     29  C   UNL A   1      33.440  29.622  26.608  1.00  0.00     0.118 C 
BRANCH  29  30
ATOM     30  N   UNL A   1      33.652  30.737  27.515  1.00  0.00    -0.352 N 
ATOM     31  C   UNL A   1      34.751  31.064  28.283  1.00  0.00     0.251 C 
ATOM     32  H   UNL A   1      32.891  31.358  27.592  1.00  0.00     0.163 HD
ATOM     33  O   UNL A   1      34.704  32.072  28.985  1.00  0.00    -0.269 OA
BRANCH  31  34
ATOM     34  C   UNL A   1      35.931  30.164  28.382  1.00  0.00     0.039 A 
ATOM     35  C   UNL A   1      36.795  30.100  27.281  1.00  0.00     0.014 A 
ATOM     36  C   UNL A   1      36.265  29.471  29.543  1.00  0.00     0.014 A 
ATOM     37  C   UNL A   1      38.046  29.491  27.403  1.00  0.00     0.010 A 
ATOM     38  C   UNL A   1      37.549  28.958  29.703  1.00  0.00     0.010 A 
ATOM     39  C   UNL A   1      38.468  29.005  28.649  1.00  0.00    -0.014 A 
BRANCH  39  40
ATOM     40  C   UNL A   1      39.888  28.651  28.900  1.00  0.00     0.031 A 
ATOM     41  C   UNL A   1      40.839  29.649  29.492  1.00  0.00     0.074 A 
ATOM     42  C   UNL A   1      40.341  27.457  28.464  1.00  0.00     0.049 A 
ATOM     43  N   UNL A   1      42.129  29.547  29.683  1.00  0.00    -0.248 NA
ATOM     44  C   UNL A   1      40.277  30.954  29.878  1.00  0.00     0.031 C 
ATOM     45  C   UNL A   1      39.536  26.446  27.770  1.00  0.00     0.029 A 
ATOM     46  N   UNL A   1      41.589  26.893  28.526  1.00  0.00    -0.354 N 
ATOM     47  C   UNL A   1      42.538  30.778  30.179  1.00  0.00     0.074 A 
ATOM     48  C   UNL A   1      41.367  31.629  30.214  1.00  0.00     0.031 C 
ATOM     49  C   UNL A   1      40.298  25.373  27.511  1.00  0.00     0.029 A 
ATOM     50  C   UNL A   1      41.651  25.629  27.985  1.00  0.00     0.049 A 
ATOM     51  H   UNL A   1      42.369  27.349  28.919  1.00  0.00     0.167 HD
ATOM     52  C   UNL A   1      43.772  31.158  30.587  1.00  0.00     0.037 A 
ATOM     53  C   UNL A   1      42.683  24.771  27.890  1.00  0.00     0.037 A 
ATOM     54  C   UNL A   1      44.918  30.289  30.597  1.00  0.00     0.049 A 
ATOM     55  C   UNL A   1      44.017  25.181  28.441  1.00  0.00     0.074 A 
ATOM     56  C   UNL A   1      46.194  30.544  31.068  1.00  0.00     0.029 A 
ATOM     57  N   UNL A   1      44.920  28.985  30.121  1.00  0.00    -0.354 N 
ATOM     58  N   UNL A   1      44.369  26.322  28.982  1.00  0.00    -0.248 NA
ATOM     59  C   UNL A   1      45.094  24.183  28.380  1.00  0.00     0.031 C 
ATOM     60  C   UNL A   1      46.974  29.400  30.860  1.00  0.00     0.029 A 
ATOM     61  C   UNL A   1      46.175  28.424  30.285  1.00  0.00     0.049 A 
ATOM     62  H   UNL A   1      44.144  28.527  29.725  1.00  0.00     0.167 HD
ATOM     63  C   UNL A   1      45.700  26.176  29.342  1.00  0.00     0.074 A 
ATOM     64  C   UNL A   1      46.088  24.828  28.977  1.00  0.00     0.031 C 
ATOM     65  C   UNL A   1      46.532  27.079  29.917  1.00  0.00     0.037 A 
BRANCH  52  66
ATOM     66  C   UNL A   1      43.934  32.568  31.073  1.00  0.00     0.057 A 
ATOM     67  C   UNL A   1      44.284  33.611  30.205  1.00  0.00     0.134 A 
ATOM     68  C   UNL A   1      43.725  32.893  32.420  1.00  0.00     0.134 A 
ATOM     69  F   UNL A   1      44.510  33.366  28.905  1.00  0.00    -0.206 F 
ATOM     70  C   UNL A   1      44.450  34.919  30.662  1.00  0.00     0.040 A 
ATOM     71  C   UNL A   1      43.865  34.202  32.885  1.00  0.00     0.040 A 
ATOM     72  F   UNL A   1      43.384  31.944  33.305  1.00  0.00    -0.206 F 
ATOM     73  C   UNL A   1      44.236  35.218  32.007  1.00  0.00     0.006 A 
ENDBRANCH  52  66
BRANCH  53  74
ATOM     74  C   UNL A   1      42.480  23.426  27.297  1.00  0.00     0.057 A 
ATOM     75  C   UNL A   1      42.084  22.345  28.094  1.00  0.00     0.134 A 
ATOM     76  C   UNL A   1      42.664  23.188  25.931  1.00  0.00     0.134 A 
ATOM     77  F   UNL A   1      41.903  22.510  29.412  1.00  0.00    -0.206 F 
ATOM     78  C   UNL A   1      41.898  21.070  27.558  1.00  0.00     0.040 A 
ATOM     79  C   UNL A   1      42.461  21.922  25.377  1.00  0.00     0.040 A 
ATOM     80  F   UNL A   1      43.030  24.184  25.112  1.00  0.00    -0.206 F 
ATOM     81  C   UNL A   1      42.084  20.857  26.193  1.00  0.00     0.006 A 
ENDBRANCH  53  74
BRANCH  65  82
ATOM     82  C   UNL A   1      47.930  26.623  30.200  1.00  0.00     0.057 A 
ATOM     83  C   UNL A   1      48.966  26.822  29.280  1.00  0.00     0.134 A 
ATOM     84  C   UNL A   1      48.246  26.004  31.414  1.00  0.00     0.134 A 
ATOM     85  F   UNL A   1      48.720  27.397  28.092  1.00  0.00    -0.206 F 
ATOM     86  C   UNL A   1      50.269  26.405  29.552  1.00  0.00     0.040 A 
ATOM     87  C   UNL A   1      49.549  25.600  31.706  1.00  0.00     0.040 A 
ATOM     88  F   UNL A   1      47.297  25.788  32.338  1.00  0.00    -0.206 F 
ATOM     89  C   UNL A   1      50.563  25.795  30.770  1.00  0.00     0.006 A 
ENDBRANCH  65  82
ENDBRANCH  39  40
ENDBRANCH  31  34
ENDBRANCH  29  30
ENDBRANCH   1  29
TORSDOF 12
ENDMDL
MODEL 2
REMARK VINA RESULT:     -13.3      2.994      6.598
REMARK SMILES O=C(NCCCNC(=O)c1ccc(-c2c3nc(c(-c4c(F)cccc4F)c4ccc([nH]4)c(-c4c(F)cccc4F)c4nc(c(-c5c(F)cccc5F)c5ccc2[nH]5)C=C4)C=C3)cc1)C1=Cc2cc(Cl)cc(-c3ccc(Cl)cc3)c2O[C@@H]1C(F)(F)F
REMARK SMILES IDX 5 1 4 2 3 3 1 4 2 5 64 7 65 8 81 9 66 10 80 11 67 12 79 13
REMARK SMILES IDX 68 14 71 15 69 16 70 17 82 18 83 19 84 20 85 21 72 22 73 23
REMARK SMILES IDX 78 24 74 25 77 26 75 27 76 28 6 29 7 30 8 31 9 33 10 34
REMARK SMILES IDX 11 35 63 36 12 37 62 38 13 39 14 40 15 41 56 42 16 43 61 44
REMARK SMILES IDX 55 45 57 46 17 47 60 48 54 49 53 50 18 52 44 53 27 54 43 55
REMARK SMILES IDX 28 56 31 57 42 58 58 59 29 60 30 61 41 63 59 64 32 65 19 66
REMARK SMILES IDX 20 67 25 68 21 69 22 70 24 71 26 72 23 73 45 74 46 75 51 76
REMARK SMILES IDX 47 77 48 78 50 79 52 80 49 81 33 82 34 83 39 84 35 85 36 86
REMARK SMILES IDX 38 87 40 88 37 89
REMARK H PARENT 3 6 7 32 57 51 31 62
REMARK Flexibility Score: inf
ROOT
ATOM      1  C   UNL A   1      31.732  28.089  26.743  1.00  0.00     0.042 C 
ENDROOT
BRANCH   1   2
ATOM      2  C   UNL A   1      31.944  26.738  26.055  1.00  0.00     0.118 C 
BRANCH   2   3
ATOM      3  N   UNL A   1      31.426  25.610  26.838  1.00  0.00    -0.352 N 
ATOM      4  O   UNL A   1      31.375  23.481  27.626  1.00  0.00    -0.270 OA
ATOM      5  C   UNL A   1      31.738  24.275  26.771  1.00  0.00     0.251 C 
ATOM      6  H   UNL A   1      30.750  25.847  27.514  1.00  0.00     0.163 HD
BRANCH   5   7
ATOM      7  C   UNL A   1      32.581  23.856  25.644  1.00  0.00     0.067 C 
ATOM      8  C   UNL A   1      33.895  24.091  25.737  1.00  0.00     0.025 C 
ATOM      9  C   UNL A   1      31.999  22.899  24.655  1.00  0.00     0.314 C 
ATOM     10  C   UNL A   1      34.741  23.027  25.193  1.00  0.00     0.019 A 
ATOM     11  O   UNL A   1      32.786  21.683  24.594  1.00  0.00    -0.475 OA
ATOM     12  C   UNL A   1      36.116  23.097  25.426  1.00  0.00     0.032 A 
ATOM     13  C   UNL A   1      34.139  21.802  24.826  1.00  0.00     0.135 A 
ATOM     14  C   UNL A   1      36.874  21.932  25.390  1.00  0.00     0.042 A 
ATOM     15  C   UNL A   1      34.889  20.615  24.854  1.00  0.00     0.026 A 
ATOM     16  Cl  UNL A   1      38.535  21.992  25.833  1.00  0.00    -0.084 Cl
ATOM     17  C   UNL A   1      36.268  20.703  25.131  1.00  0.00     0.033 A 
BRANCH   9  18
ATOM     18  C   UNL A   1      31.805  23.545  23.272  1.00  0.00     0.429 C 
ATOM     19  F   UNL A   1      32.443  22.838  22.307  1.00  0.00    -0.167 F 
ATOM     20  F   UNL A   1      30.497  23.587  22.920  1.00  0.00    -0.167 F 
ATOM     21  F   UNL A   1      32.275  24.812  23.216  1.00  0.00    -0.167 F 
ENDBRANCH   9  18
BRANCH  15  22
ATOM     22  C   UNL A   1      34.265  19.282  24.830  1.00  0.00    -0.015 A 
ATOM     23  C   UNL A   1      33.049  19.067  25.507  1.00  0.00     0.010 A 
ATOM     24  C   UNL A   1      34.903  18.180  24.251  1.00  0.00     0.010 A 
ATOM     25  C   UNL A   1      32.528  17.784  25.677  1.00  0.00     0.021 A 
ATOM     26  C   UNL A   1      34.369  16.894  24.396  1.00  0.00     0.021 A 
ATOM     27  C   UNL A   1      33.199  16.699  25.130  1.00  0.00     0.041 A 
ATOM     28  Cl  UNL A   1      32.589  15.111  25.377  1.00  0.00    -0.084 Cl
ENDBRANCH  15  22
ENDBRANCH   5   7
ENDBRANCH   2   3
ENDBRANCH   1   2
BRANCH   1  29
ATOM     29  C   UNL A   1      32.474  29.228  26.046  1.00  0.00     0.118 C 
BRANCH  29  30
ATOM     30  N   UNL A   1      32.277  30.544  26.629  1.00  0.00    -0.352 N 
ATOM     31  C   UNL A   1      33.176  31.387  27.250  1.00  0.00     0.251 C 
ATOM     32  H   UNL A   1      31.356  30.889  26.570  1.00  0.00     0.163 HD
ATOM     33  O   UNL A   1      32.778  32.472  27.671  1.00  0.00    -0.269 OA
BRANCH  31  34
ATOM     34  C   UNL A   1      34.573  30.966  27.537  1.00  0.00     0.039 A 
ATOM     35  C   UNL A   1      35.528  31.971  27.739  1.00  0.00     0.014 A 
ATOM     36  C   UNL A   1      34.947  29.635  27.711  1.00  0.00     0.014 A 
ATOM     37  C   UNL A   1      36.782  31.654  28.266  1.00  0.00     0.010 A 
ATOM     38  C   UNL A   1      36.152  29.326  28.335  1.00  0.00     0.010 A 
ATOM     39  C   UNL A   1      37.062  30.338  28.661  1.00  0.00    -0.014 A 
BRANCH  39  40
ATOM     40  C   UNL A   1      38.237  30.019  29.511  1.00  0.00     0.031 A 
ATOM     41  C   UNL A   1      39.298  29.070  29.037  1.00  0.00     0.074 A 
ATOM     42  C   UNL A   1      38.267  30.496  30.773  1.00  0.00     0.049 A 
ATOM     43  N   UNL A   1      40.333  28.599  29.684  1.00  0.00    -0.248 NA
ATOM     44  C   UNL A   1      39.153  28.540  27.671  1.00  0.00     0.031 C 
ATOM     45  C   UNL A   1      37.234  31.339  31.387  1.00  0.00     0.029 A 
ATOM     46  N   UNL A   1      39.191  30.335  31.773  1.00  0.00    -0.354 N 
ATOM     47  C   UNL A   1      40.942  27.698  28.821  1.00  0.00     0.074 A 
ATOM     48  C   UNL A   1      40.134  27.650  27.621  1.00  0.00     0.031 C 
ATOM     49  C   UNL A   1      37.603  31.653  32.637  1.00  0.00     0.029 A 
ATOM     50  C   UNL A   1      38.877  31.009  32.929  1.00  0.00     0.049 A 
ATOM     51  H   UNL A   1      40.004  29.787  31.673  1.00  0.00     0.167 HD
ATOM     52  C   UNL A   1      42.083  26.991  29.005  1.00  0.00     0.037 A 
ATOM     53  C   UNL A   1      39.545  31.104  34.093  1.00  0.00     0.037 A 
ATOM     54  C   UNL A   1      42.906  27.085  30.180  1.00  0.00     0.049 A 
ATOM     55  C   UNL A   1      40.857  30.390  34.233  1.00  0.00     0.074 A 
ATOM     56  C   UNL A   1      44.124  26.478  30.434  1.00  0.00     0.029 A 
ATOM     57  N   UNL A   1      42.598  27.848  31.297  1.00  0.00    -0.354 N 
ATOM     58  N   UNL A   1      41.462  29.604  33.375  1.00  0.00    -0.248 NA
ATOM     59  C   UNL A   1      41.585  30.582  35.494  1.00  0.00     0.031 C 
ATOM     60  C   UNL A   1      44.544  26.860  31.714  1.00  0.00     0.029 A 
ATOM     61  C   UNL A   1      43.600  27.726  32.244  1.00  0.00     0.049 A 
ATOM     62  H   UNL A   1      41.786  28.394  31.402  1.00  0.00     0.167 HD
ATOM     63  C   UNL A   1      42.648  29.221  33.983  1.00  0.00     0.074 A 
ATOM     64  C   UNL A   1      42.688  29.878  35.275  1.00  0.00     0.031 C 
ATOM     65  C   UNL A   1      43.617  28.394  33.520  1.00  0.00     0.037 A 
BRANCH  52  66
ATOM     66  C   UNL A   1      42.510  26.072  27.898  1.00  0.00     0.057 A 
ATOM     67  C   UNL A   1      42.045  24.753  27.815  1.00  0.00     0.134 A 
ATOM     68  C   UNL A   1      43.383  26.513  26.895  1.00  0.00     0.134 A 
ATOM     69  F   UNL A   1      41.217  24.264  28.751  1.00  0.00    -0.206 F 
ATOM     70  C   UNL A   1      42.457  23.895  26.794  1.00  0.00     0.040 A 
ATOM     71  C   UNL A   1      43.783  25.672  25.854  1.00  0.00     0.040 A 
ATOM     72  F   UNL A   1      43.863  27.766  26.910  1.00  0.00    -0.206 F 
ATOM     73  C   UNL A   1      43.326  24.356  25.806  1.00  0.00     0.006 A 
ENDBRANCH  52  66
BRANCH  53  74
ATOM     74  C   UNL A   1      39.011  31.946  35.192  1.00  0.00     0.057 A 
ATOM     75  C   UNL A   1      39.208  33.333  35.192  1.00  0.00     0.134 A 
ATOM     76  C   UNL A   1      38.288  31.397  36.256  1.00  0.00     0.134 A 
ATOM     77  F   UNL A   1      39.903  33.914  34.204  1.00  0.00    -0.206 F 
ATOM     78  C   UNL A   1      38.723  34.141  36.221  1.00  0.00     0.040 A 
ATOM     79  C   UNL A   1      37.778  32.196  37.282  1.00  0.00     0.040 A 
ATOM     80  F   UNL A   1      38.053  30.078  36.307  1.00  0.00    -0.206 F 
ATOM     81  C   UNL A   1      38.002  33.572  37.269  1.00  0.00     0.006 A 
ENDBRANCH  53  74
BRANCH  65  82
ATOM     82  C   UNL A   1      44.801  28.177  34.408  1.00  0.00     0.057 A 
ATOM     83  C   UNL A   1      44.843  27.124  35.329  1.00  0.00     0.134 A 
ATOM     84  C   UNL A   1      45.920  29.013  34.323  1.00  0.00     0.134 A 
ATOM     85  F   UNL A   1      43.794  26.298  35.467  1.00  0.00    -0.206 F 
ATOM     86  C   UNL A   1      45.952  26.919  36.149  1.00  0.00     0.040 A 
ATOM     87  C   UNL A   1      47.044  28.807  35.124  1.00  0.00     0.040 A 
ATOM     88  F   UNL A   1      45.941  30.038  33.457  1.00  0.00    -0.206 F 
ATOM     89  C   UNL A   1      47.059  27.760  36.044  1.00  0.00     0.006 A 
ENDBRANCH  65  82
ENDBRANCH  39  40
ENDBRANCH  31  34
ENDBRANCH  29  30
ENDBRANCH   1  29
TORSDOF 12
ENDMDL
MODEL 3
REMARK VINA RESULT:     -13.3      3.111      3.986
REMARK SMILES O=C(NCCCNC(=O)c1ccc(-c2c3nc(c(-c4c(F)cccc4F)c4ccc([nH]4)c(-c4c(F)cccc4F)c4nc(c(-c5c(F)cccc5F)c5ccc2[nH]5)C=C4)C=C3)cc1)C1=Cc2cc(Cl)cc(-c3ccc(Cl)cc3)c2O[C@@H]1C(F)(F)F
REMARK SMILES IDX 5 1 4 2 3 3 1 4 2 5 64 7 65 8 81 9 66 10 80 11 67 12 79 13
REMARK SMILES IDX 68 14 71 15 69 16 70 17 82 18 83 19 84 20 85 21 72 22 73 23
REMARK SMILES IDX 78 24 74 25 77 26 75 27 76 28 6 29 7 30 8 31 9 33 10 34
REMARK SMILES IDX 11 35 63 36 12 37 62 38 13 39 14 40 15 41 56 42 16 43 61 44
REMARK SMILES IDX 55 45 57 46 17 47 60 48 54 49 53 50 18 52 44 53 27 54 43 55
REMARK SMILES IDX 28 56 31 57 42 58 58 59 29 60 30 61 41 63 59 64 32 65 19 66
REMARK SMILES IDX 20 67 25 68 21 69 22 70 24 71 26 72 23 73 45 74 46 75 51 76
REMARK SMILES IDX 47 77 48 78 50 79 52 80 49 81 33 82 34 83 39 84 35 85 36 86
REMARK SMILES IDX 38 87 40 88 37 89
REMARK H PARENT 3 6 7 32 57 51 31 62
REMARK Flexibility Score: inf
ROOT
ATOM      1  C   UNL A   1      31.819  28.083  26.752  1.00  0.00     0.042 C 
ENDROOT
BRANCH   1   2
ATOM      2  C   UNL A   1      31.966  26.735  26.042  1.00  0.00     0.118 C 
BRANCH   2   3
ATOM      3  N   UNL A   1      31.449  25.613  26.833  1.00  0.00    -0.352 N 
ATOM      4  O   UNL A   1      31.394  23.486  27.627  1.00  0.00    -0.270 OA
ATOM      5  C   UNL A   1      31.752  24.275  26.766  1.00  0.00     0.251 C 
ATOM      6  H   UNL A   1      30.783  25.855  27.515  1.00  0.00     0.163 HD
BRANCH   5   7
ATOM      7  C   UNL A   1      32.580  23.848  25.631  1.00  0.00     0.067 C 
ATOM      8  C   UNL A   1      33.895  24.085  25.704  1.00  0.00     0.025 C 
ATOM      9  C   UNL A   1      31.985  22.884  24.657  1.00  0.00     0.314 C 
ATOM     10  C   UNL A   1      34.734  23.016  25.156  1.00  0.00     0.019 A 
ATOM     11  O   UNL A   1      32.771  21.668  24.594  1.00  0.00    -0.475 OA
ATOM     12  C   UNL A   1      36.112  23.089  25.370  1.00  0.00     0.032 A 
ATOM     13  C   UNL A   1      34.127  21.789  24.807  1.00  0.00     0.135 A 
ATOM     14  C   UNL A   1      36.870  21.924  25.333  1.00  0.00     0.042 A 
ATOM     15  C   UNL A   1      34.879  20.603  24.834  1.00  0.00     0.026 A 
ATOM     16  Cl  UNL A   1      38.537  21.988  25.752  1.00  0.00    -0.084 Cl
ATOM     17  C   UNL A   1      36.261  20.693  25.091  1.00  0.00     0.033 A 
BRANCH   9  18
ATOM     18  C   UNL A   1      31.772  23.519  23.272  1.00  0.00     0.429 C 
ATOM     19  F   UNL A   1      32.404  22.810  22.305  1.00  0.00    -0.167 F 
ATOM     20  F   UNL A   1      30.460  23.551  22.933  1.00  0.00    -0.167 F 
ATOM     21  F   UNL A   1      32.234  24.789  23.202  1.00  0.00    -0.167 F 
ENDBRANCH   9  18
BRANCH  15  22
ATOM     22  C   UNL A   1      34.255  19.269  24.828  1.00  0.00    -0.015 A 
ATOM     23  C   UNL A   1      33.047  19.059  25.520  1.00  0.00     0.010 A 
ATOM     24  C   UNL A   1      34.886  18.162  24.251  1.00  0.00     0.010 A 
ATOM     25  C   UNL A   1      32.528  17.778  25.707  1.00  0.00     0.021 A 
ATOM     26  C   UNL A   1      34.355  16.878  24.413  1.00  0.00     0.021 A 
ATOM     27  C   UNL A   1      33.193  16.688  25.161  1.00  0.00     0.041 A 
ATOM     28  Cl  UNL A   1      32.587  15.102  25.429  1.00  0.00    -0.084 Cl
ENDBRANCH  15  22
ENDBRANCH   5   7
ENDBRANCH   2   3
ENDBRANCH   1   2
BRANCH   1  29
ATOM     29  C   UNL A   1      32.592  29.203  26.057  1.00  0.00     0.118 C 
BRANCH  29  30
ATOM     30  N   UNL A   1      32.406  30.528  26.623  1.00  0.00    -0.352 N 
ATOM     31  C   UNL A   1      33.305  31.356  27.265  1.00  0.00     0.251 C 
ATOM     32  H   UNL A   1      31.495  30.892  26.534  1.00  0.00     0.163 HD
ATOM     33  O   UNL A   1      32.919  32.453  27.664  1.00  0.00    -0.269 OA
BRANCH  31  34
ATOM     34  C   UNL A   1      34.684  30.908  27.596  1.00  0.00     0.039 A 
ATOM     35  C   UNL A   1      35.611  31.884  27.983  1.00  0.00     0.014 A 
ATOM     36  C   UNL A   1      35.060  29.567  27.634  1.00  0.00     0.014 A 
ATOM     37  C   UNL A   1      36.829  31.510  28.555  1.00  0.00     0.010 A 
ATOM     38  C   UNL A   1      36.221  29.188  28.300  1.00  0.00     0.010 A 
ATOM     39  C   UNL A   1      37.096  30.156  28.808  1.00  0.00    -0.014 A 
BRANCH  39  40
ATOM     40  C   UNL A   1      38.212  29.741  29.694  1.00  0.00     0.031 A 
ATOM     41  C   UNL A   1      38.333  30.281  31.089  1.00  0.00     0.074 A 
ATOM     42  C   UNL A   1      39.192  28.969  29.177  1.00  0.00     0.049 A 
ATOM     43  N   UNL A   1      39.293  30.109  31.960  1.00  0.00    -0.248 NA
ATOM     44  C   UNL A   1      37.256  31.172  31.551  1.00  0.00     0.031 C 
ATOM     45  C   UNL A   1      39.243  28.474  27.797  1.00  0.00     0.029 A 
ATOM     46  N   UNL A   1      40.338  28.474  29.743  1.00  0.00    -0.354 N 
ATOM     47  C   UNL A   1      38.955  30.891  33.057  1.00  0.00     0.074 A 
ATOM     48  C   UNL A   1      37.725  31.577  32.723  1.00  0.00     0.031 C 
ATOM     49  C   UNL A   1      40.336  27.713  27.639  1.00  0.00     0.029 A 
ATOM     50  C   UNL A   1      41.083  27.694  28.890  1.00  0.00     0.049 A 
ATOM     51  H   UNL A   1      40.604  28.659  30.673  1.00  0.00     0.167 HD
ATOM     52  C   UNL A   1      39.601  31.009  34.241  1.00  0.00     0.037 A 
ATOM     53  C   UNL A   1      42.236  27.032  29.095  1.00  0.00     0.037 A 
ATOM     54  C   UNL A   1      40.794  30.283  34.583  1.00  0.00     0.049 A 
ATOM     55  C   UNL A   1      42.877  27.101  30.450  1.00  0.00     0.074 A 
ATOM     56  C   UNL A   1      41.482  30.263  35.784  1.00  0.00     0.029 A 
ATOM     57  N   UNL A   1      41.472  29.434  33.719  1.00  0.00    -0.354 N 
ATOM     58  N   UNL A   1      42.501  27.782  31.505  1.00  0.00    -0.248 NA
ATOM     59  C   UNL A   1      44.095  26.303  30.648  1.00  0.00     0.031 C 
ATOM     60  C   UNL A   1      42.587  29.417  35.641  1.00  0.00     0.029 A 
ATOM     61  C   UNL A   1      42.571  28.887  34.360  1.00  0.00     0.049 A 
ATOM     62  H   UNL A   1      41.210  29.248  32.789  1.00  0.00     0.167 HD
ATOM     63  C   UNL A   1      43.423  27.484  32.497  1.00  0.00     0.074 A 
ATOM     64  C   UNL A   1      44.365  26.542  31.924  1.00  0.00     0.031 C 
ATOM     65  C   UNL A   1      43.490  27.950  33.767  1.00  0.00     0.037 A 
BRANCH  52  66
ATOM     66  C   UNL A   1      39.012  31.945  35.256  1.00  0.00     0.057 A 
ATOM     67  C   UNL A   1      38.187  31.484  36.291  1.00  0.00     0.134 A 
ATOM     68  C   UNL A   1      39.282  33.319  35.209  1.00  0.00     0.134 A 
ATOM     69  F   UNL A   1      37.879  30.182  36.386  1.00  0.00    -0.206 F 
ATOM     70  C   UNL A   1      37.626  32.359  37.224  1.00  0.00     0.040 A 
ATOM     71  C   UNL A   1      38.747  34.200  36.151  1.00  0.00     0.040 A 
ATOM     72  F   UNL A   1      40.067  33.826  34.247  1.00  0.00    -0.206 F 
ATOM     73  C   UNL A   1      37.910  33.722  37.158  1.00  0.00     0.006 A 
ENDBRANCH  52  66
BRANCH  53  74
ATOM     74  C   UNL A   1      42.825  26.208  28.010  1.00  0.00     0.057 A 
ATOM     75  C   UNL A   1      42.482  24.858  27.871  1.00  0.00     0.134 A 
ATOM     76  C   UNL A   1      43.729  26.743  27.086  1.00  0.00     0.134 A 
ATOM     77  F   UNL A   1      41.630  24.287  28.734  1.00  0.00    -0.206 F 
ATOM     78  C   UNL A   1      43.032  24.063  26.864  1.00  0.00     0.040 A 
ATOM     79  C   UNL A   1      44.271  25.966  26.061  1.00  0.00     0.040 A 
ATOM     80  F   UNL A   1      44.087  28.033  27.157  1.00  0.00    -0.206 F 
ATOM     81  C   UNL A   1      43.928  24.619  25.953  1.00  0.00     0.006 A 
ENDBRANCH  53  74
BRANCH  65  82
ATOM     82  C   UNL A   1      44.606  27.431  34.619  1.00  0.00     0.057 A 
ATOM     83  C   UNL A   1      45.836  28.095  34.699  1.00  0.00     0.134 A 
ATOM     84  C   UNL A   1      44.439  26.272  35.386  1.00  0.00     0.134 A 
ATOM     85  F   UNL A   1      46.060  29.202  33.975  1.00  0.00    -0.206 F 
ATOM     86  C   UNL A   1      46.870  27.613  35.501  1.00  0.00     0.040 A 
ATOM     87  C   UNL A   1      45.459  25.791  36.207  1.00  0.00     0.040 A 
ATOM     88  F   UNL A   1      43.281  25.594  35.354  1.00  0.00    -0.206 F 
ATOM     89  C   UNL A   1      46.681  26.460  36.262  1.00  0.00     0.006 A 
ENDBRANCH  65  82
ENDBRANCH  39  40
ENDBRANCH  31  34
ENDBRANCH  29  30
ENDBRANCH   1  29
TORSDOF 12
ENDMDL
