MODEL 1
REMARK VINA RESULT:     -12.1      0.000      0.000
REMARK SMILES Cc1cc(NCc2ccc(C(=O)NCCCNC(=O)c3ccc(-c4c5nc(c(-c6c(F)cccc6F)c6ccc([nH]6)c(-c6c(F)cccc6F)c6nc(c(-c7c(F)cccc7F)c7ccc4[nH]7)C=C6)C=C5)cc3)o2)ccc1F
REMARK SMILES IDX 14 1 13 2 11 3 12 4 10 6 7 7 8 8 74 9 9 10 6 11 5 12 4 14
REMARK SMILES IDX 1 15 2 16 3 17 77 18 76 19 78 20 75 21 15 22 16 23 17 24
REMARK SMILES IDX 18 25 19 27 20 28 21 29 73 30 22 31 72 32 23 33 24 34 25 35
REMARK SMILES IDX 66 36 26 37 71 38 65 39 67 40 27 41 70 42 64 43 63 44 28 46
REMARK SMILES IDX 54 47 37 48 53 49 38 50 41 51 52 52 68 53 39 54 40 55 51 57
REMARK SMILES IDX 69 58 42 59 29 60 30 61 35 62 31 63 32 64 34 65 36 66 33 67
REMARK SMILES IDX 55 68 56 69 61 70 57 71 58 72 60 73 62 74 59 75 43 76 44 77
REMARK SMILES IDX 49 78 45 79 46 80 48 81 50 82 47 83
REMARK H PARENT 13 5 5 13 17 26 67 45 41 56
REMARK Flexibility Score: inf
ROOT
ATOM      1  C   UNL A   1      31.687  29.521  25.624  1.00  0.00     0.118 C 
ENDROOT
BRANCH   1   2
ATOM      2  N   UNL A   1      30.966  30.080  24.504  1.00  0.00    -0.349 N 
ATOM      3  C   UNL A   1      30.316  29.414  23.492  1.00  0.00     0.286 C 
ATOM      4  O   UNL A   1      29.686  30.111  22.694  1.00  0.00    -0.266 OA
ATOM      5  H   UNL A   1      30.937  31.063  24.458  1.00  0.00     0.163 HD
BRANCH   3   6
ATOM      6  C   UNL A   1      30.371  27.965  23.430  1.00  0.00     0.191 A 
ATOM      7  C   UNL A   1      31.215  26.074  22.671  1.00  0.00     0.124 A 
ATOM      8  C   UNL A   1      30.177  25.714  23.494  1.00  0.00     0.048 A 
ATOM      9  O   UNL A   1      31.340  27.427  22.628  1.00  0.00    -0.454 OA
ATOM     10  C   UNL A   1      29.657  26.924  24.001  1.00  0.00     0.056 A 
BRANCH   7  11
ATOM     11  C   UNL A   1      32.203  25.312  21.876  1.00  0.00     0.188 C 
BRANCH  11  12
ATOM     12  N   UNL A   1      32.741  24.172  22.591  1.00  0.00    -0.378 N 
ATOM     13  H   UNL A   1      32.309  23.302  22.432  1.00  0.00     0.161 HD
BRANCH  12  14
ATOM     14  C   UNL A   1      33.802  24.192  23.472  1.00  0.00     0.035 A 
ATOM     15  C   UNL A   1      37.028  22.184  23.893  1.00  0.00     0.047 C 
ATOM     16  C   UNL A   1      35.926  23.164  24.143  1.00  0.00    -0.013 A 
ATOM     17  C   UNL A   1      34.865  23.305  23.238  1.00  0.00     0.032 A 
ATOM     18  C   UNL A   1      35.913  23.933  25.304  1.00  0.00     0.126 A 
ATOM     19  C   UNL A   1      34.883  24.828  25.558  1.00  0.00     0.041 A 
ATOM     20  F   UNL A   1      36.900  23.804  26.203  1.00  0.00    -0.207 F 
ATOM     21  C   UNL A   1      33.831  24.951  24.647  1.00  0.00     0.029 A 
ENDBRANCH  12  14
ENDBRANCH  11  12
ENDBRANCH   7  11
ENDBRANCH   3   6
ENDBRANCH   1   2
BRANCH   1  22
ATOM     22  C   UNL A   1      33.166  29.323  25.282  1.00  0.00     0.042 C 
BRANCH  22  23
ATOM     23  C   UNL A   1      33.979  29.342  26.546  1.00  0.00     0.118 C 
BRANCH  23  24
ATOM     24  N   UNL A   1      34.207  30.715  26.998  1.00  0.00    -0.352 N 
ATOM     25  C   UNL A   1      35.117  31.175  27.923  1.00  0.00     0.251 C 
ATOM     26  H   UNL A   1      33.634  31.402  26.587  1.00  0.00     0.163 HD
ATOM     27  O   UNL A   1      35.042  32.300  28.385  1.00  0.00    -0.269 OA
BRANCH  25  28
ATOM     28  C   UNL A   1      36.231  30.293  28.287  1.00  0.00     0.039 A 
ATOM     29  C   UNL A   1      36.279  29.631  29.519  1.00  0.00     0.014 A 
ATOM     30  C   UNL A   1      37.292  30.229  27.393  1.00  0.00     0.014 A 
ATOM     31  C   UNL A   1      37.442  28.954  29.860  1.00  0.00     0.010 A 
ATOM     32  C   UNL A   1      38.304  29.364  27.608  1.00  0.00     0.010 A 
ATOM     33  C   UNL A   1      38.447  28.876  28.900  1.00  0.00    -0.014 A 
BRANCH  33  34
ATOM     34  C   UNL A   1      39.793  28.404  29.106  1.00  0.00     0.031 A 
ATOM     35  C   UNL A   1      40.116  27.058  28.668  1.00  0.00     0.074 A 
ATOM     36  C   UNL A   1      40.674  29.394  29.383  1.00  0.00     0.049 A 
ATOM     37  N   UNL A   1      41.134  26.398  29.070  1.00  0.00    -0.248 NA
ATOM     38  C   UNL A   1      39.268  26.310  27.744  1.00  0.00     0.031 C 
ATOM     39  C   UNL A   1      42.112  29.472  29.214  1.00  0.00     0.029 A 
ATOM     40  N   UNL A   1      40.348  30.623  29.974  1.00  0.00    -0.354 N 
ATOM     41  C   UNL A   1      41.298  25.357  28.185  1.00  0.00     0.074 A 
ATOM     42  C   UNL A   1      40.022  25.229  27.525  1.00  0.00     0.031 C 
ATOM     43  C   UNL A   1      42.577  30.491  29.969  1.00  0.00     0.029 A 
ATOM     44  C   UNL A   1      41.453  31.008  30.740  1.00  0.00     0.049 A 
ATOM     45  H   UNL A   1      39.503  31.119  29.871  1.00  0.00     0.167 HD
ATOM     46  C   UNL A   1      42.566  24.895  27.985  1.00  0.00     0.037 A 
ATOM     47  C   UNL A   1      41.317  30.943  32.100  1.00  0.00     0.037 A 
ATOM     48  C   UNL A   1      43.496  25.670  28.822  1.00  0.00     0.049 A 
ATOM     49  C   UNL A   1      42.151  29.817  32.661  1.00  0.00     0.074 A 
ATOM     50  C   UNL A   1      44.335  26.738  28.542  1.00  0.00     0.029 A 
ATOM     51  N   UNL A   1      43.343  25.648  30.205  1.00  0.00    -0.354 N 
ATOM     52  N   UNL A   1      42.484  28.740  31.997  1.00  0.00    -0.248 NA
ATOM     53  C   UNL A   1      42.778  29.883  33.974  1.00  0.00     0.031 C 
ATOM     54  C   UNL A   1      44.638  27.390  29.773  1.00  0.00     0.029 A 
ATOM     55  C   UNL A   1      43.989  26.717  30.796  1.00  0.00     0.049 A 
ATOM     56  H   UNL A   1      42.840  24.960  30.698  1.00  0.00     0.167 HD
ATOM     57  C   UNL A   1      43.396  28.015  32.723  1.00  0.00     0.074 A 
ATOM     58  C   UNL A   1      43.540  28.776  33.952  1.00  0.00     0.031 C 
ATOM     59  C   UNL A   1      43.980  26.870  32.249  1.00  0.00     0.037 A 
BRANCH  46  60
ATOM     60  C   UNL A   1      43.029  23.984  26.866  1.00  0.00     0.057 A 
ATOM     61  C   UNL A   1      43.047  22.586  27.056  1.00  0.00     0.134 A 
ATOM     62  C   UNL A   1      43.474  24.386  25.592  1.00  0.00     0.134 A 
ATOM     63  F   UNL A   1      42.596  22.022  28.185  1.00  0.00    -0.206 F 
ATOM     64  C   UNL A   1      43.518  21.681  26.093  1.00  0.00     0.040 A 
ATOM     65  C   UNL A   1      43.970  23.494  24.628  1.00  0.00     0.040 A 
ATOM     66  F   UNL A   1      43.412  25.652  25.177  1.00  0.00    -0.206 F 
ATOM     67  C   UNL A   1      43.996  22.134  24.876  1.00  0.00     0.006 A 
ENDBRANCH  46  60
BRANCH  47  68
ATOM     68  C   UNL A   1      39.934  31.359  32.524  1.00  0.00     0.057 A 
ATOM     69  C   UNL A   1      39.088  30.338  33.012  1.00  0.00     0.134 A 
ATOM     70  C   UNL A   1      39.650  32.661  32.953  1.00  0.00     0.134 A 
ATOM     71  F   UNL A   1      39.282  29.066  32.626  1.00  0.00    -0.206 F 
ATOM     72  C   UNL A   1      38.149  30.567  34.024  1.00  0.00     0.040 A 
ATOM     73  C   UNL A   1      38.688  32.904  33.947  1.00  0.00     0.040 A 
ATOM     74  F   UNL A   1      40.387  33.697  32.530  1.00  0.00    -0.206 F 
ATOM     75  C   UNL A   1      37.983  31.850  34.530  1.00  0.00     0.006 A 
ENDBRANCH  47  68
BRANCH  59  76
ATOM     76  C   UNL A   1      44.666  25.799  33.081  1.00  0.00     0.057 A 
ATOM     77  C   UNL A   1      46.028  25.476  33.006  1.00  0.00     0.134 A 
ATOM     78  C   UNL A   1      43.977  25.155  34.143  1.00  0.00     0.134 A 
ATOM     79  F   UNL A   1      46.858  26.076  32.147  1.00  0.00    -0.206 F 
ATOM     80  C   UNL A   1      46.638  24.552  33.865  1.00  0.00     0.040 A 
ATOM     81  C   UNL A   1      44.595  24.303  35.060  1.00  0.00     0.040 A 
ATOM     82  F   UNL A   1      42.670  25.342  34.372  1.00  0.00    -0.206 F 
ATOM     83  C   UNL A   1      45.930  23.979  34.910  1.00  0.00     0.006 A 
ENDBRANCH  59  76
ENDBRANCH  33  34
ENDBRANCH  25  28
ENDBRANCH  23  24
ENDBRANCH  22  23
ENDBRANCH   1  22
TORSDOF 13
ENDMDL
MODEL 2
REMARK VINA RESULT:     -12.1      3.355      8.401
REMARK SMILES Cc1cc(NCc2ccc(C(=O)NCCCNC(=O)c3ccc(-c4c5nc(c(-c6c(F)cccc6F)c6ccc([nH]6)c(-c6c(F)cccc6F)c6nc(c(-c7c(F)cccc7F)c7ccc4[nH]7)C=C6)C=C5)cc3)o2)ccc1F
REMARK SMILES IDX 14 1 13 2 11 3 12 4 10 6 7 7 8 8 74 9 9 10 6 11 5 12 4 14
REMARK SMILES IDX 1 15 2 16 3 17 77 18 76 19 78 20 75 21 15 22 16 23 17 24
REMARK SMILES IDX 18 25 19 27 20 28 21 29 73 30 22 31 72 32 23 33 24 34 25 35
REMARK SMILES IDX 66 36 26 37 71 38 65 39 67 40 27 41 70 42 64 43 63 44 28 46
REMARK SMILES IDX 54 47 37 48 53 49 38 50 41 51 52 52 68 53 39 54 40 55 51 57
REMARK SMILES IDX 69 58 42 59 29 60 30 61 35 62 31 63 32 64 34 65 36 66 33 67
REMARK SMILES IDX 55 68 56 69 61 70 57 71 58 72 60 73 62 74 59 75 43 76 44 77
REMARK SMILES IDX 49 78 45 79 46 80 48 81 50 82 47 83
REMARK H PARENT 13 5 5 13 17 26 67 45 41 56
REMARK Flexibility Score: inf
ROOT
ATOM      1  C   UNL A   1      35.559  22.299  26.130  1.00  0.00     0.118 C 
ENDROOT
BRANCH   1   2
ATOM      2  N   UNL A   1      34.693  22.217  27.284  1.00  0.00    -0.349 N 
ATOM      3  C   UNL A   1      33.353  22.514  27.365  1.00  0.00     0.286 C 
ATOM      4  O   UNL A   1      32.803  22.273  28.441  1.00  0.00    -0.266 OA
ATOM      5  H   UNL A   1      35.116  21.910  28.118  1.00  0.00     0.163 HD
BRANCH   3   6
ATOM      6  C   UNL A   1      32.660  23.048  26.207  1.00  0.00     0.191 A 
ATOM      7  C   UNL A   1      32.014  24.717  24.918  1.00  0.00     0.124 A 
ATOM      8  C   UNL A   1      31.452  23.588  24.374  1.00  0.00     0.048 A 
ATOM      9  O   UNL A   1      32.745  24.402  26.020  1.00  0.00    -0.454 OA
ATOM     10  C   UNL A   1      31.891  22.519  25.184  1.00  0.00     0.056 A 
BRANCH   7  11
ATOM     11  C   UNL A   1      32.007  26.147  24.540  1.00  0.00     0.188 C 
BRANCH  11  12
ATOM     12  N   UNL A   1      31.548  27.009  25.611  1.00  0.00    -0.378 N 
ATOM     13  H   UNL A   1      30.654  26.824  25.981  1.00  0.00     0.161 HD
BRANCH  12  14
ATOM     14  C   UNL A   1      32.245  28.065  26.159  1.00  0.00     0.035 A 
ATOM     15  C   UNL A   1      31.597  31.803  26.632  1.00  0.00     0.047 C 
ATOM     16  C   UNL A   1      32.280  30.473  26.628  1.00  0.00    -0.013 A 
ATOM     17  C   UNL A   1      31.611  29.317  26.205  1.00  0.00     0.032 A 
ATOM     18  C   UNL A   1      33.614  30.362  27.015  1.00  0.00     0.126 A 
ATOM     19  C   UNL A   1      34.266  29.137  26.992  1.00  0.00     0.041 A 
ATOM     20  F   UNL A   1      34.292  31.453  27.400  1.00  0.00    -0.207 F 
ATOM     21  C   UNL A   1      33.584  27.996  26.561  1.00  0.00     0.029 A 
ENDBRANCH  12  14
ENDBRANCH  11  12
ENDBRANCH   7  11
ENDBRANCH   3   6
ENDBRANCH   1   2
BRANCH   1  22
ATOM     22  C   UNL A   1      36.291  23.642  26.088  1.00  0.00     0.042 C 
BRANCH  22  23
ATOM     23  C   UNL A   1      37.511  23.521  25.219  1.00  0.00     0.118 C 
BRANCH  23  24
ATOM     24  N   UNL A   1      38.534  22.698  25.868  1.00  0.00    -0.352 N 
ATOM     25  C   UNL A   1      39.666  23.105  26.538  1.00  0.00     0.251 C 
ATOM     26  H   UNL A   1      38.394  21.725  25.820  1.00  0.00     0.163 HD
ATOM     27  O   UNL A   1      40.554  22.320  26.820  1.00  0.00    -0.269 OA
BRANCH  25  28
ATOM     28  C   UNL A   1      39.742  24.504  26.969  1.00  0.00     0.039 A 
ATOM     29  C   UNL A   1      40.345  25.490  26.180  1.00  0.00     0.014 A 
ATOM     30  C   UNL A   1      39.282  24.787  28.249  1.00  0.00     0.014 A 
ATOM     31  C   UNL A   1      40.533  26.752  26.729  1.00  0.00     0.010 A 
ATOM     32  C   UNL A   1      39.225  26.064  28.678  1.00  0.00     0.010 A 
ATOM     33  C   UNL A   1      39.998  26.991  27.992  1.00  0.00    -0.014 A 
BRANCH  33  34
ATOM     34  C   UNL A   1      40.243  28.144  28.820  1.00  0.00     0.031 A 
ATOM     35  C   UNL A   1      39.242  29.196  28.835  1.00  0.00     0.074 A 
ATOM     36  C   UNL A   1      41.222  27.952  29.736  1.00  0.00     0.049 A 
ATOM     37  N   UNL A   1      39.460  30.388  29.240  1.00  0.00    -0.248 NA
ATOM     38  C   UNL A   1      37.884  28.991  28.340  1.00  0.00     0.031 C 
ATOM     39  C   UNL A   1      41.488  28.598  31.006  1.00  0.00     0.029 A 
ATOM     40  N   UNL A   1      42.281  27.042  29.605  1.00  0.00    -0.354 N 
ATOM     41  C   UNL A   1      38.226  30.962  29.445  1.00  0.00     0.074 A 
ATOM     42  C   UNL A   1      37.310  30.147  28.688  1.00  0.00     0.031 C 
ATOM     43  C   UNL A   1      42.761  28.330  31.364  1.00  0.00     0.029 A 
ATOM     44  C   UNL A   1      43.380  27.607  30.260  1.00  0.00     0.049 A 
ATOM     45  H   UNL A   1      42.257  26.174  29.140  1.00  0.00     0.167 HD
ATOM     46  C   UNL A   1      38.131  31.923  30.410  1.00  0.00     0.037 A 
ATOM     47  C   UNL A   1      44.402  28.065  29.474  1.00  0.00     0.037 A 
ATOM     48  C   UNL A   1      39.455  32.119  31.022  1.00  0.00     0.049 A 
ATOM     49  C   UNL A   1      44.449  29.574  29.496  1.00  0.00     0.074 A 
ATOM     50  C   UNL A   1      40.020  31.647  32.197  1.00  0.00     0.029 A 
ATOM     51  N   UNL A   1      40.515  32.544  30.226  1.00  0.00    -0.354 N 
ATOM     52  N   UNL A   1      43.416  30.344  29.719  1.00  0.00    -0.248 NA
ATOM     53  C   UNL A   1      45.695  30.322  29.394  1.00  0.00     0.031 C 
ATOM     54  C   UNL A   1      41.436  31.743  32.072  1.00  0.00     0.029 A 
ATOM     55  C   UNL A   1      41.731  32.277  30.827  1.00  0.00     0.049 A 
ATOM     56  H   UNL A   1      40.412  32.979  29.348  1.00  0.00     0.167 HD
ATOM     57  C   UNL A   1      43.833  31.644  29.861  1.00  0.00     0.074 A 
ATOM     58  C   UNL A   1      45.267  31.571  29.645  1.00  0.00     0.031 C 
ATOM     59  C   UNL A   1      42.976  32.667  30.173  1.00  0.00     0.037 A 
BRANCH  46  60
ATOM     60  C   UNL A   1      36.855  32.474  31.014  1.00  0.00     0.057 A 
ATOM     61  C   UNL A   1      36.132  33.480  30.337  1.00  0.00     0.134 A 
ATOM     62  C   UNL A   1      36.275  32.087  32.236  1.00  0.00     0.134 A 
ATOM     63  F   UNL A   1      36.503  33.923  29.128  1.00  0.00    -0.206 F 
ATOM     64  C   UNL A   1      34.977  34.083  30.857  1.00  0.00     0.040 A 
ATOM     65  C   UNL A   1      35.134  32.697  32.780  1.00  0.00     0.040 A 
ATOM     66  F   UNL A   1      36.738  31.066  32.959  1.00  0.00    -0.206 F 
ATOM     67  C   UNL A   1      34.480  33.703  32.092  1.00  0.00     0.006 A 
ENDBRANCH  46  60
BRANCH  47  68
ATOM     68  C   UNL A   1      44.623  27.158  28.294  1.00  0.00     0.057 A 
ATOM     69  C   UNL A   1      44.243  27.662  27.029  1.00  0.00     0.134 A 
ATOM     70  C   UNL A   1      45.607  26.162  28.297  1.00  0.00     0.134 A 
ATOM     71  F   UNL A   1      43.287  28.602  26.943  1.00  0.00    -0.206 F 
ATOM     72  C   UNL A   1      44.942  27.346  25.859  1.00  0.00     0.040 A 
ATOM     73  C   UNL A   1      46.294  25.817  27.122  1.00  0.00     0.040 A 
ATOM     74  F   UNL A   1      46.020  25.612  29.447  1.00  0.00    -0.206 F 
ATOM     75  C   UNL A   1      46.007  26.455  25.914  1.00  0.00     0.006 A 
ENDBRANCH  47  68
BRANCH  59  76
ATOM     76  C   UNL A   1      43.234  34.151  29.964  1.00  0.00     0.057 A 
ATOM     77  C   UNL A   1      43.391  35.090  30.993  1.00  0.00     0.134 A 
ATOM     78  C   UNL A   1      43.509  34.662  28.667  1.00  0.00     0.134 A 
ATOM     79  F   UNL A   1      43.291  34.758  32.284  1.00  0.00    -0.206 F 
ATOM     80  C   UNL A   1      43.729  36.429  30.754  1.00  0.00     0.040 A 
ATOM     81  C   UNL A   1      43.934  35.970  28.428  1.00  0.00     0.040 A 
ATOM     82  F   UNL A   1      43.413  33.912  27.561  1.00  0.00    -0.206 F 
ATOM     83  C   UNL A   1      44.024  36.869  29.473  1.00  0.00     0.006 A 
ENDBRANCH  59  76
ENDBRANCH  33  34
ENDBRANCH  25  28
ENDBRANCH  23  24
ENDBRANCH  22  23
ENDBRANCH   1  22
TORSDOF 13
ENDMDL
MODEL 3
REMARK VINA RESULT:     -12.0      2.019      3.777
REMARK SMILES Cc1cc(NCc2ccc(C(=O)NCCCNC(=O)c3ccc(-c4c5nc(c(-c6c(F)cccc6F)c6ccc([nH]6)c(-c6c(F)cccc6F)c6nc(c(-c7c(F)cccc7F)c7ccc4[nH]7)C=C6)C=C5)cc3)o2)ccc1F
REMARK SMILES IDX 14 1 13 2 11 3 12 4 10 6 7 7 8 8 74 9 9 10 6 11 5 12 4 14
REMARK SMILES IDX 1 15 2 16 3 17 77 18 76 19 78 20 75 21 15 22 16 23 17 24
REMARK SMILES IDX 18 25 19 27 20 28 21 29 73 30 22 31 72 32 23 33 24 34 25 35
REMARK SMILES IDX 66 36 26 37 71 38 65 39 67 40 27 41 70 42 64 43 63 44 28 46
REMARK SMILES IDX 54 47 37 48 53 49 38 50 41 51 52 52 68 53 39 54 40 55 51 57
REMARK SMILES IDX 69 58 42 59 29 60 30 61 35 62 31 63 32 64 34 65 36 66 33 67
REMARK SMILES IDX 55 68 56 69 61 70 57 71 58 72 60 73 62 74 59 75 43 76 44 77
REMARK SMILES IDX 49 78 45 79 46 80 48 81 50 82 47 83
REMARK H PARENT 13 5 5 13 17 26 67 45 41 56
REMARK Flexibility Score: inf
ROOT
ATOM      1  C   UNL A   1      33.402  29.153  24.826  1.00  0.00     0.118 C 
ENDROOT
BRANCH   1   2
ATOM      2  N   UNL A   1      33.953  28.729  23.560  1.00  0.00    -0.349 N 
ATOM      3  C   UNL A   1      33.454  27.793  22.684  1.00  0.00     0.286 C 
ATOM      4  O   UNL A   1      34.054  27.669  21.615  1.00  0.00    -0.266 OA
ATOM      5  H   UNL A   1      34.793  29.164  23.289  1.00  0.00     0.163 HD
BRANCH   3   6
ATOM      6  C   UNL A   1      32.263  27.041  23.033  1.00  0.00     0.191 A 
ATOM      7  C   UNL A   1      30.097  26.885  23.420  1.00  0.00     0.124 A 
ATOM      8  C   UNL A   1      30.609  25.633  23.658  1.00  0.00     0.048 A 
ATOM      9  O   UNL A   1      31.085  27.739  23.042  1.00  0.00    -0.454 OA
ATOM     10  C   UNL A   1      31.989  25.729  23.381  1.00  0.00     0.056 A 
BRANCH   7  11
ATOM     11  C   UNL A   1      28.735  27.459  23.464  1.00  0.00     0.188 C 
BRANCH  11  12
ATOM     12  N   UNL A   1      28.510  28.455  22.436  1.00  0.00    -0.378 N 
ATOM     13  H   UNL A   1      28.362  28.126  21.520  1.00  0.00     0.161 HD
BRANCH  12  14
ATOM     14  C   UNL A   1      28.485  29.822  22.621  1.00  0.00     0.035 A 
ATOM     15  C   UNL A   1      27.737  32.853  20.413  1.00  0.00     0.047 C 
ATOM     16  C   UNL A   1      28.138  32.021  21.590  1.00  0.00    -0.013 A 
ATOM     17  C   UNL A   1      28.078  30.622  21.541  1.00  0.00     0.032 A 
ATOM     18  C   UNL A   1      28.615  32.623  22.752  1.00  0.00     0.126 A 
ATOM     19  C   UNL A   1      29.014  31.861  23.841  1.00  0.00     0.041 A 
ATOM     20  F   UNL A   1      28.710  33.959  22.823  1.00  0.00    -0.207 F 
ATOM     21  C   UNL A   1      28.952  30.466  23.771  1.00  0.00     0.029 A 
ENDBRANCH  12  14
ENDBRANCH  11  12
ENDBRANCH   7  11
ENDBRANCH   3   6
ENDBRANCH   1   2
BRANCH   1  22
ATOM     22  C   UNL A   1      34.087  28.436  25.991  1.00  0.00     0.042 C 
BRANCH  22  23
ATOM     23  C   UNL A   1      33.601  29.013  27.291  1.00  0.00     0.118 C 
BRANCH  23  24
ATOM     24  N   UNL A   1      33.906  30.443  27.372  1.00  0.00    -0.352 N 
ATOM     25  C   UNL A   1      34.965  31.061  27.998  1.00  0.00     0.251 C 
ATOM     26  H   UNL A   1      33.270  31.043  26.919  1.00  0.00     0.163 HD
ATOM     27  O   UNL A   1      34.973  32.263  28.198  1.00  0.00    -0.269 OA
BRANCH  25  28
ATOM     28  C   UNL A   1      36.124  30.238  28.358  1.00  0.00     0.039 A 
ATOM     29  C   UNL A   1      36.249  29.645  29.619  1.00  0.00     0.014 A 
ATOM     30  C   UNL A   1      37.148  30.163  27.422  1.00  0.00     0.014 A 
ATOM     31  C   UNL A   1      37.450  29.027  29.943  1.00  0.00     0.010 A 
ATOM     32  C   UNL A   1      38.199  29.346  27.636  1.00  0.00     0.010 A 
ATOM     33  C   UNL A   1      38.415  28.932  28.944  1.00  0.00    -0.014 A 
BRANCH  33  34
ATOM     34  C   UNL A   1      39.784  28.518  29.116  1.00  0.00     0.031 A 
ATOM     35  C   UNL A   1      40.150  27.182  28.680  1.00  0.00     0.074 A 
ATOM     36  C   UNL A   1      40.632  29.546  29.356  1.00  0.00     0.049 A 
ATOM     37  N   UNL A   1      41.206  26.568  29.059  1.00  0.00    -0.248 NA
ATOM     38  C   UNL A   1      39.307  26.390  27.789  1.00  0.00     0.031 C 
ATOM     39  C   UNL A   1      42.060  29.682  29.145  1.00  0.00     0.029 A 
ATOM     40  N   UNL A   1      40.272  30.767  29.945  1.00  0.00    -0.354 N 
ATOM     41  C   UNL A   1      41.386  25.526  28.178  1.00  0.00     0.074 A 
ATOM     42  C   UNL A   1      40.099  25.338  27.558  1.00  0.00     0.031 C 
ATOM     43  C   UNL A   1      42.503  30.726  29.875  1.00  0.00     0.029 A 
ATOM     44  C   UNL A   1      41.383  31.205  30.675  1.00  0.00     0.049 A 
ATOM     45  H   UNL A   1      39.405  31.226  29.863  1.00  0.00     0.167 HD
ATOM     46  C   UNL A   1      42.666  25.114  27.945  1.00  0.00     0.037 A 
ATOM     47  C   UNL A   1      41.289  31.149  32.039  1.00  0.00     0.037 A 
ATOM     48  C   UNL A   1      43.588  25.935  28.747  1.00  0.00     0.049 A 
ATOM     49  C   UNL A   1      42.185  30.064  32.585  1.00  0.00     0.074 A 
ATOM     50  C   UNL A   1      44.373  27.034  28.433  1.00  0.00     0.029 A 
ATOM     51  N   UNL A   1      43.476  25.922  30.134  1.00  0.00    -0.354 N 
ATOM     52  N   UNL A   1      42.543  28.994  31.922  1.00  0.00    -0.248 NA
ATOM     53  C   UNL A   1      42.847  30.170  33.879  1.00  0.00     0.031 C 
ATOM     54  C   UNL A   1      44.685  27.711  29.647  1.00  0.00     0.029 A 
ATOM     55  C   UNL A   1      44.095  27.022  30.696  1.00  0.00     0.049 A 
ATOM     56  H   UNL A   1      43.016  25.219  30.649  1.00  0.00     0.167 HD
ATOM     57  C   UNL A   1      43.505  28.316  32.628  1.00  0.00     0.074 A 
ATOM     58  C   UNL A   1      43.653  29.095  33.844  1.00  0.00     0.031 C 
ATOM     59  C   UNL A   1      44.121  27.191  32.147  1.00  0.00     0.037 A 
BRANCH  46  60
ATOM     60  C   UNL A   1      43.134  24.211  26.822  1.00  0.00     0.057 A 
ATOM     61  C   UNL A   1      43.095  22.809  26.980  1.00  0.00     0.134 A 
ATOM     62  C   UNL A   1      43.636  24.624  25.573  1.00  0.00     0.134 A 
ATOM     63  F   UNL A   1      42.586  22.238  28.081  1.00  0.00    -0.206 F 
ATOM     64  C   UNL A   1      43.566  21.908  26.013  1.00  0.00     0.040 A 
ATOM     65  C   UNL A   1      44.131  23.736  24.605  1.00  0.00     0.040 A 
ATOM     66  F   UNL A   1      43.633  25.900  25.185  1.00  0.00    -0.206 F 
ATOM     67  C   UNL A   1      44.101  22.370  24.823  1.00  0.00     0.006 A 
ENDBRANCH  46  60
BRANCH  47  68
ATOM     68  C   UNL A   1      39.904  31.512  32.499  1.00  0.00     0.057 A 
ATOM     69  C   UNL A   1      39.123  30.467  33.044  1.00  0.00     0.134 A 
ATOM     70  C   UNL A   1      39.572  32.811  32.903  1.00  0.00     0.134 A 
ATOM     71  F   UNL A   1      39.364  29.195  32.685  1.00  0.00    -0.206 F 
ATOM     72  C   UNL A   1      38.209  30.681  34.082  1.00  0.00     0.040 A 
ATOM     73  C   UNL A   1      38.634  33.037  33.924  1.00  0.00     0.040 A 
ATOM     74  F   UNL A   1      40.245  33.868  32.427  1.00  0.00    -0.206 F 
ATOM     75  C   UNL A   1      37.999  31.969  34.559  1.00  0.00     0.006 A 
ENDBRANCH  47  68
BRANCH  59  76
ATOM     76  C   UNL A   1      44.875  26.158  32.968  1.00  0.00     0.057 A 
ATOM     77  C   UNL A   1      46.249  25.900  32.866  1.00  0.00     0.134 A 
ATOM     78  C   UNL A   1      44.240  25.486  34.047  1.00  0.00     0.134 A 
ATOM     79  F   UNL A   1      47.032  26.536  31.988  1.00  0.00    -0.206 F 
ATOM     80  C   UNL A   1      46.920  25.010  33.716  1.00  0.00     0.040 A 
ATOM     81  C   UNL A   1      44.917  24.668  34.953  1.00  0.00     0.040 A 
ATOM     82  F   UNL A   1      42.930  25.610  34.302  1.00  0.00    -0.206 F 
ATOM     83  C   UNL A   1      46.262  24.409  34.777  1.00  0.00     0.006 A 
ENDBRANCH  59  76
ENDBRANCH  33  34
ENDBRANCH  25  28
ENDBRANCH  23  24
ENDBRANCH  22  23
ENDBRANCH   1  22
TORSDOF 13
ENDMDL
