MODEL 1
REMARK VINA RESULT:     -11.9      0.000      0.000
REMARK SMILES O=C(NCCCNC(=O)c1ccc(-c2c3nc(c(-c4c(F)cccc4F)c4ccc([nH]4)c(-c4c(F)cccc4F)c4nc(c(-c5c(F)cccc5F)c5ccc2[nH]5)C=C4)C=C3)cc1)C1=Cc2c(Cl)ccc(Cl)c2O[C@@H]1C(F)(F)F
REMARK SMILES IDX 5 1 4 2 3 3 1 4 2 5 64 7 65 8 75 9 66 10 74 11 67 12 73 13
REMARK SMILES IDX 68 14 69 15 71 16 70 17 72 18 76 19 77 20 78 21 79 22 6 23
REMARK SMILES IDX 7 24 8 25 9 27 10 28 11 29 63 30 12 31 62 32 13 33 14 34
REMARK SMILES IDX 15 35 56 36 16 37 61 38 55 39 57 40 17 41 60 42 54 43 53 44
REMARK SMILES IDX 18 46 44 47 27 48 43 49 28 50 31 51 42 52 58 53 29 54 30 55
REMARK SMILES IDX 41 57 59 58 32 59 19 60 20 61 25 62 21 63 22 64 24 65 26 66
REMARK SMILES IDX 23 67 45 68 46 69 51 70 47 71 48 72 50 73 52 74 49 75 33 76
REMARK SMILES IDX 34 77 39 78 35 79 36 80 38 81 40 82 37 83
REMARK H PARENT 3 6 7 26 57 45 31 56
REMARK Flexibility Score: inf
ROOT
ATOM      1  C   UNL A   1      37.211  21.329  24.404  1.00  0.00     0.042 C 
ENDROOT
BRANCH   1   2
ATOM      2  C   UNL A   1      37.129  22.709  23.762  1.00  0.00     0.118 C 
BRANCH   2   3
ATOM      3  N   UNL A   1      35.887  22.943  23.029  1.00  0.00    -0.352 N 
ATOM      4  O   UNL A   1      33.906  23.899  22.542  1.00  0.00    -0.270 OA
ATOM      5  C   UNL A   1      34.722  23.573  23.397  1.00  0.00     0.251 C 
ATOM      6  H   UNL A   1      35.883  22.587  22.111  1.00  0.00     0.163 HD
BRANCH   5   7
ATOM      7  C   UNL A   1      34.525  23.978  24.812  1.00  0.00     0.067 C 
ATOM      8  C   UNL A   1      34.473  25.271  25.148  1.00  0.00     0.027 C 
ATOM      9  C   UNL A   1      33.851  22.966  25.681  1.00  0.00     0.314 C 
ATOM     10  C   UNL A   1      33.205  25.727  25.725  1.00  0.00     0.037 A 
ATOM     11  O   UNL A   1      32.546  23.400  26.123  1.00  0.00    -0.474 OA
ATOM     12  C   UNL A   1      32.793  27.069  25.594  1.00  0.00     0.052 A 
ATOM     13  C   UNL A   1      32.257  24.746  26.088  1.00  0.00     0.148 A 
ATOM     14  Cl  UNL A   1      33.868  28.319  25.068  1.00  0.00    -0.084 Cl
ATOM     15  C   UNL A   1      31.449  27.411  25.758  1.00  0.00     0.023 A 
ATOM     16  C   UNL A   1      30.914  25.107  26.259  1.00  0.00     0.083 A 
ATOM     17  C   UNL A   1      30.509  26.430  26.072  1.00  0.00     0.026 A 
ATOM     18  Cl  UNL A   1      29.700  23.915  26.557  1.00  0.00    -0.080 Cl
BRANCH   9  19
ATOM     19  C   UNL A   1      34.759  22.630  26.883  1.00  0.00     0.429 C 
ATOM     20  F   UNL A   1      34.151  22.925  28.056  1.00  0.00    -0.167 F 
ATOM     21  F   UNL A   1      35.079  21.314  26.925  1.00  0.00    -0.167 F 
ATOM     22  F   UNL A   1      35.925  23.321  26.852  1.00  0.00    -0.167 F 
ENDBRANCH   9  19
ENDBRANCH   5   7
ENDBRANCH   2   3
ENDBRANCH   1   2
BRANCH   1  23
ATOM     23  C   UNL A   1      38.197  21.285  25.568  1.00  0.00     0.118 C 
BRANCH  23  24
ATOM     24  N   UNL A   1      39.089  20.129  25.534  1.00  0.00    -0.352 N 
ATOM     25  C   UNL A   1      40.411  19.958  25.908  1.00  0.00     0.251 C 
ATOM     26  H   UNL A   1      38.669  19.314  25.176  1.00  0.00     0.163 HD
ATOM     27  O   UNL A   1      40.972  18.916  25.658  1.00  0.00    -0.269 OA
BRANCH  25  28
ATOM     28  C   UNL A   1      41.162  21.064  26.558  1.00  0.00     0.039 A 
ATOM     29  C   UNL A   1      41.843  21.981  25.748  1.00  0.00     0.014 A 
ATOM     30  C   UNL A   1      41.189  21.218  27.940  1.00  0.00     0.014 A 
ATOM     31  C   UNL A   1      42.418  23.119  26.319  1.00  0.00     0.010 A 
ATOM     32  C   UNL A   1      41.649  22.408  28.492  1.00  0.00     0.010 A 
ATOM     33  C   UNL A   1      42.249  23.385  27.685  1.00  0.00    -0.014 A 
BRANCH  33  34
ATOM     34  C   UNL A   1      42.637  24.686  28.295  1.00  0.00     0.031 A 
ATOM     35  C   UNL A   1      41.607  25.762  28.508  1.00  0.00     0.074 A 
ATOM     36  C   UNL A   1      43.939  24.945  28.533  1.00  0.00     0.049 A 
ATOM     37  N   UNL A   1      41.777  27.016  28.843  1.00  0.00    -0.248 NA
ATOM     38  C   UNL A   1      40.203  25.392  28.267  1.00  0.00     0.031 C 
ATOM     39  C   UNL A   1      45.048  24.014  28.309  1.00  0.00     0.029 A 
ATOM     40  N   UNL A   1      44.556  26.082  28.997  1.00  0.00    -0.354 N 
ATOM     41  C   UNL A   1      40.512  27.588  28.818  1.00  0.00     0.074 A 
ATOM     42  C   UNL A   1      39.590  26.561  28.386  1.00  0.00     0.031 C 
ATOM     43  C   UNL A   1      46.201  24.604  28.659  1.00  0.00     0.029 A 
ATOM     44  C   UNL A   1      45.924  25.972  29.080  1.00  0.00     0.049 A 
ATOM     45  H   UNL A   1      44.064  26.897  29.246  1.00  0.00     0.167 HD
ATOM     46  C   UNL A   1      40.147  28.850  29.146  1.00  0.00     0.037 A 
ATOM     47  C   UNL A   1      46.855  26.877  29.436  1.00  0.00     0.037 A 
ATOM     48  C   UNL A   1      41.058  29.856  29.627  1.00  0.00     0.049 A 
ATOM     49  C   UNL A   1      46.422  28.265  29.810  1.00  0.00     0.074 A 
ATOM     50  C   UNL A   1      40.771  31.134  30.075  1.00  0.00     0.029 A 
ATOM     51  N   UNL A   1      42.430  29.693  29.727  1.00  0.00    -0.354 N 
ATOM     52  N   UNL A   1      45.214  28.773  29.842  1.00  0.00    -0.248 NA
ATOM     53  C   UNL A   1      47.482  29.208  30.194  1.00  0.00     0.031 C 
ATOM     54  C   UNL A   1      41.977  31.758  30.412  1.00  0.00     0.029 A 
ATOM     55  C   UNL A   1      43.009  30.856  30.208  1.00  0.00     0.049 A 
ATOM     56  H   UNL A   1      42.921  28.873  29.491  1.00  0.00     0.167 HD
ATOM     57  C   UNL A   1      45.367  30.088  30.259  1.00  0.00     0.074 A 
ATOM     58  C   UNL A   1      46.781  30.294  30.490  1.00  0.00     0.031 C 
ATOM     59  C   UNL A   1      44.420  31.042  30.430  1.00  0.00     0.037 A 
BRANCH  46  60
ATOM     60  C   UNL A   1      38.696  29.210  29.011  1.00  0.00     0.057 A 
ATOM     61  C   UNL A   1      38.140  29.584  27.780  1.00  0.00     0.134 A 
ATOM     62  C   UNL A   1      37.837  29.151  30.116  1.00  0.00     0.134 A 
ATOM     63  F   UNL A   1      38.911  29.672  26.685  1.00  0.00    -0.206 F 
ATOM     64  C   UNL A   1      36.790  29.914  27.658  1.00  0.00     0.040 A 
ATOM     65  C   UNL A   1      36.479  29.453  30.000  1.00  0.00     0.040 A 
ATOM     66  F   UNL A   1      38.302  28.796  31.322  1.00  0.00    -0.206 F 
ATOM     67  C   UNL A   1      35.953  29.842  28.771  1.00  0.00     0.006 A 
ENDBRANCH  46  60
BRANCH  47  68
ATOM     68  C   UNL A   1      48.290  26.497  29.462  1.00  0.00     0.057 A 
ATOM     69  C   UNL A   1      49.117  26.743  28.359  1.00  0.00     0.134 A 
ATOM     70  C   UNL A   1      48.869  25.883  30.578  1.00  0.00     0.134 A 
ATOM     71  F   UNL A   1      48.615  27.311  27.254  1.00  0.00    -0.206 F 
ATOM     72  C   UNL A   1      50.464  26.374  28.358  1.00  0.00     0.040 A 
ATOM     73  C   UNL A   1      50.220  25.530  30.599  1.00  0.00     0.040 A 
ATOM     74  F   UNL A   1      48.132  25.628  31.670  1.00  0.00    -0.206 F 
ATOM     75  C   UNL A   1      51.019  25.770  29.483  1.00  0.00     0.006 A 
ENDBRANCH  47  68
BRANCH  59  76
ATOM     76  C   UNL A   1      44.884  32.387  30.899  1.00  0.00     0.057 A 
ATOM     77  C   UNL A   1      45.019  32.683  32.260  1.00  0.00     0.134 A 
ATOM     78  C   UNL A   1      45.236  33.384  29.979  1.00  0.00     0.134 A 
ATOM     79  F   UNL A   1      44.683  31.775  33.190  1.00  0.00    -0.206 F 
ATOM     80  C   UNL A   1      45.473  33.929  32.692  1.00  0.00     0.040 A 
ATOM     81  C   UNL A   1      45.713  34.625  30.399  1.00  0.00     0.040 A 
ATOM     82  F   UNL A   1      45.135  33.160  28.660  1.00  0.00    -0.206 F 
ATOM     83  C   UNL A   1      45.829  34.902  31.760  1.00  0.00     0.006 A 
ENDBRANCH  59  76
ENDBRANCH  33  34
ENDBRANCH  25  28
ENDBRANCH  23  24
ENDBRANCH   1  23
TORSDOF 11
ENDMDL
MODEL 2
REMARK VINA RESULT:     -11.8      2.664      7.308
REMARK SMILES O=C(NCCCNC(=O)c1ccc(-c2c3nc(c(-c4c(F)cccc4F)c4ccc([nH]4)c(-c4c(F)cccc4F)c4nc(c(-c5c(F)cccc5F)c5ccc2[nH]5)C=C4)C=C3)cc1)C1=Cc2c(Cl)ccc(Cl)c2O[C@@H]1C(F)(F)F
REMARK SMILES IDX 5 1 4 2 3 3 1 4 2 5 64 7 65 8 75 9 66 10 74 11 67 12 73 13
REMARK SMILES IDX 68 14 69 15 71 16 70 17 72 18 76 19 77 20 78 21 79 22 6 23
REMARK SMILES IDX 7 24 8 25 9 27 10 28 11 29 63 30 12 31 62 32 13 33 14 34
REMARK SMILES IDX 15 35 56 36 16 37 61 38 55 39 57 40 17 41 60 42 54 43 53 44
REMARK SMILES IDX 18 46 44 47 27 48 43 49 28 50 31 51 42 52 58 53 29 54 30 55
REMARK SMILES IDX 41 57 59 58 32 59 19 60 20 61 25 62 21 63 22 64 24 65 26 66
REMARK SMILES IDX 23 67 45 68 46 69 51 70 47 71 48 72 50 73 52 74 49 75 33 76
REMARK SMILES IDX 34 77 39 78 35 79 36 80 38 81 40 82 37 83
REMARK H PARENT 3 6 7 26 57 45 31 56
REMARK Flexibility Score: inf
ROOT
ATOM      1  C   UNL A   1      32.148  28.716  27.274  1.00  0.00     0.042 C 
ENDROOT
BRANCH   1   2
ATOM      2  C   UNL A   1      31.849  27.652  26.224  1.00  0.00     0.118 C 
BRANCH   2   3
ATOM      3  N   UNL A   1      31.390  26.384  26.786  1.00  0.00    -0.352 N 
ATOM      4  O   UNL A   1      31.425  24.180  27.251  1.00  0.00    -0.270 OA
ATOM      5  C   UNL A   1      31.717  25.085  26.477  1.00  0.00     0.251 C 
ATOM      6  H   UNL A   1      30.732  26.475  27.512  1.00  0.00     0.163 HD
BRANCH   5   7
ATOM      7  C   UNL A   1      32.543  24.804  25.275  1.00  0.00     0.067 C 
ATOM      8  C   UNL A   1      33.860  24.604  25.387  1.00  0.00     0.027 C 
ATOM      9  C   UNL A   1      31.808  24.217  24.115  1.00  0.00     0.314 C 
ATOM     10  C   UNL A   1      34.338  23.279  24.985  1.00  0.00     0.037 A 
ATOM     11  O   UNL A   1      32.216  22.861  23.831  1.00  0.00    -0.474 OA
ATOM     12  C   UNL A   1      35.507  22.730  25.550  1.00  0.00     0.052 A 
ATOM     13  C   UNL A   1      33.434  22.431  24.308  1.00  0.00     0.148 A 
ATOM     14  Cl  UNL A   1      36.624  23.680  26.470  1.00  0.00    -0.084 Cl
ATOM     15  C   UNL A   1      35.733  21.352  25.499  1.00  0.00     0.023 A 
ATOM     16  C   UNL A   1      33.681  21.053  24.256  1.00  0.00     0.083 A 
ATOM     17  C   UNL A   1      34.813  20.514  24.869  1.00  0.00     0.026 A 
ATOM     18  Cl  UNL A   1      32.528  19.965  23.569  1.00  0.00    -0.080 Cl
BRANCH   9  19
ATOM     19  C   UNL A   1      31.991  25.121  22.877  1.00  0.00     0.429 C 
ATOM     20  F   UNL A   1      32.726  24.504  21.922  1.00  0.00    -0.167 F 
ATOM     21  F   UNL A   1      30.806  25.450  22.309  1.00  0.00    -0.167 F 
ATOM     22  F   UNL A   1      32.622  26.282  23.179  1.00  0.00    -0.167 F 
ENDBRANCH   9  19
ENDBRANCH   5   7
ENDBRANCH   2   3
ENDBRANCH   1   2
BRANCH   1  23
ATOM     23  C   UNL A   1      33.603  29.172  27.245  1.00  0.00     0.118 C 
BRANCH  23  24
ATOM     24  N   UNL A   1      33.842  30.409  27.983  1.00  0.00    -0.352 N 
ATOM     25  C   UNL A   1      34.938  30.881  28.685  1.00  0.00     0.251 C 
ATOM     26  H   UNL A   1      33.076  31.027  27.982  1.00  0.00     0.163 HD
ATOM     27  O   UNL A   1      34.841  31.902  29.328  1.00  0.00    -0.269 OA
BRANCH  25  28
ATOM     28  C   UNL A   1      36.212  30.116  28.702  1.00  0.00     0.039 A 
ATOM     29  C   UNL A   1      37.040  30.164  27.575  1.00  0.00     0.014 A 
ATOM     30  C   UNL A   1      36.607  29.375  29.811  1.00  0.00     0.014 A 
ATOM     31  C   UNL A   1      38.315  29.592  27.622  1.00  0.00     0.010 A 
ATOM     32  C   UNL A   1      37.916  28.917  29.904  1.00  0.00     0.010 A 
ATOM     33  C   UNL A   1      38.795  29.041  28.819  1.00  0.00    -0.014 A 
BRANCH  33  34
ATOM     34  C   UNL A   1      40.216  28.632  28.990  1.00  0.00     0.031 A 
ATOM     35  C   UNL A   1      41.240  29.626  29.467  1.00  0.00     0.074 A 
ATOM     36  C   UNL A   1      40.605  27.404  28.591  1.00  0.00     0.049 A 
ATOM     37  N   UNL A   1      42.544  29.519  29.498  1.00  0.00    -0.248 NA
ATOM     38  C   UNL A   1      40.734  30.929  29.926  1.00  0.00     0.031 C 
ATOM     39  C   UNL A   1      39.725  26.366  28.048  1.00  0.00     0.029 A 
ATOM     40  N   UNL A   1      41.851  26.826  28.557  1.00  0.00    -0.354 N 
ATOM     41  C   UNL A   1      43.013  30.748  29.943  1.00  0.00     0.074 A 
ATOM     42  C   UNL A   1      41.859  31.602  30.122  1.00  0.00     0.031 C 
ATOM     43  C   UNL A   1      40.451  25.273  27.762  1.00  0.00     0.029 A 
ATOM     44  C   UNL A   1      41.854  25.549  28.048  1.00  0.00     0.049 A 
ATOM     45  H   UNL A   1      42.665  27.283  28.870  1.00  0.00     0.167 HD
ATOM     46  C   UNL A   1      44.287  31.125  30.202  1.00  0.00     0.037 A 
ATOM     47  C   UNL A   1      42.873  24.701  27.816  1.00  0.00     0.037 A 
ATOM     48  C   UNL A   1      45.429  30.258  30.075  1.00  0.00     0.049 A 
ATOM     49  C   UNL A   1      44.275  25.138  28.127  1.00  0.00     0.074 A 
ATOM     50  C   UNL A   1      46.748  30.518  30.403  1.00  0.00     0.029 A 
ATOM     51  N   UNL A   1      45.383  28.962  29.587  1.00  0.00    -0.354 N 
ATOM     52  N   UNL A   1      44.696  26.283  28.607  1.00  0.00    -0.248 NA
ATOM     53  C   UNL A   1      45.346  24.168  27.857  1.00  0.00     0.031 C 
ATOM     54  C   UNL A   1      47.507  29.389  30.077  1.00  0.00     0.029 A 
ATOM     55  C   UNL A   1      46.656  28.415  29.582  1.00  0.00     0.049 A 
ATOM     56  H   UNL A   1      44.567  28.499  29.287  1.00  0.00     0.167 HD
ATOM     57  C   UNL A   1      46.075  26.167  28.709  1.00  0.00     0.074 A 
ATOM     58  C   UNL A   1      46.419  24.834  28.262  1.00  0.00     0.031 C 
ATOM     59  C   UNL A   1      46.978  27.086  29.130  1.00  0.00     0.037 A 
BRANCH  46  60
ATOM     60  C   UNL A   1      44.512  32.536  30.664  1.00  0.00     0.057 A 
ATOM     61  C   UNL A   1      44.488  32.880  32.023  1.00  0.00     0.134 A 
ATOM     62  C   UNL A   1      44.789  33.556  29.745  1.00  0.00     0.134 A 
ATOM     63  F   UNL A   1      44.217  31.953  32.954  1.00  0.00    -0.206 F 
ATOM     64  C   UNL A   1      44.702  34.192  32.448  1.00  0.00     0.040 A 
ATOM     65  C   UNL A   1      45.031  34.867  30.161  1.00  0.00     0.040 A 
ATOM     66  F   UNL A   1      44.833  33.295  28.431  1.00  0.00    -0.206 F 
ATOM     67  C   UNL A   1      44.981  35.189  31.515  1.00  0.00     0.006 A 
ENDBRANCH  46  60
BRANCH  47  68
ATOM     68  C   UNL A   1      42.605  23.347  27.268  1.00  0.00     0.057 A 
ATOM     69  C   UNL A   1      42.282  22.281  28.117  1.00  0.00     0.134 A 
ATOM     70  C   UNL A   1      42.667  23.082  25.896  1.00  0.00     0.134 A 
ATOM     71  F   UNL A   1      42.226  22.469  29.443  1.00  0.00    -0.206 F 
ATOM     72  C   UNL A   1      42.047  20.997  27.622  1.00  0.00     0.040 A 
ATOM     73  C   UNL A   1      42.412  21.808  25.385  1.00  0.00     0.040 A 
ATOM     74  F   UNL A   1      42.964  24.063  25.029  1.00  0.00    -0.206 F 
ATOM     75  C   UNL A   1      42.108  20.760  26.251  1.00  0.00     0.006 A 
ENDBRANCH  47  68
BRANCH  59  76
ATOM     76  C   UNL A   1      48.418  26.674  29.137  1.00  0.00     0.057 A 
ATOM     77  C   UNL A   1      49.264  26.946  28.055  1.00  0.00     0.134 A 
ATOM     78  C   UNL A   1      48.974  26.032  30.251  1.00  0.00     0.134 A 
ATOM     79  F   UNL A   1      48.787  27.543  26.952  1.00  0.00    -0.206 F 
ATOM     80  C   UNL A   1      50.610  26.580  28.074  1.00  0.00     0.040 A 
ATOM     81  C   UNL A   1      50.324  25.683  30.291  1.00  0.00     0.040 A 
ATOM     82  F   UNL A   1      48.217  25.749  31.322  1.00  0.00    -0.206 F 
ATOM     83  C   UNL A   1      51.145  25.953  29.198  1.00  0.00     0.006 A 
ENDBRANCH  59  76
ENDBRANCH  33  34
ENDBRANCH  25  28
ENDBRANCH  23  24
ENDBRANCH   1  23
TORSDOF 11
ENDMDL
MODEL 3
REMARK VINA RESULT:     -11.7      1.099      2.279
REMARK SMILES O=C(NCCCNC(=O)c1ccc(-c2c3nc(c(-c4c(F)cccc4F)c4ccc([nH]4)c(-c4c(F)cccc4F)c4nc(c(-c5c(F)cccc5F)c5ccc2[nH]5)C=C4)C=C3)cc1)C1=Cc2c(Cl)ccc(Cl)c2O[C@@H]1C(F)(F)F
REMARK SMILES IDX 5 1 4 2 3 3 1 4 2 5 64 7 65 8 75 9 66 10 74 11 67 12 73 13
REMARK SMILES IDX 68 14 69 15 71 16 70 17 72 18 76 19 77 20 78 21 79 22 6 23
REMARK SMILES IDX 7 24 8 25 9 27 10 28 11 29 63 30 12 31 62 32 13 33 14 34
REMARK SMILES IDX 15 35 56 36 16 37 61 38 55 39 57 40 17 41 60 42 54 43 53 44
REMARK SMILES IDX 18 46 44 47 27 48 43 49 28 50 31 51 42 52 58 53 29 54 30 55
REMARK SMILES IDX 41 57 59 58 32 59 19 60 20 61 25 62 21 63 22 64 24 65 26 66
REMARK SMILES IDX 23 67 45 68 46 69 51 70 47 71 48 72 50 73 52 74 49 75 33 76
REMARK SMILES IDX 34 77 39 78 35 79 36 80 38 81 40 82 37 83
REMARK H PARENT 3 6 7 26 57 45 31 56
REMARK Flexibility Score: inf
ROOT
ATOM      1  C   UNL A   1      37.271  21.164  24.655  1.00  0.00     0.042 C 
ENDROOT
BRANCH   1   2
ATOM      2  C   UNL A   1      35.924  20.771  25.250  1.00  0.00     0.118 C 
BRANCH   2   3
ATOM      3  N   UNL A   1      35.606  21.467  26.495  1.00  0.00    -0.352 N 
ATOM      4  O   UNL A   1      34.414  22.738  27.922  1.00  0.00    -0.270 OA
ATOM      5  C   UNL A   1      34.724  22.487  26.763  1.00  0.00     0.251 C 
ATOM      6  H   UNL A   1      36.111  21.150  27.278  1.00  0.00     0.163 HD
BRANCH   5   7
ATOM      7  C   UNL A   1      34.050  23.185  25.639  1.00  0.00     0.067 C 
ATOM      8  C   UNL A   1      32.722  23.343  25.637  1.00  0.00     0.027 C 
ATOM      9  C   UNL A   1      34.904  24.142  24.873  1.00  0.00     0.314 C 
ATOM     10  C   UNL A   1      32.247  24.729  25.671  1.00  0.00     0.037 A 
ATOM     11  O   UNL A   1      34.481  25.513  25.037  1.00  0.00    -0.474 OA
ATOM     12  C   UNL A   1      30.994  25.050  26.231  1.00  0.00     0.052 A 
ATOM     13  C   UNL A   1      33.195  25.755  25.468  1.00  0.00     0.148 A 
ATOM     14  Cl  UNL A   1      29.807  23.843  26.595  1.00  0.00    -0.084 Cl
ATOM     15  C   UNL A   1      30.720  26.356  26.642  1.00  0.00     0.023 A 
ATOM     16  C   UNL A   1      32.902  27.063  25.875  1.00  0.00     0.083 A 
ATOM     17  C   UNL A   1      31.679  27.356  26.481  1.00  0.00     0.026 A 
ATOM     18  Cl  UNL A   1      34.089  28.314  25.781  1.00  0.00    -0.080 Cl
BRANCH   9  19
ATOM     19  C   UNL A   1      34.918  23.742  23.382  1.00  0.00     0.429 C 
ATOM     20  F   UNL A   1      36.183  23.608  22.921  1.00  0.00    -0.167 F 
ATOM     21  F   UNL A   1      34.294  22.559  23.168  1.00  0.00    -0.167 F 
ATOM     22  F   UNL A   1      34.302  24.662  22.599  1.00  0.00    -0.167 F 
ENDBRANCH   9  19
ENDBRANCH   5   7
ENDBRANCH   2   3
ENDBRANCH   1   2
BRANCH   1  23
ATOM     23  C   UNL A   1      38.377  21.224  25.704  1.00  0.00     0.118 C 
BRANCH  23  24
ATOM     24  N   UNL A   1      39.300  20.094  25.644  1.00  0.00    -0.352 N 
ATOM     25  C   UNL A   1      40.638  19.962  25.974  1.00  0.00     0.251 C 
ATOM     26  H   UNL A   1      38.892  19.265  25.305  1.00  0.00     0.163 HD
ATOM     27  O   UNL A   1      41.219  18.934  25.710  1.00  0.00    -0.269 OA
BRANCH  25  28
ATOM     28  C   UNL A   1      41.379  21.091  26.595  1.00  0.00     0.039 A 
ATOM     29  C   UNL A   1      41.961  22.052  25.759  1.00  0.00     0.014 A 
ATOM     30  C   UNL A   1      41.491  21.225  27.975  1.00  0.00     0.014 A 
ATOM     31  C   UNL A   1      42.520  23.208  26.312  1.00  0.00     0.010 A 
ATOM     32  C   UNL A   1      41.931  22.427  28.517  1.00  0.00     0.010 A 
ATOM     33  C   UNL A   1      42.430  23.444  27.691  1.00  0.00    -0.014 A 
BRANCH  33  34
ATOM     34  C   UNL A   1      42.797  24.752  28.298  1.00  0.00     0.031 A 
ATOM     35  C   UNL A   1      41.749  25.809  28.516  1.00  0.00     0.074 A 
ATOM     36  C   UNL A   1      44.095  25.035  28.530  1.00  0.00     0.049 A 
ATOM     37  N   UNL A   1      41.898  27.066  28.850  1.00  0.00    -0.248 NA
ATOM     38  C   UNL A   1      40.351  25.413  28.282  1.00  0.00     0.031 C 
ATOM     39  C   UNL A   1      45.220  24.124  28.300  1.00  0.00     0.029 A 
ATOM     40  N   UNL A   1      44.694  26.183  28.990  1.00  0.00    -0.354 N 
ATOM     41  C   UNL A   1      40.622  27.615  28.830  1.00  0.00     0.074 A 
ATOM     42  C   UNL A   1      39.717  26.571  28.404  1.00  0.00     0.031 C 
ATOM     43  C   UNL A   1      46.364  24.735  28.645  1.00  0.00     0.029 A 
ATOM     44  C   UNL A   1      46.064  26.098  29.066  1.00  0.00     0.049 A 
ATOM     45  H   UNL A   1      44.189  26.989  29.241  1.00  0.00     0.167 HD
ATOM     46  C   UNL A   1      40.236  28.870  29.161  1.00  0.00     0.037 A 
ATOM     47  C   UNL A   1      46.980  27.020  29.417  1.00  0.00     0.037 A 
ATOM     48  C   UNL A   1      41.131  29.893  29.636  1.00  0.00     0.049 A 
ATOM     49  C   UNL A   1      46.524  28.400  29.793  1.00  0.00     0.074 A 
ATOM     50  C   UNL A   1      40.823  31.165  30.084  1.00  0.00     0.029 A 
ATOM     51  N   UNL A   1      42.506  29.755  29.729  1.00  0.00    -0.354 N 
ATOM     52  N   UNL A   1      45.307  28.886  29.831  1.00  0.00    -0.248 NA
ATOM     53  C   UNL A   1      47.569  29.363  30.171  1.00  0.00     0.031 C 
ATOM     54  C   UNL A   1      42.019  31.811  30.415  1.00  0.00     0.029 A 
ATOM     55  C   UNL A   1      43.066  30.929  30.207  1.00  0.00     0.049 A 
ATOM     56  H   UNL A   1      43.011  28.944  29.491  1.00  0.00     0.167 HD
ATOM     57  C   UNL A   1      45.438  30.203  30.246  1.00  0.00     0.074 A 
ATOM     58  C   UNL A   1      46.849  30.435  30.470  1.00  0.00     0.031 C 
ATOM     59  C   UNL A   1      44.474  31.141  30.421  1.00  0.00     0.037 A 
BRANCH  46  60
ATOM     60  C   UNL A   1      38.778  29.203  29.032  1.00  0.00     0.057 A 
ATOM     61  C   UNL A   1      38.207  29.558  27.802  1.00  0.00     0.134 A 
ATOM     62  C   UNL A   1      37.927  29.138  30.143  1.00  0.00     0.134 A 
ATOM     63  F   UNL A   1      38.969  29.651  26.702  1.00  0.00    -0.206 F 
ATOM     64  C   UNL A   1      36.851  29.863  27.687  1.00  0.00     0.040 A 
ATOM     65  C   UNL A   1      36.563  29.415  30.035  1.00  0.00     0.040 A 
ATOM     66  F   UNL A   1      38.407  28.800  31.349  1.00  0.00    -0.206 F 
ATOM     67  C   UNL A   1      36.023  29.785  28.806  1.00  0.00     0.006 A 
ENDBRANCH  46  60
BRANCH  47  68
ATOM     68  C   UNL A   1      48.423  26.667  29.437  1.00  0.00     0.057 A 
ATOM     69  C   UNL A   1      48.997  26.064  30.562  1.00  0.00     0.134 A 
ATOM     70  C   UNL A   1      49.258  26.922  28.344  1.00  0.00     0.134 A 
ATOM     71  F   UNL A   1      48.251  25.814  31.647  1.00  0.00    -0.206 F 
ATOM     72  C   UNL A   1      50.355  25.744  30.607  1.00  0.00     0.040 A 
ATOM     73  C   UNL A   1      50.613  26.585  28.366  1.00  0.00     0.040 A 
ATOM     74  F   UNL A   1      48.766  27.489  27.232  1.00  0.00    -0.206 F 
ATOM     75  C   UNL A   1      51.166  26.001  29.504  1.00  0.00     0.006 A 
ENDBRANCH  47  68
BRANCH  59  76
ATOM     76  C   UNL A   1      44.917  32.494  30.887  1.00  0.00     0.057 A 
ATOM     77  C   UNL A   1      45.219  33.519  29.982  1.00  0.00     0.134 A 
ATOM     78  C   UNL A   1      45.004  32.787  32.254  1.00  0.00     0.134 A 
ATOM     79  F   UNL A   1      45.169  33.295  28.660  1.00  0.00    -0.206 F 
ATOM     80  C   UNL A   1      45.608  34.784  30.421  1.00  0.00     0.040 A 
ATOM     81  C   UNL A   1      45.370  34.056  32.704  1.00  0.00     0.040 A 
ATOM     82  F   UNL A   1      44.722  31.850  33.171  1.00  0.00    -0.206 F 
ATOM     83  C   UNL A   1      45.678  35.058  31.786  1.00  0.00     0.006 A 
ENDBRANCH  59  76
ENDBRANCH  33  34
ENDBRANCH  25  28
ENDBRANCH  23  24
ENDBRANCH   1  23
TORSDOF 11
ENDMDL
