MODEL 1
REMARK VINA RESULT:     -11.7      0.000      0.000
REMARK SMILES CSc1nc(N)cc(Nc2cccc(C(=O)NCCCNC(=O)c3ccc(-c4c5nc(c(-c6c(F)cccc6F)c6ccc([nH]6)c(-c6c(F)cccc6F)c6nc(c(-c7c(F)cccc7F)c7ccc4[nH]7)C=C6)C=C5)cc3)c2)n1
REMARK SMILES IDX 18 1 17 2 15 3 16 4 14 6 10 7 11 8 78 9 12 10 13 11 9 12
REMARK SMILES IDX 8 14 3 15 4 16 79 17 5 18 7 19 2 20 1 21 6 22 19 25 20 26
REMARK SMILES IDX 21 27 22 28 23 30 24 31 25 32 77 33 26 34 76 35 27 36 28 37
REMARK SMILES IDX 29 38 70 39 30 40 75 41 69 42 71 43 31 44 74 45 68 46 67 47
REMARK SMILES IDX 32 49 58 50 41 51 57 52 42 53 45 54 56 55 72 56 43 57 44 58
REMARK SMILES IDX 55 60 73 61 46 62 33 63 34 64 39 65 35 66 36 67 38 68 40 69
REMARK SMILES IDX 37 70 59 71 60 72 65 73 61 74 62 75 64 76 66 77 63 78 47 79
REMARK SMILES IDX 48 80 53 81 49 82 50 83 52 84 54 85 51 86
REMARK H PARENT 17 5 9 13 6 23 6 24 21 29 71 48 45 59
REMARK Flexibility Score: inf
ROOT
ATOM      1  C   UNL A   1      37.414  21.145  24.279  1.00  0.00     0.118 C 
ENDROOT
BRANCH   1   2
ATOM      2  N   UNL A   1      37.771  22.329  25.043  1.00  0.00    -0.352 N 
ATOM      3  C   UNL A   1      37.068  23.308  25.705  1.00  0.00     0.251 C 
ATOM      4  O   UNL A   1      37.733  24.198  26.240  1.00  0.00    -0.269 OA
ATOM      5  H   UNL A   1      38.746  22.460  25.102  1.00  0.00     0.163 HD
BRANCH   3   6
ATOM      6  C   UNL A   1      35.581  23.397  25.761  1.00  0.00     0.041 A 
ATOM      7  C   UNL A   1      33.354  22.389  25.928  1.00  0.00     0.040 A 
ATOM      8  C   UNL A   1      32.784  23.635  25.655  1.00  0.00     0.026 A 
ATOM      9  C   UNL A   1      34.746  22.325  26.063  1.00  0.00     0.040 A 
ATOM     10  C   UNL A   1      33.593  24.764  25.494  1.00  0.00     0.003 A 
ATOM     11  C   UNL A   1      34.984  24.640  25.519  1.00  0.00     0.014 A 
BRANCH   7  12
ATOM     12  N   UNL A   1      32.545  21.242  26.042  1.00  0.00    -0.340 N 
ATOM     13  H   UNL A   1      31.939  21.231  26.817  1.00  0.00     0.168 HD
BRANCH  12  14
ATOM     14  C   UNL A   1      32.475  20.109  25.207  1.00  0.00     0.137 A 
ATOM     15  C   UNL A   1      32.626  17.845  24.881  1.00  0.00     0.191 A 
ATOM     16  N   UNL A   1      32.433  17.927  23.560  1.00  0.00    -0.206 NA
ATOM     17  N   UNL A   1      32.665  18.884  25.721  1.00  0.00    -0.205 NA
ATOM     18  C   UNL A   1      32.237  19.151  23.068  1.00  0.00     0.130 A 
ATOM     19  C   UNL A   1      32.265  20.284  23.853  1.00  0.00     0.093 A 
BRANCH  15  20
ATOM     20  S   UNL A   1      32.818  16.232  25.589  1.00  0.00    -0.090 SA
ATOM     21  C   UNL A   1      34.568  15.997  25.222  1.00  0.00     0.094 C 
ENDBRANCH  15  20
BRANCH  18  22
ATOM     22  N   UNL A   1      32.058  19.239  21.700  1.00  0.00    -0.383 N 
ATOM     23  H   UNL A   1      31.509  18.569  21.232  1.00  0.00     0.158 HD
ATOM     24  H   UNL A   1      32.479  19.970  21.194  1.00  0.00     0.158 HD
ENDBRANCH  18  22
ENDBRANCH  12  14
ENDBRANCH   7  12
ENDBRANCH   3   6
ENDBRANCH   1   2
BRANCH   1  25
ATOM     25  C   UNL A   1      38.079  19.871  24.773  1.00  0.00     0.042 C 
BRANCH  25  26
ATOM     26  C   UNL A   1      38.990  20.093  25.968  1.00  0.00     0.118 C 
BRANCH  26  27
ATOM     27  N   UNL A   1      40.113  19.159  25.993  1.00  0.00    -0.352 N 
ATOM     28  C   UNL A   1      41.467  19.369  26.058  1.00  0.00     0.251 C 
ATOM     29  H   UNL A   1      39.851  18.210  25.959  1.00  0.00     0.163 HD
ATOM     30  O   UNL A   1      42.229  18.438  25.817  1.00  0.00    -0.269 OA
BRANCH  28  31
ATOM     31  C   UNL A   1      42.016  20.691  26.424  1.00  0.00     0.039 A 
ATOM     32  C   UNL A   1      42.195  21.005  27.777  1.00  0.00     0.014 A 
ATOM     33  C   UNL A   1      42.285  21.654  25.451  1.00  0.00     0.014 A 
ATOM     34  C   UNL A   1      42.675  22.264  28.142  1.00  0.00     0.010 A 
ATOM     35  C   UNL A   1      42.871  22.861  25.805  1.00  0.00     0.010 A 
ATOM     36  C   UNL A   1      43.034  23.196  27.155  1.00  0.00    -0.014 A 
BRANCH  36  37
ATOM     37  C   UNL A   1      43.514  24.554  27.504  1.00  0.00     0.031 A 
ATOM     38  C   UNL A   1      42.527  25.603  27.942  1.00  0.00     0.074 A 
ATOM     39  C   UNL A   1      44.814  24.866  27.349  1.00  0.00     0.049 A 
ATOM     40  N   UNL A   1      42.725  26.870  28.206  1.00  0.00    -0.248 NA
ATOM     41  C   UNL A   1      41.121  25.182  28.052  1.00  0.00     0.031 C 
ATOM     42  C   UNL A   1      45.852  23.957  26.863  1.00  0.00     0.029 A 
ATOM     43  N   UNL A   1      45.478  26.044  27.573  1.00  0.00    -0.354 N 
ATOM     44  C   UNL A   1      41.469  27.399  28.475  1.00  0.00     0.074 A 
ATOM     45  C   UNL A   1      40.510  26.334  28.278  1.00  0.00     0.031 C 
ATOM     46  C   UNL A   1      47.027  24.603  26.847  1.00  0.00     0.029 A 
ATOM     47  C   UNL A   1      46.820  25.978  27.293  1.00  0.00     0.049 A 
ATOM     48  H   UNL A   1      45.036  26.859  27.902  1.00  0.00     0.167 HD
ATOM     49  C   UNL A   1      41.143  28.649  28.878  1.00  0.00     0.037 A 
ATOM     50  C   UNL A   1      47.775  26.920  27.390  1.00  0.00     0.037 A 
ATOM     51  C   UNL A   1      42.107  29.689  29.118  1.00  0.00     0.049 A 
ATOM     52  C   UNL A   1      47.406  28.284  27.900  1.00  0.00     0.074 A 
ATOM     53  C   UNL A   1      41.901  30.966  29.607  1.00  0.00     0.029 A 
ATOM     54  N   UNL A   1      43.470  29.563  28.888  1.00  0.00    -0.354 N 
ATOM     55  N   UNL A   1      46.226  28.752  28.228  1.00  0.00    -0.248 NA
ATOM     56  C   UNL A   1      48.504  29.244  28.074  1.00  0.00     0.031 C 
ATOM     57  C   UNL A   1      43.135  31.626  29.636  1.00  0.00     0.029 A 
ATOM     58  C   UNL A   1      44.116  30.743  29.213  1.00  0.00     0.049 A 
ATOM     59  H   UNL A   1      43.913  28.753  28.545  1.00  0.00     0.167 HD
ATOM     60  C   UNL A   1      46.439  30.049  28.673  1.00  0.00     0.074 A 
ATOM     61  C   UNL A   1      47.867  30.290  28.583  1.00  0.00     0.031 C 
ATOM     62  C   UNL A   1      45.538  30.959  29.119  1.00  0.00     0.037 A 
BRANCH  49  63
ATOM     63  C   UNL A   1      39.683  28.946  29.082  1.00  0.00     0.057 A 
ATOM     64  C   UNL A   1      39.061  28.800  30.331  1.00  0.00     0.134 A 
ATOM     65  C   UNL A   1      38.884  29.368  28.013  1.00  0.00     0.134 A 
ATOM     66  F   UNL A   1      39.765  28.386  31.397  1.00  0.00    -0.206 F 
ATOM     67  C   UNL A   1      37.692  29.015  30.497  1.00  0.00     0.040 A 
ATOM     68  C   UNL A   1      37.520  29.618  28.173  1.00  0.00     0.040 A 
ATOM     69  F   UNL A   1      39.412  29.536  26.791  1.00  0.00    -0.206 F 
ATOM     70  C   UNL A   1      36.918  29.429  29.416  1.00  0.00     0.006 A 
ENDBRANCH  49  63
BRANCH  50  71
ATOM     71  C   UNL A   1      49.177  26.578  27.046  1.00  0.00     0.057 A 
ATOM     72  C   UNL A   1      50.030  26.000  27.993  1.00  0.00     0.134 A 
ATOM     73  C   UNL A   1      49.686  26.784  25.759  1.00  0.00     0.134 A 
ATOM     74  F   UNL A   1      49.602  25.788  29.247  1.00  0.00    -0.206 F 
ATOM     75  C   UNL A   1      51.342  25.646  27.676  1.00  0.00     0.040 A 
ATOM     76  C   UNL A   1      50.989  26.416  25.421  1.00  0.00     0.040 A 
ATOM     77  F   UNL A   1      48.913  27.322  24.803  1.00  0.00    -0.206 F 
ATOM     78  C   UNL A   1      51.823  25.848  26.384  1.00  0.00     0.006 A 
ENDBRANCH  50  71
BRANCH  62  79
ATOM     79  C   UNL A   1      46.075  32.282  29.579  1.00  0.00     0.057 A 
ATOM     80  C   UNL A   1      46.194  33.377  28.714  1.00  0.00     0.134 A 
ATOM     81  C   UNL A   1      46.446  32.470  30.917  1.00  0.00     0.134 A 
ATOM     82  F   UNL A   1      45.865  33.258  27.419  1.00  0.00    -0.206 F 
ATOM     83  C   UNL A   1      46.689  34.604  29.156  1.00  0.00     0.040 A 
ATOM     84  C   UNL A   1      46.917  33.701  31.377  1.00  0.00     0.040 A 
ATOM     85  F   UNL A   1      46.348  31.465  31.799  1.00  0.00    -0.206 F 
ATOM     86  C   UNL A   1      47.045  34.770  30.493  1.00  0.00     0.006 A 
ENDBRANCH  62  79
ENDBRANCH  36  37
ENDBRANCH  28  31
ENDBRANCH  26  27
ENDBRANCH  25  26
ENDBRANCH   1  25
TORSDOF 14
ENDMDL
MODEL 2
REMARK VINA RESULT:     -11.7      1.384      6.398
REMARK SMILES CSc1nc(N)cc(Nc2cccc(C(=O)NCCCNC(=O)c3ccc(-c4c5nc(c(-c6c(F)cccc6F)c6ccc([nH]6)c(-c6c(F)cccc6F)c6nc(c(-c7c(F)cccc7F)c7ccc4[nH]7)C=C6)C=C5)cc3)c2)n1
REMARK SMILES IDX 18 1 17 2 15 3 16 4 14 6 10 7 11 8 78 9 12 10 13 11 9 12
REMARK SMILES IDX 8 14 3 15 4 16 79 17 5 18 7 19 2 20 1 21 6 22 19 25 20 26
REMARK SMILES IDX 21 27 22 28 23 30 24 31 25 32 77 33 26 34 76 35 27 36 28 37
REMARK SMILES IDX 29 38 70 39 30 40 75 41 69 42 71 43 31 44 74 45 68 46 67 47
REMARK SMILES IDX 32 49 58 50 41 51 57 52 42 53 45 54 56 55 72 56 43 57 44 58
REMARK SMILES IDX 55 60 73 61 46 62 33 63 34 64 39 65 35 66 36 67 38 68 40 69
REMARK SMILES IDX 37 70 59 71 60 72 65 73 61 74 62 75 64 76 66 77 63 78 47 79
REMARK SMILES IDX 48 80 53 81 49 82 50 83 52 84 54 85 51 86
REMARK H PARENT 17 5 9 13 6 23 6 24 21 29 71 48 45 59
REMARK Flexibility Score: inf
ROOT
ATOM      1  C   UNL A   1      37.413  20.896  24.382  1.00  0.00     0.118 C 
ENDROOT
BRANCH   1   2
ATOM      2  N   UNL A   1      37.805  22.123  25.057  1.00  0.00    -0.352 N 
ATOM      3  C   UNL A   1      37.132  23.140  25.692  1.00  0.00     0.251 C 
ATOM      4  O   UNL A   1      37.820  24.059  26.142  1.00  0.00    -0.269 OA
ATOM      5  H   UNL A   1      38.780  22.257  25.062  1.00  0.00     0.163 HD
BRANCH   3   6
ATOM      6  C   UNL A   1      35.649  23.235  25.813  1.00  0.00     0.041 A 
ATOM      7  C   UNL A   1      33.423  22.231  26.010  1.00  0.00     0.040 A 
ATOM      8  C   UNL A   1      32.852  23.494  25.835  1.00  0.00     0.026 A 
ATOM      9  C   UNL A   1      34.818  22.151  26.085  1.00  0.00     0.040 A 
ATOM     10  C   UNL A   1      33.663  24.627  25.709  1.00  0.00     0.003 A 
ATOM     11  C   UNL A   1      35.052  24.493  25.670  1.00  0.00     0.014 A 
BRANCH   7  12
ATOM     12  N   UNL A   1      32.610  21.084  26.088  1.00  0.00    -0.340 N 
ATOM     13  H   UNL A   1      32.023  21.038  26.878  1.00  0.00     0.168 HD
BRANCH  12  14
ATOM     14  C   UNL A   1      32.510  19.994  25.201  1.00  0.00     0.137 A 
ATOM     15  C   UNL A   1      32.609  17.745  24.766  1.00  0.00     0.191 A 
ATOM     16  N   UNL A   1      32.413  17.895  23.451  1.00  0.00    -0.206 NA
ATOM     17  N   UNL A   1      32.675  18.742  25.654  1.00  0.00    -0.205 NA
ATOM     18  C   UNL A   1      32.242  19.145  23.020  1.00  0.00     0.130 A 
ATOM     19  C   UNL A   1      32.299  20.239  23.858  1.00  0.00     0.093 A 
BRANCH  15  20
ATOM     20  S   UNL A   1      32.767  16.096  25.394  1.00  0.00    -0.090 SA
ATOM     21  C   UNL A   1      34.565  15.967  25.326  1.00  0.00     0.094 C 
ENDBRANCH  15  20
BRANCH  18  22
ATOM     22  N   UNL A   1      32.060  19.303  21.658  1.00  0.00    -0.383 N 
ATOM     23  H   UNL A   1      32.754  18.995  21.030  1.00  0.00     0.158 HD
ATOM     24  H   UNL A   1      31.239  19.723  21.316  1.00  0.00     0.158 HD
ENDBRANCH  18  22
ENDBRANCH  12  14
ENDBRANCH   7  12
ENDBRANCH   3   6
ENDBRANCH   1   2
BRANCH   1  25
ATOM     25  C   UNL A   1      38.180  19.669  24.844  1.00  0.00     0.042 C 
BRANCH  25  26
ATOM     26  C   UNL A   1      39.122  19.950  26.003  1.00  0.00     0.118 C 
BRANCH  26  27
ATOM     27  N   UNL A   1      40.385  19.225  25.882  1.00  0.00    -0.352 N 
ATOM     28  C   UNL A   1      41.686  19.652  25.956  1.00  0.00     0.251 C 
ATOM     29  H   UNL A   1      40.284  18.259  25.720  1.00  0.00     0.163 HD
ATOM     30  O   UNL A   1      42.583  18.905  25.578  1.00  0.00    -0.269 OA
BRANCH  28  31
ATOM     31  C   UNL A   1      42.021  20.987  26.494  1.00  0.00     0.039 A 
ATOM     32  C   UNL A   1      42.019  21.185  27.879  1.00  0.00     0.014 A 
ATOM     33  C   UNL A   1      42.263  22.067  25.643  1.00  0.00     0.014 A 
ATOM     34  C   UNL A   1      42.294  22.450  28.403  1.00  0.00     0.010 A 
ATOM     35  C   UNL A   1      42.650  23.293  26.163  1.00  0.00     0.010 A 
ATOM     36  C   UNL A   1      42.630  23.510  27.546  1.00  0.00    -0.014 A 
BRANCH  36  37
ATOM     37  C   UNL A   1      42.893  24.874  28.062  1.00  0.00     0.031 A 
ATOM     38  C   UNL A   1      44.293  25.265  28.455  1.00  0.00     0.074 A 
ATOM     39  C   UNL A   1      41.871  25.727  28.255  1.00  0.00     0.049 A 
ATOM     40  N   UNL A   1      44.722  26.372  29.007  1.00  0.00    -0.248 NA
ATOM     41  C   UNL A   1      45.345  24.257  28.241  1.00  0.00     0.031 C 
ATOM     42  C   UNL A   1      40.463  25.438  27.981  1.00  0.00     0.029 A 
ATOM     43  N   UNL A   1      41.861  27.009  28.741  1.00  0.00    -0.354 N 
ATOM     44  C   UNL A   1      46.078  26.176  29.238  1.00  0.00     0.074 A 
ATOM     45  C   UNL A   1      46.388  24.825  28.827  1.00  0.00     0.031 C 
ATOM     46  C   UNL A   1      39.728  26.519  28.281  1.00  0.00     0.029 A 
ATOM     47  C   UNL A   1      40.607  27.564  28.795  1.00  0.00     0.049 A 
ATOM     48  H   UNL A   1      42.674  27.485  29.025  1.00  0.00     0.167 HD
ATOM     49  C   UNL A   1      46.992  27.051  29.720  1.00  0.00     0.037 A 
ATOM     50  C   UNL A   1      40.215  28.783  29.209  1.00  0.00     0.037 A 
ATOM     51  C   UNL A   1      46.686  28.409  30.080  1.00  0.00     0.049 A 
ATOM     52  C   UNL A   1      41.251  29.763  29.681  1.00  0.00     0.074 A 
ATOM     53  C   UNL A   1      47.545  29.408  30.501  1.00  0.00     0.029 A 
ATOM     54  N   UNL A   1      45.412  28.959  30.057  1.00  0.00    -0.354 N 
ATOM     55  N   UNL A   1      42.543  29.595  29.820  1.00  0.00    -0.248 NA
ATOM     56  C   UNL A   1      40.777  31.108  30.032  1.00  0.00     0.031 C 
ATOM     57  C   UNL A   1      46.784  30.552  30.768  1.00  0.00     0.029 A 
ATOM     58  C   UNL A   1      45.459  30.280  30.466  1.00  0.00     0.049 A 
ATOM     59  H   UNL A   1      44.595  28.480  29.787  1.00  0.00     0.167 HD
ATOM     60  C   UNL A   1      43.043  30.817  30.248  1.00  0.00     0.074 A 
ATOM     61  C   UNL A   1      41.913  31.721  30.334  1.00  0.00     0.031 C 
ATOM     62  C   UNL A   1      44.322  31.163  30.541  1.00  0.00     0.037 A 
BRANCH  49  63
ATOM     63  C   UNL A   1      48.402  26.554  29.878  1.00  0.00     0.057 A 
ATOM     64  C   UNL A   1      48.846  25.937  31.056  1.00  0.00     0.134 A 
ATOM     65  C   UNL A   1      49.334  26.710  28.844  1.00  0.00     0.134 A 
ATOM     66  F   UNL A   1      48.010  25.769  32.093  1.00  0.00    -0.206 F 
ATOM     67  C   UNL A   1      50.174  25.539  31.219  1.00  0.00     0.040 A 
ATOM     68  C   UNL A   1      50.656  26.284  28.982  1.00  0.00     0.040 A 
ATOM     69  F   UNL A   1      48.979  27.285  27.685  1.00  0.00    -0.206 F 
ATOM     70  C   UNL A   1      51.083  25.709  30.178  1.00  0.00     0.006 A 
ENDBRANCH  49  63
BRANCH  50  71
ATOM     71  C   UNL A   1      38.780  29.151  29.138  1.00  0.00     0.057 A 
ATOM     72  C   UNL A   1      38.198  29.552  27.930  1.00  0.00     0.134 A 
ATOM     73  C   UNL A   1      37.948  29.075  30.261  1.00  0.00     0.134 A 
ATOM     74  F   UNL A   1      38.947  29.655  26.822  1.00  0.00    -0.206 F 
ATOM     75  C   UNL A   1      36.843  29.874  27.842  1.00  0.00     0.040 A 
ATOM     76  C   UNL A   1      36.587  29.373  30.184  1.00  0.00     0.040 A 
ATOM     77  F   UNL A   1      38.444  28.684  31.445  1.00  0.00    -0.206 F 
ATOM     78  C   UNL A   1      36.031  29.778  28.971  1.00  0.00     0.006 A 
ENDBRANCH  50  71
BRANCH  62  79
ATOM     79  C   UNL A   1      44.568  32.588  30.943  1.00  0.00     0.057 A 
ATOM     80  C   UNL A   1      44.557  32.993  32.283  1.00  0.00     0.134 A 
ATOM     81  C   UNL A   1      44.855  33.558  29.974  1.00  0.00     0.134 A 
ATOM     82  F   UNL A   1      44.277  32.114  33.257  1.00  0.00    -0.206 F 
ATOM     83  C   UNL A   1      44.794  34.320  32.644  1.00  0.00     0.040 A 
ATOM     84  C   UNL A   1      45.122  34.882  30.325  1.00  0.00     0.040 A 
ATOM     85  F   UNL A   1      44.892  33.233  28.673  1.00  0.00    -0.206 F 
ATOM     86  C   UNL A   1      45.085  35.267  31.663  1.00  0.00     0.006 A 
ENDBRANCH  62  79
ENDBRANCH  36  37
ENDBRANCH  28  31
ENDBRANCH  26  27
ENDBRANCH  25  26
ENDBRANCH   1  25
TORSDOF 14
ENDMDL
MODEL 3
REMARK VINA RESULT:     -11.6      6.907     11.441
REMARK SMILES CSc1nc(N)cc(Nc2cccc(C(=O)NCCCNC(=O)c3ccc(-c4c5nc(c(-c6c(F)cccc6F)c6ccc([nH]6)c(-c6c(F)cccc6F)c6nc(c(-c7c(F)cccc7F)c7ccc4[nH]7)C=C6)C=C5)cc3)c2)n1
REMARK SMILES IDX 18 1 17 2 15 3 16 4 14 6 10 7 11 8 78 9 12 10 13 11 9 12
REMARK SMILES IDX 8 14 3 15 4 16 79 17 5 18 7 19 2 20 1 21 6 22 19 25 20 26
REMARK SMILES IDX 21 27 22 28 23 30 24 31 25 32 77 33 26 34 76 35 27 36 28 37
REMARK SMILES IDX 29 38 70 39 30 40 75 41 69 42 71 43 31 44 74 45 68 46 67 47
REMARK SMILES IDX 32 49 58 50 41 51 57 52 42 53 45 54 56 55 72 56 43 57 44 58
REMARK SMILES IDX 55 60 73 61 46 62 33 63 34 64 39 65 35 66 36 67 38 68 40 69
REMARK SMILES IDX 37 70 59 71 60 72 65 73 61 74 62 75 64 76 66 77 63 78 47 79
REMARK SMILES IDX 48 80 53 81 49 82 50 83 52 84 54 85 51 86
REMARK H PARENT 17 5 9 13 6 23 6 24 21 29 71 48 45 59
REMARK Flexibility Score: inf
ROOT
ATOM      1  C   UNL A   1      34.116  34.735  27.977  1.00  0.00     0.118 C 
ENDROOT
BRANCH   1   2
ATOM      2  N   UNL A   1      35.497  34.479  28.355  1.00  0.00    -0.352 N 
ATOM      3  C   UNL A   1      36.308  33.369  28.381  1.00  0.00     0.251 C 
ATOM      4  O   UNL A   1      37.456  33.536  28.798  1.00  0.00    -0.269 OA
ATOM      5  H   UNL A   1      35.960  35.292  28.664  1.00  0.00     0.163 HD
BRANCH   3   6
ATOM      6  C   UNL A   1      35.878  31.992  28.006  1.00  0.00     0.041 A 
ATOM      7  C   UNL A   1      34.159  30.303  27.568  1.00  0.00     0.040 A 
ATOM      8  C   UNL A   1      35.156  29.327  27.493  1.00  0.00     0.026 A 
ATOM      9  C   UNL A   1      34.561  31.633  27.735  1.00  0.00     0.040 A 
ATOM     10  C   UNL A   1      36.503  29.679  27.613  1.00  0.00     0.003 A 
ATOM     11  C   UNL A   1      36.859  31.000  27.896  1.00  0.00     0.014 A 
BRANCH   7  12
ATOM     12  N   UNL A   1      32.800  29.943  27.497  1.00  0.00    -0.340 N 
ATOM     13  H   UNL A   1      32.215  30.377  28.160  1.00  0.00     0.168 HD
BRANCH  12  14
ATOM     14  C   UNL A   1      32.153  29.054  26.616  1.00  0.00     0.137 A 
ATOM     15  C   UNL A   1      31.218  28.574  24.578  1.00  0.00     0.191 A 
ATOM     16  N   UNL A   1      30.809  27.355  24.947  1.00  0.00    -0.206 NA
ATOM     17  N   UNL A   1      31.867  29.440  25.363  1.00  0.00    -0.205 NA
ATOM     18  C   UNL A   1      31.109  26.984  26.192  1.00  0.00     0.130 A 
ATOM     19  C   UNL A   1      31.770  27.810  27.078  1.00  0.00     0.093 A 
BRANCH  15  20
ATOM     20  S   UNL A   1      30.906  29.079  22.909  1.00  0.00    -0.090 SA
ATOM     21  C   UNL A   1      29.150  28.675  22.842  1.00  0.00     0.094 C 
ENDBRANCH  15  20
BRANCH  18  22
ATOM     22  N   UNL A   1      30.668  25.733  26.582  1.00  0.00    -0.383 N 
ATOM     23  H   UNL A   1      31.184  25.212  27.239  1.00  0.00     0.158 HD
ATOM     24  H   UNL A   1      29.840  25.363  26.201  1.00  0.00     0.158 HD
ENDBRANCH  18  22
ENDBRANCH  12  14
ENDBRANCH   7  12
ENDBRANCH   3   6
ENDBRANCH   1   2
BRANCH   1  25
ATOM     25  C   UNL A   1      33.178  34.913  29.158  1.00  0.00     0.042 C 
BRANCH  25  26
ATOM     26  C   UNL A   1      33.290  36.279  29.814  1.00  0.00     0.118 C 
BRANCH  26  27
ATOM     27  N   UNL A   1      32.469  36.387  31.018  1.00  0.00    -0.352 N 
ATOM     28  C   UNL A   1      32.559  35.763  32.237  1.00  0.00     0.251 C 
ATOM     29  H   UNL A   1      31.719  37.020  30.942  1.00  0.00     0.163 HD
ATOM     30  O   UNL A   1      31.612  35.826  33.013  1.00  0.00    -0.269 OA
BRANCH  28  31
ATOM     31  C   UNL A   1      33.781  35.029  32.628  1.00  0.00     0.039 A 
ATOM     32  C   UNL A   1      35.026  35.652  32.485  1.00  0.00     0.014 A 
ATOM     33  C   UNL A   1      33.718  33.705  33.065  1.00  0.00     0.014 A 
ATOM     34  C   UNL A   1      36.194  34.959  32.813  1.00  0.00     0.010 A 
ATOM     35  C   UNL A   1      34.865  33.058  33.501  1.00  0.00     0.010 A 
ATOM     36  C   UNL A   1      36.118  33.661  33.342  1.00  0.00    -0.014 A 
BRANCH  36  37
ATOM     37  C   UNL A   1      37.336  32.882  33.668  1.00  0.00     0.031 A 
ATOM     38  C   UNL A   1      38.102  33.189  34.927  1.00  0.00     0.074 A 
ATOM     39  C   UNL A   1      37.796  31.962  32.800  1.00  0.00     0.049 A 
ATOM     40  N   UNL A   1      39.235  32.689  35.352  1.00  0.00    -0.248 NA
ATOM     41  C   UNL A   1      37.544  34.234  35.801  1.00  0.00     0.031 C 
ATOM     42  C   UNL A   1      37.181  31.627  31.515  1.00  0.00     0.029 A 
ATOM     43  N   UNL A   1      38.898  31.150  32.866  1.00  0.00    -0.354 N 
ATOM     44  C   UNL A   1      39.538  33.383  36.517  1.00  0.00     0.074 A 
ATOM     45  C   UNL A   1      38.508  34.381  36.697  1.00  0.00     0.031 C 
ATOM     46  C   UNL A   1      37.902  30.662  30.924  1.00  0.00     0.029 A 
ATOM     47  C   UNL A   1      39.044  30.334  31.772  1.00  0.00     0.049 A 
ATOM     48  H   UNL A   1      39.527  31.153  33.623  1.00  0.00     0.167 HD
ATOM     49  C   UNL A   1      40.565  33.188  37.378  1.00  0.00     0.037 A 
ATOM     50  C   UNL A   1      39.990  29.420  31.491  1.00  0.00     0.037 A 
ATOM     51  C   UNL A   1      41.559  32.161  37.218  1.00  0.00     0.049 A 
ATOM     52  C   UNL A   1      41.086  29.172  32.487  1.00  0.00     0.074 A 
ATOM     53  C   UNL A   1      42.595  31.818  38.067  1.00  0.00     0.029 A 
ATOM     54  N   UNL A   1      41.634  31.305  36.128  1.00  0.00    -0.354 N 
ATOM     55  N   UNL A   1      41.320  29.779  33.625  1.00  0.00    -0.248 NA
ATOM     56  C   UNL A   1      42.037  28.099  32.170  1.00  0.00     0.031 C 
ATOM     57  C   UNL A   1      43.319  30.779  37.473  1.00  0.00     0.029 A 
ATOM     58  C   UNL A   1      42.705  30.441  36.277  1.00  0.00     0.049 A 
ATOM     59  H   UNL A   1      41.015  31.310  35.362  1.00  0.00     0.167 HD
ATOM     60  C   UNL A   1      42.426  29.146  34.176  1.00  0.00     0.074 A 
ATOM     61  C   UNL A   1      42.809  28.099  33.248  1.00  0.00     0.031 C 
ATOM     62  C   UNL A   1      43.066  29.404  35.343  1.00  0.00     0.037 A 
BRANCH  49  63
ATOM     63  C   UNL A   1      40.652  34.109  38.563  1.00  0.00     0.057 A 
ATOM     64  C   UNL A   1      41.402  35.293  38.532  1.00  0.00     0.134 A 
ATOM     65  C   UNL A   1      39.990  33.800  39.758  1.00  0.00     0.134 A 
ATOM     66  F   UNL A   1      42.074  35.644  37.424  1.00  0.00    -0.206 F 
ATOM     67  C   UNL A   1      41.531  36.108  39.658  1.00  0.00     0.040 A 
ATOM     68  C   UNL A   1      40.083  34.624  40.880  1.00  0.00     0.040 A 
ATOM     69  F   UNL A   1      39.247  32.686  39.858  1.00  0.00    -0.206 F 
ATOM     70  C   UNL A   1      40.867  35.776  40.836  1.00  0.00     0.006 A 
ENDBRANCH  49  63
BRANCH  50  71
ATOM     71  C   UNL A   1      39.899  28.639  30.233  1.00  0.00     0.057 A 
ATOM     72  C   UNL A   1      40.556  29.064  29.072  1.00  0.00     0.134 A 
ATOM     73  C   UNL A   1      39.189  27.435  30.169  1.00  0.00     0.134 A 
ATOM     74  F   UNL A   1      41.243  30.215  29.069  1.00  0.00    -0.206 F 
ATOM     75  C   UNL A   1      40.503  28.324  27.890  1.00  0.00     0.040 A 
ATOM     76  C   UNL A   1      39.145  26.673  29.000  1.00  0.00     0.040 A 
ATOM     77  F   UNL A   1      38.549  26.967  31.253  1.00  0.00    -0.206 F 
ATOM     78  C   UNL A   1      39.801  27.120  27.854  1.00  0.00     0.006 A 
ENDBRANCH  50  71
BRANCH  62  79
ATOM     79  C   UNL A   1      44.221  28.515  35.699  1.00  0.00     0.057 A 
ATOM     80  C   UNL A   1      44.052  27.341  36.444  1.00  0.00     0.134 A 
ATOM     81  C   UNL A   1      45.515  28.824  35.260  1.00  0.00     0.134 A 
ATOM     82  F   UNL A   1      42.840  26.997  36.904  1.00  0.00    -0.206 F 
ATOM     83  C   UNL A   1      45.134  26.520  36.763  1.00  0.00     0.040 A 
ATOM     84  C   UNL A   1      46.600  27.995  35.549  1.00  0.00     0.040 A 
ATOM     85  F   UNL A   1      45.743  29.928  34.533  1.00  0.00    -0.206 F 
ATOM     86  C   UNL A   1      46.411  26.843  36.308  1.00  0.00     0.006 A 
ENDBRANCH  62  79
ENDBRANCH  36  37
ENDBRANCH  28  31
ENDBRANCH  26  27
ENDBRANCH  25  26
ENDBRANCH   1  25
TORSDOF 14
ENDMDL
