MODEL 1
REMARK VINA RESULT:     -12.5      0.000      0.000
REMARK SMILES CC[C@](C)(NC(=O)[C@H]1CNc2ccccc2O1)C(=O)NCCCNC(=O)c1ccc(-c2c3nc(c(-c4c(F)cccc4F)c4ccc([nH]4)c(-c4c(F)cccc4F)c4nc(c(-c5c(F)cccc5F)c5ccc2[nH]5)C=C4)C=C3)cc1
REMARK SMILES IDX 22 1 21 2 20 3 18 4 19 5 3 7 4 8 2 9 1 10 5 11 6 12 7 14
REMARK SMILES IDX 8 15 9 16 17 17 10 18 16 19 11 20 15 22 12 23 14 24 13 25
REMARK SMILES IDX 23 26 24 27 25 28 26 30 27 31 28 32 80 33 29 34 79 35 30 36
REMARK SMILES IDX 31 37 32 38 73 39 33 40 78 41 72 42 74 43 34 44 77 45 71 46
REMARK SMILES IDX 70 47 35 49 61 50 44 51 60 52 45 53 48 54 59 55 75 56 46 57
REMARK SMILES IDX 47 58 58 60 76 61 49 62 36 63 37 64 42 65 38 66 39 67 41 68
REMARK SMILES IDX 43 69 40 70 62 71 63 72 68 73 64 74 65 75 67 76 69 77 66 78
REMARK SMILES IDX 50 79 51 80 56 81 52 82 53 83 55 84 57 85 54 86
REMARK H PARENT 20 6 5 13 10 21 24 29 74 48 48 59
REMARK Flexibility Score: inf
ROOT
ATOM      1  C   UNL A   1      31.169  31.414  26.002  1.00  0.00     0.042 C 
ENDROOT
BRANCH   1   2
ATOM      2  C   UNL A   1      31.316  30.074  25.280  1.00  0.00     0.117 C 
BRANCH   2   3
ATOM      3  N   UNL A   1      30.901  29.990  23.893  1.00  0.00    -0.354 N 
ATOM      4  C   UNL A   1      31.006  28.996  22.951  1.00  0.00     0.245 C 
ATOM      5  O   UNL A   1      30.309  29.113  21.936  1.00  0.00    -0.272 OA
ATOM      6  H   UNL A   1      30.460  30.805  23.562  1.00  0.00     0.163 HD
BRANCH   4   7
ATOM      7  C   UNL A   1      31.793  27.688  23.233  1.00  0.00     0.116 C 
ATOM      8  C   UNL A   1      31.155  26.857  24.368  1.00  0.00     0.045 C 
BRANCH   7   9
ATOM      9  C   UNL A   1      33.164  28.239  23.791  1.00  0.00     0.035 C 
ATOM     10  C   UNL A   1      34.145  28.897  22.837  1.00  0.00     0.007 C 
ENDBRANCH   7   9
BRANCH   7  11
ATOM     11  N   UNL A   1      31.919  26.787  22.060  1.00  0.00    -0.339 N 
ATOM     12  C   UNL A   1      32.807  25.761  21.822  1.00  0.00     0.263 C 
ATOM     13  H   UNL A   1      31.266  26.947  21.340  1.00  0.00     0.164 HD
ATOM     14  O   UNL A   1      33.126  25.602  20.635  1.00  0.00    -0.271 OA
BRANCH  12  15
ATOM     15  C   UNL A   1      33.323  24.749  22.887  1.00  0.00     0.281 C 
ATOM     16  C   UNL A   1      32.349  23.576  23.046  1.00  0.00     0.168 C 
ATOM     17  O   UNL A   1      34.660  24.316  22.718  1.00  0.00    -0.477 OA
ATOM     18  N   UNL A   1      32.796  22.690  24.121  1.00  0.00    -0.378 N 
ATOM     19  C   UNL A   1      35.059  23.233  23.456  1.00  0.00     0.143 A 
ATOM     20  C   UNL A   1      34.157  22.412  24.139  1.00  0.00     0.077 A 
ATOM     21  H   UNL A   1      32.175  22.316  24.786  1.00  0.00     0.160 HD
ATOM     22  C   UNL A   1      36.430  22.952  23.453  1.00  0.00     0.049 A 
ATOM     23  C   UNL A   1      34.665  21.297  24.814  1.00  0.00     0.029 A 
ATOM     24  C   UNL A   1      36.920  21.832  24.111  1.00  0.00     0.004 A 
ATOM     25  C   UNL A   1      36.035  20.998  24.787  1.00  0.00     0.002 A 
ENDBRANCH  12  15
ENDBRANCH   7  11
ENDBRANCH   4   7
ENDBRANCH   2   3
ENDBRANCH   1   2
BRANCH   1  26
ATOM     26  C   UNL A   1      32.370  31.993  26.741  1.00  0.00     0.118 C 
BRANCH  26  27
ATOM     27  N   UNL A   1      32.201  33.352  27.206  1.00  0.00    -0.352 N 
ATOM     28  C   UNL A   1      32.992  34.106  28.037  1.00  0.00     0.251 C 
ATOM     29  H   UNL A   1      31.392  33.807  26.875  1.00  0.00     0.163 HD
ATOM     30  O   UNL A   1      32.645  35.248  28.321  1.00  0.00    -0.269 OA
BRANCH  28  31
ATOM     31  C   UNL A   1      34.232  33.552  28.634  1.00  0.00     0.039 A 
ATOM     32  C   UNL A   1      34.115  32.392  29.405  1.00  0.00     0.014 A 
ATOM     33  C   UNL A   1      35.480  34.168  28.496  1.00  0.00     0.014 A 
ATOM     34  C   UNL A   1      35.247  31.828  30.001  1.00  0.00     0.010 A 
ATOM     35  C   UNL A   1      36.622  33.567  29.041  1.00  0.00     0.010 A 
ATOM     36  C   UNL A   1      36.517  32.397  29.808  1.00  0.00    -0.014 A 
BRANCH  36  37
ATOM     37  C   UNL A   1      37.716  31.760  30.423  1.00  0.00     0.031 A 
ATOM     38  C   UNL A   1      38.136  32.098  31.830  1.00  0.00     0.074 A 
ATOM     39  C   UNL A   1      38.430  30.859  29.718  1.00  0.00     0.049 A 
ATOM     40  N   UNL A   1      39.112  31.595  32.546  1.00  0.00    -0.248 NA
ATOM     41  C   UNL A   1      37.371  33.149  32.517  1.00  0.00     0.031 C 
ATOM     42  C   UNL A   1      38.163  30.468  28.334  1.00  0.00     0.029 A 
ATOM     43  N   UNL A   1      39.520  30.100  30.073  1.00  0.00    -0.354 N 
ATOM     44  C   UNL A   1      39.077  32.265  33.763  1.00  0.00     0.074 A 
ATOM     45  C   UNL A   1      38.022  33.251  33.667  1.00  0.00     0.031 C 
ATOM     46  C   UNL A   1      39.039  29.518  27.968  1.00  0.00     0.029 A 
ATOM     47  C   UNL A   1      39.949  29.254  29.078  1.00  0.00     0.049 A 
ATOM     48  H   UNL A   1      39.952  30.157  30.955  1.00  0.00     0.167 HD
ATOM     49  C   UNL A   1      39.834  32.064  34.869  1.00  0.00     0.037 A 
ATOM     50  C   UNL A   1      40.957  28.360  29.063  1.00  0.00     0.037 A 
ATOM     51  C   UNL A   1      40.883  31.079  34.972  1.00  0.00     0.049 A 
ATOM     52  C   UNL A   1      41.791  28.163  30.300  1.00  0.00     0.074 A 
ATOM     53  C   UNL A   1      41.677  30.775  36.065  1.00  0.00     0.029 A 
ATOM     54  N   UNL A   1      41.288  30.245  33.942  1.00  0.00    -0.354 N 
ATOM     55  N   UNL A   1      41.696  28.753  31.466  1.00  0.00    -0.248 NA
ATOM     56  C   UNL A   1      42.862  27.159  30.220  1.00  0.00     0.031 C 
ATOM     57  C   UNL A   1      42.596  29.793  35.680  1.00  0.00     0.029 A 
ATOM     58  C   UNL A   1      42.336  29.441  34.367  1.00  0.00     0.049 A 
ATOM     59  H   UNL A   1      40.893  30.226  33.040  1.00  0.00     0.167 HD
ATOM     60  C   UNL A   1      42.670  28.170  32.268  1.00  0.00     0.074 A 
ATOM     61  C   UNL A   1      43.330  27.167  31.460  1.00  0.00     0.031 C 
ATOM     62  C   UNL A   1      42.986  28.440  33.558  1.00  0.00     0.037 A 
BRANCH  49  63
ATOM     63  C   UNL A   1      39.556  32.931  36.065  1.00  0.00     0.057 A 
ATOM     64  C   UNL A   1      40.220  34.149  36.267  1.00  0.00     0.134 A 
ATOM     65  C   UNL A   1      38.587  32.565  37.008  1.00  0.00     0.134 A 
ATOM     66  F   UNL A   1      41.165  34.559  35.407  1.00  0.00    -0.206 F 
ATOM     67  C   UNL A   1      39.954  34.953  37.377  1.00  0.00     0.040 A 
ATOM     68  C   UNL A   1      38.290  33.375  38.106  1.00  0.00     0.040 A 
ATOM     69  F   UNL A   1      37.903  31.417  36.873  1.00  0.00    -0.206 F 
ATOM     70  C   UNL A   1      38.980  34.570  38.297  1.00  0.00     0.006 A 
ENDBRANCH  49  63
BRANCH  50  71
ATOM     71  C   UNL A   1      41.222  27.555  27.841  1.00  0.00     0.057 A 
ATOM     72  C   UNL A   1      42.040  28.041  26.813  1.00  0.00     0.134 A 
ATOM     73  C   UNL A   1      40.644  26.293  27.661  1.00  0.00     0.134 A 
ATOM     74  F   UNL A   1      42.605  29.253  26.917  1.00  0.00    -0.206 F 
ATOM     75  C   UNL A   1      42.252  27.315  25.641  1.00  0.00     0.040 A 
ATOM     76  C   UNL A   1      40.872  25.542  26.506  1.00  0.00     0.040 A 
ATOM     77  F   UNL A   1      39.856  25.767  28.610  1.00  0.00    -0.206 F 
ATOM     78  C   UNL A   1      41.670  26.058  25.487  1.00  0.00     0.006 A 
ENDBRANCH  50  71
BRANCH  62  79
ATOM     79  C   UNL A   1      44.062  27.603  34.192  1.00  0.00     0.057 A 
ATOM     80  C   UNL A   1      45.406  28.001  34.211  1.00  0.00     0.134 A 
ATOM     81  C   UNL A   1      43.746  26.378  34.797  1.00  0.00     0.134 A 
ATOM     82  F   UNL A   1      45.781  29.156  33.642  1.00  0.00    -0.206 F 
ATOM     83  C   UNL A   1      46.399  27.195  34.773  1.00  0.00     0.040 A 
ATOM     84  C   UNL A   1      44.725  25.580  35.390  1.00  0.00     0.040 A 
ATOM     85  F   UNL A   1      42.479  25.939  34.826  1.00  0.00    -0.206 F 
ATOM     86  C   UNL A   1      46.059  25.982  35.367  1.00  0.00     0.006 A 
ENDBRANCH  62  79
ENDBRANCH  36  37
ENDBRANCH  28  31
ENDBRANCH  26  27
ENDBRANCH   1  26
TORSDOF 13
ENDMDL
MODEL 2
REMARK VINA RESULT:     -12.5      4.284      9.407
REMARK SMILES CC[C@](C)(NC(=O)[C@H]1CNc2ccccc2O1)C(=O)NCCCNC(=O)c1ccc(-c2c3nc(c(-c4c(F)cccc4F)c4ccc([nH]4)c(-c4c(F)cccc4F)c4nc(c(-c5c(F)cccc5F)c5ccc2[nH]5)C=C4)C=C3)cc1
REMARK SMILES IDX 22 1 21 2 20 3 18 4 19 5 3 7 4 8 2 9 1 10 5 11 6 12 7 14
REMARK SMILES IDX 8 15 9 16 17 17 10 18 16 19 11 20 15 22 12 23 14 24 13 25
REMARK SMILES IDX 23 26 24 27 25 28 26 30 27 31 28 32 80 33 29 34 79 35 30 36
REMARK SMILES IDX 31 37 32 38 73 39 33 40 78 41 72 42 74 43 34 44 77 45 71 46
REMARK SMILES IDX 70 47 35 49 61 50 44 51 60 52 45 53 48 54 59 55 75 56 46 57
REMARK SMILES IDX 47 58 58 60 76 61 49 62 36 63 37 64 42 65 38 66 39 67 41 68
REMARK SMILES IDX 43 69 40 70 62 71 63 72 68 73 64 74 65 75 67 76 69 77 66 78
REMARK SMILES IDX 50 79 51 80 56 81 52 82 53 83 55 84 57 85 54 86
REMARK H PARENT 20 6 5 13 10 21 24 29 74 48 48 59
REMARK Flexibility Score: inf
ROOT
ATOM      1  C   UNL A   1      37.087  19.567  24.973  1.00  0.00     0.042 C 
ENDROOT
BRANCH   1   2
ATOM      2  C   UNL A   1      35.806  20.402  24.972  1.00  0.00     0.117 C 
BRANCH   2   3
ATOM      3  N   UNL A   1      34.559  19.750  25.323  1.00  0.00    -0.354 N 
ATOM      4  C   UNL A   1      33.294  20.230  25.556  1.00  0.00     0.245 C 
ATOM      5  O   UNL A   1      32.375  19.402  25.559  1.00  0.00    -0.272 OA
ATOM      6  H   UNL A   1      34.636  18.772  25.413  1.00  0.00     0.163 HD
BRANCH   4   7
ATOM      7  C   UNL A   1      32.997  21.753  25.600  1.00  0.00     0.116 C 
ATOM      8  C   UNL A   1      33.201  22.427  24.226  1.00  0.00     0.045 C 
BRANCH   7   9
ATOM      9  C   UNL A   1      34.146  22.287  26.543  1.00  0.00     0.035 C 
ATOM     10  C   UNL A   1      34.868  23.573  26.180  1.00  0.00     0.007 C 
ENDBRANCH   7   9
BRANCH   7  11
ATOM     11  N   UNL A   1      31.622  22.093  26.044  1.00  0.00    -0.339 N 
ATOM     12  C   UNL A   1      31.112  23.283  26.515  1.00  0.00     0.263 C 
ATOM     13  H   UNL A   1      30.973  21.354  25.994  1.00  0.00     0.164 HD
ATOM     14  O   UNL A   1      30.213  23.176  27.361  1.00  0.00    -0.271 OA
BRANCH  12  15
ATOM     15  C   UNL A   1      31.490  24.698  25.987  1.00  0.00     0.281 C 
ATOM     16  C   UNL A   1      30.630  25.080  24.776  1.00  0.00     0.168 C 
ATOM     17  O   UNL A   1      31.526  25.723  26.962  1.00  0.00    -0.477 OA
ATOM     18  N   UNL A   1      31.067  26.364  24.230  1.00  0.00    -0.378 N 
ATOM     19  C   UNL A   1      31.580  27.014  26.505  1.00  0.00     0.143 A 
ATOM     20  C   UNL A   1      31.342  27.351  25.169  1.00  0.00     0.077 A 
ATOM     21  H   UNL A   1      31.160  26.520  23.263  1.00  0.00     0.160 HD
ATOM     22  C   UNL A   1      31.840  28.000  27.462  1.00  0.00     0.049 A 
ATOM     23  C   UNL A   1      31.363  28.705  24.820  1.00  0.00     0.029 A 
ATOM     24  C   UNL A   1      31.840  29.343  27.107  1.00  0.00     0.004 A 
ATOM     25  C   UNL A   1      31.594  29.697  25.785  1.00  0.00     0.002 A 
ENDBRANCH  12  15
ENDBRANCH   7  11
ENDBRANCH   4   7
ENDBRANCH   2   3
ENDBRANCH   1   2
BRANCH   1  26
ATOM     26  C   UNL A   1      38.396  20.220  25.403  1.00  0.00     0.118 C 
BRANCH  26  27
ATOM     27  N   UNL A   1      39.530  19.324  25.469  1.00  0.00    -0.352 N 
ATOM     28  C   UNL A   1      40.780  19.519  26.002  1.00  0.00     0.251 C 
ATOM     29  H   UNL A   1      39.381  18.436  25.070  1.00  0.00     0.163 HD
ATOM     30  O   UNL A   1      41.609  18.619  25.931  1.00  0.00    -0.269 OA
BRANCH  28  31
ATOM     31  C   UNL A   1      41.163  20.813  26.618  1.00  0.00     0.039 A 
ATOM     32  C   UNL A   1      41.640  21.817  25.770  1.00  0.00     0.014 A 
ATOM     33  C   UNL A   1      41.111  21.041  27.997  1.00  0.00     0.014 A 
ATOM     34  C   UNL A   1      42.024  23.055  26.293  1.00  0.00     0.010 A 
ATOM     35  C   UNL A   1      41.437  22.302  28.512  1.00  0.00     0.010 A 
ATOM     36  C   UNL A   1      41.907  23.320  27.668  1.00  0.00    -0.014 A 
BRANCH  36  37
ATOM     37  C   UNL A   1      42.289  24.658  28.201  1.00  0.00     0.031 A 
ATOM     38  C   UNL A   1      43.727  24.987  28.507  1.00  0.00     0.074 A 
ATOM     39  C   UNL A   1      41.339  25.594  28.401  1.00  0.00     0.049 A 
ATOM     40  N   UNL A   1      44.248  26.118  28.915  1.00  0.00    -0.248 NA
ATOM     41  C   UNL A   1      44.705  23.900  28.350  1.00  0.00     0.031 C 
ATOM     42  C   UNL A   1      39.905  25.399  28.187  1.00  0.00     0.029 A 
ATOM     43  N   UNL A   1      41.438  26.899  28.819  1.00  0.00    -0.354 N 
ATOM     44  C   UNL A   1      45.609  25.880  29.062  1.00  0.00     0.074 A 
ATOM     45  C   UNL A   1      45.824  24.483  28.757  1.00  0.00     0.031 C 
ATOM     46  C   UNL A   1      39.262  26.551  28.439  1.00  0.00     0.029 A 
ATOM     47  C   UNL A   1      40.231  27.557  28.862  1.00  0.00     0.049 A 
ATOM     48  H   UNL A   1      42.291  27.324  29.064  1.00  0.00     0.167 HD
ATOM     49  C   UNL A   1      46.596  26.749  29.395  1.00  0.00     0.037 A 
ATOM     50  C   UNL A   1      39.938  28.828  29.197  1.00  0.00     0.037 A 
ATOM     51  C   UNL A   1      46.387  28.144  29.695  1.00  0.00     0.049 A 
ATOM     52  C   UNL A   1      41.049  29.770  29.575  1.00  0.00     0.074 A 
ATOM     53  C   UNL A   1      47.330  29.110  30.004  1.00  0.00     0.029 A 
ATOM     54  N   UNL A   1      45.151  28.770  29.731  1.00  0.00    -0.354 N 
ATOM     55  N   UNL A   1      42.339  29.547  29.637  1.00  0.00    -0.248 NA
ATOM     56  C   UNL A   1      40.661  31.147  29.912  1.00  0.00     0.031 C 
ATOM     57  C   UNL A   1      46.659  30.307  30.277  1.00  0.00     0.029 A 
ATOM     58  C   UNL A   1      45.305  30.104  30.078  1.00  0.00     0.049 A 
ATOM     59  H   UNL A   1      44.289  28.331  29.541  1.00  0.00     0.167 HD
ATOM     60  C   UNL A   1      42.919  30.761  29.985  1.00  0.00     0.074 A 
ATOM     61  C   UNL A   1      41.841  31.720  30.102  1.00  0.00     0.031 C 
ATOM     62  C   UNL A   1      44.227  31.055  30.187  1.00  0.00     0.037 A 
BRANCH  49  63
ATOM     63  C   UNL A   1      47.999  26.212  29.455  1.00  0.00     0.057 A 
ATOM     64  C   UNL A   1      48.837  26.201  28.332  1.00  0.00     0.134 A 
ATOM     65  C   UNL A   1      48.533  25.734  30.659  1.00  0.00     0.134 A 
ATOM     66  F   UNL A   1      48.388  26.637  27.145  1.00  0.00    -0.206 F 
ATOM     67  C   UNL A   1      50.141  25.706  28.395  1.00  0.00     0.040 A 
ATOM     68  C   UNL A   1      49.846  25.265  30.743  1.00  0.00     0.040 A 
ATOM     69  F   UNL A   1      47.792  25.724  31.779  1.00  0.00    -0.206 F 
ATOM     70  C   UNL A   1      50.651  25.243  29.606  1.00  0.00     0.006 A 
ENDBRANCH  49  63
BRANCH  50  71
ATOM     71  C   UNL A   1      38.529  29.302  29.165  1.00  0.00     0.057 A 
ATOM     72  C   UNL A   1      37.950  29.783  27.984  1.00  0.00     0.134 A 
ATOM     73  C   UNL A   1      37.736  29.309  30.318  1.00  0.00     0.134 A 
ATOM     74  F   UNL A   1      38.665  29.822  26.849  1.00  0.00    -0.206 F 
ATOM     75  C   UNL A   1      36.646  30.277  27.956  1.00  0.00     0.040 A 
ATOM     76  C   UNL A   1      36.420  29.773  30.298  1.00  0.00     0.040 A 
ATOM     77  F   UNL A   1      38.227  28.856  31.481  1.00  0.00    -0.206 F 
ATOM     78  C   UNL A   1      35.874  30.269  29.116  1.00  0.00     0.006 A 
ENDBRANCH  50  71
BRANCH  62  79
ATOM     79  C   UNL A   1      44.569  32.484  30.507  1.00  0.00     0.057 A 
ATOM     80  C   UNL A   1      44.824  33.433  29.508  1.00  0.00     0.134 A 
ATOM     81  C   UNL A   1      44.641  32.917  31.838  1.00  0.00     0.134 A 
ATOM     82  F   UNL A   1      44.783  33.085  28.212  1.00  0.00    -0.206 F 
ATOM     83  C   UNL A   1      45.176  34.748  29.822  1.00  0.00     0.040 A 
ATOM     84  C   UNL A   1      44.959  34.236  32.163  1.00  0.00     0.040 A 
ATOM     85  F   UNL A   1      44.398  32.066  32.846  1.00  0.00    -0.206 F 
ATOM     86  C   UNL A   1      45.240  35.154  31.153  1.00  0.00     0.006 A 
ENDBRANCH  62  79
ENDBRANCH  36  37
ENDBRANCH  28  31
ENDBRANCH  26  27
ENDBRANCH   1  26
TORSDOF 13
ENDMDL
MODEL 3
REMARK VINA RESULT:     -12.4      4.080      8.751
REMARK SMILES CC[C@](C)(NC(=O)[C@H]1CNc2ccccc2O1)C(=O)NCCCNC(=O)c1ccc(-c2c3nc(c(-c4c(F)cccc4F)c4ccc([nH]4)c(-c4c(F)cccc4F)c4nc(c(-c5c(F)cccc5F)c5ccc2[nH]5)C=C4)C=C3)cc1
REMARK SMILES IDX 22 1 21 2 20 3 18 4 19 5 3 7 4 8 2 9 1 10 5 11 6 12 7 14
REMARK SMILES IDX 8 15 9 16 17 17 10 18 16 19 11 20 15 22 12 23 14 24 13 25
REMARK SMILES IDX 23 26 24 27 25 28 26 30 27 31 28 32 80 33 29 34 79 35 30 36
REMARK SMILES IDX 31 37 32 38 73 39 33 40 78 41 72 42 74 43 34 44 77 45 71 46
REMARK SMILES IDX 70 47 35 49 61 50 44 51 60 52 45 53 48 54 59 55 75 56 46 57
REMARK SMILES IDX 47 58 58 60 76 61 49 62 36 63 37 64 42 65 38 66 39 67 41 68
REMARK SMILES IDX 43 69 40 70 62 71 63 72 68 73 64 74 65 75 67 76 69 77 66 78
REMARK SMILES IDX 50 79 51 80 56 81 52 82 53 83 55 84 57 85 54 86
REMARK H PARENT 20 6 5 13 10 21 24 29 74 48 48 59
REMARK Flexibility Score: inf
ROOT
ATOM      1  C   UNL A   1      37.140  19.588  24.969  1.00  0.00     0.042 C 
ENDROOT
BRANCH   1   2
ATOM      2  C   UNL A   1      35.861  20.425  24.986  1.00  0.00     0.117 C 
BRANCH   2   3
ATOM      3  N   UNL A   1      34.609  19.765  25.305  1.00  0.00    -0.354 N 
ATOM      4  C   UNL A   1      33.349  20.241  25.571  1.00  0.00     0.245 C 
ATOM      5  O   UNL A   1      32.423  19.422  25.532  1.00  0.00    -0.272 OA
ATOM      6  H   UNL A   1      34.677  18.783  25.338  1.00  0.00     0.163 HD
BRANCH   4   7
ATOM      7  C   UNL A   1      33.066  21.762  25.705  1.00  0.00     0.116 C 
ATOM      8  C   UNL A   1      33.333  22.523  24.388  1.00  0.00     0.045 C 
BRANCH   7   9
ATOM      9  C   UNL A   1      34.180  22.218  26.727  1.00  0.00     0.035 C 
ATOM     10  C   UNL A   1      34.935  23.512  26.476  1.00  0.00     0.007 C 
ENDBRANCH   7   9
BRANCH   7  11
ATOM     11  N   UNL A   1      31.677  22.090  26.115  1.00  0.00    -0.339 N 
ATOM     12  C   UNL A   1      31.141  23.280  26.555  1.00  0.00     0.263 C 
ATOM     13  H   UNL A   1      31.040  21.340  26.064  1.00  0.00     0.164 HD
ATOM     14  O   UNL A   1      30.225  23.173  27.384  1.00  0.00    -0.271 OA
BRANCH  12  15
ATOM     15  C   UNL A   1      31.510  24.691  26.011  1.00  0.00     0.281 C 
ATOM     16  C   UNL A   1      30.642  25.057  24.801  1.00  0.00     0.168 C 
ATOM     17  O   UNL A   1      31.546  25.726  26.976  1.00  0.00    -0.477 OA
ATOM     18  N   UNL A   1      31.070  26.338  24.240  1.00  0.00    -0.378 N 
ATOM     19  C   UNL A   1      31.592  27.012  26.506  1.00  0.00     0.143 A 
ATOM     20  C   UNL A   1      31.345  27.335  25.168  1.00  0.00     0.077 A 
ATOM     21  H   UNL A   1      31.157  26.484  23.271  1.00  0.00     0.160 HD
ATOM     22  C   UNL A   1      31.853  28.009  27.452  1.00  0.00     0.049 A 
ATOM     23  C   UNL A   1      31.359  28.685  24.805  1.00  0.00     0.029 A 
ATOM     24  C   UNL A   1      31.845  29.348  27.084  1.00  0.00     0.004 A 
ATOM     25  C   UNL A   1      31.591  29.688  25.759  1.00  0.00     0.002 A 
ENDBRANCH  12  15
ENDBRANCH   7  11
ENDBRANCH   4   7
ENDBRANCH   2   3
ENDBRANCH   1   2
BRANCH   1  26
ATOM     26  C   UNL A   1      38.445  20.221  25.437  1.00  0.00     0.118 C 
BRANCH  26  27
ATOM     27  N   UNL A   1      39.567  19.311  25.522  1.00  0.00    -0.352 N 
ATOM     28  C   UNL A   1      40.824  19.504  26.038  1.00  0.00     0.251 C 
ATOM     29  H   UNL A   1      39.402  18.414  25.151  1.00  0.00     0.163 HD
ATOM     30  O   UNL A   1      41.639  18.590  25.988  1.00  0.00    -0.269 OA
BRANCH  28  31
ATOM     31  C   UNL A   1      41.230  20.810  26.612  1.00  0.00     0.039 A 
ATOM     32  C   UNL A   1      41.785  21.754  25.743  1.00  0.00     0.014 A 
ATOM     33  C   UNL A   1      41.124  21.105  27.975  1.00  0.00     0.014 A 
ATOM     34  C   UNL A   1      42.195  22.999  26.227  1.00  0.00     0.010 A 
ATOM     35  C   UNL A   1      41.477  22.375  28.448  1.00  0.00     0.010 A 
ATOM     36  C   UNL A   1      42.026  23.333  27.581  1.00  0.00    -0.014 A 
BRANCH  36  37
ATOM     37  C   UNL A   1      42.438  24.679  28.070  1.00  0.00     0.031 A 
ATOM     38  C   UNL A   1      41.422  25.775  28.267  1.00  0.00     0.074 A 
ATOM     39  C   UNL A   1      43.734  24.920  28.354  1.00  0.00     0.049 A 
ATOM     40  N   UNL A   1      41.591  26.983  28.744  1.00  0.00    -0.248 NA
ATOM     41  C   UNL A   1      40.040  25.480  27.860  1.00  0.00     0.031 C 
ATOM     42  C   UNL A   1      44.829  23.967  28.171  1.00  0.00     0.029 A 
ATOM     43  N   UNL A   1      44.349  26.037  28.867  1.00  0.00    -0.354 N 
ATOM     44  C   UNL A   1      40.342  27.590  28.697  1.00  0.00     0.074 A 
ATOM     45  C   UNL A   1      39.438  26.638  28.089  1.00  0.00     0.031 C 
ATOM     46  C   UNL A   1      45.974  24.524  28.598  1.00  0.00     0.029 A 
ATOM     47  C   UNL A   1      45.702  25.883  29.056  1.00  0.00     0.049 A 
ATOM     48  H   UNL A   1      43.867  26.868  29.078  1.00  0.00     0.167 HD
ATOM     49  C   UNL A   1      39.973  28.817  29.140  1.00  0.00     0.037 A 
ATOM     50  C   UNL A   1      46.620  26.736  29.549  1.00  0.00     0.037 A 
ATOM     51  C   UNL A   1      40.869  29.768  29.751  1.00  0.00     0.049 A 
ATOM     52  C   UNL A   1      46.188  28.097  30.024  1.00  0.00     0.074 A 
ATOM     53  C   UNL A   1      40.577  31.020  30.267  1.00  0.00     0.029 A 
ATOM     54  N   UNL A   1      42.231  29.575  29.921  1.00  0.00    -0.354 N 
ATOM     55  N   UNL A   1      44.989  28.627  30.039  1.00  0.00    -0.248 NA
ATOM     56  C   UNL A   1      47.237  28.971  30.567  1.00  0.00     0.031 C 
ATOM     57  C   UNL A   1      41.772  31.604  30.702  1.00  0.00     0.029 A 
ATOM     58  C   UNL A   1      42.798  30.694  30.515  1.00  0.00     0.049 A 
ATOM     59  H   UNL A   1      42.725  28.764  29.657  1.00  0.00     0.167 HD
ATOM     60  C   UNL A   1      45.134  29.880  30.623  1.00  0.00     0.074 A 
ATOM     61  C   UNL A   1      46.533  30.021  30.965  1.00  0.00     0.031 C 
ATOM     62  C   UNL A   1      44.192  30.826  30.857  1.00  0.00     0.037 A 
BRANCH  49  63
ATOM     63  C   UNL A   1      38.529  29.206  28.978  1.00  0.00     0.057 A 
ATOM     64  C   UNL A   1      37.622  29.147  30.044  1.00  0.00     0.134 A 
ATOM     65  C   UNL A   1      38.047  29.680  27.750  1.00  0.00     0.134 A 
ATOM     66  F   UNL A   1      38.014  28.695  31.246  1.00  0.00    -0.206 F 
ATOM     67  C   UNL A   1      36.284  29.514  29.889  1.00  0.00     0.040 A 
ATOM     68  C   UNL A   1      36.719  30.080  27.590  1.00  0.00     0.040 A 
ATOM     69  F   UNL A   1      38.862  29.775  26.688  1.00  0.00    -0.206 F 
ATOM     70  C   UNL A   1      35.831  29.990  28.661  1.00  0.00     0.006 A 
ENDBRANCH  49  63
BRANCH  50  71
ATOM     71  C   UNL A   1      48.045  26.323  29.650  1.00  0.00     0.057 A 
ATOM     72  C   UNL A   1      48.935  26.516  28.586  1.00  0.00     0.134 A 
ATOM     73  C   UNL A   1      48.544  25.702  30.801  1.00  0.00     0.134 A 
ATOM     74  F   UNL A   1      48.512  27.086  27.447  1.00  0.00    -0.206 F 
ATOM     75  C   UNL A   1      50.260  26.085  28.652  1.00  0.00     0.040 A 
ATOM     76  C   UNL A   1      49.875  25.293  30.892  1.00  0.00     0.040 A 
ATOM     77  F   UNL A   1      47.746  25.493  31.858  1.00  0.00    -0.206 F 
ATOM     78  C   UNL A   1      50.735  25.475  29.811  1.00  0.00     0.006 A 
ENDBRANCH  50  71
BRANCH  62  79
ATOM     79  C   UNL A   1      44.635  32.078  31.561  1.00  0.00     0.057 A 
ATOM     80  C   UNL A   1      45.079  33.211  30.864  1.00  0.00     0.134 A 
ATOM     81  C   UNL A   1      44.614  32.152  32.961  1.00  0.00     0.134 A 
ATOM     82  F   UNL A   1      45.135  33.206  29.524  1.00  0.00    -0.206 F 
ATOM     83  C   UNL A   1      45.521  34.354  31.534  1.00  0.00     0.040 A 
ATOM     84  C   UNL A   1      45.023  33.301  33.640  1.00  0.00     0.040 A 
ATOM     85  F   UNL A   1      44.191  31.110  33.692  1.00  0.00    -0.206 F 
ATOM     86  C   UNL A   1      45.491  34.403  32.926  1.00  0.00     0.006 A 
ENDBRANCH  62  79
ENDBRANCH  36  37
ENDBRANCH  28  31
ENDBRANCH  26  27
ENDBRANCH   1  26
TORSDOF 13
ENDMDL
