MODEL 1
REMARK VINA RESULT:     -11.6      0.000      0.000
REMARK SMILES C[C@]1(C(=O)N2CCC(CC(=O)NCCCNC(=O)c3ccc(-c4c5nc(c(-c6c(F)cccc6F)c6ccc([nH]6)c(-c6c(F)cccc6F)c6nc(c(-c7c(F)cccc7F)c7ccc4[nH]7)C=C6)C=C5)cc3)CC2)CCC[NH2+]1
REMARK SMILES IDX 14 1 13 2 12 3 10 4 11 5 9 7 8 8 3 9 4 10 5 11 6 12 74 13
REMARK SMILES IDX 7 14 73 15 2 16 1 17 75 18 78 19 76 20 77 21 15 24 16 25
REMARK SMILES IDX 17 26 18 28 19 29 20 30 72 31 21 32 71 33 22 34 23 35 24 36
REMARK SMILES IDX 65 37 25 38 70 39 64 40 66 41 26 42 69 43 63 44 62 45 27 47
REMARK SMILES IDX 53 48 36 49 52 50 37 51 40 52 51 53 67 54 38 55 39 56 50 58
REMARK SMILES IDX 68 59 41 60 28 61 29 62 34 63 30 64 31 65 33 66 35 67 32 68
REMARK SMILES IDX 54 69 55 70 60 71 56 72 57 73 59 74 61 75 58 76 42 77 43 78
REMARK SMILES IDX 48 79 44 80 45 81 47 82 49 83 46 84
REMARK H PARENT 12 6 78 22 78 23 16 27 66 46 40 57
REMARK Flexibility Score: inf
ROOT
ATOM      1  C   UNL A   1      37.225  19.519  24.950  1.00  0.00     0.042 C 
ENDROOT
BRANCH   1   2
ATOM      2  C   UNL A   1      35.958  20.378  24.974  1.00  0.00     0.117 C 
BRANCH   2   3
ATOM      3  N   UNL A   1      34.751  19.621  25.290  1.00  0.00    -0.356 N 
ATOM      4  C   UNL A   1      33.455  19.785  24.896  1.00  0.00     0.220 C 
ATOM      5  O   UNL A   1      32.617  18.982  25.314  1.00  0.00    -0.275 OA
ATOM      6  H   UNL A   1      34.898  18.857  25.892  1.00  0.00     0.163 HD
BRANCH   4   7
ATOM      7  C   UNL A   1      33.039  20.942  24.005  1.00  0.00     0.103 C 
BRANCH   7   8
ATOM      8  C   UNL A   1      32.231  22.015  24.760  1.00  0.00     0.002 C 
ATOM      9  C   UNL A   1      33.157  25.692  25.836  1.00  0.00     0.283 C 
ATOM     10  O   UNL A   1      34.357  25.404  25.857  1.00  0.00    -0.268 OA
ATOM     11  N   UNL A   1      32.177  24.711  25.832  1.00  0.00    -0.337 N 
ATOM     12  C   UNL A   1      32.325  23.603  26.746  1.00  0.00     0.120 C 
ATOM     13  C   UNL A   1      31.393  24.435  24.639  1.00  0.00     0.120 C 
ATOM     14  C   UNL A   1      32.954  22.417  26.048  1.00  0.00     0.026 C 
ATOM     15  C   UNL A   1      31.991  23.252  23.865  1.00  0.00     0.026 C 
BRANCH   9  16
ATOM     16  C   UNL A   1      32.650  27.161  25.927  1.00  0.00     0.173 C 
ATOM     17  C   UNL A   1      31.295  27.188  26.641  1.00  0.00     0.090 C 
ATOM     18  C   UNL A   1      33.653  28.151  26.521  1.00  0.00     0.084 C 
ATOM     19  N   UNL A   1      32.521  27.658  24.534  1.00  0.00    -0.334 N 
ATOM     20  C   UNL A   1      33.318  29.473  25.857  1.00  0.00     0.068 C 
ATOM     21  C   UNL A   1      32.768  29.091  24.496  1.00  0.00     0.261 C 
ATOM     22  H   UNL A   1      31.580  27.468  24.192  1.00  0.00     0.347 HD
ATOM     23  H   UNL A   1      33.205  27.185  23.944  1.00  0.00     0.347 HD
ENDBRANCH   9  16
ENDBRANCH   7   8
ENDBRANCH   4   7
ENDBRANCH   2   3
ENDBRANCH   1   2
BRANCH   1  24
ATOM     24  C   UNL A   1      38.494  20.238  25.392  1.00  0.00     0.118 C 
BRANCH  24  25
ATOM     25  N   UNL A   1      39.588  19.309  25.619  1.00  0.00    -0.352 N 
ATOM     26  C   UNL A   1      40.890  19.545  25.986  1.00  0.00     0.251 C 
ATOM     27  H   UNL A   1      39.359  18.360  25.488  1.00  0.00     0.163 HD
ATOM     28  O   UNL A   1      41.712  18.638  25.873  1.00  0.00    -0.269 OA
BRANCH  26  29
ATOM     29  C   UNL A   1      41.331  20.862  26.516  1.00  0.00     0.039 A 
ATOM     30  C   UNL A   1      41.096  21.149  27.867  1.00  0.00     0.014 A 
ATOM     31  C   UNL A   1      41.875  21.853  25.694  1.00  0.00     0.014 A 
ATOM     32  C   UNL A   1      41.425  22.403  28.392  1.00  0.00     0.010 A 
ATOM     33  C   UNL A   1      42.270  23.081  26.233  1.00  0.00     0.010 A 
ATOM     34  C   UNL A   1      42.027  23.379  27.583  1.00  0.00    -0.014 A 
BRANCH  34  35
ATOM     35  C   UNL A   1      42.364  24.723  28.126  1.00  0.00     0.031 A 
ATOM     36  C   UNL A   1      43.777  25.049  28.537  1.00  0.00     0.074 A 
ATOM     37  C   UNL A   1      41.397  25.646  28.291  1.00  0.00     0.049 A 
ATOM     38  N   UNL A   1      44.253  26.150  29.063  1.00  0.00    -0.248 NA
ATOM     39  C   UNL A   1      44.780  23.988  28.356  1.00  0.00     0.031 C 
ATOM     40  C   UNL A   1      39.980  25.451  27.984  1.00  0.00     0.029 A 
ATOM     41  N   UNL A   1      41.461  26.932  28.768  1.00  0.00    -0.354 N 
ATOM     42  C   UNL A   1      45.601  25.905  29.299  1.00  0.00     0.074 A 
ATOM     43  C   UNL A   1      45.857  24.538  28.896  1.00  0.00     0.031 C 
ATOM     44  C   UNL A   1      39.312  26.582  28.262  1.00  0.00     0.029 A 
ATOM     45  C   UNL A   1      40.246  27.572  28.789  1.00  0.00     0.049 A 
ATOM     46  H   UNL A   1      42.298  27.355  29.067  1.00  0.00     0.167 HD
ATOM     47  C   UNL A   1      46.546  26.745  29.788  1.00  0.00     0.037 A 
ATOM     48  C   UNL A   1      39.919  28.816  29.188  1.00  0.00     0.037 A 
ATOM     49  C   UNL A   1      46.310  28.118  30.148  1.00  0.00     0.049 A 
ATOM     50  C   UNL A   1      40.989  29.742  29.692  1.00  0.00     0.074 A 
ATOM     51  C   UNL A   1      47.222  29.069  30.572  1.00  0.00     0.029 A 
ATOM     52  N   UNL A   1      45.069  28.737  30.127  1.00  0.00    -0.354 N 
ATOM     53  N   UNL A   1      42.271  29.518  29.843  1.00  0.00    -0.248 NA
ATOM     54  C   UNL A   1      40.567  31.098  30.074  1.00  0.00     0.031 C 
ATOM     55  C   UNL A   1      46.528  30.255  30.838  1.00  0.00     0.029 A 
ATOM     56  C   UNL A   1      45.190  30.051  30.548  1.00  0.00     0.049 A 
ATOM     57  H   UNL A   1      44.227  28.306  29.853  1.00  0.00     0.167 HD
ATOM     58  C   UNL A   1      42.811  30.706  30.320  1.00  0.00     0.074 A 
ATOM     59  C   UNL A   1      41.720  31.652  30.419  1.00  0.00     0.031 C 
ATOM     60  C   UNL A   1      44.096  30.984  30.646  1.00  0.00     0.037 A 
BRANCH  47  61
ATOM     61  C   UNL A   1      47.932  26.195  29.960  1.00  0.00     0.057 A 
ATOM     62  C   UNL A   1      48.844  26.142  28.897  1.00  0.00     0.134 A 
ATOM     63  C   UNL A   1      48.369  25.735  31.209  1.00  0.00     0.134 A 
ATOM     64  F   UNL A   1      48.485  26.557  27.673  1.00  0.00    -0.206 F 
ATOM     65  C   UNL A   1      50.129  25.623  29.063  1.00  0.00     0.040 A 
ATOM     66  C   UNL A   1      49.659  25.236  31.392  1.00  0.00     0.040 A 
ATOM     67  F   UNL A   1      47.548  25.765  32.270  1.00  0.00    -0.206 F 
ATOM     68  C   UNL A   1      50.540  25.172  30.315  1.00  0.00     0.006 A 
ENDBRANCH  47  61
BRANCH  48  69
ATOM     69  C   UNL A   1      38.510  29.268  29.095  1.00  0.00     0.057 A 
ATOM     70  C   UNL A   1      37.977  29.723  27.883  1.00  0.00     0.134 A 
ATOM     71  C   UNL A   1      37.660  29.244  30.206  1.00  0.00     0.134 A 
ATOM     72  F   UNL A   1      38.751  29.788  26.789  1.00  0.00    -0.206 F 
ATOM     73  C   UNL A   1      36.652  30.144  27.781  1.00  0.00     0.040 A 
ATOM     74  C   UNL A   1      36.327  29.644  30.114  1.00  0.00     0.040 A 
ATOM     75  F   UNL A   1      38.112  28.815  31.394  1.00  0.00    -0.206 F 
ATOM     76  C   UNL A   1      35.820  30.099  28.898  1.00  0.00     0.006 A 
ENDBRANCH  48  69
BRANCH  60  77
ATOM     77  C   UNL A   1      44.396  32.372  31.128  1.00  0.00     0.057 A 
ATOM     78  C   UNL A   1      44.708  33.407  30.239  1.00  0.00     0.134 A 
ATOM     79  C   UNL A   1      44.342  32.683  32.492  1.00  0.00     0.134 A 
ATOM     80  F   UNL A   1      44.788  33.170  28.921  1.00  0.00    -0.206 F 
ATOM     81  C   UNL A   1      44.973  34.700  30.691  1.00  0.00     0.040 A 
ATOM     82  C   UNL A   1      44.586  33.977  32.954  1.00  0.00     0.040 A 
ATOM     83  F   UNL A   1      44.044  31.737  33.396  1.00  0.00    -0.206 F 
ATOM     84  C   UNL A   1      44.907  34.989  32.052  1.00  0.00     0.006 A 
ENDBRANCH  60  77
ENDBRANCH  34  35
ENDBRANCH  26  29
ENDBRANCH  24  25
ENDBRANCH   1  24
TORSDOF 12
ENDMDL
MODEL 2
REMARK VINA RESULT:     -11.6      0.589      1.747
REMARK SMILES C[C@]1(C(=O)N2CCC(CC(=O)NCCCNC(=O)c3ccc(-c4c5nc(c(-c6c(F)cccc6F)c6ccc([nH]6)c(-c6c(F)cccc6F)c6nc(c(-c7c(F)cccc7F)c7ccc4[nH]7)C=C6)C=C5)cc3)CC2)CCC[NH2+]1
REMARK SMILES IDX 14 1 13 2 12 3 10 4 11 5 9 7 8 8 3 9 4 10 5 11 6 12 74 13
REMARK SMILES IDX 7 14 73 15 2 16 1 17 75 18 78 19 76 20 77 21 15 24 16 25
REMARK SMILES IDX 17 26 18 28 19 29 20 30 72 31 21 32 71 33 22 34 23 35 24 36
REMARK SMILES IDX 65 37 25 38 70 39 64 40 66 41 26 42 69 43 63 44 62 45 27 47
REMARK SMILES IDX 53 48 36 49 52 50 37 51 40 52 51 53 67 54 38 55 39 56 50 58
REMARK SMILES IDX 68 59 41 60 28 61 29 62 34 63 30 64 31 65 33 66 35 67 32 68
REMARK SMILES IDX 54 69 55 70 60 71 56 72 57 73 59 74 61 75 58 76 42 77 43 78
REMARK SMILES IDX 48 79 44 80 45 81 47 82 49 83 46 84
REMARK H PARENT 12 6 78 22 78 23 16 27 66 46 40 57
REMARK Flexibility Score: inf
ROOT
ATOM      1  C   UNL A   1      37.346  19.481  24.975  1.00  0.00     0.042 C 
ENDROOT
BRANCH   1   2
ATOM      2  C   UNL A   1      36.085  20.350  24.939  1.00  0.00     0.117 C 
BRANCH   2   3
ATOM      3  N   UNL A   1      34.853  19.588  25.115  1.00  0.00    -0.356 N 
ATOM      4  C   UNL A   1      33.560  19.878  24.791  1.00  0.00     0.220 C 
ATOM      5  O   UNL A   1      32.695  19.037  25.049  1.00  0.00    -0.275 OA
ATOM      6  H   UNL A   1      34.977  18.711  25.543  1.00  0.00     0.163 HD
BRANCH   4   7
ATOM      7  C   UNL A   1      33.180  21.210  24.167  1.00  0.00     0.103 C 
BRANCH   7   8
ATOM      8  C   UNL A   1      32.924  22.308  25.218  1.00  0.00     0.002 C 
ATOM      9  C   UNL A   1      32.856  26.237  24.910  1.00  0.00     0.283 C 
ATOM     10  O   UNL A   1      33.617  26.193  23.940  1.00  0.00    -0.268 OA
ATOM     11  N   UNL A   1      32.701  25.150  25.758  1.00  0.00    -0.337 N 
ATOM     12  C   UNL A   1      33.890  24.453  26.189  1.00  0.00     0.120 C 
ATOM     13  C   UNL A   1      31.481  24.359  25.751  1.00  0.00     0.120 C 
ATOM     14  C   UNL A   1      34.137  23.236  25.323  1.00  0.00     0.026 C 
ATOM     15  C   UNL A   1      31.653  23.115  24.868  1.00  0.00     0.026 C 
BRANCH   9  16
ATOM     16  C   UNL A   1      32.107  27.536  25.325  1.00  0.00     0.173 C 
ATOM     17  C   UNL A   1      30.808  27.652  24.521  1.00  0.00     0.090 C 
ATOM     18  C   UNL A   1      31.890  27.700  26.830  1.00  0.00     0.084 C 
ATOM     19  N   UNL A   1      33.015  28.671  25.024  1.00  0.00    -0.334 N 
ATOM     20  C   UNL A   1      31.876  29.201  27.049  1.00  0.00     0.068 C 
ATOM     21  C   UNL A   1      32.779  29.756  25.963  1.00  0.00     0.261 C 
ATOM     22  H   UNL A   1      32.841  29.002  24.075  1.00  0.00     0.347 HD
ATOM     23  H   UNL A   1      33.982  28.359  25.108  1.00  0.00     0.347 HD
ENDBRANCH   9  16
ENDBRANCH   7   8
ENDBRANCH   4   7
ENDBRANCH   2   3
ENDBRANCH   1   2
BRANCH   1  24
ATOM     24  C   UNL A   1      38.617  20.214  25.388  1.00  0.00     0.118 C 
BRANCH  24  25
ATOM     25  N   UNL A   1      39.710  19.293  25.647  1.00  0.00    -0.352 N 
ATOM     26  C   UNL A   1      41.003  19.539  26.036  1.00  0.00     0.251 C 
ATOM     27  H   UNL A   1      39.488  18.342  25.522  1.00  0.00     0.163 HD
ATOM     28  O   UNL A   1      41.831  18.634  25.949  1.00  0.00    -0.269 OA
BRANCH  26  29
ATOM     29  C   UNL A   1      41.429  20.864  26.559  1.00  0.00     0.039 A 
ATOM     30  C   UNL A   1      41.227  21.140  27.917  1.00  0.00     0.014 A 
ATOM     31  C   UNL A   1      41.925  21.870  25.725  1.00  0.00     0.014 A 
ATOM     32  C   UNL A   1      41.542  22.399  28.438  1.00  0.00     0.010 A 
ATOM     33  C   UNL A   1      42.306  23.105  26.259  1.00  0.00     0.010 A 
ATOM     34  C   UNL A   1      42.097  23.393  27.616  1.00  0.00    -0.014 A 
BRANCH  34  35
ATOM     35  C   UNL A   1      42.418  24.742  28.155  1.00  0.00     0.031 A 
ATOM     36  C   UNL A   1      43.824  25.081  28.576  1.00  0.00     0.074 A 
ATOM     37  C   UNL A   1      41.442  25.658  28.307  1.00  0.00     0.049 A 
ATOM     38  N   UNL A   1      44.287  26.189  29.101  1.00  0.00    -0.248 NA
ATOM     39  C   UNL A   1      44.838  24.029  28.409  1.00  0.00     0.031 C 
ATOM     40  C   UNL A   1      40.029  25.449  27.988  1.00  0.00     0.029 A 
ATOM     41  N   UNL A   1      41.491  26.947  28.778  1.00  0.00    -0.354 N 
ATOM     42  C   UNL A   1      45.635  25.957  29.350  1.00  0.00     0.074 A 
ATOM     43  C   UNL A   1      45.906  24.591  28.956  1.00  0.00     0.031 C 
ATOM     44  C   UNL A   1      39.349  26.577  28.255  1.00  0.00     0.029 A 
ATOM     45  C   UNL A   1      40.270  27.577  28.785  1.00  0.00     0.049 A 
ATOM     46  H   UNL A   1      42.321  27.378  29.082  1.00  0.00     0.167 HD
ATOM     47  C   UNL A   1      46.568  26.807  29.843  1.00  0.00     0.037 A 
ATOM     48  C   UNL A   1      39.930  28.820  29.175  1.00  0.00     0.037 A 
ATOM     49  C   UNL A   1      46.317  28.180  30.194  1.00  0.00     0.049 A 
ATOM     50  C   UNL A   1      40.988  29.757  29.684  1.00  0.00     0.074 A 
ATOM     51  C   UNL A   1      47.218  29.141  30.620  1.00  0.00     0.029 A 
ATOM     52  N   UNL A   1      45.072  28.788  30.159  1.00  0.00    -0.354 N 
ATOM     53  N   UNL A   1      42.270  29.545  29.846  1.00  0.00    -0.248 NA
ATOM     54  C   UNL A   1      40.551  31.112  30.055  1.00  0.00     0.031 C 
ATOM     55  C   UNL A   1      46.512  30.322  30.875  1.00  0.00     0.029 A 
ATOM     56  C   UNL A   1      45.178  30.106  30.574  1.00  0.00     0.049 A 
ATOM     57  H   UNL A   1      44.236  28.349  29.880  1.00  0.00     0.167 HD
ATOM     58  C   UNL A   1      42.796  30.739  30.322  1.00  0.00     0.074 A 
ATOM     59  C   UNL A   1      41.696  31.677  30.407  1.00  0.00     0.031 C 
ATOM     60  C   UNL A   1      44.076  31.030  30.658  1.00  0.00     0.037 A 
BRANCH  47  61
ATOM     61  C   UNL A   1      47.957  26.270  30.029  1.00  0.00     0.057 A 
ATOM     62  C   UNL A   1      48.378  25.712  31.245  1.00  0.00     0.134 A 
ATOM     63  C   UNL A   1      48.878  26.287  28.974  1.00  0.00     0.134 A 
ATOM     64  F   UNL A   1      47.548  25.675  32.298  1.00  0.00    -0.206 F 
ATOM     65  C   UNL A   1      49.673  25.220  31.412  1.00  0.00     0.040 A 
ATOM     66  C   UNL A   1      50.168  25.776  29.123  1.00  0.00     0.040 A 
ATOM     67  F   UNL A   1      48.537  26.799  27.782  1.00  0.00    -0.206 F 
ATOM     68  C   UNL A   1      50.571  25.248  30.347  1.00  0.00     0.006 A 
ENDBRANCH  47  61
BRANCH  48  69
ATOM     69  C   UNL A   1      38.517  29.260  29.067  1.00  0.00     0.057 A 
ATOM     70  C   UNL A   1      37.669  29.237  30.179  1.00  0.00     0.134 A 
ATOM     71  C   UNL A   1      37.989  29.726  27.858  1.00  0.00     0.134 A 
ATOM     72  F   UNL A   1      38.116  28.781  31.359  1.00  0.00    -0.206 F 
ATOM     73  C   UNL A   1      36.341  29.655  30.092  1.00  0.00     0.040 A 
ATOM     74  C   UNL A   1      36.668  30.166  27.761  1.00  0.00     0.040 A 
ATOM     75  F   UNL A   1      38.754  29.774  26.758  1.00  0.00    -0.206 F 
ATOM     76  C   UNL A   1      35.839  30.128  28.882  1.00  0.00     0.006 A 
ENDBRANCH  48  69
BRANCH  60  77
ATOM     77  C   UNL A   1      44.360  32.423  31.135  1.00  0.00     0.057 A 
ATOM     78  C   UNL A   1      44.333  32.754  32.494  1.00  0.00     0.134 A 
ATOM     79  C   UNL A   1      44.694  33.435  30.227  1.00  0.00     0.134 A 
ATOM     80  F   UNL A   1      44.007  31.831  33.413  1.00  0.00    -0.206 F 
ATOM     81  C   UNL A   1      44.611  34.049  32.934  1.00  0.00     0.040 A 
ATOM     82  C   UNL A   1      44.993  34.729  30.656  1.00  0.00     0.040 A 
ATOM     83  F   UNL A   1      44.742  33.182  28.910  1.00  0.00    -0.206 F 
ATOM     84  C   UNL A   1      44.948  35.040  32.013  1.00  0.00     0.006 A 
ENDBRANCH  60  77
ENDBRANCH  34  35
ENDBRANCH  26  29
ENDBRANCH  24  25
ENDBRANCH   1  24
TORSDOF 12
ENDMDL
MODEL 3
REMARK VINA RESULT:     -11.5      4.021      6.824
REMARK SMILES C[C@]1(C(=O)N2CCC(CC(=O)NCCCNC(=O)c3ccc(-c4c5nc(c(-c6c(F)cccc6F)c6ccc([nH]6)c(-c6c(F)cccc6F)c6nc(c(-c7c(F)cccc7F)c7ccc4[nH]7)C=C6)C=C5)cc3)CC2)CCC[NH2+]1
REMARK SMILES IDX 14 1 13 2 12 3 10 4 11 5 9 7 8 8 3 9 4 10 5 11 6 12 74 13
REMARK SMILES IDX 7 14 73 15 2 16 1 17 75 18 78 19 76 20 77 21 15 24 16 25
REMARK SMILES IDX 17 26 18 28 19 29 20 30 72 31 21 32 71 33 22 34 23 35 24 36
REMARK SMILES IDX 65 37 25 38 70 39 64 40 66 41 26 42 69 43 63 44 62 45 27 47
REMARK SMILES IDX 53 48 36 49 52 50 37 51 40 52 51 53 67 54 38 55 39 56 50 58
REMARK SMILES IDX 68 59 41 60 28 61 29 62 34 63 30 64 31 65 33 66 35 67 32 68
REMARK SMILES IDX 54 69 55 70 60 71 56 72 57 73 59 74 61 75 58 76 42 77 43 78
REMARK SMILES IDX 48 79 44 80 45 81 47 82 49 83 46 84
REMARK H PARENT 12 6 78 22 78 23 16 27 66 46 40 57
REMARK Flexibility Score: inf
ROOT
ATOM      1  C   UNL A   1      44.990  20.745  23.819  1.00  0.00     0.042 C 
ENDROOT
BRANCH   1   2
ATOM      2  C   UNL A   1      45.127  22.256  24.023  1.00  0.00     0.117 C 
BRANCH   2   3
ATOM      3  N   UNL A   1      46.054  22.614  25.092  1.00  0.00    -0.356 N 
ATOM      4  C   UNL A   1      46.344  23.816  25.669  1.00  0.00     0.220 C 
ATOM      5  O   UNL A   1      47.179  23.837  26.576  1.00  0.00    -0.275 OA
ATOM      6  H   UNL A   1      46.558  21.854  25.463  1.00  0.00     0.163 HD
BRANCH   4   7
ATOM      7  C   UNL A   1      45.694  25.102  25.187  1.00  0.00     0.103 C 
BRANCH   7   8
ATOM      8  C   UNL A   1      45.452  26.110  26.327  1.00  0.00     0.002 C 
ATOM      9  C   UNL A   1      45.687  30.044  26.414  1.00  0.00     0.283 C 
ATOM     10  O   UNL A   1      46.503  30.034  25.487  1.00  0.00    -0.268 OA
ATOM     11  N   UNL A   1      45.401  28.896  27.138  1.00  0.00    -0.337 N 
ATOM     12  C   UNL A   1      46.506  28.070  27.562  1.00  0.00     0.120 C 
ATOM     13  C   UNL A   1      44.130  28.206  26.983  1.00  0.00     0.120 C 
ATOM     14  C   UNL A   1      46.719  26.927  26.593  1.00  0.00     0.026 C 
ATOM     15  C   UNL A   1      44.267  27.044  25.990  1.00  0.00     0.026 C 
BRANCH   9  16
ATOM     16  C   UNL A   1      45.009  31.351  26.914  1.00  0.00     0.173 C 
ATOM     17  C   UNL A   1      44.199  31.052  28.180  1.00  0.00     0.090 C 
ATOM     18  C   UNL A   1      45.954  32.542  27.084  1.00  0.00     0.084 C 
ATOM     19  N   UNL A   1      44.122  31.822  25.821  1.00  0.00    -0.334 N 
ATOM     20  C   UNL A   1      45.083  33.756  26.827  1.00  0.00     0.068 C 
ATOM     21  C   UNL A   1      44.028  33.273  25.849  1.00  0.00     0.261 C 
ATOM     22  H   UNL A   1      43.192  31.420  25.942  1.00  0.00     0.347 HD
ATOM     23  H   UNL A   1      44.510  31.528  24.925  1.00  0.00     0.347 HD
ENDBRANCH   9  16
ENDBRANCH   7   8
ENDBRANCH   4   7
ENDBRANCH   2   3
ENDBRANCH   1   2
BRANCH   1  24
ATOM     24  C   UNL A   1      44.645  19.957  25.078  1.00  0.00     0.118 C 
BRANCH  24  25
ATOM     25  N   UNL A   1      43.261  19.513  25.071  1.00  0.00    -0.352 N 
ATOM     26  C   UNL A   1      42.184  19.962  25.794  1.00  0.00     0.251 C 
ATOM     27  H   UNL A   1      43.067  18.773  24.452  1.00  0.00     0.163 HD
ATOM     28  O   UNL A   1      41.162  19.278  25.823  1.00  0.00    -0.269 OA
BRANCH  26  29
ATOM     29  C   UNL A   1      42.216  21.247  26.539  1.00  0.00     0.039 A 
ATOM     30  C   UNL A   1      42.375  22.434  25.813  1.00  0.00     0.014 A 
ATOM     31  C   UNL A   1      42.196  21.301  27.936  1.00  0.00     0.014 A 
ATOM     32  C   UNL A   1      42.488  23.661  26.476  1.00  0.00     0.010 A 
ATOM     33  C   UNL A   1      42.237  22.532  28.597  1.00  0.00     0.010 A 
ATOM     34  C   UNL A   1      42.408  23.724  27.877  1.00  0.00    -0.014 A 
BRANCH  34  35
ATOM     35  C   UNL A   1      42.545  25.021  28.594  1.00  0.00     0.031 A 
ATOM     36  C   UNL A   1      43.821  25.360  29.320  1.00  0.00     0.074 A 
ATOM     37  C   UNL A   1      41.511  25.883  28.633  1.00  0.00     0.049 A 
ATOM     38  N   UNL A   1      44.113  26.423  30.029  1.00  0.00    -0.248 NA
ATOM     39  C   UNL A   1      44.901  24.364  29.261  1.00  0.00     0.031 C 
ATOM     40  C   UNL A   1      40.201  25.663  28.018  1.00  0.00     0.029 A 
ATOM     41  N   UNL A   1      41.399  27.118  29.224  1.00  0.00    -0.354 N 
ATOM     42  C   UNL A   1      45.395  26.210  30.521  1.00  0.00     0.074 A 
ATOM     43  C   UNL A   1      45.810  24.901  30.062  1.00  0.00     0.031 C 
ATOM     44  C   UNL A   1      39.424  26.734  28.248  1.00  0.00     0.029 A 
ATOM     45  C   UNL A   1      40.169  27.704  29.045  1.00  0.00     0.049 A 
ATOM     46  H   UNL A   1      42.129  27.543  29.728  1.00  0.00     0.167 HD
ATOM     47  C   UNL A   1      46.167  27.035  31.269  1.00  0.00     0.037 A 
ATOM     48  C   UNL A   1      39.694  28.888  29.473  1.00  0.00     0.037 A 
ATOM     49  C   UNL A   1      45.781  28.356  31.691  1.00  0.00     0.049 A 
ATOM     50  C   UNL A   1      40.580  29.802  30.271  1.00  0.00     0.074 A 
ATOM     51  C   UNL A   1      46.528  29.296  32.378  1.00  0.00     0.029 A 
ATOM     52  N   UNL A   1      44.537  28.923  31.464  1.00  0.00    -0.354 N 
ATOM     53  N   UNL A   1      41.815  29.616  30.668  1.00  0.00    -0.248 NA
ATOM     54  C   UNL A   1      40.008  31.096  30.673  1.00  0.00     0.031 C 
ATOM     55  C   UNL A   1      45.725  30.421  32.596  1.00  0.00     0.029 A 
ATOM     56  C   UNL A   1      44.490  30.194  32.014  1.00  0.00     0.049 A 
ATOM     57  H   UNL A   1      43.796  28.488  30.982  1.00  0.00     0.167 HD
ATOM     58  C   UNL A   1      42.173  30.772  31.350  1.00  0.00     0.074 A 
ATOM     59  C   UNL A   1      41.031  31.660  31.301  1.00  0.00     0.031 C 
ATOM     60  C   UNL A   1      43.345  31.068  31.962  1.00  0.00     0.037 A 
BRANCH  47  61
ATOM     61  C   UNL A   1      47.519  26.527  31.680  1.00  0.00     0.057 A 
ATOM     62  C   UNL A   1      48.681  26.860  30.971  1.00  0.00     0.134 A 
ATOM     63  C   UNL A   1      47.663  25.714  32.811  1.00  0.00     0.134 A 
ATOM     64  F   UNL A   1      48.610  27.626  29.872  1.00  0.00    -0.206 F 
ATOM     65  C   UNL A   1      49.934  26.378  31.355  1.00  0.00     0.040 A 
ATOM     66  C   UNL A   1      48.913  25.246  33.218  1.00  0.00     0.040 A 
ATOM     67  F   UNL A   1      46.592  25.364  33.540  1.00  0.00    -0.206 F 
ATOM     68  C   UNL A   1      50.052  25.571  32.484  1.00  0.00     0.006 A 
ENDBRANCH  47  61
BRANCH  48  69
ATOM     69  C   UNL A   1      38.309  29.291  29.126  1.00  0.00     0.057 A 
ATOM     70  C   UNL A   1      37.983  29.705  27.830  1.00  0.00     0.134 A 
ATOM     71  C   UNL A   1      37.280  29.257  30.074  1.00  0.00     0.134 A 
ATOM     72  F   UNL A   1      38.933  29.777  26.886  1.00  0.00    -0.206 F 
ATOM     73  C   UNL A   1      36.683  30.079  27.489  1.00  0.00     0.040 A 
ATOM     74  C   UNL A   1      35.972  29.610  29.742  1.00  0.00     0.040 A 
ATOM     75  F   UNL A   1      37.531  28.866  31.332  1.00  0.00    -0.206 F 
ATOM     76  C   UNL A   1      35.672  30.026  28.446  1.00  0.00     0.006 A 
ENDBRANCH  48  69
BRANCH  60  77
ATOM     77  C   UNL A   1      43.456  32.413  32.616  1.00  0.00     0.057 A 
ATOM     78  C   UNL A   1      43.128  32.604  33.963  1.00  0.00     0.134 A 
ATOM     79  C   UNL A   1      43.926  33.519  31.898  1.00  0.00     0.134 A 
ATOM     80  F   UNL A   1      42.659  31.586  34.700  1.00  0.00    -0.206 F 
ATOM     81  C   UNL A   1      43.245  33.856  34.570  1.00  0.00     0.040 A 
ATOM     82  C   UNL A   1      44.067  34.771  32.500  1.00  0.00     0.040 A 
ATOM     83  F   UNL A   1      44.263  33.401  30.605  1.00  0.00    -0.206 F 
ATOM     84  C   UNL A   1      43.722  34.942  33.839  1.00  0.00     0.006 A 
ENDBRANCH  60  77
ENDBRANCH  34  35
ENDBRANCH  26  29
ENDBRANCH  24  25
ENDBRANCH   1  24
TORSDOF 12
ENDMDL
