MODEL 1
REMARK VINA RESULT:     -12.5      0.000      0.000
REMARK SMILES CC(C)(C)OC(=O)N1CCC[C@H]1C(=O)N1CCC[C@H]1C(=O)N1CCC[C@@H]1C(=O)NCCCNC(=O)c1ccc(-c2c3nc(c(-c4c(F)cccc4F)c4ccc([nH]4)c(-c4c(F)cccc4F)c4nc(c(-c5c(F)cccc5F)c5ccc2[nH]5)C=C4)C=C3)cc1
REMARK SMILES IDX 22 1 23 2 24 3 25 4 26 5 20 6 21 7 19 8 15 9 16 10 17 11
REMARK SMILES IDX 18 12 13 13 14 14 12 15 8 16 9 17 10 18 11 19 6 20 7 21 5 22
REMARK SMILES IDX 2 23 1 24 3 25 4 26 27 27 28 28 29 29 30 31 31 32 32 33
REMARK SMILES IDX 33 34 34 35 35 37 36 38 37 39 89 40 38 41 88 42 39 43 40 44
REMARK SMILES IDX 41 45 82 46 42 47 87 48 81 49 83 50 43 51 86 52 80 53 79 54
REMARK SMILES IDX 44 56 70 57 53 58 69 59 54 60 57 61 68 62 84 63 55 64 56 65
REMARK SMILES IDX 67 67 85 68 58 69 45 70 46 71 51 72 47 73 48 74 50 75 52 76
REMARK SMILES IDX 49 77 71 78 72 79 77 80 73 81 74 82 76 83 78 84 75 85 59 86
REMARK SMILES IDX 60 87 65 88 61 89 62 90 64 91 66 92 63 93
REMARK H PARENT 29 30 33 36 83 55 57 66
REMARK Flexibility Score: inf
ROOT
ATOM      1  N   UNL A   1      33.418  22.458  24.350  1.00  0.00    -0.329 N 
ATOM      2  C   UNL A   1      32.146  21.888  23.950  1.00  0.00     0.120 C 
ATOM      3  C   UNL A   1      32.163  20.475  24.510  1.00  0.00     0.024 C 
ATOM      4  C   UNL A   1      33.643  20.101  24.568  1.00  0.00     0.037 C 
ATOM      5  C   UNL A   1      34.412  21.430  24.627  1.00  0.00     0.174 C 
ENDROOT
BRANCH   1   6
ATOM      6  C   UNL A   1      33.803  23.782  24.200  1.00  0.00     0.246 C 
ATOM      7  O   UNL A   1      34.756  24.115  23.498  1.00  0.00    -0.272 OA
BRANCH   6   8
ATOM      8  C   UNL A   1      32.984  24.793  25.035  1.00  0.00     0.174 C 
ATOM      9  N   UNL A   1      31.874  25.462  24.323  1.00  0.00    -0.329 N 
ATOM     10  C   UNL A   1      30.610  25.164  24.962  1.00  0.00     0.120 C 
ATOM     11  C   UNL A   1      30.979  24.779  26.381  1.00  0.00     0.024 C 
ATOM     12  C   UNL A   1      32.331  24.095  26.233  1.00  0.00     0.037 C 
BRANCH   9  13
ATOM     13  C   UNL A   1      32.109  26.254  23.207  1.00  0.00     0.246 C 
ATOM     14  O   UNL A   1      32.205  25.734  22.094  1.00  0.00    -0.272 OA
BRANCH  13  15
ATOM     15  C   UNL A   1      32.441  27.769  23.397  1.00  0.00     0.178 C 
ATOM     16  N   UNL A   1      31.268  28.608  23.730  1.00  0.00    -0.296 N 
ATOM     17  C   UNL A   1      31.421  29.266  25.009  1.00  0.00     0.124 C 
ATOM     18  C   UNL A   1      32.922  29.397  25.132  1.00  0.00     0.024 C 
ATOM     19  C   UNL A   1      33.426  28.090  24.529  1.00  0.00     0.037 C 
BRANCH  16  20
ATOM     20  C   UNL A   1      30.298  28.923  22.804  1.00  0.00     0.410 C 
ATOM     21  O   UNL A   1      30.182  28.352  21.734  1.00  0.00    -0.224 OA
BRANCH  20  22
ATOM     22  O   UNL A   1      29.552  29.998  23.196  1.00  0.00    -0.444 OA
BRANCH  22  23
ATOM     23  C   UNL A   1      28.172  30.167  22.774  1.00  0.00     0.106 C 
ATOM     24  C   UNL A   1      27.622  31.358  23.573  1.00  0.00     0.056 C 
ATOM     25  C   UNL A   1      27.365  28.912  23.118  1.00  0.00     0.056 C 
ATOM     26  C   UNL A   1      28.055  30.534  21.297  1.00  0.00     0.056 C 
ENDBRANCH  22  23
ENDBRANCH  20  22
ENDBRANCH  16  20
ENDBRANCH  13  15
ENDBRANCH   9  13
ENDBRANCH   6   8
ENDBRANCH   1   6
BRANCH   5  27
ATOM     27  C   UNL A   1      35.124  21.574  25.994  1.00  0.00     0.242 C 
ATOM     28  O   UNL A   1      34.457  21.681  27.031  1.00  0.00    -0.273 OA
ATOM     29  N   UNL A   1      36.467  21.801  26.094  1.00  0.00    -0.354 N 
ATOM     30  H   UNL A   1      36.784  21.972  27.011  1.00  0.00     0.163 HD
BRANCH  29  31
ATOM     31  C   UNL A   1      37.504  21.835  25.087  1.00  0.00     0.117 C 
BRANCH  31  32
ATOM     32  C   UNL A   1      38.325  20.559  25.044  1.00  0.00     0.042 C 
BRANCH  32  33
ATOM     33  C   UNL A   1      39.300  20.478  26.201  1.00  0.00     0.118 C 
BRANCH  33  34
ATOM     34  N   UNL A   1      40.304  19.441  26.006  1.00  0.00    -0.352 N 
ATOM     35  C   UNL A   1      41.671  19.488  26.065  1.00  0.00     0.251 C 
ATOM     36  H   UNL A   1      39.936  18.552  25.797  1.00  0.00     0.163 HD
ATOM     37  O   UNL A   1      42.317  18.474  25.804  1.00  0.00    -0.269 OA
BRANCH  35  38
ATOM     38  C   UNL A   1      42.383  20.731  26.442  1.00  0.00     0.039 A 
ATOM     39  C   UNL A   1      42.933  21.506  25.415  1.00  0.00     0.014 A 
ATOM     40  C   UNL A   1      42.563  21.123  27.773  1.00  0.00     0.014 A 
ATOM     41  C   UNL A   1      43.556  22.715  25.715  1.00  0.00     0.010 A 
ATOM     42  C   UNL A   1      43.127  22.350  28.075  1.00  0.00     0.010 A 
ATOM     43  C   UNL A   1      43.597  23.163  27.043  1.00  0.00    -0.014 A 
BRANCH  43  44
ATOM     44  C   UNL A   1      43.972  24.548  27.366  1.00  0.00     0.031 A 
ATOM     45  C   UNL A   1      42.934  25.561  27.719  1.00  0.00     0.074 A 
ATOM     46  C   UNL A   1      45.261  24.885  27.184  1.00  0.00     0.049 A 
ATOM     47  N   UNL A   1      43.091  26.827  28.002  1.00  0.00    -0.248 NA
ATOM     48  C   UNL A   1      41.534  25.107  27.725  1.00  0.00     0.031 C 
ATOM     49  C   UNL A   1      46.312  23.969  26.724  1.00  0.00     0.029 A 
ATOM     50  N   UNL A   1      45.903  26.081  27.332  1.00  0.00    -0.354 N 
ATOM     51  C   UNL A   1      41.815  27.320  28.233  1.00  0.00     0.074 A 
ATOM     52  C   UNL A   1      40.890  26.232  28.000  1.00  0.00     0.031 C 
ATOM     53  C   UNL A   1      47.471  24.638  26.638  1.00  0.00     0.029 A 
ATOM     54  C   UNL A   1      47.238  26.025  27.019  1.00  0.00     0.049 A 
ATOM     55  H   UNL A   1      45.453  26.904  27.633  1.00  0.00     0.167 HD
ATOM     56  C   UNL A   1      41.465  28.567  28.624  1.00  0.00     0.037 A 
ATOM     57  C   UNL A   1      48.171  26.991  27.045  1.00  0.00     0.037 A 
ATOM     58  C   UNL A   1      42.415  29.629  28.830  1.00  0.00     0.049 A 
ATOM     59  C   UNL A   1      47.762  28.355  27.511  1.00  0.00     0.074 A 
ATOM     60  C   UNL A   1      42.194  30.912  29.298  1.00  0.00     0.029 A 
ATOM     61  N   UNL A   1      43.775  29.530  28.560  1.00  0.00    -0.354 N 
ATOM     62  N   UNL A   1      46.571  28.784  27.854  1.00  0.00    -0.248 NA
ATOM     63  C   UNL A   1      48.823  29.361  27.617  1.00  0.00     0.031 C 
ATOM     64  C   UNL A   1      43.413  31.600  29.273  1.00  0.00     0.029 A 
ATOM     65  C   UNL A   1      44.402  30.734  28.831  1.00  0.00     0.049 A 
ATOM     66  H   UNL A   1      44.226  28.721  28.226  1.00  0.00     0.167 HD
ATOM     67  C   UNL A   1      46.738  30.104  28.239  1.00  0.00     0.074 A 
ATOM     68  C   UNL A   1      48.153  30.398  28.101  1.00  0.00     0.031 C 
ATOM     69  C   UNL A   1      45.811  30.993  28.673  1.00  0.00     0.037 A 
BRANCH  56  70
ATOM     70  C   UNL A   1      40.008  28.836  28.863  1.00  0.00     0.057 A 
ATOM     71  C   UNL A   1      39.155  29.238  27.826  1.00  0.00     0.134 A 
ATOM     72  C   UNL A   1      39.440  28.662  30.131  1.00  0.00     0.134 A 
ATOM     73  F   UNL A   1      39.635  29.434  26.588  1.00  0.00    -0.206 F 
ATOM     74  C   UNL A   1      37.796  29.477  28.045  1.00  0.00     0.040 A 
ATOM     75  C   UNL A   1      38.079  28.875  30.358  1.00  0.00     0.040 A 
ATOM     76  F   UNL A   1      40.197  28.277  31.170  1.00  0.00    -0.206 F 
ATOM     77  C   UNL A   1      37.254  29.289  29.313  1.00  0.00     0.006 A 
ENDBRANCH  56  70
BRANCH  57  78
ATOM     78  C   UNL A   1      49.571  26.669  26.682  1.00  0.00     0.057 A 
ATOM     79  C   UNL A   1      50.430  26.064  27.606  1.00  0.00     0.134 A 
ATOM     80  C   UNL A   1      50.066  26.901  25.393  1.00  0.00     0.134 A 
ATOM     81  F   UNL A   1      50.010  25.821  28.856  1.00  0.00    -0.206 F 
ATOM     82  C   UNL A   1      51.738  25.715  27.268  1.00  0.00     0.040 A 
ATOM     83  C   UNL A   1      51.364  26.536  25.035  1.00  0.00     0.040 A 
ATOM     84  F   UNL A   1      49.283  27.454  24.456  1.00  0.00    -0.206 F 
ATOM     85  C   UNL A   1      52.206  25.946  25.976  1.00  0.00     0.006 A 
ENDBRANCH  57  78
BRANCH  69  86
ATOM     86  C   UNL A   1      46.314  32.356  29.038  1.00  0.00     0.057 A 
ATOM     87  C   UNL A   1      46.764  32.650  30.332  1.00  0.00     0.134 A 
ATOM     88  C   UNL A   1      46.367  33.375  28.080  1.00  0.00     0.134 A 
ATOM     89  F   UNL A   1      46.722  31.719  31.295  1.00  0.00    -0.206 F 
ATOM     90  C   UNL A   1      47.226  33.923  30.666  1.00  0.00     0.040 A 
ATOM     91  C   UNL A   1      46.852  34.644  28.396  1.00  0.00     0.040 A 
ATOM     92  F   UNL A   1      45.956  33.151  26.823  1.00  0.00    -0.206 F 
ATOM     93  C   UNL A   1      47.277  34.922  29.694  1.00  0.00     0.006 A 
ENDBRANCH  69  86
ENDBRANCH  43  44
ENDBRANCH  35  38
ENDBRANCH  33  34
ENDBRANCH  32  33
ENDBRANCH  31  32
ENDBRANCH  29  31
ENDBRANCH   5  27
TORSDOF 17
ENDMDL
MODEL 2
REMARK VINA RESULT:     -12.2      1.672      2.500
REMARK SMILES CC(C)(C)OC(=O)N1CCC[C@H]1C(=O)N1CCC[C@H]1C(=O)N1CCC[C@@H]1C(=O)NCCCNC(=O)c1ccc(-c2c3nc(c(-c4c(F)cccc4F)c4ccc([nH]4)c(-c4c(F)cccc4F)c4nc(c(-c5c(F)cccc5F)c5ccc2[nH]5)C=C4)C=C3)cc1
REMARK SMILES IDX 22 1 23 2 24 3 25 4 26 5 20 6 21 7 19 8 15 9 16 10 17 11
REMARK SMILES IDX 18 12 13 13 14 14 12 15 8 16 9 17 10 18 11 19 6 20 7 21 5 22
REMARK SMILES IDX 2 23 1 24 3 25 4 26 27 27 28 28 29 29 30 31 31 32 32 33
REMARK SMILES IDX 33 34 34 35 35 37 36 38 37 39 89 40 38 41 88 42 39 43 40 44
REMARK SMILES IDX 41 45 82 46 42 47 87 48 81 49 83 50 43 51 86 52 80 53 79 54
REMARK SMILES IDX 44 56 70 57 53 58 69 59 54 60 57 61 68 62 84 63 55 64 56 65
REMARK SMILES IDX 67 67 85 68 58 69 45 70 46 71 51 72 47 73 48 74 50 75 52 76
REMARK SMILES IDX 49 77 71 78 72 79 77 80 73 81 74 82 76 83 78 84 75 85 59 86
REMARK SMILES IDX 60 87 65 88 61 89 62 90 64 91 66 92 63 93
REMARK H PARENT 29 30 33 36 83 55 57 66
REMARK Flexibility Score: inf
ROOT
ATOM      1  N   UNL A   1      33.875  22.022  23.861  1.00  0.00    -0.329 N 
ATOM      2  C   UNL A   1      32.624  21.339  23.588  1.00  0.00     0.120 C 
ATOM      3  C   UNL A   1      32.533  20.260  24.655  1.00  0.00     0.024 C 
ATOM      4  C   UNL A   1      33.985  19.941  25.006  1.00  0.00     0.037 C 
ATOM      5  C   UNL A   1      34.797  21.187  24.618  1.00  0.00     0.174 C 
ENDROOT
BRANCH   1   6
ATOM      6  C   UNL A   1      34.324  23.180  23.244  1.00  0.00     0.246 C 
ATOM      7  O   UNL A   1      35.517  23.397  23.038  1.00  0.00    -0.272 OA
BRANCH   6   8
ATOM      8  C   UNL A   1      33.216  24.203  22.901  1.00  0.00     0.174 C 
ATOM      9  N   UNL A   1      33.502  25.605  23.268  1.00  0.00    -0.329 N 
ATOM     10  C   UNL A   1      33.500  26.448  22.092  1.00  0.00     0.120 C 
ATOM     11  C   UNL A   1      32.667  25.688  21.078  1.00  0.00     0.024 C 
ATOM     12  C   UNL A   1      32.958  24.227  21.390  1.00  0.00     0.037 C 
BRANCH   9  13
ATOM     13  C   UNL A   1      33.722  25.972  24.590  1.00  0.00     0.246 C 
ATOM     14  O   UNL A   1      34.366  25.230  25.333  1.00  0.00    -0.272 OA
BRANCH  13  15
ATOM     15  C   UNL A   1      32.991  27.224  25.171  1.00  0.00     0.178 C 
ATOM     16  N   UNL A   1      31.894  26.901  26.111  1.00  0.00    -0.296 N 
ATOM     17  C   UNL A   1      32.128  27.458  27.425  1.00  0.00     0.124 C 
ATOM     18  C   UNL A   1      32.978  28.671  27.120  1.00  0.00     0.024 C 
ATOM     19  C   UNL A   1      33.872  28.180  25.987  1.00  0.00     0.037 C 
BRANCH  16  20
ATOM     20  C   UNL A   1      30.691  26.379  25.690  1.00  0.00     0.410 C 
ATOM     21  O   UNL A   1      30.105  26.763  24.693  1.00  0.00    -0.224 OA
BRANCH  20  22
ATOM     22  O   UNL A   1      30.205  25.452  26.568  1.00  0.00    -0.444 OA
BRANCH  22  23
ATOM     23  C   UNL A   1      30.532  24.041  26.449  1.00  0.00     0.106 C 
ATOM     24  C   UNL A   1      30.588  23.740  24.943  1.00  0.00     0.056 C 
ATOM     25  C   UNL A   1      29.430  23.195  27.092  1.00  0.00     0.056 C 
ATOM     26  C   UNL A   1      31.910  23.711  27.017  1.00  0.00     0.056 C 
ENDBRANCH  22  23
ENDBRANCH  20  22
ENDBRANCH  16  20
ENDBRANCH  13  15
ENDBRANCH   9  13
ENDBRANCH   6   8
ENDBRANCH   1   6
BRANCH   5  27
ATOM     27  C   UNL A   1      35.381  21.858  25.884  1.00  0.00     0.242 C 
ATOM     28  O   UNL A   1      34.632  22.184  26.814  1.00  0.00    -0.273 OA
ATOM     29  N   UNL A   1      36.671  22.303  25.943  1.00  0.00    -0.354 N 
ATOM     30  H   UNL A   1      36.894  22.799  26.764  1.00  0.00     0.163 HD
BRANCH  29  31
ATOM     31  C   UNL A   1      37.765  22.173  25.006  1.00  0.00     0.117 C 
BRANCH  31  32
ATOM     32  C   UNL A   1      38.355  20.775  24.979  1.00  0.00     0.042 C 
BRANCH  32  33
ATOM     33  C   UNL A   1      39.141  20.472  26.238  1.00  0.00     0.118 C 
BRANCH  33  34
ATOM     34  N   UNL A   1      40.165  19.460  26.021  1.00  0.00    -0.352 N 
ATOM     35  C   UNL A   1      41.531  19.529  26.096  1.00  0.00     0.251 C 
ATOM     36  H   UNL A   1      39.816  18.572  25.777  1.00  0.00     0.163 HD
ATOM     37  O   UNL A   1      42.198  18.537  25.809  1.00  0.00    -0.269 OA
BRANCH  35  38
ATOM     38  C   UNL A   1      42.216  20.772  26.523  1.00  0.00     0.039 A 
ATOM     39  C   UNL A   1      42.716  21.618  25.527  1.00  0.00     0.014 A 
ATOM     40  C   UNL A   1      42.418  21.098  27.868  1.00  0.00     0.014 A 
ATOM     41  C   UNL A   1      43.311  22.827  25.876  1.00  0.00     0.010 A 
ATOM     42  C   UNL A   1      42.954  22.324  28.223  1.00  0.00     0.010 A 
ATOM     43  C   UNL A   1      43.373  23.204  27.225  1.00  0.00    -0.014 A 
BRANCH  43  44
ATOM     44  C   UNL A   1      43.716  24.581  27.613  1.00  0.00     0.031 A 
ATOM     45  C   UNL A   1      42.649  25.578  27.925  1.00  0.00     0.074 A 
ATOM     46  C   UNL A   1      45.012  24.930  27.528  1.00  0.00     0.049 A 
ATOM     47  N   UNL A   1      42.778  26.835  28.256  1.00  0.00    -0.248 NA
ATOM     48  C   UNL A   1      41.256  25.117  27.824  1.00  0.00     0.031 C 
ATOM     49  C   UNL A   1      46.098  24.034  27.113  1.00  0.00     0.029 A 
ATOM     50  N   UNL A   1      45.634  26.124  27.754  1.00  0.00    -0.354 N 
ATOM     51  C   UNL A   1      41.486  27.314  28.416  1.00  0.00     0.074 A 
ATOM     52  C   UNL A   1      40.586  26.229  28.089  1.00  0.00     0.031 C 
ATOM     53  C   UNL A   1      47.255  24.711  27.124  1.00  0.00     0.029 A 
ATOM     54  C   UNL A   1      46.987  26.085  27.529  1.00  0.00     0.049 A 
ATOM     55  H   UNL A   1      45.159  26.935  28.049  1.00  0.00     0.167 HD
ATOM     56  C   UNL A   1      41.102  28.548  28.820  1.00  0.00     0.037 A 
ATOM     57  C   UNL A   1      47.909  27.055  27.646  1.00  0.00     0.037 A 
ATOM     58  C   UNL A   1      42.028  29.608  29.119  1.00  0.00     0.049 A 
ATOM     59  C   UNL A   1      47.460  28.402  28.124  1.00  0.00     0.074 A 
ATOM     60  C   UNL A   1      41.767  30.875  29.610  1.00  0.00     0.029 A 
ATOM     61  N   UNL A   1      43.404  29.524  28.939  1.00  0.00    -0.354 N 
ATOM     62  N   UNL A   1      46.246  28.814  28.399  1.00  0.00    -0.248 NA
ATOM     63  C   UNL A   1      48.504  29.410  28.331  1.00  0.00     0.031 C 
ATOM     64  C   UNL A   1      42.980  31.569  29.686  1.00  0.00     0.029 A 
ATOM     65  C   UNL A   1      44.002  30.723  29.287  1.00  0.00     0.049 A 
ATOM     66  H   UNL A   1      43.882  28.728  28.611  1.00  0.00     0.167 HD
ATOM     67  C   UNL A   1      46.378  30.123  28.834  1.00  0.00     0.074 A 
ATOM     68  C   UNL A   1      47.796  30.428  28.800  1.00  0.00     0.031 C 
ATOM     69  C   UNL A   1      45.417  30.994  29.231  1.00  0.00     0.037 A 
BRANCH  56  70
ATOM     70  C   UNL A   1      39.630  28.802  28.968  1.00  0.00     0.057 A 
ATOM     71  C   UNL A   1      38.972  28.621  30.193  1.00  0.00     0.134 A 
ATOM     72  C   UNL A   1      38.865  29.264  27.890  1.00  0.00     0.134 A 
ATOM     73  F   UNL A   1      39.644  28.172  31.264  1.00  0.00    -0.206 F 
ATOM     74  C   UNL A   1      37.605  28.869  30.335  1.00  0.00     0.040 A 
ATOM     75  C   UNL A   1      37.502  29.537  28.025  1.00  0.00     0.040 A 
ATOM     76  F   UNL A   1      39.429  29.461  26.689  1.00  0.00    -0.206 F 
ATOM     77  C   UNL A   1      36.868  29.335  29.249  1.00  0.00     0.006 A 
ENDBRANCH  56  70
BRANCH  57  78
ATOM     78  C   UNL A   1      49.332  26.751  27.369  1.00  0.00     0.057 A 
ATOM     79  C   UNL A   1      50.164  26.237  28.369  1.00  0.00     0.134 A 
ATOM     80  C   UNL A   1      49.880  26.908  26.090  1.00  0.00     0.134 A 
ATOM     81  F   UNL A   1      49.695  26.067  29.614  1.00  0.00    -0.206 F 
ATOM     82  C   UNL A   1      51.495  25.905  28.114  1.00  0.00     0.040 A 
ATOM     83  C   UNL A   1      51.203  26.560  25.815  1.00  0.00     0.040 A 
ATOM     84  F   UNL A   1      49.126  27.373  25.083  1.00  0.00    -0.206 F 
ATOM     85  C   UNL A   1      52.016  26.061  26.831  1.00  0.00     0.006 A 
ENDBRANCH  57  78
BRANCH  69  86
ATOM     86  C   UNL A   1      45.885  32.347  29.669  1.00  0.00     0.057 A 
ATOM     87  C   UNL A   1      46.244  32.605  30.998  1.00  0.00     0.134 A 
ATOM     88  C   UNL A   1      45.996  33.395  28.747  1.00  0.00     0.134 A 
ATOM     89  F   UNL A   1      46.142  31.646  31.929  1.00  0.00    -0.206 F 
ATOM     90  C   UNL A   1      46.674  33.870  31.400  1.00  0.00     0.040 A 
ATOM     91  C   UNL A   1      46.449  34.656  29.132  1.00  0.00     0.040 A 
ATOM     92  F   UNL A   1      45.672  33.206  27.459  1.00  0.00    -0.206 F 
ATOM     93  C   UNL A   1      46.783  34.898  30.464  1.00  0.00     0.006 A 
ENDBRANCH  69  86
ENDBRANCH  43  44
ENDBRANCH  35  38
ENDBRANCH  33  34
ENDBRANCH  32  33
ENDBRANCH  31  32
ENDBRANCH  29  31
ENDBRANCH   5  27
TORSDOF 17
ENDMDL
MODEL 3
REMARK VINA RESULT:     -12.1      1.109      6.023
REMARK SMILES CC(C)(C)OC(=O)N1CCC[C@H]1C(=O)N1CCC[C@H]1C(=O)N1CCC[C@@H]1C(=O)NCCCNC(=O)c1ccc(-c2c3nc(c(-c4c(F)cccc4F)c4ccc([nH]4)c(-c4c(F)cccc4F)c4nc(c(-c5c(F)cccc5F)c5ccc2[nH]5)C=C4)C=C3)cc1
REMARK SMILES IDX 22 1 23 2 24 3 25 4 26 5 20 6 21 7 19 8 15 9 16 10 17 11
REMARK SMILES IDX 18 12 13 13 14 14 12 15 8 16 9 17 10 18 11 19 6 20 7 21 5 22
REMARK SMILES IDX 2 23 1 24 3 25 4 26 27 27 28 28 29 29 30 31 31 32 32 33
REMARK SMILES IDX 33 34 34 35 35 37 36 38 37 39 89 40 38 41 88 42 39 43 40 44
REMARK SMILES IDX 41 45 82 46 42 47 87 48 81 49 83 50 43 51 86 52 80 53 79 54
REMARK SMILES IDX 44 56 70 57 53 58 69 59 54 60 57 61 68 62 84 63 55 64 56 65
REMARK SMILES IDX 67 67 85 68 58 69 45 70 46 71 51 72 47 73 48 74 50 75 52 76
REMARK SMILES IDX 49 77 71 78 72 79 77 80 73 81 74 82 76 83 78 84 75 85 59 86
REMARK SMILES IDX 60 87 65 88 61 89 62 90 64 91 66 92 63 93
REMARK H PARENT 29 30 33 36 83 55 57 66
REMARK Flexibility Score: inf
ROOT
ATOM      1  N   UNL A   1      33.647  22.237  24.004  1.00  0.00    -0.329 N 
ATOM      2  C   UNL A   1      32.285  21.750  23.886  1.00  0.00     0.120 C 
ATOM      3  C   UNL A   1      32.167  20.672  24.951  1.00  0.00     0.024 C 
ATOM      4  C   UNL A   1      33.587  20.135  25.116  1.00  0.00     0.037 C 
ATOM      5  C   UNL A   1      34.521  21.258  24.637  1.00  0.00     0.174 C 
ENDROOT
BRANCH   1   6
ATOM      6  C   UNL A   1      34.184  23.330  23.342  1.00  0.00     0.246 C 
ATOM      7  O   UNL A   1      35.383  23.422  23.085  1.00  0.00    -0.272 OA
BRANCH   6   8
ATOM      8  C   UNL A   1      33.170  24.452  23.017  1.00  0.00     0.174 C 
ATOM      9  N   UNL A   1      33.589  25.821  23.382  1.00  0.00    -0.329 N 
ATOM     10  C   UNL A   1      33.649  26.663  22.207  1.00  0.00     0.120 C 
ATOM     11  C   UNL A   1      32.735  25.987  21.204  1.00  0.00     0.024 C 
ATOM     12  C   UNL A   1      32.895  24.504  21.510  1.00  0.00     0.037 C 
BRANCH   9  13
ATOM     13  C   UNL A   1      33.861  26.162  24.701  1.00  0.00     0.246 C 
ATOM     14  O   UNL A   1      34.236  25.296  25.494  1.00  0.00    -0.272 OA
BRANCH  13  15
ATOM     15  C   UNL A   1      33.505  27.594  25.213  1.00  0.00     0.178 C 
ATOM     16  N   UNL A   1      32.132  27.720  25.751  1.00  0.00    -0.296 N 
ATOM     17  C   UNL A   1      32.133  28.124  27.140  1.00  0.00     0.124 C 
ATOM     18  C   UNL A   1      33.421  28.907  27.253  1.00  0.00     0.024 C 
ATOM     19  C   UNL A   1      34.375  28.117  26.364  1.00  0.00     0.037 C 
BRANCH  16  20
ATOM     20  C   UNL A   1      31.017  27.718  24.942  1.00  0.00     0.410 C 
ATOM     21  O   UNL A   1      30.493  26.700  24.525  1.00  0.00    -0.224 OA
BRANCH  20  22
ATOM     22  O   UNL A   1      30.635  28.985  24.602  1.00  0.00    -0.444 OA
BRANCH  22  23
ATOM     23  C   UNL A   1      29.955  29.269  23.350  1.00  0.00     0.106 C 
ATOM     24  C   UNL A   1      29.346  30.671  23.502  1.00  0.00     0.056 C 
ATOM     25  C   UNL A   1      28.833  28.253  23.124  1.00  0.00     0.056 C 
ATOM     26  C   UNL A   1      30.916  29.330  22.166  1.00  0.00     0.056 C 
ENDBRANCH  22  23
ENDBRANCH  20  22
ENDBRANCH  16  20
ENDBRANCH  13  15
ENDBRANCH   9  13
ENDBRANCH   6   8
ENDBRANCH   1   6
BRANCH   5  27
ATOM     27  C   UNL A   1      35.349  21.806  25.824  1.00  0.00     0.242 C 
ATOM     28  O   UNL A   1      34.776  22.313  26.797  1.00  0.00    -0.273 OA
ATOM     29  N   UNL A   1      36.706  21.951  25.760  1.00  0.00    -0.354 N 
ATOM     30  H   UNL A   1      37.105  22.400  26.540  1.00  0.00     0.163 HD
BRANCH  29  31
ATOM     31  C   UNL A   1      37.657  21.558  24.744  1.00  0.00     0.117 C 
BRANCH  31  32
ATOM     32  C   UNL A   1      38.270  20.195  25.006  1.00  0.00     0.042 C 
BRANCH  32  33
ATOM     33  C   UNL A   1      39.273  20.237  26.140  1.00  0.00     0.118 C 
BRANCH  33  34
ATOM     34  N   UNL A   1      40.288  19.200  26.020  1.00  0.00    -0.352 N 
ATOM     35  C   UNL A   1      41.654  19.264  26.095  1.00  0.00     0.251 C 
ATOM     36  H   UNL A   1      39.931  18.297  25.856  1.00  0.00     0.163 HD
ATOM     37  O   UNL A   1      42.313  18.244  25.901  1.00  0.00    -0.269 OA
BRANCH  35  38
ATOM     38  C   UNL A   1      42.350  20.534  26.410  1.00  0.00     0.039 A 
ATOM     39  C   UNL A   1      42.963  21.221  25.358  1.00  0.00     0.014 A 
ATOM     40  C   UNL A   1      42.452  21.034  27.713  1.00  0.00     0.014 A 
ATOM     41  C   UNL A   1      43.574  22.450  25.595  1.00  0.00     0.010 A 
ATOM     42  C   UNL A   1      43.004  22.281  27.947  1.00  0.00     0.010 A 
ATOM     43  C   UNL A   1      43.538  23.006  26.881  1.00  0.00    -0.014 A 
BRANCH  43  44
ATOM     44  C   UNL A   1      43.901  24.412  27.112  1.00  0.00     0.031 A 
ATOM     45  C   UNL A   1      45.326  24.855  27.061  1.00  0.00     0.074 A 
ATOM     46  C   UNL A   1      42.915  25.235  27.512  1.00  0.00     0.049 A 
ATOM     47  N   UNL A   1      45.819  26.047  27.267  1.00  0.00    -0.248 NA
ATOM     48  C   UNL A   1      46.335  23.823  26.773  1.00  0.00     0.031 C 
ATOM     49  C   UNL A   1      41.514  24.839  27.699  1.00  0.00     0.029 A 
ATOM     50  N   UNL A   1      42.937  26.555  27.860  1.00  0.00    -0.354 N 
ATOM     51  C   UNL A   1      47.192  25.915  27.121  1.00  0.00     0.074 A 
ATOM     52  C   UNL A   1      47.460  24.516  26.867  1.00  0.00     0.031 C 
ATOM     53  C   UNL A   1      40.810  25.900  28.119  1.00  0.00     0.029 A 
ATOM     54  C   UNL A   1      41.711  27.038  28.244  1.00  0.00     0.049 A 
ATOM     55  H   UNL A   1      43.752  27.108  27.838  1.00  0.00     0.167 HD
ATOM     56  C   UNL A   1      48.130  26.889  27.177  1.00  0.00     0.037 A 
ATOM     57  C   UNL A   1      41.357  28.269  28.648  1.00  0.00     0.037 A 
ATOM     58  C   UNL A   1      47.825  28.269  27.450  1.00  0.00     0.049 A 
ATOM     59  C   UNL A   1      42.410  29.334  28.671  1.00  0.00     0.074 A 
ATOM     60  C   UNL A   1      48.676  29.360  27.458  1.00  0.00     0.029 A 
ATOM     61  N   UNL A   1      46.562  28.745  27.780  1.00  0.00    -0.354 N 
ATOM     62  N   UNL A   1      43.690  29.231  28.405  1.00  0.00    -0.248 NA
ATOM     63  C   UNL A   1      41.971  30.687  29.026  1.00  0.00     0.031 C 
ATOM     64  C   UNL A   1      47.934  30.486  27.833  1.00  0.00     0.029 A 
ATOM     65  C   UNL A   1      46.613  30.108  28.015  1.00  0.00     0.049 A 
ATOM     66  H   UNL A   1      45.749  28.192  27.838  1.00  0.00     0.167 HD
ATOM     67  C   UNL A   1      44.210  30.508  28.537  1.00  0.00     0.074 A 
ATOM     68  C   UNL A   1      43.099  31.372  28.892  1.00  0.00     0.031 C 
ATOM     69  C   UNL A   1      45.487  30.933  28.376  1.00  0.00     0.037 A 
BRANCH  56  70
ATOM     70  C   UNL A   1      49.556  26.493  26.928  1.00  0.00     0.057 A 
ATOM     71  C   UNL A   1      50.075  26.391  25.630  1.00  0.00     0.134 A 
ATOM     72  C   UNL A   1      50.432  26.244  27.992  1.00  0.00     0.134 A 
ATOM     73  F   UNL A   1      49.288  26.606  24.565  1.00  0.00    -0.206 F 
ATOM     74  C   UNL A   1      51.405  26.034  25.398  1.00  0.00     0.040 A 
ATOM     75  C   UNL A   1      51.771  25.909  27.773  1.00  0.00     0.040 A 
ATOM     76  F   UNL A   1      50.005  26.326  29.260  1.00  0.00    -0.206 F 
ATOM     77  C   UNL A   1      52.259  25.798  26.473  1.00  0.00     0.006 A 
ENDBRANCH  56  70
BRANCH  57  78
ATOM     78  C   UNL A   1      39.943  28.551  28.988  1.00  0.00     0.057 A 
ATOM     79  C   UNL A   1      39.465  28.352  30.288  1.00  0.00     0.134 A 
ATOM     80  C   UNL A   1      39.053  29.080  28.045  1.00  0.00     0.134 A 
ATOM     81  F   UNL A   1      40.272  27.846  31.232  1.00  0.00    -0.206 F 
ATOM     82  C   UNL A   1      38.148  28.653  30.636  1.00  0.00     0.040 A 
ATOM     83  C   UNL A   1      37.740  29.406  28.385  1.00  0.00     0.040 A 
ATOM     84  F   UNL A   1      39.459  29.316  26.789  1.00  0.00    -0.206 F 
ATOM     85  C   UNL A   1      37.283  29.188  29.683  1.00  0.00     0.006 A 
ENDBRANCH  57  78
BRANCH  69  86
ATOM     86  C   UNL A   1      45.732  32.398  28.570  1.00  0.00     0.057 A 
ATOM     87  C   UNL A   1      46.087  32.925  29.818  1.00  0.00     0.134 A 
ATOM     88  C   UNL A   1      45.631  33.285  27.491  1.00  0.00     0.134 A 
ATOM     89  F   UNL A   1      46.182  32.126  30.891  1.00  0.00    -0.206 F 
ATOM     90  C   UNL A   1      46.308  34.291  29.992  1.00  0.00     0.040 A 
ATOM     91  C   UNL A   1      45.875  34.648  27.647  1.00  0.00     0.040 A 
ATOM     92  F   UNL A   1      45.301  32.839  26.270  1.00  0.00    -0.206 F 
ATOM     93  C   UNL A   1      46.209  35.156  28.903  1.00  0.00     0.006 A 
ENDBRANCH  69  86
ENDBRANCH  43  44
ENDBRANCH  35  38
ENDBRANCH  33  34
ENDBRANCH  32  33
ENDBRANCH  31  32
ENDBRANCH  29  31
ENDBRANCH   5  27
TORSDOF 17
ENDMDL
