MODEL 1
REMARK VINA RESULT:     -10.8      0.000      0.000
REMARK SMILES CCC[C@H](CNC(=O)N1C[C@H]2CCC[N@H+]2C[C@@H]1C)C(=O)NCCCNC(=O)c1ccc(-c2c3nc(c(-c4c(F)cccc4F)c4ccc([nH]4)c(-c4c(F)cccc4F)c4nc(c(-c5c(F)cccc5F)c5ccc2[nH]5)C=C4)C=C3)cc1
REMARK SMILES IDX 22 1 21 2 19 3 20 4 4 6 3 7 2 8 1 9 5 10 6 11 7 12 8 14 9 15
REMARK SMILES IDX 10 16 17 17 11 18 16 19 18 20 12 21 15 22 13 23 14 24 23 26
REMARK SMILES IDX 24 27 25 28 26 29 27 31 28 32 29 33 81 34 30 35 80 36 31 37
REMARK SMILES IDX 32 38 33 39 74 40 34 41 79 42 73 43 75 44 35 45 78 46 72 47
REMARK SMILES IDX 71 48 36 50 62 51 45 52 61 53 46 54 49 55 60 56 76 57 47 58
REMARK SMILES IDX 48 59 59 61 77 62 50 63 37 64 38 65 43 66 39 67 40 68 42 69
REMARK SMILES IDX 44 70 41 71 63 72 64 73 69 74 65 75 66 76 68 77 70 78 67 79
REMARK SMILES IDX 51 80 52 81 57 82 53 83 54 84 56 85 58 86 55 87
REMARK H PARENT 21 5 6 13 15 25 25 30 75 49 49 60
REMARK Flexibility Score: inf
ROOT
ATOM      1  C   UNL A   1      36.742  20.100  24.504  1.00  0.00     0.117 C 
ENDROOT
BRANCH   1   2
ATOM      2  N   UNL A   1      35.596  20.246  25.390  1.00  0.00    -0.356 N 
ATOM      3  C   UNL A   1      34.693  21.239  25.580  1.00  0.00     0.224 C 
ATOM      4  O   UNL A   1      33.837  21.036  26.449  1.00  0.00    -0.275 OA
ATOM      5  H   UNL A   1      35.446  19.464  25.969  1.00  0.00     0.163 HD
BRANCH   3   6
ATOM      6  C   UNL A   1      34.691  22.566  24.826  1.00  0.00     0.097 C 
BRANCH   6   7
ATOM      7  C   UNL A   1      35.525  23.686  25.475  1.00  0.00     0.015 C 
BRANCH   7   8
ATOM      8  C   UNL A   1      36.985  23.706  25.003  1.00  0.00    -0.003 C 
ATOM      9  C   UNL A   1      37.990  23.639  26.145  1.00  0.00     0.004 C 
ENDBRANCH   7   8
ENDBRANCH   6   7
BRANCH   6  10
ATOM     10  C   UNL A   1      33.291  22.983  24.339  1.00  0.00     0.131 C 
BRANCH  10  11
ATOM     11  N   UNL A   1      32.305  23.186  25.378  1.00  0.00    -0.337 N 
ATOM     12  C   UNL A   1      32.088  24.278  26.147  1.00  0.00     0.318 C 
ATOM     13  H   UNL A   1      31.709  22.420  25.552  1.00  0.00     0.165 HD
ATOM     14  O   UNL A   1      31.802  24.105  27.332  1.00  0.00    -0.249 OA
BRANCH  12  15
ATOM     15  N   UNL A   1      32.202  25.518  25.581  1.00  0.00    -0.311 N 
ATOM     16  C   UNL A   1      33.156  26.455  26.173  1.00  0.00     0.186 C 
ATOM     17  C   UNL A   1      31.142  26.117  24.726  1.00  0.00     0.139 C 
ATOM     18  C   UNL A   1      32.458  27.685  26.775  1.00  0.00     0.204 C 
ATOM     19  C   UNL A   1      31.321  27.662  24.596  1.00  0.00     0.287 C 
ATOM     20  C   UNL A   1      29.730  25.805  25.244  1.00  0.00     0.037 C 
ATOM     21  C   UNL A   1      33.446  28.789  27.146  1.00  0.00     0.073 C 
ATOM     22  N   UNL A   1      31.447  28.332  25.899  1.00  0.00    -0.329 N 
ATOM     23  C   UNL A   1      32.626  30.054  27.000  1.00  0.00     0.068 C 
ATOM     24  C   UNL A   1      31.774  29.755  25.779  1.00  0.00     0.262 C 
ATOM     25  H   UNL A   1      30.525  28.240  26.326  1.00  0.00     0.348 HD
ENDBRANCH  12  15
ENDBRANCH  10  11
ENDBRANCH   6  10
ENDBRANCH   3   6
ENDBRANCH   1   2
BRANCH   1  26
ATOM     26  C   UNL A   1      37.833  19.223  25.116  1.00  0.00     0.042 C 
BRANCH  26  27
ATOM     27  C   UNL A   1      38.989  19.994  25.732  1.00  0.00     0.118 C 
BRANCH  27  28
ATOM     28  N   UNL A   1      40.215  19.216  25.790  1.00  0.00    -0.352 N 
ATOM     29  C   UNL A   1      41.502  19.603  26.061  1.00  0.00     0.251 C 
ATOM     30  H   UNL A   1      40.103  18.256  25.605  1.00  0.00     0.163 HD
ATOM     31  O   UNL A   1      42.420  18.803  25.857  1.00  0.00    -0.269 OA
BRANCH  29  32
ATOM     32  C   UNL A   1      41.822  20.955  26.576  1.00  0.00     0.039 A 
ATOM     33  C   UNL A   1      41.745  21.179  27.956  1.00  0.00     0.014 A 
ATOM     34  C   UNL A   1      42.132  22.021  25.727  1.00  0.00     0.014 A 
ATOM     35  C   UNL A   1      42.017  22.447  28.477  1.00  0.00     0.010 A 
ATOM     36  C   UNL A   1      42.497  23.259  26.254  1.00  0.00     0.010 A 
ATOM     37  C   UNL A   1      42.420  23.495  27.633  1.00  0.00    -0.014 A 
BRANCH  37  38
ATOM     38  C   UNL A   1      42.730  24.840  28.183  1.00  0.00     0.031 A 
ATOM     39  C   UNL A   1      44.144  25.214  28.542  1.00  0.00     0.074 A 
ATOM     40  C   UNL A   1      41.732  25.716  28.404  1.00  0.00     0.049 A 
ATOM     41  N   UNL A   1      44.604  26.339  29.034  1.00  0.00    -0.248 NA
ATOM     42  C   UNL A   1      45.174  24.180  28.357  1.00  0.00     0.031 C 
ATOM     43  C   UNL A   1      40.309  25.454  28.181  1.00  0.00     0.029 A 
ATOM     44  N   UNL A   1      41.762  27.008  28.872  1.00  0.00    -0.354 N 
ATOM     45  C   UNL A   1      45.962  26.135  29.241  1.00  0.00     0.074 A 
ATOM     46  C   UNL A   1      46.245  24.766  28.869  1.00  0.00     0.031 C 
ATOM     47  C   UNL A   1      39.607  26.557  28.484  1.00  0.00     0.029 A 
ATOM     48  C   UNL A   1      40.524  27.595  28.941  1.00  0.00     0.049 A 
ATOM     49  H   UNL A   1      42.593  27.467  29.133  1.00  0.00     0.167 HD
ATOM     50  C   UNL A   1      46.897  27.014  29.676  1.00  0.00     0.037 A 
ATOM     51  C   UNL A   1      40.166  28.836  29.321  1.00  0.00     0.037 A 
ATOM     52  C   UNL A   1      46.628  28.390  29.999  1.00  0.00     0.049 A 
ATOM     53  C   UNL A   1      41.228  29.818  29.728  1.00  0.00     0.074 A 
ATOM     54  C   UNL A   1      47.522  29.385  30.353  1.00  0.00     0.029 A 
ATOM     55  N   UNL A   1      45.366  28.964  30.007  1.00  0.00    -0.354 N 
ATOM     56  N   UNL A   1      42.523  29.639  29.827  1.00  0.00    -0.248 NA
ATOM     57  C   UNL A   1      40.780  31.178  30.059  1.00  0.00     0.031 C 
ATOM     58  C   UNL A   1      46.796  30.555  30.608  1.00  0.00     0.029 A 
ATOM     59  C   UNL A   1      45.455  30.296  30.377  1.00  0.00     0.049 A 
ATOM     60  H   UNL A   1      44.531  28.495  29.783  1.00  0.00     0.167 HD
ATOM     61  C   UNL A   1      43.046  30.863  30.221  1.00  0.00     0.074 A 
ATOM     62  C   UNL A   1      41.931  31.783  30.318  1.00  0.00     0.031 C 
ATOM     63  C   UNL A   1      44.335  31.195  30.483  1.00  0.00     0.037 A 
BRANCH  50  64
ATOM     64  C   UNL A   1      48.303  26.508  29.820  1.00  0.00     0.057 A 
ATOM     65  C   UNL A   1      48.740  25.853  30.980  1.00  0.00     0.134 A 
ATOM     66  C   UNL A   1      49.229  26.666  28.781  1.00  0.00     0.134 A 
ATOM     67  F   UNL A   1      47.907  25.680  32.017  1.00  0.00    -0.206 F 
ATOM     68  C   UNL A   1      50.056  25.404  31.114  1.00  0.00     0.040 A 
ATOM     69  C   UNL A   1      50.540  26.197  28.893  1.00  0.00     0.040 A 
ATOM     70  F   UNL A   1      48.876  27.278  27.640  1.00  0.00    -0.206 F 
ATOM     71  C   UNL A   1      50.959  25.572  30.065  1.00  0.00     0.006 A 
ENDBRANCH  50  64
BRANCH  51  72
ATOM     72  C   UNL A   1      38.736  29.229  29.292  1.00  0.00     0.057 A 
ATOM     73  C   UNL A   1      37.952  29.181  30.450  1.00  0.00     0.134 A 
ATOM     74  C   UNL A   1      38.129  29.680  28.116  1.00  0.00     0.134 A 
ATOM     75  F   UNL A   1      38.476  28.740  31.603  1.00  0.00    -0.206 F 
ATOM     76  C   UNL A   1      36.609  29.559  30.437  1.00  0.00     0.040 A 
ATOM     77  C   UNL A   1      36.792  30.081  28.093  1.00  0.00     0.040 A 
ATOM     78  F   UNL A   1      38.832  29.755  26.976  1.00  0.00    -0.206 F 
ATOM     79  C   UNL A   1      36.027  30.017  29.256  1.00  0.00     0.006 A 
ENDBRANCH  51  72
BRANCH  63  80
ATOM     80  C   UNL A   1      44.600  32.612  30.897  1.00  0.00     0.057 A 
ATOM     81  C   UNL A   1      44.614  32.991  32.245  1.00  0.00     0.134 A 
ATOM     82  C   UNL A   1      44.858  33.601  29.942  1.00  0.00     0.134 A 
ATOM     83  F   UNL A   1      44.360  32.092  33.208  1.00  0.00    -0.206 F 
ATOM     84  C   UNL A   1      44.848  34.313  32.627  1.00  0.00     0.040 A 
ATOM     85  C   UNL A   1      45.117  34.921  30.312  1.00  0.00     0.040 A 
ATOM     86  F   UNL A   1      44.865  33.300  28.634  1.00  0.00    -0.206 F 
ATOM     87  C   UNL A   1      45.105  35.282  31.658  1.00  0.00     0.006 A 
ENDBRANCH  63  80
ENDBRANCH  37  38
ENDBRANCH  29  32
ENDBRANCH  27  28
ENDBRANCH  26  27
ENDBRANCH   1  26
TORSDOF 15
ENDMDL
MODEL 2
REMARK VINA RESULT:     -10.7      0.979      2.050
REMARK SMILES CCC[C@H](CNC(=O)N1C[C@H]2CCC[N@H+]2C[C@@H]1C)C(=O)NCCCNC(=O)c1ccc(-c2c3nc(c(-c4c(F)cccc4F)c4ccc([nH]4)c(-c4c(F)cccc4F)c4nc(c(-c5c(F)cccc5F)c5ccc2[nH]5)C=C4)C=C3)cc1
REMARK SMILES IDX 22 1 21 2 19 3 20 4 4 6 3 7 2 8 1 9 5 10 6 11 7 12 8 14 9 15
REMARK SMILES IDX 10 16 17 17 11 18 16 19 18 20 12 21 15 22 13 23 14 24 23 26
REMARK SMILES IDX 24 27 25 28 26 29 27 31 28 32 29 33 81 34 30 35 80 36 31 37
REMARK SMILES IDX 32 38 33 39 74 40 34 41 79 42 73 43 75 44 35 45 78 46 72 47
REMARK SMILES IDX 71 48 36 50 62 51 45 52 61 53 46 54 49 55 60 56 76 57 47 58
REMARK SMILES IDX 48 59 59 61 77 62 50 63 37 64 38 65 43 66 39 67 40 68 42 69
REMARK SMILES IDX 44 70 41 71 63 72 64 73 69 74 65 75 66 76 68 77 70 78 67 79
REMARK SMILES IDX 51 80 52 81 57 82 53 83 54 84 56 85 58 86 55 87
REMARK H PARENT 21 5 6 13 15 25 25 30 75 49 49 60
REMARK Flexibility Score: inf
ROOT
ATOM      1  C   UNL A   1      36.657  19.890  24.999  1.00  0.00     0.117 C 
ENDROOT
BRANCH   1   2
ATOM      2  N   UNL A   1      36.376  21.292  25.274  1.00  0.00    -0.356 N 
ATOM      3  C   UNL A   1      35.308  21.935  25.806  1.00  0.00     0.224 C 
ATOM      4  O   UNL A   1      35.399  23.167  25.882  1.00  0.00    -0.275 OA
ATOM      5  H   UNL A   1      37.113  21.895  25.024  1.00  0.00     0.163 HD
BRANCH   3   6
ATOM      6  C   UNL A   1      34.027  21.251  26.273  1.00  0.00     0.097 C 
BRANCH   6   7
ATOM      7  C   UNL A   1      33.154  20.664  25.147  1.00  0.00     0.015 C 
BRANCH   7   8
ATOM      8  C   UNL A   1      32.868  19.165  25.321  1.00  0.00    -0.003 C 
ATOM      9  C   UNL A   1      32.533  18.459  24.015  1.00  0.00     0.004 C 
ENDBRANCH   7   8
ENDBRANCH   6   7
BRANCH   6  10
ATOM     10  C   UNL A   1      33.268  22.053  27.346  1.00  0.00     0.131 C 
BRANCH  10  11
ATOM     11  N   UNL A   1      31.877  22.325  27.051  1.00  0.00    -0.337 N 
ATOM     12  C   UNL A   1      31.282  23.505  26.762  1.00  0.00     0.318 C 
ATOM     13  H   UNL A   1      31.280  21.542  27.065  1.00  0.00     0.165 HD
ATOM     14  O   UNL A   1      30.162  23.718  27.225  1.00  0.00    -0.249 OA
BRANCH  12  15
ATOM     15  N   UNL A   1      31.947  24.407  25.978  1.00  0.00    -0.311 N 
ATOM     16  C   UNL A   1      32.046  25.786  26.454  1.00  0.00     0.186 C 
ATOM     17  C   UNL A   1      32.175  24.201  24.522  1.00  0.00     0.139 C 
ATOM     18  C   UNL A   1      31.298  26.768  25.538  1.00  0.00     0.204 C 
ATOM     19  C   UNL A   1      32.539  25.539  23.808  1.00  0.00     0.287 C 
ATOM     20  C   UNL A   1      30.963  23.560  23.828  1.00  0.00     0.037 C 
ATOM     21  C   UNL A   1      31.618  28.225  25.865  1.00  0.00     0.073 C 
ATOM     22  N   UNL A   1      31.573  26.614  24.086  1.00  0.00    -0.329 N 
ATOM     23  C   UNL A   1      31.441  28.927  24.534  1.00  0.00     0.068 C 
ATOM     24  C   UNL A   1      31.994  27.911  23.550  1.00  0.00     0.262 C 
ATOM     25  H   UNL A   1      30.719  26.322  23.611  1.00  0.00     0.348 HD
ENDBRANCH  12  15
ENDBRANCH  10  11
ENDBRANCH   6  10
ENDBRANCH   3   6
ENDBRANCH   1   2
BRANCH   1  26
ATOM     26  C   UNL A   1      38.142  19.641  24.743  1.00  0.00     0.042 C 
BRANCH  26  27
ATOM     27  C   UNL A   1      39.031  19.814  25.965  1.00  0.00     0.118 C 
BRANCH  27  28
ATOM     28  N   UNL A   1      40.299  19.116  25.839  1.00  0.00    -0.352 N 
ATOM     29  C   UNL A   1      41.583  19.576  25.969  1.00  0.00     0.251 C 
ATOM     30  H   UNL A   1      40.224  18.157  25.628  1.00  0.00     0.163 HD
ATOM     31  O   UNL A   1      42.516  18.846  25.619  1.00  0.00    -0.269 OA
BRANCH  29  32
ATOM     32  C   UNL A   1      41.883  20.927  26.500  1.00  0.00     0.039 A 
ATOM     33  C   UNL A   1      41.761  21.145  27.876  1.00  0.00     0.014 A 
ATOM     34  C   UNL A   1      42.215  21.997  25.665  1.00  0.00     0.014 A 
ATOM     35  C   UNL A   1      42.012  22.411  28.411  1.00  0.00     0.010 A 
ATOM     36  C   UNL A   1      42.560  23.234  26.208  1.00  0.00     0.010 A 
ATOM     37  C   UNL A   1      42.438  23.464  27.585  1.00  0.00    -0.014 A 
BRANCH  37  38
ATOM     38  C   UNL A   1      42.726  24.808  28.151  1.00  0.00     0.031 A 
ATOM     39  C   UNL A   1      44.126  25.185  28.558  1.00  0.00     0.074 A 
ATOM     40  C   UNL A   1      41.719  25.681  28.340  1.00  0.00     0.049 A 
ATOM     41  N   UNL A   1      44.566  26.308  29.070  1.00  0.00    -0.248 NA
ATOM     42  C   UNL A   1      45.164  24.153  28.404  1.00  0.00     0.031 C 
ATOM     43  C   UNL A   1      40.305  25.416  28.068  1.00  0.00     0.029 A 
ATOM     44  N   UNL A   1      41.730  26.971  28.814  1.00  0.00    -0.354 N 
ATOM     45  C   UNL A   1      45.918  26.107  29.322  1.00  0.00     0.074 A 
ATOM     46  C   UNL A   1      46.216  24.739  28.955  1.00  0.00     0.031 C 
ATOM     47  C   UNL A   1      39.590  26.516  28.351  1.00  0.00     0.029 A 
ATOM     48  C   UNL A   1      40.488  27.555  28.843  1.00  0.00     0.049 A 
ATOM     49  H   UNL A   1      42.550  27.431  29.105  1.00  0.00     0.167 HD
ATOM     50  C   UNL A   1      46.835  26.986  29.792  1.00  0.00     0.037 A 
ATOM     51  C   UNL A   1      40.115  28.794  29.216  1.00  0.00     0.037 A 
ATOM     52  C   UNL A   1      46.551  28.360  30.111  1.00  0.00     0.049 A 
ATOM     53  C   UNL A   1      41.161  29.777  29.661  1.00  0.00     0.074 A 
ATOM     54  C   UNL A   1      47.431  29.357  30.498  1.00  0.00     0.029 A 
ATOM     55  N   UNL A   1      45.289  28.931  30.077  1.00  0.00    -0.354 N 
ATOM     56  N   UNL A   1      42.452  29.601  29.803  1.00  0.00    -0.248 NA
ATOM     57  C   UNL A   1      40.698  31.134  29.982  1.00  0.00     0.031 C 
ATOM     58  C   UNL A   1      46.694  30.524  30.732  1.00  0.00     0.029 A 
ATOM     59  C   UNL A   1      45.361  30.263  30.455  1.00  0.00     0.049 A 
ATOM     60  H   UNL A   1      44.462  28.461  29.823  1.00  0.00     0.167 HD
ATOM     61  C   UNL A   1      42.958  30.824  30.220  1.00  0.00     0.074 A 
ATOM     62  C   UNL A   1      41.838  31.741  30.283  1.00  0.00     0.031 C 
ATOM     63  C   UNL A   1      44.236  31.158  30.527  1.00  0.00     0.037 A 
BRANCH  50  64
ATOM     64  C   UNL A   1      48.236  26.483  29.981  1.00  0.00     0.057 A 
ATOM     65  C   UNL A   1      49.209  26.603  28.979  1.00  0.00     0.134 A 
ATOM     66  C   UNL A   1      48.623  25.882  31.186  1.00  0.00     0.134 A 
ATOM     67  F   UNL A   1      48.901  27.156  27.797  1.00  0.00    -0.206 F 
ATOM     68  C   UNL A   1      50.505  26.113  29.156  1.00  0.00     0.040 A 
ATOM     69  C   UNL A   1      49.923  25.413  31.384  1.00  0.00     0.040 A 
ATOM     70  F   UNL A   1      47.744  25.741  32.191  1.00  0.00    -0.206 F 
ATOM     71  C   UNL A   1      50.866  25.520  30.365  1.00  0.00     0.006 A 
ENDBRANCH  50  64
BRANCH  51  72
ATOM     72  C   UNL A   1      38.686  29.183  29.139  1.00  0.00     0.057 A 
ATOM     73  C   UNL A   1      38.118  29.608  27.933  1.00  0.00     0.134 A 
ATOM     74  C   UNL A   1      37.853  29.117  30.261  1.00  0.00     0.134 A 
ATOM     75  F   UNL A   1      38.873  29.707  26.829  1.00  0.00    -0.206 F 
ATOM     76  C   UNL A   1      36.772  29.965  27.848  1.00  0.00     0.040 A 
ATOM     77  C   UNL A   1      36.500  29.451  30.185  1.00  0.00     0.040 A 
ATOM     78  F   UNL A   1      38.339  28.710  31.443  1.00  0.00    -0.206 F 
ATOM     79  C   UNL A   1      35.956  29.881  28.975  1.00  0.00     0.006 A 
ENDBRANCH  51  72
BRANCH  63  80
ATOM     80  C   UNL A   1      44.484  32.574  30.954  1.00  0.00     0.057 A 
ATOM     81  C   UNL A   1      44.425  32.954  32.301  1.00  0.00     0.134 A 
ATOM     82  C   UNL A   1      44.798  33.562  30.015  1.00  0.00     0.134 A 
ATOM     83  F   UNL A   1      44.115  32.056  33.248  1.00  0.00    -0.206 F 
ATOM     84  C   UNL A   1      44.643  34.275  32.695  1.00  0.00     0.040 A 
ATOM     85  C   UNL A   1      45.041  34.882  30.399  1.00  0.00     0.040 A 
ATOM     86  F   UNL A   1      44.876  33.261  28.709  1.00  0.00    -0.206 F 
ATOM     87  C   UNL A   1      44.957  35.243  31.741  1.00  0.00     0.006 A 
ENDBRANCH  63  80
ENDBRANCH  37  38
ENDBRANCH  29  32
ENDBRANCH  27  28
ENDBRANCH  26  27
ENDBRANCH   1  26
TORSDOF 15
ENDMDL
MODEL 3
REMARK VINA RESULT:     -10.7      3.906      9.265
REMARK SMILES CCC[C@H](CNC(=O)N1C[C@H]2CCC[N@H+]2C[C@@H]1C)C(=O)NCCCNC(=O)c1ccc(-c2c3nc(c(-c4c(F)cccc4F)c4ccc([nH]4)c(-c4c(F)cccc4F)c4nc(c(-c5c(F)cccc5F)c5ccc2[nH]5)C=C4)C=C3)cc1
REMARK SMILES IDX 22 1 21 2 19 3 20 4 4 6 3 7 2 8 1 9 5 10 6 11 7 12 8 14 9 15
REMARK SMILES IDX 10 16 17 17 11 18 16 19 18 20 12 21 15 22 13 23 14 24 23 26
REMARK SMILES IDX 24 27 25 28 26 29 27 31 28 32 29 33 81 34 30 35 80 36 31 37
REMARK SMILES IDX 32 38 33 39 74 40 34 41 79 42 73 43 75 44 35 45 78 46 72 47
REMARK SMILES IDX 71 48 36 50 62 51 45 52 61 53 46 54 49 55 60 56 76 57 47 58
REMARK SMILES IDX 48 59 59 61 77 62 50 63 37 64 38 65 43 66 39 67 40 68 42 69
REMARK SMILES IDX 44 70 41 71 63 72 64 73 69 74 65 75 66 76 68 77 70 78 67 79
REMARK SMILES IDX 51 80 52 81 57 82 53 83 54 84 56 85 58 86 55 87
REMARK H PARENT 21 5 6 13 15 25 25 30 75 49 49 60
REMARK Flexibility Score: inf
ROOT
ATOM      1  C   UNL A   1      31.334  30.876  26.494  1.00  0.00     0.117 C 
ENDROOT
BRANCH   1   2
ATOM      2  N   UNL A   1      31.388  30.352  25.136  1.00  0.00    -0.356 N 
ATOM      3  C   UNL A   1      31.770  29.158  24.619  1.00  0.00     0.224 C 
ATOM      4  O   UNL A   1      31.704  29.053  23.388  1.00  0.00    -0.275 OA
ATOM      5  H   UNL A   1      31.084  30.995  24.455  1.00  0.00     0.163 HD
BRANCH   3   6
ATOM      6  C   UNL A   1      32.292  27.983  25.441  1.00  0.00     0.097 C 
BRANCH   6   7
ATOM      7  C   UNL A   1      33.787  28.053  25.804  1.00  0.00     0.015 C 
BRANCH   7   8
ATOM      8  C   UNL A   1      34.042  28.571  27.227  1.00  0.00    -0.003 C 
ATOM      9  C   UNL A   1      34.815  29.881  27.263  1.00  0.00     0.004 C 
ENDBRANCH   7   8
ENDBRANCH   6   7
BRANCH   6  10
ATOM     10  C   UNL A   1      31.802  26.618  24.925  1.00  0.00     0.131 C 
BRANCH  10  11
ATOM     11  N   UNL A   1      32.282  26.241  23.613  1.00  0.00    -0.337 N 
ATOM     12  C   UNL A   1      33.377  25.519  23.280  1.00  0.00     0.318 C 
ATOM     13  H   UNL A   1      31.735  26.554  22.856  1.00  0.00     0.165 HD
ATOM     14  O   UNL A   1      34.019  25.865  22.289  1.00  0.00    -0.249 OA
BRANCH  12  15
ATOM     15  N   UNL A   1      33.726  24.450  24.058  1.00  0.00    -0.311 N 
ATOM     16  C   UNL A   1      34.998  24.513  24.778  1.00  0.00     0.186 C 
ATOM     17  C   UNL A   1      33.146  23.092  23.874  1.00  0.00     0.139 C 
ATOM     18  C   UNL A   1      35.991  23.446  24.287  1.00  0.00     0.204 C 
ATOM     19  C   UNL A   1      34.022  22.000  24.563  1.00  0.00     0.287 C 
ATOM     20  C   UNL A   1      32.954  22.738  22.391  1.00  0.00     0.037 C 
ATOM     21  C   UNL A   1      37.206  23.321  25.204  1.00  0.00     0.073 C 
ATOM     22  N   UNL A   1      35.437  22.073  24.167  1.00  0.00    -0.329 N 
ATOM     23  C   UNL A   1      37.624  21.875  25.031  1.00  0.00     0.068 C 
ATOM     24  C   UNL A   1      36.290  21.157  24.929  1.00  0.00     0.262 C 
ATOM     25  H   UNL A   1      35.445  21.793  23.186  1.00  0.00     0.348 HD
ENDBRANCH  12  15
ENDBRANCH  10  11
ENDBRANCH   6  10
ENDBRANCH   3   6
ENDBRANCH   1   2
BRANCH   1  26
ATOM     26  C   UNL A   1      31.381  32.403  26.521  1.00  0.00     0.042 C 
BRANCH  26  27
ATOM     27  C   UNL A   1      32.708  32.985  26.979  1.00  0.00     0.118 C 
BRANCH  27  28
ATOM     28  N   UNL A   1      32.548  34.191  27.773  1.00  0.00    -0.352 N 
ATOM     29  C   UNL A   1      33.224  34.619  28.886  1.00  0.00     0.251 C 
ATOM     30  H   UNL A   1      31.841  34.800  27.460  1.00  0.00     0.163 HD
ATOM     31  O   UNL A   1      32.782  35.585  29.516  1.00  0.00    -0.269 OA
BRANCH  29  32
ATOM     32  C   UNL A   1      34.456  33.948  29.362  1.00  0.00     0.039 A 
ATOM     33  C   UNL A   1      34.334  32.908  30.291  1.00  0.00     0.014 A 
ATOM     34  C   UNL A   1      35.730  34.365  28.967  1.00  0.00     0.014 A 
ATOM     35  C   UNL A   1      35.475  32.267  30.781  1.00  0.00     0.010 A 
ATOM     36  C   UNL A   1      36.862  33.663  29.381  1.00  0.00     0.010 A 
ATOM     37  C   UNL A   1      36.751  32.622  30.312  1.00  0.00    -0.014 A 
BRANCH  37  38
ATOM     38  C   UNL A   1      37.967  31.931  30.815  1.00  0.00     0.031 A 
ATOM     39  C   UNL A   1      38.575  32.316  32.138  1.00  0.00     0.074 A 
ATOM     40  C   UNL A   1      38.556  30.984  30.061  1.00  0.00     0.049 A 
ATOM     41  N   UNL A   1      39.633  31.827  32.737  1.00  0.00    -0.248 NA
ATOM     42  C   UNL A   1      37.932  33.418  32.870  1.00  0.00     0.031 C 
ATOM     43  C   UNL A   1      38.121  30.574  28.725  1.00  0.00     0.029 A 
ATOM     44  N   UNL A   1      39.653  30.196  30.310  1.00  0.00    -0.354 N 
ATOM     45  C   UNL A   1      39.795  32.577  33.895  1.00  0.00     0.074 A 
ATOM     46  C   UNL A   1      38.759  33.586  33.891  1.00  0.00     0.031 C 
ATOM     47  C   UNL A   1      38.924  29.592  28.284  1.00  0.00     0.029 A 
ATOM     48  C   UNL A   1      39.940  29.318  29.294  1.00  0.00     0.049 A 
ATOM     49  H   UNL A   1      40.183  30.256  31.137  1.00  0.00     0.167 HD
ATOM     50  C   UNL A   1      40.707  32.426  34.885  1.00  0.00     0.037 A 
ATOM     51  C   UNL A   1      40.908  28.388  29.192  1.00  0.00     0.037 A 
ATOM     52  C   UNL A   1      41.708  31.393  34.914  1.00  0.00     0.049 A 
ATOM     53  C   UNL A   1      41.862  28.187  30.335  1.00  0.00     0.074 A 
ATOM     54  C   UNL A   1      42.613  31.094  35.918  1.00  0.00     0.029 A 
ATOM     55  N   UNL A   1      41.935  30.487  33.889  1.00  0.00    -0.354 N 
ATOM     56  N   UNL A   1      41.942  28.842  31.468  1.00  0.00    -0.248 NA
ATOM     57  C   UNL A   1      42.847  27.106  30.192  1.00  0.00     0.031 C 
ATOM     58  C   UNL A   1      43.410  30.027  35.486  1.00  0.00     0.029 A 
ATOM     59  C   UNL A   1      42.977  29.640  34.229  1.00  0.00     0.049 A 
ATOM     60  H   UNL A   1      41.429  30.451  33.046  1.00  0.00     0.167 HD
ATOM     61  C   UNL A   1      42.978  28.249  32.177  1.00  0.00     0.074 A 
ATOM     62  C   UNL A   1      43.479  27.164  31.356  1.00  0.00     0.031 C 
ATOM     63  C   UNL A   1      43.473  28.575  33.396  1.00  0.00     0.037 A 
BRANCH  50  64
ATOM     64  C   UNL A   1      40.655  33.403  36.023  1.00  0.00     0.057 A 
ATOM     65  C   UNL A   1      41.417  34.580  36.026  1.00  0.00     0.134 A 
ATOM     66  C   UNL A   1      39.823  33.172  37.126  1.00  0.00     0.134 A 
ATOM     67  F   UNL A   1      42.245  34.855  35.006  1.00  0.00    -0.206 F 
ATOM     68  C   UNL A   1      41.379  35.473  37.098  1.00  0.00     0.040 A 
ATOM     69  C   UNL A   1      39.756  34.071  38.192  1.00  0.00     0.040 A 
ATOM     70  F   UNL A   1      39.061  32.069  37.186  1.00  0.00    -0.206 F 
ATOM     71  C   UNL A   1      40.542  35.221  38.184  1.00  0.00     0.006 A 
ENDBRANCH  50  64
BRANCH  51  72
ATOM     72  C   UNL A   1      40.992  27.549  27.972  1.00  0.00     0.057 A 
ATOM     73  C   UNL A   1      40.277  26.350  27.871  1.00  0.00     0.134 A 
ATOM     74  C   UNL A   1      41.768  27.936  26.874  1.00  0.00     0.134 A 
ATOM     75  F   UNL A   1      39.531  25.921  28.899  1.00  0.00    -0.206 F 
ATOM     76  C   UNL A   1      40.340  25.559  26.723  1.00  0.00     0.040 A 
ATOM     77  C   UNL A   1      41.823  27.165  25.712  1.00  0.00     0.040 A 
ATOM     78  F   UNL A   1      42.469  29.078  26.909  1.00  0.00    -0.206 F 
ATOM     79  C   UNL A   1      41.110  25.969  25.636  1.00  0.00     0.006 A 
ENDBRANCH  51  72
BRANCH  63  80
ATOM     80  C   UNL A   1      44.612  27.745  33.911  1.00  0.00     0.057 A 
ATOM     81  C   UNL A   1      45.945  28.112  33.689  1.00  0.00     0.134 A 
ATOM     82  C   UNL A   1      44.373  26.578  34.645  1.00  0.00     0.134 A 
ATOM     83  F   UNL A   1      46.239  29.212  32.981  1.00  0.00    -0.206 F 
ATOM     84  C   UNL A   1      47.003  27.331  34.159  1.00  0.00     0.040 A 
ATOM     85  C   UNL A   1      45.422  25.802  35.140  1.00  0.00     0.040 A 
ATOM     86  F   UNL A   1      43.118  26.176  34.897  1.00  0.00    -0.206 F 
ATOM     87  C   UNL A   1      46.741  26.173  34.890  1.00  0.00     0.006 A 
ENDBRANCH  63  80
ENDBRANCH  37  38
ENDBRANCH  29  32
ENDBRANCH  27  28
ENDBRANCH  26  27
ENDBRANCH   1  26
TORSDOF 15
ENDMDL
