MODEL 1
REMARK VINA RESULT:     -12.2      0.000      0.000
REMARK SMILES O=C(NCCCNC(=O)c1cccc(OS(=O)(=O)c2cccc([N+](=O)[O-])c2)c1)c1ccc(-c2c3nc(c(-c4c(F)cccc4F)c4ccc([nH]4)c(-c4c(F)cccc4F)c4nc(c(-c5c(F)cccc5F)c5ccc2[nH]5)C=C4)C=C3)cc1
REMARK SMILES IDX 6 1 5 2 4 3 3 4 1 5 2 6 29 8 30 9 82 10 31 11 81 12 32 13
REMARK SMILES IDX 33 14 34 15 75 16 35 17 80 18 74 19 76 20 36 21 79 22 73 23
REMARK SMILES IDX 72 24 37 26 63 27 46 28 62 29 47 30 50 31 61 32 77 33 48 34
REMARK SMILES IDX 49 35 60 37 78 38 51 39 38 40 39 41 44 42 40 43 41 44 43 45
REMARK SMILES IDX 45 46 42 47 64 48 65 49 70 50 66 51 67 52 69 53 71 54 68 55
REMARK SMILES IDX 52 56 53 57 58 58 54 59 55 60 57 61 59 62 56 63 7 64 8 65
REMARK SMILES IDX 9 67 10 68 11 69 28 70 12 71 14 72 13 73 15 74 16 75 17 76
REMARK SMILES IDX 18 77 19 78 20 79 27 80 21 81 23 82 22 83 24 84 25 85 26 86
REMARK H PARENT 3 7 76 25 50 36 7 66
REMARK Flexibility Score: inf
ROOT
ATOM      1  C   UNL A   1      31.637  30.739  26.247  1.00  0.00     0.118 C 
ENDROOT
BRANCH   1   2
ATOM      2  C   UNL A   1      31.435  32.184  26.676  1.00  0.00     0.042 C 
BRANCH   2   3
ATOM      3  C   UNL A   1      32.720  32.909  27.046  1.00  0.00     0.118 C 
BRANCH   3   4
ATOM      4  N   UNL A   1      32.482  34.216  27.640  1.00  0.00    -0.352 N 
ATOM      5  O   UNL A   1      32.619  35.873  29.158  1.00  0.00    -0.269 OA
ATOM      6  C   UNL A   1      33.088  34.831  28.708  1.00  0.00     0.251 C 
ATOM      7  H   UNL A   1      31.771  34.744  27.208  1.00  0.00     0.163 HD
BRANCH   6   8
ATOM      8  C   UNL A   1      34.288  34.238  29.338  1.00  0.00     0.039 A 
ATOM      9  C   UNL A   1      35.572  34.523  28.870  1.00  0.00     0.014 A 
ATOM     10  C   UNL A   1      34.119  33.402  30.447  1.00  0.00     0.014 A 
ATOM     11  C   UNL A   1      36.671  33.860  29.407  1.00  0.00     0.010 A 
ATOM     12  C   UNL A   1      35.232  32.806  31.042  1.00  0.00     0.010 A 
ATOM     13  C   UNL A   1      36.514  33.004  30.506  1.00  0.00    -0.014 A 
BRANCH  13  14
ATOM     14  C   UNL A   1      37.697  32.352  31.119  1.00  0.00     0.031 A 
ATOM     15  C   UNL A   1      38.423  31.249  30.402  1.00  0.00     0.074 A 
ATOM     16  C   UNL A   1      38.102  32.745  32.341  1.00  0.00     0.049 A 
ATOM     17  N   UNL A   1      39.419  30.508  30.819  1.00  0.00    -0.248 NA
ATOM     18  C   UNL A   1      37.963  30.929  29.043  1.00  0.00     0.031 C 
ATOM     19  C   UNL A   1      37.479  33.805  33.135  1.00  0.00     0.029 A 
ATOM     20  N   UNL A   1      39.127  32.294  33.132  1.00  0.00    -0.354 N 
ATOM     21  C   UNL A   1      39.686  29.618  29.788  1.00  0.00     0.074 A 
ATOM     22  C   UNL A   1      38.735  29.897  28.733  1.00  0.00     0.031 C 
ATOM     23  C   UNL A   1      38.142  33.932  34.294  1.00  0.00     0.029 A 
ATOM     24  C   UNL A   1      39.194  32.925  34.350  1.00  0.00     0.049 A 
ATOM     25  H   UNL A   1      39.754  31.588  32.854  1.00  0.00     0.167 HD
ATOM     26  C   UNL A   1      40.642  28.659  29.727  1.00  0.00     0.037 A 
ATOM     27  C   UNL A   1      39.991  32.696  35.410  1.00  0.00     0.037 A 
ATOM     28  C   UNL A   1      41.593  28.396  30.777  1.00  0.00     0.049 A 
ATOM     29  C   UNL A   1      41.020  31.608  35.333  1.00  0.00     0.074 A 
ATOM     30  C   UNL A   1      42.624  27.472  30.795  1.00  0.00     0.029 A 
ATOM     31  N   UNL A   1      41.626  29.056  31.997  1.00  0.00    -0.354 N 
ATOM     32  N   UNL A   1      41.280  30.790  34.343  1.00  0.00    -0.248 NA
ATOM     33  C   UNL A   1      41.863  31.408  36.519  1.00  0.00     0.031 C 
ATOM     34  C   UNL A   1      43.251  27.541  32.044  1.00  0.00     0.029 A 
ATOM     35  C   UNL A   1      42.644  28.543  32.784  1.00  0.00     0.049 A 
ATOM     36  H   UNL A   1      41.016  29.782  32.263  1.00  0.00     0.167 HD
ATOM     37  C   UNL A   1      42.333  29.995  34.774  1.00  0.00     0.074 A 
ATOM     38  C   UNL A   1      42.665  30.432  36.115  1.00  0.00     0.031 C 
ATOM     39  C   UNL A   1      42.969  28.996  34.115  1.00  0.00     0.037 A 
BRANCH  26  40
ATOM     40  C   UNL A   1      40.685  27.802  28.495  1.00  0.00     0.057 A 
ATOM     41  C   UNL A   1      41.471  28.136  27.383  1.00  0.00     0.134 A 
ATOM     42  C   UNL A   1      39.942  26.616  28.427  1.00  0.00     0.134 A 
ATOM     43  F   UNL A   1      42.196  29.263  27.377  1.00  0.00    -0.206 F 
ATOM     44  C   UNL A   1      41.493  27.335  26.239  1.00  0.00     0.040 A 
ATOM     45  C   UNL A   1      39.977  25.795  27.299  1.00  0.00     0.040 A 
ATOM     46  F   UNL A   1      39.174  26.233  29.458  1.00  0.00    -0.206 F 
ATOM     47  C   UNL A   1      40.748  26.158  26.196  1.00  0.00     0.006 A 
ENDBRANCH  26  40
BRANCH  27  48
ATOM     48  C   UNL A   1      39.826  33.521  36.631  1.00  0.00     0.057 A 
ATOM     49  C   UNL A   1      40.482  34.748  36.769  1.00  0.00     0.134 A 
ATOM     50  C   UNL A   1      38.971  33.123  37.667  1.00  0.00     0.134 A 
ATOM     51  F   UNL A   1      41.323  35.173  35.815  1.00  0.00    -0.206 F 
ATOM     52  C   UNL A   1      40.296  35.551  37.894  1.00  0.00     0.040 A 
ATOM     53  C   UNL A   1      38.757  33.927  38.786  1.00  0.00     0.040 A 
ATOM     54  F   UNL A   1      38.306  31.961  37.587  1.00  0.00    -0.206 F 
ATOM     55  C   UNL A   1      39.424  35.145  38.904  1.00  0.00     0.006 A 
ENDBRANCH  27  48
BRANCH  39  56
ATOM     56  C   UNL A   1      44.118  28.335  34.814  1.00  0.00     0.057 A 
ATOM     57  C   UNL A   1      45.411  28.869  34.782  1.00  0.00     0.134 A 
ATOM     58  C   UNL A   1      43.913  27.176  35.575  1.00  0.00     0.134 A 
ATOM     59  F   UNL A   1      45.675  29.969  34.060  1.00  0.00    -0.206 F 
ATOM     60  C   UNL A   1      46.465  28.267  35.474  1.00  0.00     0.040 A 
ATOM     61  C   UNL A   1      44.952  26.578  36.288  1.00  0.00     0.040 A 
ATOM     62  F   UNL A   1      42.695  26.618  35.651  1.00  0.00    -0.206 F 
ATOM     63  C   UNL A   1      46.234  27.124  36.237  1.00  0.00     0.006 A 
ENDBRANCH  39  56
ENDBRANCH  13  14
ENDBRANCH   6   8
ENDBRANCH   3   4
ENDBRANCH   2   3
ENDBRANCH   1   2
BRANCH   1  64
ATOM     64  N   UNL A   1      30.993  30.441  24.971  1.00  0.00    -0.352 N 
ATOM     65  C   UNL A   1      31.125  29.340  24.159  1.00  0.00     0.251 C 
ATOM     66  H   UNL A   1      30.374  31.131  24.644  1.00  0.00     0.163 HD
ATOM     67  O   UNL A   1      30.654  29.346  23.027  1.00  0.00    -0.269 OA
BRANCH  65  68
ATOM     68  C   UNL A   1      31.842  28.147  24.654  1.00  0.00     0.043 A 
ATOM     69  C   UNL A   1      33.187  27.965  24.334  1.00  0.00     0.014 A 
ATOM     70  C   UNL A   1      31.168  27.208  25.437  1.00  0.00     0.062 A 
ATOM     71  C   UNL A   1      33.874  26.872  24.866  1.00  0.00     0.005 A 
ATOM     72  C   UNL A   1      31.868  26.162  26.031  1.00  0.00     0.143 A 
ATOM     73  C   UNL A   1      33.219  25.984  25.728  1.00  0.00     0.048 A 
BRANCH  72  74
ATOM     74  O   UNL A   1      31.304  25.281  26.924  1.00  0.00    -0.379 OA
BRANCH  74  75
ATOM     75  S   UNL A   1      30.688  23.857  26.402  1.00  0.00     0.339 S 
ATOM     76  O   UNL A   1      29.696  23.395  27.351  1.00  0.00    -0.181 OA
ATOM     77  O   UNL A   1      30.361  23.971  24.989  1.00  0.00    -0.181 OA
BRANCH  75  78
ATOM     78  C   UNL A   1      32.068  22.740  26.488  1.00  0.00     0.112 A 
ATOM     79  C   UNL A   1      33.059  22.922  27.459  1.00  0.00     0.024 A 
ATOM     80  C   UNL A   1      32.094  21.637  25.629  1.00  0.00     0.109 A 
ATOM     81  C   UNL A   1      34.097  21.995  27.566  1.00  0.00     0.009 A 
ATOM     82  C   UNL A   1      33.138  20.715  25.748  1.00  0.00     0.270 A 
ATOM     83  C   UNL A   1      34.142  20.890  26.713  1.00  0.00     0.086 A 
BRANCH  82  84
ATOM     84  N   UNL A   1      33.177  19.544  24.861  1.00  0.00     0.062 N 
ATOM     85  O   UNL A   1      34.288  19.113  24.525  1.00  0.00    -0.258 OA
ATOM     86  O   UNL A   1      32.094  19.065  24.498  1.00  0.00    -0.258 OA
ENDBRANCH  82  84
ENDBRANCH  75  78
ENDBRANCH  74  75
ENDBRANCH  72  74
ENDBRANCH  65  68
ENDBRANCH   1  64
TORSDOF 14
ENDMDL
MODEL 2
REMARK VINA RESULT:     -12.2      0.567      1.418
REMARK SMILES O=C(NCCCNC(=O)c1cccc(OS(=O)(=O)c2cccc([N+](=O)[O-])c2)c1)c1ccc(-c2c3nc(c(-c4c(F)cccc4F)c4ccc([nH]4)c(-c4c(F)cccc4F)c4nc(c(-c5c(F)cccc5F)c5ccc2[nH]5)C=C4)C=C3)cc1
REMARK SMILES IDX 6 1 5 2 4 3 3 4 1 5 2 6 29 8 30 9 82 10 31 11 81 12 32 13
REMARK SMILES IDX 33 14 34 15 75 16 35 17 80 18 74 19 76 20 36 21 79 22 73 23
REMARK SMILES IDX 72 24 37 26 63 27 46 28 62 29 47 30 50 31 61 32 77 33 48 34
REMARK SMILES IDX 49 35 60 37 78 38 51 39 38 40 39 41 44 42 40 43 41 44 43 45
REMARK SMILES IDX 45 46 42 47 64 48 65 49 70 50 66 51 67 52 69 53 71 54 68 55
REMARK SMILES IDX 52 56 53 57 58 58 54 59 55 60 57 61 59 62 56 63 7 64 8 65
REMARK SMILES IDX 9 67 10 68 11 69 28 70 12 71 14 72 13 73 15 74 16 75 17 76
REMARK SMILES IDX 18 77 19 78 20 79 27 80 21 81 23 82 22 83 24 84 25 85 26 86
REMARK H PARENT 3 7 76 25 50 36 7 66
REMARK Flexibility Score: inf
ROOT
ATOM      1  C   UNL A   1      31.640  30.695  26.276  1.00  0.00     0.118 C 
ENDROOT
BRANCH   1   2
ATOM      2  C   UNL A   1      31.404  32.129  26.723  1.00  0.00     0.042 C 
BRANCH   2   3
ATOM      3  C   UNL A   1      32.678  32.913  27.003  1.00  0.00     0.118 C 
BRANCH   3   4
ATOM      4  N   UNL A   1      32.420  34.230  27.566  1.00  0.00    -0.352 N 
ATOM      5  O   UNL A   1      32.549  35.932  29.033  1.00  0.00    -0.269 OA
ATOM      6  C   UNL A   1      33.034  34.890  28.602  1.00  0.00     0.251 C 
ATOM      7  H   UNL A   1      31.688  34.728  27.134  1.00  0.00     0.163 HD
BRANCH   6   8
ATOM      8  C   UNL A   1      34.261  34.343  29.221  1.00  0.00     0.039 A 
ATOM      9  C   UNL A   1      35.530  34.765  28.818  1.00  0.00     0.014 A 
ATOM     10  C   UNL A   1      34.133  33.410  30.255  1.00  0.00     0.014 A 
ATOM     11  C   UNL A   1      36.665  34.150  29.337  1.00  0.00     0.010 A 
ATOM     12  C   UNL A   1      35.274  32.857  30.837  1.00  0.00     0.010 A 
ATOM     13  C   UNL A   1      36.549  33.198  30.359  1.00  0.00    -0.014 A 
BRANCH  13  14
ATOM     14  C   UNL A   1      37.765  32.593  30.956  1.00  0.00     0.031 A 
ATOM     15  C   UNL A   1      38.436  31.417  30.306  1.00  0.00     0.074 A 
ATOM     16  C   UNL A   1      38.251  33.097  32.106  1.00  0.00     0.049 A 
ATOM     17  N   UNL A   1      39.452  30.708  30.728  1.00  0.00    -0.248 NA
ATOM     18  C   UNL A   1      37.888  30.973  29.015  1.00  0.00     0.031 C 
ATOM     19  C   UNL A   1      37.687  34.237  32.831  1.00  0.00     0.029 A 
ATOM     20  N   UNL A   1      39.322  32.712  32.870  1.00  0.00    -0.354 N 
ATOM     21  C   UNL A   1      39.648  29.719  29.773  1.00  0.00     0.074 A 
ATOM     22  C   UNL A   1      38.632  29.906  28.759  1.00  0.00     0.031 C 
ATOM     23  C   UNL A   1      38.423  34.467  33.928  1.00  0.00     0.029 A 
ATOM     24  C   UNL A   1      39.471  33.457  34.015  1.00  0.00     0.049 A 
ATOM     25  H   UNL A   1      39.925  31.974  32.623  1.00  0.00     0.167 HD
ATOM     26  C   UNL A   1      40.592  28.746  29.745  1.00  0.00     0.037 A 
ATOM     27  C   UNL A   1      40.333  33.322  35.039  1.00  0.00     0.037 A 
ATOM     28  C   UNL A   1      41.607  28.575  30.753  1.00  0.00     0.049 A 
ATOM     29  C   UNL A   1      41.348  32.218  35.003  1.00  0.00     0.074 A 
ATOM     30  C   UNL A   1      42.631  27.644  30.796  1.00  0.00     0.029 A 
ATOM     31  N   UNL A   1      41.722  29.349  31.899  1.00  0.00    -0.354 N 
ATOM     32  N   UNL A   1      41.539  31.305  34.083  1.00  0.00    -0.248 NA
ATOM     33  C   UNL A   1      42.264  32.123  36.147  1.00  0.00     0.031 C 
ATOM     34  C   UNL A   1      43.337  27.825  31.990  1.00  0.00     0.029 A 
ATOM     35  C   UNL A   1      42.785  28.902  32.666  1.00  0.00     0.049 A 
ATOM     36  H   UNL A   1      41.135  30.104  32.131  1.00  0.00     0.167 HD
ATOM     37  C   UNL A   1      42.613  30.542  34.521  1.00  0.00     0.074 A 
ATOM     38  C   UNL A   1      43.032  31.103  35.789  1.00  0.00     0.031 C 
ATOM     39  C   UNL A   1      43.198  29.477  33.923  1.00  0.00     0.037 A 
BRANCH  26  40
ATOM     40  C   UNL A   1      40.549  27.774  28.602  1.00  0.00     0.057 A 
ATOM     41  C   UNL A   1      39.782  26.602  28.649  1.00  0.00     0.134 A 
ATOM     42  C   UNL A   1      41.272  28.025  27.428  1.00  0.00     0.134 A 
ATOM     43  F   UNL A   1      39.076  26.296  29.747  1.00  0.00    -0.206 F 
ATOM     44  C   UNL A   1      39.760  25.701  27.582  1.00  0.00     0.040 A 
ATOM     45  C   UNL A   1      41.237  27.145  26.345  1.00  0.00     0.040 A 
ATOM     46  F   UNL A   1      42.021  29.132  27.312  1.00  0.00    -0.206 F 
ATOM     47  C   UNL A   1      40.485  25.974  26.424  1.00  0.00     0.006 A 
ENDBRANCH  26  40
BRANCH  27  48
ATOM     48  C   UNL A   1      40.252  34.262  36.183  1.00  0.00     0.057 A 
ATOM     49  C   UNL A   1      40.877  35.513  36.135  1.00  0.00     0.134 A 
ATOM     50  C   UNL A   1      39.510  33.951  37.328  1.00  0.00     0.134 A 
ATOM     51  F   UNL A   1      41.612  35.859  35.069  1.00  0.00    -0.206 F 
ATOM     52  C   UNL A   1      40.766  36.422  37.188  1.00  0.00     0.040 A 
ATOM     53  C   UNL A   1      39.371  34.860  38.377  1.00  0.00     0.040 A 
ATOM     54  F   UNL A   1      38.879  32.771  37.427  1.00  0.00    -0.206 F 
ATOM     55  C   UNL A   1      40.004  36.099  38.310  1.00  0.00     0.006 A 
ENDBRANCH  27  48
BRANCH  39  56
ATOM     56  C   UNL A   1      44.386  28.871  34.609  1.00  0.00     0.057 A 
ATOM     57  C   UNL A   1      44.262  27.792  35.491  1.00  0.00     0.134 A 
ATOM     58  C   UNL A   1      45.677  29.342  34.336  1.00  0.00     0.134 A 
ATOM     59  F   UNL A   1      43.051  27.305  35.804  1.00  0.00    -0.206 F 
ATOM     60  C   UNL A   1      45.381  27.209  36.089  1.00  0.00     0.040 A 
ATOM     61  C   UNL A   1      46.804  28.754  34.909  1.00  0.00     0.040 A 
ATOM     62  F   UNL A   1      45.864  30.371  33.493  1.00  0.00    -0.206 F 
ATOM     63  C   UNL A   1      46.657  27.684  35.791  1.00  0.00     0.006 A 
ENDBRANCH  39  56
ENDBRANCH  13  14
ENDBRANCH   6   8
ENDBRANCH   3   4
ENDBRANCH   2   3
ENDBRANCH   1   2
BRANCH   1  64
ATOM     64  N   UNL A   1      31.014  30.401  24.990  1.00  0.00    -0.352 N 
ATOM     65  C   UNL A   1      31.187  29.323  24.157  1.00  0.00     0.251 C 
ATOM     66  H   UNL A   1      30.372  31.076  24.674  1.00  0.00     0.163 HD
ATOM     67  O   UNL A   1      30.721  29.336  23.022  1.00  0.00    -0.269 OA
BRANCH  65  68
ATOM     68  C   UNL A   1      31.943  28.145  24.631  1.00  0.00     0.043 A 
ATOM     69  C   UNL A   1      33.287  28.002  24.291  1.00  0.00     0.014 A 
ATOM     70  C   UNL A   1      31.305  27.182  25.416  1.00  0.00     0.062 A 
ATOM     71  C   UNL A   1      34.011  26.923  24.803  1.00  0.00     0.005 A 
ATOM     72  C   UNL A   1      32.041  26.151  25.991  1.00  0.00     0.143 A 
ATOM     73  C   UNL A   1      33.392  26.011  25.667  1.00  0.00     0.048 A 
BRANCH  72  74
ATOM     74  O   UNL A   1      31.514  25.248  26.884  1.00  0.00    -0.379 OA
BRANCH  74  75
ATOM     75  S   UNL A   1      30.695  23.936  26.347  1.00  0.00     0.339 S 
ATOM     76  O   UNL A   1      29.717  23.549  27.342  1.00  0.00    -0.181 OA
ATOM     77  O   UNL A   1      30.294  24.160  24.967  1.00  0.00    -0.181 OA
BRANCH  75  78
ATOM     78  C   UNL A   1      31.930  22.659  26.289  1.00  0.00     0.112 A 
ATOM     79  C   UNL A   1      33.045  22.722  27.131  1.00  0.00     0.024 A 
ATOM     80  C   UNL A   1      31.718  21.557  25.454  1.00  0.00     0.109 A 
ATOM     81  C   UNL A   1      33.969  21.675  27.131  1.00  0.00     0.009 A 
ATOM     82  C   UNL A   1      32.649  20.514  25.465  1.00  0.00     0.270 A 
ATOM     83  C   UNL A   1      33.776  20.569  26.300  1.00  0.00     0.086 A 
BRANCH  82  84
ATOM     84  N   UNL A   1      32.438  19.344  24.602  1.00  0.00     0.062 N 
ATOM     85  O   UNL A   1      32.603  19.491  23.383  1.00  0.00    -0.258 OA
ATOM     86  O   UNL A   1      32.101  18.284  25.146  1.00  0.00    -0.258 OA
ENDBRANCH  82  84
ENDBRANCH  75  78
ENDBRANCH  74  75
ENDBRANCH  72  74
ENDBRANCH  65  68
ENDBRANCH   1  64
TORSDOF 14
ENDMDL
MODEL 3
REMARK VINA RESULT:     -12.2      5.082     10.240
REMARK SMILES O=C(NCCCNC(=O)c1cccc(OS(=O)(=O)c2cccc([N+](=O)[O-])c2)c1)c1ccc(-c2c3nc(c(-c4c(F)cccc4F)c4ccc([nH]4)c(-c4c(F)cccc4F)c4nc(c(-c5c(F)cccc5F)c5ccc2[nH]5)C=C4)C=C3)cc1
REMARK SMILES IDX 6 1 5 2 4 3 3 4 1 5 2 6 29 8 30 9 82 10 31 11 81 12 32 13
REMARK SMILES IDX 33 14 34 15 75 16 35 17 80 18 74 19 76 20 36 21 79 22 73 23
REMARK SMILES IDX 72 24 37 26 63 27 46 28 62 29 47 30 50 31 61 32 77 33 48 34
REMARK SMILES IDX 49 35 60 37 78 38 51 39 38 40 39 41 44 42 40 43 41 44 43 45
REMARK SMILES IDX 45 46 42 47 64 48 65 49 70 50 66 51 67 52 69 53 71 54 68 55
REMARK SMILES IDX 52 56 53 57 58 58 54 59 55 60 57 61 59 62 56 63 7 64 8 65
REMARK SMILES IDX 9 67 10 68 11 69 28 70 12 71 14 72 13 73 15 74 16 75 17 76
REMARK SMILES IDX 18 77 19 78 20 79 27 80 21 81 23 82 22 83 24 84 25 85 26 86
REMARK H PARENT 3 7 76 25 50 36 7 66
REMARK Flexibility Score: inf
ROOT
ATOM      1  C   UNL A   1      36.668  20.642  24.719  1.00  0.00     0.118 C 
ENDROOT
BRANCH   1   2
ATOM      2  C   UNL A   1      37.715  19.576  25.001  1.00  0.00     0.042 C 
BRANCH   2   3
ATOM      3  C   UNL A   1      38.941  20.086  25.743  1.00  0.00     0.118 C 
BRANCH   3   4
ATOM      4  N   UNL A   1      40.026  19.117  25.776  1.00  0.00    -0.352 N 
ATOM      5  O   UNL A   1      42.146  18.362  25.790  1.00  0.00    -0.269 OA
ATOM      6  C   UNL A   1      41.374  19.299  25.970  1.00  0.00     0.251 C 
ATOM      7  H   UNL A   1      39.751  18.182  25.636  1.00  0.00     0.163 HD
BRANCH   6   8
ATOM      8  C   UNL A   1      41.906  20.619  26.372  1.00  0.00     0.039 A 
ATOM      9  C   UNL A   1      42.159  20.925  27.710  1.00  0.00     0.014 A 
ATOM     10  C   UNL A   1      42.190  21.559  25.376  1.00  0.00     0.014 A 
ATOM     11  C   UNL A   1      42.549  22.212  28.068  1.00  0.00     0.010 A 
ATOM     12  C   UNL A   1      42.665  22.822  25.729  1.00  0.00     0.010 A 
ATOM     13  C   UNL A   1      42.817  23.170  27.081  1.00  0.00    -0.014 A 
BRANCH  13  14
ATOM     14  C   UNL A   1      43.298  24.521  27.462  1.00  0.00     0.031 A 
ATOM     15  C   UNL A   1      42.332  25.579  27.916  1.00  0.00     0.074 A 
ATOM     16  C   UNL A   1      44.612  24.798  27.375  1.00  0.00     0.049 A 
ATOM     17  N   UNL A   1      42.559  26.835  28.206  1.00  0.00    -0.248 NA
ATOM     18  C   UNL A   1      40.925  25.176  28.054  1.00  0.00     0.031 C 
ATOM     19  C   UNL A   1      45.646  23.854  26.949  1.00  0.00     0.029 A 
ATOM     20  N   UNL A   1      45.302  25.955  27.632  1.00  0.00    -0.354 N 
ATOM     21  C   UNL A   1      41.325  27.379  28.532  1.00  0.00     0.074 A 
ATOM     22  C   UNL A   1      40.347  26.322  28.385  1.00  0.00     0.031 C 
ATOM     23  C   UNL A   1      46.839  24.464  26.985  1.00  0.00     0.029 A 
ATOM     24  C   UNL A   1      46.648  25.855  27.378  1.00  0.00     0.049 A 
ATOM     25  H   UNL A   1      44.875  26.776  27.968  1.00  0.00     0.167 HD
ATOM     26  C   UNL A   1      41.035  28.645  28.922  1.00  0.00     0.037 A 
ATOM     27  C   UNL A   1      47.617  26.787  27.421  1.00  0.00     0.037 A 
ATOM     28  C   UNL A   1      42.016  29.688  29.078  1.00  0.00     0.049 A 
ATOM     29  C   UNL A   1      47.269  28.189  27.824  1.00  0.00     0.074 A 
ATOM     30  C   UNL A   1      41.828  30.992  29.505  1.00  0.00     0.029 A 
ATOM     31  N   UNL A   1      43.370  29.547  28.808  1.00  0.00    -0.354 N 
ATOM     32  N   UNL A   1      46.101  28.685  28.154  1.00  0.00    -0.248 NA
ATOM     33  C   UNL A   1      48.368  29.162  27.856  1.00  0.00     0.031 C 
ATOM     34  C   UNL A   1      43.061  31.652  29.448  1.00  0.00     0.029 A 
ATOM     35  C   UNL A   1      44.025  30.746  29.036  1.00  0.00     0.049 A 
ATOM     36  H   UNL A   1      43.800  28.717  28.499  1.00  0.00     0.167 HD
ATOM     37  C   UNL A   1      46.328  30.020  28.460  1.00  0.00     0.074 A 
ATOM     38  C   UNL A   1      47.745  30.255  28.278  1.00  0.00     0.031 C 
ATOM     39  C   UNL A   1      45.440  30.962  28.859  1.00  0.00     0.037 A 
BRANCH  26  40
ATOM     40  C   UNL A   1      39.593  28.976  29.178  1.00  0.00     0.057 A 
ATOM     41  C   UNL A   1      39.027  28.897  30.457  1.00  0.00     0.134 A 
ATOM     42  C   UNL A   1      38.764  29.400  28.130  1.00  0.00     0.134 A 
ATOM     43  F   UNL A   1      39.760  28.488  31.502  1.00  0.00    -0.206 F 
ATOM     44  C   UNL A   1      37.681  29.199  30.679  1.00  0.00     0.040 A 
ATOM     45  C   UNL A   1      37.425  29.729  28.345  1.00  0.00     0.040 A 
ATOM     46  F   UNL A   1      39.244  29.505  26.882  1.00  0.00    -0.206 F 
ATOM     47  C   UNL A   1      36.877  29.621  29.622  1.00  0.00     0.006 A 
ENDBRANCH  26  40
BRANCH  27  48
ATOM     48  C   UNL A   1      49.004  26.408  27.061  1.00  0.00     0.057 A 
ATOM     49  C   UNL A   1      49.913  25.983  28.036  1.00  0.00     0.134 A 
ATOM     50  C   UNL A   1      49.438  26.415  25.730  1.00  0.00     0.134 A 
ATOM     51  F   UNL A   1      49.557  25.968  29.329  1.00  0.00    -0.206 F 
ATOM     52  C   UNL A   1      51.205  25.579  27.699  1.00  0.00     0.040 A 
ATOM     53  C   UNL A   1      50.719  25.992  25.377  1.00  0.00     0.040 A 
ATOM     54  F   UNL A   1      48.608  26.803  24.750  1.00  0.00    -0.206 F 
ATOM     55  C   UNL A   1      51.609  25.575  26.365  1.00  0.00     0.006 A 
ENDBRANCH  27  48
BRANCH  39  56
ATOM     56  C   UNL A   1      45.979  32.326  29.171  1.00  0.00     0.057 A 
ATOM     57  C   UNL A   1      46.488  32.650  30.434  1.00  0.00     0.134 A 
ATOM     58  C   UNL A   1      46.040  33.309  28.175  1.00  0.00     0.134 A 
ATOM     59  F   UNL A   1      46.446  31.756  31.434  1.00  0.00    -0.206 F 
ATOM     60  C   UNL A   1      47.029  33.910  30.699  1.00  0.00     0.040 A 
ATOM     61  C   UNL A   1      46.598  34.564  28.421  1.00  0.00     0.040 A 
ATOM     62  F   UNL A   1      45.575  33.058  26.941  1.00  0.00    -0.206 F 
ATOM     63  C   UNL A   1      47.093  34.867  29.688  1.00  0.00     0.006 A 
ENDBRANCH  39  56
ENDBRANCH  13  14
ENDBRANCH   6   8
ENDBRANCH   3   4
ENDBRANCH   2   3
ENDBRANCH   1   2
BRANCH   1  64
ATOM     64  N   UNL A   1      35.672  20.741  25.782  1.00  0.00    -0.352 N 
ATOM     65  C   UNL A   1      34.415  21.297  25.757  1.00  0.00     0.251 C 
ATOM     66  H   UNL A   1      35.941  20.352  26.645  1.00  0.00     0.163 HD
ATOM     67  O   UNL A   1      33.791  21.463  26.800  1.00  0.00    -0.269 OA
BRANCH  65  68
ATOM     68  C   UNL A   1      33.819  21.700  24.467  1.00  0.00     0.043 A 
ATOM     69  C   UNL A   1      32.759  20.967  23.935  1.00  0.00     0.014 A 
ATOM     70  C   UNL A   1      34.323  22.811  23.787  1.00  0.00     0.062 A 
ATOM     71  C   UNL A   1      32.156  21.398  22.751  1.00  0.00     0.005 A 
ATOM     72  C   UNL A   1      33.676  23.286  22.651  1.00  0.00     0.143 A 
ATOM     73  C   UNL A   1      32.603  22.566  22.122  1.00  0.00     0.048 A 
BRANCH  72  74
ATOM     74  O   UNL A   1      34.028  24.450  22.008  1.00  0.00    -0.379 OA
BRANCH  74  75
ATOM     75  S   UNL A   1      33.080  25.780  22.126  1.00  0.00     0.339 S 
ATOM     76  O   UNL A   1      33.808  26.926  21.626  1.00  0.00    -0.181 OA
ATOM     77  O   UNL A   1      31.755  25.465  21.613  1.00  0.00    -0.181 OA
BRANCH  75  78
ATOM     78  C   UNL A   1      32.876  26.000  23.878  1.00  0.00     0.112 A 
ATOM     79  C   UNL A   1      33.654  26.941  24.562  1.00  0.00     0.024 A 
ATOM     80  C   UNL A   1      31.869  25.283  24.533  1.00  0.00     0.109 A 
ATOM     81  C   UNL A   1      33.432  27.160  25.923  1.00  0.00     0.009 A 
ATOM     82  C   UNL A   1      31.655  25.514  25.895  1.00  0.00     0.270 A 
ATOM     83  C   UNL A   1      32.434  26.449  26.594  1.00  0.00     0.086 A 
BRANCH  82  84
ATOM     84  N   UNL A   1      30.596  24.777  26.598  1.00  0.00     0.062 N 
ATOM     85  O   UNL A   1      29.437  25.203  26.501  1.00  0.00    -0.258 OA
ATOM     86  O   UNL A   1      30.930  23.779  27.251  1.00  0.00    -0.258 OA
ENDBRANCH  82  84
ENDBRANCH  75  78
ENDBRANCH  74  75
ENDBRANCH  72  74
ENDBRANCH  65  68
ENDBRANCH   1  64
TORSDOF 14
ENDMDL
