MODEL 1
REMARK VINA RESULT:     -10.0      0.000      0.000
REMARK SMILES C[C@@H](C(=O)NCCCNC(=O)c1ccc(-c2c3nc(c(-c4c(F)cccc4F)c4ccc([nH]4)c(-c4c(F)cccc4F)c4nc(c(-c5c(F)cccc5F)c5ccc2[nH]5)C=C4)C=C3)cc1)c1ccc(-c2cccc(OC(=O)NCCCc3ccccc3)c2)c(F)c1
REMARK SMILES IDX 1 1 2 2 3 3 4 4 5 5 6 7 7 8 8 9 9 10 10 11 11 13 12 14 13 15
REMARK SMILES IDX 65 16 14 17 64 18 15 19 16 20 17 21 58 22 18 23 63 24 57 25
REMARK SMILES IDX 59 26 19 27 62 28 56 29 55 30 20 32 46 33 29 34 45 35 30 36
REMARK SMILES IDX 33 37 44 38 60 39 31 40 32 41 43 43 61 44 34 45 21 46 22 47
REMARK SMILES IDX 27 48 23 49 24 50 26 51 28 52 25 53 47 54 48 55 53 56 49 57
REMARK SMILES IDX 50 58 52 59 54 60 51 61 35 62 36 63 41 64 37 65 38 66 40 67
REMARK SMILES IDX 42 68 39 69 66 70 67 71 91 72 68 73 89 74 69 75 90 76 70 77
REMARK SMILES IDX 71 78 88 79 72 80 74 81 73 82 75 83 76 84 77 85 78 86 79 88
REMARK SMILES IDX 80 89 81 90 82 91 83 92 87 93 84 94 86 95 85 96
REMARK H PARENT 5 6 9 12 59 31 33 42 78 87
REMARK Flexibility Score: inf
ROOT
ATOM      1  C   UNL A   1      44.479  24.279  25.241  1.00  0.00     0.023 C 
ATOM      2  C   UNL A   1      44.040  23.186  26.221  1.00  0.00     0.105 C 
ENDROOT
BRANCH   2   3
ATOM      3  C   UNL A   1      44.716  21.834  25.938  1.00  0.00     0.227 C 
ATOM      4  O   UNL A   1      45.934  21.688  25.814  1.00  0.00    -0.274 OA
ATOM      5  N   UNL A   1      43.967  20.700  25.837  1.00  0.00    -0.356 N 
ATOM      6  H   UNL A   1      44.488  19.870  25.744  1.00  0.00     0.163 HD
BRANCH   5   7
ATOM      7  C   UNL A   1      42.532  20.516  25.844  1.00  0.00     0.117 C 
BRANCH   7   8
ATOM      8  C   UNL A   1      41.997  20.337  27.263  1.00  0.00     0.042 C 
BRANCH   8   9
ATOM      9  C   UNL A   1      40.989  21.398  27.699  1.00  0.00     0.118 C 
BRANCH   9  10
ATOM     10  N   UNL A   1      39.913  21.575  26.739  1.00  0.00    -0.352 N 
ATOM     11  C   UNL A   1      39.212  22.696  26.380  1.00  0.00     0.251 C 
ATOM     12  H   UNL A   1      39.642  20.753  26.269  1.00  0.00     0.163 HD
ATOM     13  O   UNL A   1      38.208  22.574  25.682  1.00  0.00    -0.269 OA
BRANCH  11  14
ATOM     14  C   UNL A   1      39.630  24.044  26.829  1.00  0.00     0.039 A 
ATOM     15  C   UNL A   1      39.324  24.426  28.138  1.00  0.00     0.014 A 
ATOM     16  C   UNL A   1      40.263  24.949  25.972  1.00  0.00     0.014 A 
ATOM     17  C   UNL A   1      39.694  25.689  28.599  1.00  0.00     0.010 A 
ATOM     18  C   UNL A   1      40.700  26.183  26.456  1.00  0.00     0.010 A 
ATOM     19  C   UNL A   1      40.414  26.568  27.773  1.00  0.00    -0.014 A 
BRANCH  19  20
ATOM     20  C   UNL A   1      40.878  27.878  28.298  1.00  0.00     0.031 A 
ATOM     21  C   UNL A   1      42.339  28.235  28.306  1.00  0.00     0.074 A 
ATOM     22  C   UNL A   1      39.972  28.744  28.791  1.00  0.00     0.049 A 
ATOM     23  N   UNL A   1      42.914  29.347  28.692  1.00  0.00    -0.248 NA
ATOM     24  C   UNL A   1      43.280  27.205  27.839  1.00  0.00     0.031 C 
ATOM     25  C   UNL A   1      38.533  28.492  28.896  1.00  0.00     0.029 A 
ATOM     26  N   UNL A   1      40.124  30.014  29.289  1.00  0.00    -0.354 N 
ATOM     27  C   UNL A   1      44.278  29.150  28.517  1.00  0.00     0.074 A 
ATOM     28  C   UNL A   1      44.449  27.794  28.044  1.00  0.00     0.031 C 
ATOM     29  C   UNL A   1      37.931  29.585  29.391  1.00  0.00     0.029 A 
ATOM     30  C   UNL A   1      38.940  30.602  29.665  1.00  0.00     0.049 A 
ATOM     31  H   UNL A   1      40.997  30.461  29.370  1.00  0.00     0.167 HD
ATOM     32  C   UNL A   1      45.293  30.028  28.708  1.00  0.00     0.037 A 
ATOM     33  C   UNL A   1      38.694  31.826  30.166  1.00  0.00     0.037 A 
ATOM     34  C   UNL A   1      45.120  31.381  29.169  1.00  0.00     0.049 A 
ATOM     35  C   UNL A   1      39.836  32.783  30.360  1.00  0.00     0.074 A 
ATOM     36  C   UNL A   1      46.079  32.363  29.342  1.00  0.00     0.029 A 
ATOM     37  N   UNL A   1      43.905  31.943  29.534  1.00  0.00    -0.354 N 
ATOM     38  N   UNL A   1      41.112  32.609  30.115  1.00  0.00    -0.248 NA
ATOM     39  C   UNL A   1      39.500  34.112  30.890  1.00  0.00     0.031 C 
ATOM     40  C   UNL A   1      45.452  33.505  29.854  1.00  0.00     0.029 A 
ATOM     41  C   UNL A   1      44.095  33.250  29.953  1.00  0.00     0.049 A 
ATOM     42  H   UNL A   1      43.036  31.480  29.500  1.00  0.00     0.167 HD
ATOM     43  C   UNL A   1      41.729  33.809  30.444  1.00  0.00     0.074 A 
ATOM     44  C   UNL A   1      40.682  34.711  30.879  1.00  0.00     0.031 C 
ATOM     45  C   UNL A   1      43.045  34.134  30.394  1.00  0.00     0.037 A 
BRANCH  32  46
ATOM     46  C   UNL A   1      46.686  29.550  28.410  1.00  0.00     0.057 A 
ATOM     47  C   UNL A   1      47.450  28.865  29.364  1.00  0.00     0.134 A 
ATOM     48  C   UNL A   1      47.257  29.743  27.146  1.00  0.00     0.134 A 
ATOM     49  F   UNL A   1      46.968  28.656  30.599  1.00  0.00    -0.206 F 
ATOM     50  C   UNL A   1      48.739  28.411  29.081  1.00  0.00     0.040 A 
ATOM     51  C   UNL A   1      48.536  29.271  26.842  1.00  0.00     0.040 A 
ATOM     52  F   UNL A   1      46.579  30.386  26.183  1.00  0.00    -0.206 F 
ATOM     53  C   UNL A   1      49.282  28.609  27.814  1.00  0.00     0.006 A 
ENDBRANCH  32  46
BRANCH  33  54
ATOM     54  C   UNL A   1      37.303  32.227  30.492  1.00  0.00     0.057 A 
ATOM     55  C   UNL A   1      36.785  32.058  31.782  1.00  0.00     0.134 A 
ATOM     56  C   UNL A   1      36.459  32.785  29.525  1.00  0.00     0.134 A 
ATOM     57  F   UNL A   1      37.540  31.512  32.747  1.00  0.00    -0.206 F 
ATOM     58  C   UNL A   1      35.471  32.411  32.094  1.00  0.00     0.040 A 
ATOM     59  C   UNL A   1      35.151  33.167  29.830  1.00  0.00     0.040 A 
ATOM     60  F   UNL A   1      36.900  32.981  28.273  1.00  0.00    -0.206 F 
ATOM     61  C   UNL A   1      34.652  32.973  31.116  1.00  0.00     0.006 A 
ENDBRANCH  33  54
BRANCH  45  62
ATOM     62  C   UNL A   1      43.414  35.528  30.809  1.00  0.00     0.057 A 
ATOM     63  C   UNL A   1      43.499  36.574  29.881  1.00  0.00     0.134 A 
ATOM     64  C   UNL A   1      43.681  35.829  32.150  1.00  0.00     0.134 A 
ATOM     65  F   UNL A   1      43.270  36.350  28.578  1.00  0.00    -0.206 F 
ATOM     66  C   UNL A   1      43.871  37.863  30.268  1.00  0.00     0.040 A 
ATOM     67  C   UNL A   1      44.026  37.120  32.553  1.00  0.00     0.040 A 
ATOM     68  F   UNL A   1      43.608  34.876  33.091  1.00  0.00    -0.206 F 
ATOM     69  C   UNL A   1      44.132  38.140  31.609  1.00  0.00     0.006 A 
ENDBRANCH  45  62
ENDBRANCH  19  20
ENDBRANCH  11  14
ENDBRANCH   9  10
ENDBRANCH   8   9
ENDBRANCH   7   8
ENDBRANCH   5   7
ENDBRANCH   2   3
BRANCH   2  70
ATOM     70  C   UNL A   1      44.281  23.685  27.640  1.00  0.00    -0.033 A 
ATOM     71  C   UNL A   1      43.255  23.647  28.595  1.00  0.00     0.005 A 
ATOM     72  C   UNL A   1      45.509  24.257  27.998  1.00  0.00     0.044 A 
ATOM     73  C   UNL A   1      43.446  24.197  29.868  1.00  0.00     0.012 A 
ATOM     74  C   UNL A   1      45.694  24.788  29.266  1.00  0.00     0.131 A 
ATOM     75  C   UNL A   1      44.665  24.797  30.217  1.00  0.00     0.018 A 
ATOM     76  F   UNL A   1      46.888  25.333  29.551  1.00  0.00    -0.206 F 
BRANCH  75  77
ATOM     77  C   UNL A   1      44.828  25.513  31.488  1.00  0.00    -0.012 A 
ATOM     78  C   UNL A   1      45.841  25.202  32.407  1.00  0.00     0.009 A 
ATOM     79  C   UNL A   1      43.929  26.544  31.807  1.00  0.00     0.056 A 
ATOM     80  C   UNL A   1      45.954  25.911  33.607  1.00  0.00     0.004 A 
ATOM     81  C   UNL A   1      44.033  27.239  33.004  1.00  0.00     0.133 A 
ATOM     82  C   UNL A   1      45.049  26.931  33.907  1.00  0.00     0.047 A 
BRANCH  81  83
ATOM     83  O   UNL A   1      43.178  28.303  33.373  1.00  0.00    -0.410 OA
BRANCH  83  84
ATOM     84  C   UNL A   1      41.785  28.272  33.339  1.00  0.00     0.412 C 
ATOM     85  O   UNL A   1      41.071  28.322  32.346  1.00  0.00    -0.224 OA
ATOM     86  N   UNL A   1      41.222  28.150  34.579  1.00  0.00    -0.321 N 
ATOM     87  H   UNL A   1      40.244  28.240  34.640  1.00  0.00     0.167 HD
BRANCH  86  88
ATOM     88  C   UNL A   1      41.939  27.900  35.805  1.00  0.00     0.120 C 
BRANCH  88  89
ATOM     89  C   UNL A   1      41.714  26.509  36.396  1.00  0.00     0.026 C 
BRANCH  89  90
ATOM     90  C   UNL A   1      41.689  25.305  35.447  1.00  0.00     0.037 C 
BRANCH  90  91
ATOM     91  C   UNL A   1      42.879  24.377  35.346  1.00  0.00    -0.048 A 
ATOM     92  C   UNL A   1      43.053  23.407  34.356  1.00  0.00     0.004 A 
ATOM     93  C   UNL A   1      43.854  24.464  36.358  1.00  0.00     0.004 A 
ATOM     94  C   UNL A   1      44.158  22.549  34.375  1.00  0.00     0.000 A 
ATOM     95  C   UNL A   1      44.962  23.614  36.374  1.00  0.00     0.000 A 
ATOM     96  C   UNL A   1      45.112  22.652  35.382  1.00  0.00     0.000 A 
ENDBRANCH  90  91
ENDBRANCH  89  90
ENDBRANCH  88  89
ENDBRANCH  86  88
ENDBRANCH  83  84
ENDBRANCH  81  83
ENDBRANCH  75  77
ENDBRANCH   2  70
TORSDOF 18
ENDMDL
MODEL 2
REMARK VINA RESULT:      -9.8      3.464      9.116
REMARK SMILES C[C@@H](C(=O)NCCCNC(=O)c1ccc(-c2c3nc(c(-c4c(F)cccc4F)c4ccc([nH]4)c(-c4c(F)cccc4F)c4nc(c(-c5c(F)cccc5F)c5ccc2[nH]5)C=C4)C=C3)cc1)c1ccc(-c2cccc(OC(=O)NCCCc3ccccc3)c2)c(F)c1
REMARK SMILES IDX 1 1 2 2 3 3 4 4 5 5 6 7 7 8 8 9 9 10 10 11 11 13 12 14 13 15
REMARK SMILES IDX 65 16 14 17 64 18 15 19 16 20 17 21 58 22 18 23 63 24 57 25
REMARK SMILES IDX 59 26 19 27 62 28 56 29 55 30 20 32 46 33 29 34 45 35 30 36
REMARK SMILES IDX 33 37 44 38 60 39 31 40 32 41 43 43 61 44 34 45 21 46 22 47
REMARK SMILES IDX 27 48 23 49 24 50 26 51 28 52 25 53 47 54 48 55 53 56 49 57
REMARK SMILES IDX 50 58 52 59 54 60 51 61 35 62 36 63 41 64 37 65 38 66 40 67
REMARK SMILES IDX 42 68 39 69 66 70 67 71 91 72 68 73 89 74 69 75 90 76 70 77
REMARK SMILES IDX 71 78 88 79 72 80 74 81 73 82 75 83 76 84 77 85 78 86 79 88
REMARK SMILES IDX 80 89 81 90 82 91 83 92 87 93 84 94 86 95 85 96
REMARK H PARENT 5 6 9 12 59 31 33 42 78 87
REMARK Flexibility Score: inf
ROOT
ATOM      1  C   UNL A   1      43.041  23.665  35.051  1.00  0.00     0.023 C 
ATOM      2  C   UNL A   1      44.472  23.710  34.506  1.00  0.00     0.105 C 
ENDROOT
BRANCH   2   3
ATOM      3  C   UNL A   1      45.267  22.435  34.833  1.00  0.00     0.227 C 
ATOM      4  O   UNL A   1      44.802  21.296  34.751  1.00  0.00    -0.274 OA
ATOM      5  N   UNL A   1      46.573  22.520  35.211  1.00  0.00    -0.356 N 
ATOM      6  H   UNL A   1      47.029  21.653  35.314  1.00  0.00     0.163 HD
BRANCH   5   7
ATOM      7  C   UNL A   1      47.400  23.674  35.487  1.00  0.00     0.117 C 
BRANCH   7   8
ATOM      8  C   UNL A   1      48.017  24.240  34.211  1.00  0.00     0.042 C 
BRANCH   8   9
ATOM      9  C   UNL A   1      48.001  25.765  34.122  1.00  0.00     0.118 C 
BRANCH   9  10
ATOM     10  N   UNL A   1      48.264  26.403  35.400  1.00  0.00    -0.352 N 
ATOM     11  C   UNL A   1      47.645  27.459  36.016  1.00  0.00     0.251 C 
ATOM     12  H   UNL A   1      49.009  26.011  35.910  1.00  0.00     0.163 HD
ATOM     13  O   UNL A   1      48.161  27.954  37.014  1.00  0.00    -0.269 OA
BRANCH  11  14
ATOM     14  C   UNL A   1      46.380  28.023  35.491  1.00  0.00     0.039 A 
ATOM     15  C   UNL A   1      46.450  29.169  34.693  1.00  0.00     0.014 A 
ATOM     16  C   UNL A   1      45.133  27.480  35.816  1.00  0.00     0.014 A 
ATOM     17  C   UNL A   1      45.282  29.736  34.184  1.00  0.00     0.010 A 
ATOM     18  C   UNL A   1      43.972  28.004  35.245  1.00  0.00     0.010 A 
ATOM     19  C   UNL A   1      44.034  29.141  34.429  1.00  0.00    -0.014 A 
BRANCH  19  20
ATOM     20  C   UNL A   1      42.804  29.702  33.814  1.00  0.00     0.031 A 
ATOM     21  C   UNL A   1      42.068  30.846  34.457  1.00  0.00     0.074 A 
ATOM     22  C   UNL A   1      42.336  29.159  32.674  1.00  0.00     0.049 A 
ATOM     23  N   UNL A   1      41.002  31.480  34.038  1.00  0.00    -0.248 NA
ATOM     24  C   UNL A   1      42.583  31.326  35.749  1.00  0.00     0.031 C 
ATOM     25  C   UNL A   1      42.922  28.008  31.983  1.00  0.00     0.029 A 
ATOM     26  N   UNL A   1      41.265  29.507  31.889  1.00  0.00    -0.354 N 
ATOM     27  C   UNL A   1      40.719  32.431  35.011  1.00  0.00     0.074 A 
ATOM     28  C   UNL A   1      41.690  32.252  36.068  1.00  0.00     0.031 C 
ATOM     29  C   UNL A   1      42.227  27.768  30.861  1.00  0.00     0.029 A 
ATOM     30  C   UNL A   1      41.131  28.726  30.766  1.00  0.00     0.049 A 
ATOM     31  H   UNL A   1      40.651  30.244  32.109  1.00  0.00     0.167 HD
ATOM     32  C   UNL A   1      39.754  33.382  35.011  1.00  0.00     0.037 A 
ATOM     33  C   UNL A   1      40.230  28.780  29.767  1.00  0.00     0.037 A 
ATOM     34  C   UNL A   1      38.794  33.566  33.952  1.00  0.00     0.049 A 
ATOM     35  C   UNL A   1      39.176  29.850  29.788  1.00  0.00     0.074 A 
ATOM     36  C   UNL A   1      37.813  34.535  33.835  1.00  0.00     0.029 A 
ATOM     37  N   UNL A   1      38.693  32.759  32.828  1.00  0.00    -0.354 N 
ATOM     38  N   UNL A   1      38.970  30.792  30.675  1.00  0.00    -0.248 NA
ATOM     39  C   UNL A   1      38.236  29.871  28.658  1.00  0.00     0.031 C 
ATOM     40  C   UNL A   1      37.090  34.288  32.662  1.00  0.00     0.029 A 
ATOM     41  C   UNL A   1      37.652  33.195  32.025  1.00  0.00     0.049 A 
ATOM     42  H   UNL A   1      39.276  31.990  32.631  1.00  0.00     0.167 HD
ATOM     43  C   UNL A   1      37.890  31.527  30.205  1.00  0.00     0.074 A 
ATOM     44  C   UNL A   1      37.503  30.939  28.939  1.00  0.00     0.031 C 
ATOM     45  C   UNL A   1      37.270  32.592  30.772  1.00  0.00     0.037 A 
BRANCH  32  46
ATOM     46  C   UNL A   1      39.693  34.306  36.194  1.00  0.00     0.057 A 
ATOM     47  C   UNL A   1      38.981  33.973  37.354  1.00  0.00     0.134 A 
ATOM     48  C   UNL A   1      40.383  35.525  36.190  1.00  0.00     0.134 A 
ATOM     49  F   UNL A   1      38.288  32.826  37.420  1.00  0.00    -0.206 F 
ATOM     50  C   UNL A   1      38.936  34.828  38.456  1.00  0.00     0.040 A 
ATOM     51  C   UNL A   1      40.369  36.376  37.297  1.00  0.00     0.040 A 
ATOM     52  F   UNL A   1      41.092  35.904  35.115  1.00  0.00    -0.206 F 
ATOM     53  C   UNL A   1      39.638  36.031  38.432  1.00  0.00     0.006 A 
ENDBRANCH  32  46
BRANCH  33  54
ATOM     54  C   UNL A   1      40.306  27.808  28.648  1.00  0.00     0.057 A 
ATOM     55  C   UNL A   1      41.018  28.105  27.480  1.00  0.00     0.134 A 
ATOM     56  C   UNL A   1      39.669  26.564  28.718  1.00  0.00     0.134 A 
ATOM     57  F   UNL A   1      41.635  29.288  27.347  1.00  0.00    -0.206 F 
ATOM     58  C   UNL A   1      41.078  27.207  26.413  1.00  0.00     0.040 A 
ATOM     59  C   UNL A   1      39.743  25.646  27.668  1.00  0.00     0.040 A 
ATOM     60  F   UNL A   1      38.979  26.216  29.814  1.00  0.00    -0.206 F 
ATOM     61  C   UNL A   1      40.443  25.971  26.509  1.00  0.00     0.006 A 
ENDBRANCH  33  54
BRANCH  45  62
ATOM     62  C   UNL A   1      36.121  33.191  30.014  1.00  0.00     0.057 A 
ATOM     63  C   UNL A   1      34.791  32.931  30.367  1.00  0.00     0.134 A 
ATOM     64  C   UNL A   1      36.348  34.041  28.925  1.00  0.00     0.134 A 
ATOM     65  F   UNL A   1      34.505  32.114  31.392  1.00  0.00    -0.206 F 
ATOM     66  C   UNL A   1      33.726  33.467  29.641  1.00  0.00     0.040 A 
ATOM     67  C   UNL A   1      35.292  34.606  28.209  1.00  0.00     0.040 A 
ATOM     68  F   UNL A   1      37.597  34.339  28.540  1.00  0.00    -0.206 F 
ATOM     69  C   UNL A   1      33.975  34.311  28.560  1.00  0.00     0.006 A 
ENDBRANCH  45  62
ENDBRANCH  19  20
ENDBRANCH  11  14
ENDBRANCH   9  10
ENDBRANCH   8   9
ENDBRANCH   7   8
ENDBRANCH   5   7
ENDBRANCH   2   3
BRANCH   2  70
ATOM     70  C   UNL A   1      44.410  24.005  33.012  1.00  0.00    -0.033 A 
ATOM     71  C   UNL A   1      43.784  23.110  32.133  1.00  0.00     0.005 A 
ATOM     72  C   UNL A   1      45.040  25.137  32.480  1.00  0.00     0.044 A 
ATOM     73  C   UNL A   1      43.815  23.331  30.750  1.00  0.00     0.012 A 
ATOM     74  C   UNL A   1      45.054  25.356  31.111  1.00  0.00     0.131 A 
ATOM     75  C   UNL A   1      44.471  24.449  30.215  1.00  0.00     0.018 A 
ATOM     76  F   UNL A   1      45.682  26.453  30.656  1.00  0.00    -0.206 F 
BRANCH  75  77
ATOM     77  C   UNL A   1      44.645  24.612  28.767  1.00  0.00    -0.012 A 
ATOM     78  C   UNL A   1      44.009  25.627  28.037  1.00  0.00     0.009 A 
ATOM     79  C   UNL A   1      45.473  23.711  28.076  1.00  0.00     0.056 A 
ATOM     80  C   UNL A   1      44.204  25.739  26.658  1.00  0.00     0.004 A 
ATOM     81  C   UNL A   1      45.657  23.815  26.705  1.00  0.00     0.133 A 
ATOM     82  C   UNL A   1      45.028  24.833  25.989  1.00  0.00     0.047 A 
BRANCH  81  83
ATOM     83  O   UNL A   1      46.495  22.957  25.956  1.00  0.00    -0.410 OA
BRANCH  83  84
ATOM     84  C   UNL A   1      46.491  22.828  24.568  1.00  0.00     0.412 C 
ATOM     85  O   UNL A   1      46.824  23.672  23.748  1.00  0.00    -0.224 OA
ATOM     86  N   UNL A   1      46.079  21.593  24.148  1.00  0.00    -0.321 N 
ATOM     87  H   UNL A   1      45.940  21.470  23.182  1.00  0.00     0.167 HD
BRANCH  86  88
ATOM     88  C   UNL A   1      45.834  20.456  25.000  1.00  0.00     0.120 C 
BRANCH  88  89
ATOM     89  C   UNL A   1      44.724  19.526  24.510  1.00  0.00     0.026 C 
BRANCH  89  90
ATOM     90  C   UNL A   1      43.570  19.197  25.465  1.00  0.00     0.037 C 
BRANCH  90  91
ATOM     91  C   UNL A   1      42.729  20.300  26.068  1.00  0.00    -0.048 A 
ATOM     92  C   UNL A   1      42.885  21.661  25.796  1.00  0.00     0.004 A 
ATOM     93  C   UNL A   1      41.755  19.927  27.014  1.00  0.00     0.004 A 
ATOM     94  C   UNL A   1      42.101  22.621  26.447  1.00  0.00     0.000 A 
ATOM     95  C   UNL A   1      40.965  20.882  27.657  1.00  0.00     0.000 A 
ATOM     96  C   UNL A   1      41.142  22.231  27.376  1.00  0.00     0.000 A 
ENDBRANCH  90  91
ENDBRANCH  89  90
ENDBRANCH  88  89
ENDBRANCH  86  88
ENDBRANCH  83  84
ENDBRANCH  81  83
ENDBRANCH  75  77
ENDBRANCH   2  70
TORSDOF 18
ENDMDL
MODEL 3
REMARK VINA RESULT:      -9.8      2.942      7.265
REMARK SMILES C[C@@H](C(=O)NCCCNC(=O)c1ccc(-c2c3nc(c(-c4c(F)cccc4F)c4ccc([nH]4)c(-c4c(F)cccc4F)c4nc(c(-c5c(F)cccc5F)c5ccc2[nH]5)C=C4)C=C3)cc1)c1ccc(-c2cccc(OC(=O)NCCCc3ccccc3)c2)c(F)c1
REMARK SMILES IDX 1 1 2 2 3 3 4 4 5 5 6 7 7 8 8 9 9 10 10 11 11 13 12 14 13 15
REMARK SMILES IDX 65 16 14 17 64 18 15 19 16 20 17 21 58 22 18 23 63 24 57 25
REMARK SMILES IDX 59 26 19 27 62 28 56 29 55 30 20 32 46 33 29 34 45 35 30 36
REMARK SMILES IDX 33 37 44 38 60 39 31 40 32 41 43 43 61 44 34 45 21 46 22 47
REMARK SMILES IDX 27 48 23 49 24 50 26 51 28 52 25 53 47 54 48 55 53 56 49 57
REMARK SMILES IDX 50 58 52 59 54 60 51 61 35 62 36 63 41 64 37 65 38 66 40 67
REMARK SMILES IDX 42 68 39 69 66 70 67 71 91 72 68 73 89 74 69 75 90 76 70 77
REMARK SMILES IDX 71 78 88 79 72 80 74 81 73 82 75 83 76 84 77 85 78 86 79 88
REMARK SMILES IDX 80 89 81 90 82 91 83 92 87 93 84 94 86 95 85 96
REMARK H PARENT 5 6 9 12 59 31 33 42 78 87
REMARK Flexibility Score: inf
ROOT
ATOM      1  C   UNL A   1      43.180  24.956  28.745  1.00  0.00     0.023 C 
ATOM      2  C   UNL A   1      42.204  25.283  27.611  1.00  0.00     0.105 C 
ENDROOT
BRANCH   2   3
ATOM      3  C   UNL A   1      41.668  24.021  26.911  1.00  0.00     0.227 C 
ATOM      4  O   UNL A   1      40.749  23.330  27.353  1.00  0.00    -0.274 OA
ATOM      5  N   UNL A   1      42.193  23.625  25.718  1.00  0.00    -0.356 N 
ATOM      6  H   UNL A   1      41.733  22.861  25.300  1.00  0.00     0.163 HD
BRANCH   5   7
ATOM      7  C   UNL A   1      43.316  24.140  24.965  1.00  0.00     0.117 C 
BRANCH   7   8
ATOM      8  C   UNL A   1      44.591  23.350  25.249  1.00  0.00     0.042 C 
BRANCH   8   9
ATOM      9  C   UNL A   1      45.695  24.154  25.934  1.00  0.00     0.118 C 
BRANCH   9  10
ATOM     10  N   UNL A   1      46.352  25.083  25.030  1.00  0.00    -0.352 N 
ATOM     11  C   UNL A   1      46.350  26.453  25.001  1.00  0.00     0.251 C 
ATOM     12  H   UNL A   1      46.889  24.659  24.322  1.00  0.00     0.163 HD
ATOM     13  O   UNL A   1      46.824  27.030  24.025  1.00  0.00    -0.269 OA
BRANCH  11  14
ATOM     14  C   UNL A   1      45.775  27.247  26.111  1.00  0.00     0.039 A 
ATOM     15  C   UNL A   1      46.607  27.576  27.185  1.00  0.00     0.014 A 
ATOM     16  C   UNL A   1      44.429  27.623  26.136  1.00  0.00     0.014 A 
ATOM     17  C   UNL A   1      46.104  28.317  28.255  1.00  0.00     0.010 A 
ATOM     18  C   UNL A   1      43.947  28.428  27.169  1.00  0.00     0.010 A 
ATOM     19  C   UNL A   1      44.777  28.777  28.242  1.00  0.00    -0.014 A 
BRANCH  19  20
ATOM     20  C   UNL A   1      44.273  29.637  29.343  1.00  0.00     0.031 A 
ATOM     21  C   UNL A   1      43.923  29.053  30.684  1.00  0.00     0.074 A 
ATOM     22  C   UNL A   1      44.112  30.956  29.123  1.00  0.00     0.049 A 
ATOM     23  N   UNL A   1      43.505  29.663  31.766  1.00  0.00    -0.248 NA
ATOM     24  C   UNL A   1      44.034  27.593  30.824  1.00  0.00     0.031 C 
ATOM     25  C   UNL A   1      44.359  31.636  27.849  1.00  0.00     0.029 A 
ATOM     26  N   UNL A   1      43.712  31.964  29.964  1.00  0.00    -0.354 N 
ATOM     27  C   UNL A   1      43.304  28.665  32.711  1.00  0.00     0.074 A 
ATOM     28  C   UNL A   1      43.590  27.405  32.059  1.00  0.00     0.031 C 
ATOM     29  C   UNL A   1      44.139  32.951  28.002  1.00  0.00     0.029 A 
ATOM     30  C   UNL A   1      43.710  33.205  29.373  1.00  0.00     0.049 A 
ATOM     31  H   UNL A   1      43.451  31.813  30.901  1.00  0.00     0.167 HD
ATOM     32  C   UNL A   1      42.940  28.789  34.010  1.00  0.00     0.037 A 
ATOM     33  C   UNL A   1      43.404  34.413  29.881  1.00  0.00     0.037 A 
ATOM     34  C   UNL A   1      42.667  30.044  34.661  1.00  0.00     0.049 A 
ATOM     35  C   UNL A   1      43.011  34.523  31.327  1.00  0.00     0.074 A 
ATOM     36  C   UNL A   1      42.344  30.277  35.986  1.00  0.00     0.029 A 
ATOM     37  N   UNL A   1      42.680  31.280  34.032  1.00  0.00    -0.354 N 
ATOM     38  N   UNL A   1      42.903  33.578  32.229  1.00  0.00    -0.248 NA
ATOM     39  C   UNL A   1      42.711  35.872  31.827  1.00  0.00     0.031 C 
ATOM     40  C   UNL A   1      42.119  31.649  36.149  1.00  0.00     0.029 A 
ATOM     41  C   UNL A   1      42.349  32.276  34.937  1.00  0.00     0.049 A 
ATOM     42  H   UNL A   1      42.894  31.427  33.081  1.00  0.00     0.167 HD
ATOM     43  C   UNL A   1      42.539  34.218  33.406  1.00  0.00     0.074 A 
ATOM     44  C   UNL A   1      42.473  35.635  33.109  1.00  0.00     0.031 C 
ATOM     45  C   UNL A   1      42.277  33.681  34.624  1.00  0.00     0.037 A 
BRANCH  32  46
ATOM     46  C   UNL A   1      42.824  27.528  34.819  1.00  0.00     0.057 A 
ATOM     47  C   UNL A   1      41.682  26.717  34.760  1.00  0.00     0.134 A 
ATOM     48  C   UNL A   1      43.876  27.099  35.637  1.00  0.00     0.134 A 
ATOM     49  F   UNL A   1      40.632  27.075  34.006  1.00  0.00    -0.206 F 
ATOM     50  C   UNL A   1      41.582  25.540  35.503  1.00  0.00     0.040 A 
ATOM     51  C   UNL A   1      43.799  25.909  36.365  1.00  0.00     0.040 A 
ATOM     52  F   UNL A   1      45.002  27.823  35.735  1.00  0.00    -0.206 F 
ATOM     53  C   UNL A   1      42.646  25.130  36.304  1.00  0.00     0.006 A 
ENDBRANCH  32  46
BRANCH  33  54
ATOM     54  C   UNL A   1      43.486  35.620  29.021  1.00  0.00     0.057 A 
ATOM     55  C   UNL A   1      42.396  36.030  28.244  1.00  0.00     0.134 A 
ATOM     56  C   UNL A   1      44.652  36.389  28.953  1.00  0.00     0.134 A 
ATOM     57  F   UNL A   1      41.256  35.323  28.253  1.00  0.00    -0.206 F 
ATOM     58  C   UNL A   1      42.469  37.150  27.415  1.00  0.00     0.040 A 
ATOM     59  C   UNL A   1      44.731  37.528  28.149  1.00  0.00     0.040 A 
ATOM     60  F   UNL A   1      45.728  36.054  29.681  1.00  0.00    -0.206 F 
ATOM     61  C   UNL A   1      43.639  37.906  27.371  1.00  0.00     0.006 A 
ENDBRANCH  33  54
BRANCH  45  62
ATOM     62  C   UNL A   1      41.912  34.637  35.722  1.00  0.00     0.057 A 
ATOM     63  C   UNL A   1      40.588  35.042  35.937  1.00  0.00     0.134 A 
ATOM     64  C   UNL A   1      42.893  35.153  36.578  1.00  0.00     0.134 A 
ATOM     65  F   UNL A   1      39.602  34.596  35.143  1.00  0.00    -0.206 F 
ATOM     66  C   UNL A   1      40.258  35.953  36.942  1.00  0.00     0.040 A 
ATOM     67  C   UNL A   1      42.571  36.042  37.604  1.00  0.00     0.040 A 
ATOM     68  F   UNL A   1      44.178  34.799  36.434  1.00  0.00    -0.206 F 
ATOM     69  C   UNL A   1      41.251  36.453  37.782  1.00  0.00     0.006 A 
ENDBRANCH  45  62
ENDBRANCH  19  20
ENDBRANCH  11  14
ENDBRANCH   9  10
ENDBRANCH   8   9
ENDBRANCH   7   8
ENDBRANCH   5   7
ENDBRANCH   2   3
BRANCH   2  70
ATOM     70  C   UNL A   1      41.095  26.167  28.169  1.00  0.00    -0.033 A 
ATOM     71  C   UNL A   1      39.917  26.381  27.441  1.00  0.00     0.005 A 
ATOM     72  C   UNL A   1      41.263  26.842  29.385  1.00  0.00     0.044 A 
ATOM     73  C   UNL A   1      38.942  27.273  27.906  1.00  0.00     0.012 A 
ATOM     74  C   UNL A   1      40.288  27.714  29.846  1.00  0.00     0.131 A 
ATOM     75  C   UNL A   1      39.124  27.971  29.110  1.00  0.00     0.018 A 
ATOM     76  F   UNL A   1      40.507  28.341  31.014  1.00  0.00    -0.206 F 
BRANCH  75  77
ATOM     77  C   UNL A   1      38.188  29.020  29.532  1.00  0.00    -0.012 A 
ATOM     78  C   UNL A   1      37.392  28.907  30.681  1.00  0.00     0.009 A 
ATOM     79  C   UNL A   1      38.073  30.183  28.751  1.00  0.00     0.056 A 
ATOM     80  C   UNL A   1      36.513  29.933  31.041  1.00  0.00     0.004 A 
ATOM     81  C   UNL A   1      37.191  31.195  29.102  1.00  0.00     0.133 A 
ATOM     82  C   UNL A   1      36.411  31.079  30.251  1.00  0.00     0.047 A 
BRANCH  81  83
ATOM     83  O   UNL A   1      37.047  32.399  28.374  1.00  0.00    -0.410 OA
BRANCH  83  84
ATOM     84  C   UNL A   1      36.278  33.495  28.763  1.00  0.00     0.412 C 
ATOM     85  O   UNL A   1      35.057  33.557  28.813  1.00  0.00    -0.224 OA
ATOM     86  N   UNL A   1      37.033  34.572  29.136  1.00  0.00    -0.321 N 
ATOM     87  H   UNL A   1      36.557  35.416  29.309  1.00  0.00     0.167 HD
BRANCH  86  88
ATOM     88  C   UNL A   1      38.466  34.577  29.297  1.00  0.00     0.120 C 
BRANCH  88  89
ATOM     89  C   UNL A   1      38.941  34.359  30.733  1.00  0.00     0.026 C 
BRANCH  89  90
ATOM     90  C   UNL A   1      39.648  33.043  31.079  1.00  0.00     0.037 C 
BRANCH  90  91
ATOM     91  C   UNL A   1      39.199  32.212  32.260  1.00  0.00    -0.048 A 
ATOM     92  C   UNL A   1      39.734  30.970  32.611  1.00  0.00     0.004 A 
ATOM     93  C   UNL A   1      38.125  32.705  33.026  1.00  0.00     0.004 A 
ATOM     94  C   UNL A   1      39.214  30.241  33.687  1.00  0.00     0.000 A 
ATOM     95  C   UNL A   1      37.612  31.983  34.105  1.00  0.00     0.000 A 
ATOM     96  C   UNL A   1      38.155  30.746  34.434  1.00  0.00     0.000 A 
ENDBRANCH  90  91
ENDBRANCH  89  90
ENDBRANCH  88  89
ENDBRANCH  86  88
ENDBRANCH  83  84
ENDBRANCH  81  83
ENDBRANCH  75  77
ENDBRANCH   2  70
TORSDOF 18
ENDMDL
