MODEL 1
REMARK VINA RESULT:     -11.6      0.000      0.000
REMARK SMILES C[C@@H]1[C@H](C(=O)NCCCNC(=O)c2ccc(-c3c4nc(c(-c5c(F)cccc5F)c5ccc([nH]5)c(-c5c(F)cccc5F)c5nc(c(-c6c(F)cccc6F)c6ccc3[nH]6)C=C5)C=C4)cc2)CC[N@@H+]1Cc1ccc2c(c1)CCN2C
REMARK SMILES IDX 8 1 7 2 6 3 4 4 5 5 3 7 1 8 2 9 69 10 67 11 68 12 70 14
REMARK SMILES IDX 71 15 72 16 76 17 73 18 75 19 74 20 77 21 79 22 78 23 80 24
REMARK SMILES IDX 9 25 10 26 11 27 12 29 13 30 14 31 66 32 15 33 65 34 16 35
REMARK SMILES IDX 17 36 18 37 59 38 19 39 64 40 58 41 60 42 20 43 63 44 57 45
REMARK SMILES IDX 56 46 21 48 47 49 30 50 46 51 31 52 34 53 45 54 61 55 32 56
REMARK SMILES IDX 33 57 44 59 62 60 35 61 22 62 23 63 28 64 24 65 25 66 27 67
REMARK SMILES IDX 29 68 26 69 48 70 49 71 54 72 50 73 51 74 53 75 55 76 52 77
REMARK SMILES IDX 36 78 37 79 42 80 38 81 39 82 41 83 43 84 40 85
REMARK H PARENT 6 6 69 13 10 28 60 47 34 58
REMARK Flexibility Score: inf
ROOT
ATOM      1  C   UNL A   1      37.752  19.552  24.732  1.00  0.00     0.042 C 
ENDROOT
BRANCH   1   2
ATOM      2  C   UNL A   1      36.336  20.054  25.009  1.00  0.00     0.117 C 
BRANCH   2   3
ATOM      3  N   UNL A   1      36.321  21.481  25.267  1.00  0.00    -0.356 N 
ATOM      4  C   UNL A   1      35.352  22.416  25.134  1.00  0.00     0.229 C 
ATOM      5  O   UNL A   1      35.707  23.587  25.321  1.00  0.00    -0.275 OA
ATOM      6  H   UNL A   1      37.176  21.836  25.600  1.00  0.00     0.163 HD
BRANCH   4   7
ATOM      7  C   UNL A   1      33.894  22.123  24.819  1.00  0.00     0.142 C 
ATOM      8  C   UNL A   1      33.236  22.272  27.366  1.00  0.00     0.076 C 
ATOM      9  C   UNL A   1      32.839  21.975  25.933  1.00  0.00     0.193 C 
ATOM     10  N   UNL A   1      31.616  22.596  25.399  1.00  0.00    -0.328 N 
ATOM     11  C   UNL A   1      33.242  22.993  23.752  1.00  0.00     0.081 C 
ATOM     12  C   UNL A   1      31.763  22.703  23.955  1.00  0.00     0.263 C 
ATOM     13  H   UNL A   1      30.866  21.954  25.653  1.00  0.00     0.348 HD
BRANCH  10  14
ATOM     14  C   UNL A   1      30.886  23.647  26.106  1.00  0.00     0.299 C 
BRANCH  14  15
ATOM     15  C   UNL A   1      31.223  25.106  25.848  1.00  0.00     0.007 A 
ATOM     16  C   UNL A   1      30.353  25.915  25.077  1.00  0.00     0.012 A 
ATOM     17  C   UNL A   1      32.437  25.667  26.272  1.00  0.00     0.015 A 
ATOM     18  C   UNL A   1      30.654  27.256  24.783  1.00  0.00     0.026 A 
ATOM     19  C   UNL A   1      32.716  26.992  25.977  1.00  0.00    -0.022 A 
ATOM     20  C   UNL A   1      31.840  27.791  25.245  1.00  0.00     0.040 A 
ATOM     21  C   UNL A   1      33.877  27.817  26.425  1.00  0.00     0.059 C 
ATOM     22  N   UNL A   1      32.331  29.089  25.063  1.00  0.00    -0.374 N 
ATOM     23  C   UNL A   1      33.742  29.019  25.476  1.00  0.00     0.121 C 
ATOM     24  C   UNL A   1      31.507  30.205  25.489  1.00  0.00     0.143 C 
ENDBRANCH  14  15
ENDBRANCH  10  14
ENDBRANCH   4   7
ENDBRANCH   2   3
ENDBRANCH   1   2
BRANCH   1  25
ATOM     25  C   UNL A   1      38.820  20.131  25.647  1.00  0.00     0.118 C 
BRANCH  25  26
ATOM     26  N   UNL A   1      39.996  19.282  25.737  1.00  0.00    -0.352 N 
ATOM     27  C   UNL A   1      41.301  19.574  26.053  1.00  0.00     0.251 C 
ATOM     28  H   UNL A   1      39.827  18.333  25.536  1.00  0.00     0.163 HD
ATOM     29  O   UNL A   1      42.162  18.725  25.829  1.00  0.00    -0.269 OA
BRANCH  27  30
ATOM     30  C   UNL A   1      41.703  20.885  26.625  1.00  0.00     0.039 A 
ATOM     31  C   UNL A   1      42.061  21.914  25.745  1.00  0.00     0.014 A 
ATOM     32  C   UNL A   1      41.805  21.109  28.000  1.00  0.00     0.014 A 
ATOM     33  C   UNL A   1      42.456  23.164  26.238  1.00  0.00     0.010 A 
ATOM     34  C   UNL A   1      42.098  22.383  28.491  1.00  0.00     0.010 A 
ATOM     35  C   UNL A   1      42.446  23.423  27.617  1.00  0.00    -0.014 A 
BRANCH  35  36
ATOM     36  C   UNL A   1      42.821  24.756  28.165  1.00  0.00     0.031 A 
ATOM     37  C   UNL A   1      41.766  25.808  28.395  1.00  0.00     0.074 A 
ATOM     38  C   UNL A   1      44.114  25.049  28.404  1.00  0.00     0.049 A 
ATOM     39  N   UNL A   1      41.906  27.055  28.774  1.00  0.00    -0.248 NA
ATOM     40  C   UNL A   1      40.371  25.417  28.136  1.00  0.00     0.031 C 
ATOM     41  C   UNL A   1      45.244  24.144  28.188  1.00  0.00     0.029 A 
ATOM     42  N   UNL A   1      44.699  26.200  28.874  1.00  0.00    -0.354 N 
ATOM     43  C   UNL A   1      40.627  27.600  28.769  1.00  0.00     0.074 A 
ATOM     44  C   UNL A   1      39.730  26.564  28.305  1.00  0.00     0.031 C 
ATOM     45  C   UNL A   1      46.380  24.762  28.550  1.00  0.00     0.029 A 
ATOM     46  C   UNL A   1      46.066  26.119  28.985  1.00  0.00     0.049 A 
ATOM     47  H   UNL A   1      44.186  27.007  29.110  1.00  0.00     0.167 HD
ATOM     48  C   UNL A   1      40.229  28.840  29.140  1.00  0.00     0.037 A 
ATOM     49  C   UNL A   1      46.968  27.037  29.385  1.00  0.00     0.037 A 
ATOM     50  C   UNL A   1      41.109  29.860  29.648  1.00  0.00     0.049 A 
ATOM     51  C   UNL A   1      46.501  28.401  29.806  1.00  0.00     0.074 A 
ATOM     52  C   UNL A   1      40.789  31.125  30.111  1.00  0.00     0.029 A 
ATOM     53  N   UNL A   1      42.483  29.725  29.768  1.00  0.00    -0.354 N 
ATOM     54  N   UNL A   1      45.282  28.883  29.842  1.00  0.00    -0.248 NA
ATOM     55  C   UNL A   1      47.535  29.350  30.246  1.00  0.00     0.031 C 
ATOM     56  C   UNL A   1      41.974  31.769  30.481  1.00  0.00     0.029 A 
ATOM     57  C   UNL A   1      43.027  30.890  30.285  1.00  0.00     0.049 A 
ATOM     58  H   UNL A   1      42.998  28.922  29.523  1.00  0.00     0.167 HD
ATOM     59  C   UNL A   1      45.400  30.177  30.332  1.00  0.00     0.074 A 
ATOM     60  C   UNL A   1      46.806  30.402  30.589  1.00  0.00     0.031 C 
ATOM     61  C   UNL A   1      44.428  31.097  30.548  1.00  0.00     0.037 A 
BRANCH  48  62
ATOM     62  C   UNL A   1      38.767  29.162  29.020  1.00  0.00     0.057 A 
ATOM     63  C   UNL A   1      37.904  29.094  30.121  1.00  0.00     0.134 A 
ATOM     64  C   UNL A   1      38.223  29.576  27.798  1.00  0.00     0.134 A 
ATOM     65  F   UNL A   1      38.360  28.694  31.318  1.00  0.00    -0.206 F 
ATOM     66  C   UNL A   1      36.546  29.399  30.005  1.00  0.00     0.040 A 
ATOM     67  C   UNL A   1      36.874  29.909  27.675  1.00  0.00     0.040 A 
ATOM     68  F   UNL A   1      38.995  29.670  26.704  1.00  0.00    -0.206 F 
ATOM     69  C   UNL A   1      36.029  29.814  28.779  1.00  0.00     0.006 A 
ENDBRANCH  48  62
BRANCH  49  70
ATOM     70  C   UNL A   1      48.409  26.686  29.435  1.00  0.00     0.057 A 
ATOM     71  C   UNL A   1      49.240  26.908  28.330  1.00  0.00     0.134 A 
ATOM     72  C   UNL A   1      48.988  26.119  30.575  1.00  0.00     0.134 A 
ATOM     73  F   UNL A   1      48.738  27.430  27.202  1.00  0.00    -0.206 F 
ATOM     74  C   UNL A   1      50.593  26.563  28.352  1.00  0.00     0.040 A 
ATOM     75  C   UNL A   1      50.344  25.791  30.619  1.00  0.00     0.040 A 
ATOM     76  F   UNL A   1      48.246  25.887  31.668  1.00  0.00    -0.206 F 
ATOM     77  C   UNL A   1      51.148  26.006  29.502  1.00  0.00     0.006 A 
ENDBRANCH  49  70
BRANCH  61  78
ATOM     78  C   UNL A   1      44.847  32.416  31.124  1.00  0.00     0.057 A 
ATOM     79  C   UNL A   1      45.173  33.507  30.309  1.00  0.00     0.134 A 
ATOM     80  C   UNL A   1      44.886  32.608  32.510  1.00  0.00     0.134 A 
ATOM     81  F   UNL A   1      45.167  33.384  28.973  1.00  0.00    -0.206 F 
ATOM     82  C   UNL A   1      45.542  34.738  30.854  1.00  0.00     0.040 A 
ATOM     83  C   UNL A   1      45.232  33.839  33.067  1.00  0.00     0.040 A 
ATOM     84  F   UNL A   1      44.577  31.604  33.346  1.00  0.00    -0.206 F 
ATOM     85  C   UNL A   1      45.566  34.907  32.237  1.00  0.00     0.006 A 
ENDBRANCH  61  78
ENDBRANCH  35  36
ENDBRANCH  27  30
ENDBRANCH  25  26
ENDBRANCH   1  25
TORSDOF 12
ENDMDL
MODEL 2
REMARK VINA RESULT:     -11.6      4.148      9.665
REMARK SMILES C[C@@H]1[C@H](C(=O)NCCCNC(=O)c2ccc(-c3c4nc(c(-c5c(F)cccc5F)c5ccc([nH]5)c(-c5c(F)cccc5F)c5nc(c(-c6c(F)cccc6F)c6ccc3[nH]6)C=C5)C=C4)cc2)CC[N@@H+]1Cc1ccc2c(c1)CCN2C
REMARK SMILES IDX 8 1 7 2 6 3 4 4 5 5 3 7 1 8 2 9 69 10 67 11 68 12 70 14
REMARK SMILES IDX 71 15 72 16 76 17 73 18 75 19 74 20 77 21 79 22 78 23 80 24
REMARK SMILES IDX 9 25 10 26 11 27 12 29 13 30 14 31 66 32 15 33 65 34 16 35
REMARK SMILES IDX 17 36 18 37 59 38 19 39 64 40 58 41 60 42 20 43 63 44 57 45
REMARK SMILES IDX 56 46 21 48 47 49 30 50 46 51 31 52 34 53 45 54 61 55 32 56
REMARK SMILES IDX 33 57 44 59 62 60 35 61 22 62 23 63 28 64 24 65 25 66 27 67
REMARK SMILES IDX 29 68 26 69 48 70 49 71 54 72 50 73 51 74 53 75 55 76 52 77
REMARK SMILES IDX 36 78 37 79 42 80 38 81 39 82 41 83 43 84 40 85
REMARK H PARENT 6 6 69 13 10 28 60 47 34 58
REMARK Flexibility Score: inf
ROOT
ATOM      1  C   UNL A   1      33.889  34.208  28.013  1.00  0.00     0.042 C 
ENDROOT
BRANCH   1   2
ATOM      2  C   UNL A   1      33.820  34.936  29.354  1.00  0.00     0.117 C 
BRANCH   2   3
ATOM      3  N   UNL A   1      33.658  34.007  30.455  1.00  0.00    -0.356 N 
ATOM      4  C   UNL A   1      34.502  33.599  31.430  1.00  0.00     0.229 C 
ATOM      5  O   UNL A   1      34.087  32.684  32.152  1.00  0.00    -0.275 OA
ATOM      6  H   UNL A   1      32.765  33.594  30.502  1.00  0.00     0.163 HD
BRANCH   4   7
ATOM      7  C   UNL A   1      35.869  34.204  31.708  1.00  0.00     0.142 C 
ATOM      8  C   UNL A   1      35.354  34.370  34.288  1.00  0.00     0.076 C 
ATOM      9  C   UNL A   1      36.279  34.662  33.122  1.00  0.00     0.193 C 
ATOM     10  N   UNL A   1      37.703  34.310  33.250  1.00  0.00    -0.328 N 
ATOM     11  C   UNL A   1      37.071  33.445  31.160  1.00  0.00     0.081 C 
ATOM     12  C   UNL A   1      38.229  34.083  31.912  1.00  0.00     0.263 C 
ATOM     13  H   UNL A   1      38.134  35.124  33.688  1.00  0.00     0.348 HD
BRANCH  10  14
ATOM     14  C   UNL A   1      38.225  33.504  34.351  1.00  0.00     0.299 C 
BRANCH  14  15
ATOM     15  C   UNL A   1      38.860  32.153  34.065  1.00  0.00     0.007 A 
ATOM     16  C   UNL A   1      40.264  31.990  34.151  1.00  0.00     0.012 A 
ATOM     17  C   UNL A   1      38.098  31.064  33.614  1.00  0.00     0.015 A 
ATOM     18  C   UNL A   1      40.888  30.766  33.851  1.00  0.00     0.026 A 
ATOM     19  C   UNL A   1      38.729  29.863  33.327  1.00  0.00    -0.022 A 
ATOM     20  C   UNL A   1      40.108  29.701  33.445  1.00  0.00     0.040 A 
ATOM     21  C   UNL A   1      38.110  28.557  32.954  1.00  0.00     0.059 C 
ATOM     22  N   UNL A   1      40.523  28.410  33.097  1.00  0.00    -0.374 N 
ATOM     23  C   UNL A   1      39.350  27.800  32.450  1.00  0.00     0.121 C 
ATOM     24  C   UNL A   1      41.295  27.650  34.062  1.00  0.00     0.143 C 
ENDBRANCH  14  15
ENDBRANCH  10  14
ENDBRANCH   4   7
ENDBRANCH   2   3
ENDBRANCH   1   2
BRANCH   1  25
ATOM     25  C   UNL A   1      34.809  32.997  27.998  1.00  0.00     0.118 C 
BRANCH  25  26
ATOM     26  N   UNL A   1      34.078  31.744  27.907  1.00  0.00    -0.352 N 
ATOM     27  C   UNL A   1      34.515  30.443  27.844  1.00  0.00     0.251 C 
ATOM     28  H   UNL A   1      33.098  31.846  27.887  1.00  0.00     0.163 HD
ATOM     29  O   UNL A   1      33.710  29.568  27.530  1.00  0.00    -0.269 OA
BRANCH  27  30
ATOM     30  C   UNL A   1      35.928  30.068  28.112  1.00  0.00     0.039 A 
ATOM     31  C   UNL A   1      36.272  29.650  29.404  1.00  0.00     0.014 A 
ATOM     32  C   UNL A   1      36.934  30.183  27.151  1.00  0.00     0.014 A 
ATOM     33  C   UNL A   1      37.592  29.296  29.708  1.00  0.00     0.010 A 
ATOM     34  C   UNL A   1      38.228  29.733  27.423  1.00  0.00     0.010 A 
ATOM     35  C   UNL A   1      38.579  29.300  28.710  1.00  0.00    -0.014 A 
BRANCH  35  36
ATOM     36  C   UNL A   1      39.982  28.889  28.995  1.00  0.00     0.031 A 
ATOM     37  C   UNL A   1      40.930  29.840  29.680  1.00  0.00     0.074 A 
ATOM     38  C   UNL A   1      40.428  27.684  28.590  1.00  0.00     0.049 A 
ATOM     39  N   UNL A   1      42.208  29.701  29.929  1.00  0.00    -0.248 NA
ATOM     40  C   UNL A   1      40.374  31.130  30.117  1.00  0.00     0.031 C 
ATOM     41  C   UNL A   1      39.635  26.679  27.879  1.00  0.00     0.029 A 
ATOM     42  N   UNL A   1      41.666  27.101  28.710  1.00  0.00    -0.354 N 
ATOM     43  C   UNL A   1      42.612  30.893  30.520  1.00  0.00     0.074 A 
ATOM     44  C   UNL A   1      41.455  31.761  30.552  1.00  0.00     0.031 C 
ATOM     45  C   UNL A   1      40.396  25.597  27.651  1.00  0.00     0.029 A 
ATOM     46  C   UNL A   1      41.741  25.844  28.162  1.00  0.00     0.049 A 
ATOM     47  H   UNL A   1      42.430  27.544  29.147  1.00  0.00     0.167 HD
ATOM     48  C   UNL A   1      43.827  31.228  31.017  1.00  0.00     0.037 A 
ATOM     49  C   UNL A   1      42.776  24.986  28.074  1.00  0.00     0.037 A 
ATOM     50  C   UNL A   1      44.970  30.353  31.032  1.00  0.00     0.049 A 
ATOM     51  C   UNL A   1      44.111  25.375  28.645  1.00  0.00     0.074 A 
ATOM     52  C   UNL A   1      46.224  30.580  31.572  1.00  0.00     0.029 A 
ATOM     53  N   UNL A   1      44.992  29.077  30.490  1.00  0.00    -0.354 N 
ATOM     54  N   UNL A   1      44.461  26.486  29.245  1.00  0.00    -0.248 NA
ATOM     55  C   UNL A   1      45.194  24.387  28.528  1.00  0.00     0.031 C 
ATOM     56  C   UNL A   1      47.017  29.454  31.328  1.00  0.00     0.029 A 
ATOM     57  C   UNL A   1      46.244  28.510  30.671  1.00  0.00     0.049 A 
ATOM     58  H   UNL A   1      44.233  28.638  30.043  1.00  0.00     0.167 HD
ATOM     59  C   UNL A   1      45.794  26.321  29.601  1.00  0.00     0.074 A 
ATOM     60  C   UNL A   1      46.186  25.000  29.160  1.00  0.00     0.031 C 
ATOM     61  C   UNL A   1      46.618  27.189  30.237  1.00  0.00     0.037 A 
BRANCH  48  62
ATOM     62  C   UNL A   1      43.981  32.604  31.597  1.00  0.00     0.057 A 
ATOM     63  C   UNL A   1      43.961  32.829  32.979  1.00  0.00     0.134 A 
ATOM     64  C   UNL A   1      44.184  33.713  30.766  1.00  0.00     0.134 A 
ATOM     65  F   UNL A   1      43.760  31.810  33.830  1.00  0.00    -0.206 F 
ATOM     66  C   UNL A   1      44.110  34.110  33.514  1.00  0.00     0.040 A 
ATOM     67  C   UNL A   1      44.361  34.995  31.289  1.00  0.00     0.040 A 
ATOM     68  F   UNL A   1      44.222  33.569  29.432  1.00  0.00    -0.206 F 
ATOM     69  C   UNL A   1      44.316  35.197  32.667  1.00  0.00     0.006 A 
ENDBRANCH  48  62
BRANCH  49  70
ATOM     70  C   UNL A   1      42.586  23.657  27.442  1.00  0.00     0.057 A 
ATOM     71  C   UNL A   1      42.265  22.534  28.213  1.00  0.00     0.134 A 
ATOM     72  C   UNL A   1      42.725  23.474  26.061  1.00  0.00     0.134 A 
ATOM     73  F   UNL A   1      42.138  22.644  29.543  1.00  0.00    -0.206 F 
ATOM     74  C   UNL A   1      42.105  21.272  27.637  1.00  0.00     0.040 A 
ATOM     75  C   UNL A   1      42.546  22.224  25.469  1.00  0.00     0.040 A 
ATOM     76  F   UNL A   1      43.027  24.513  25.267  1.00  0.00    -0.206 F 
ATOM     77  C   UNL A   1      42.241  21.117  26.259  1.00  0.00     0.006 A 
ENDBRANCH  49  70
BRANCH  61  78
ATOM     78  C   UNL A   1      48.013  26.724  30.526  1.00  0.00     0.057 A 
ATOM     79  C   UNL A   1      48.322  25.981  31.671  1.00  0.00     0.134 A 
ATOM     80  C   UNL A   1      49.052  26.989  29.624  1.00  0.00     0.134 A 
ATOM     81  F   UNL A   1      47.374  25.705  32.579  1.00  0.00    -0.206 F 
ATOM     82  C   UNL A   1      49.621  25.534  31.921  1.00  0.00     0.040 A 
ATOM     83  C   UNL A   1      50.349  26.530  29.852  1.00  0.00     0.040 A 
ATOM     84  F   UNL A   1      48.820  27.690  28.504  1.00  0.00    -0.206 F 
ATOM     85  C   UNL A   1      50.637  25.804  31.005  1.00  0.00     0.006 A 
ENDBRANCH  61  78
ENDBRANCH  35  36
ENDBRANCH  27  30
ENDBRANCH  25  26
ENDBRANCH   1  25
TORSDOF 12
ENDMDL
MODEL 3
REMARK VINA RESULT:     -11.5      0.419      6.270
REMARK SMILES C[C@@H]1[C@H](C(=O)NCCCNC(=O)c2ccc(-c3c4nc(c(-c5c(F)cccc5F)c5ccc([nH]5)c(-c5c(F)cccc5F)c5nc(c(-c6c(F)cccc6F)c6ccc3[nH]6)C=C5)C=C4)cc2)CC[N@@H+]1Cc1ccc2c(c1)CCN2C
REMARK SMILES IDX 8 1 7 2 6 3 4 4 5 5 3 7 1 8 2 9 69 10 67 11 68 12 70 14
REMARK SMILES IDX 71 15 72 16 76 17 73 18 75 19 74 20 77 21 79 22 78 23 80 24
REMARK SMILES IDX 9 25 10 26 11 27 12 29 13 30 14 31 66 32 15 33 65 34 16 35
REMARK SMILES IDX 17 36 18 37 59 38 19 39 64 40 58 41 60 42 20 43 63 44 57 45
REMARK SMILES IDX 56 46 21 48 47 49 30 50 46 51 31 52 34 53 45 54 61 55 32 56
REMARK SMILES IDX 33 57 44 59 62 60 35 61 22 62 23 63 28 64 24 65 25 66 27 67
REMARK SMILES IDX 29 68 26 69 48 70 49 71 54 72 50 73 51 74 53 75 55 76 52 77
REMARK SMILES IDX 36 78 37 79 42 80 38 81 39 82 41 83 43 84 40 85
REMARK H PARENT 6 6 69 13 10 28 60 47 34 58
REMARK Flexibility Score: inf
ROOT
ATOM      1  C   UNL A   1      37.729  19.201  24.817  1.00  0.00     0.042 C 
ENDROOT
BRANCH   1   2
ATOM      2  C   UNL A   1      36.331  19.797  24.978  1.00  0.00     0.117 C 
BRANCH   2   3
ATOM      3  N   UNL A   1      36.384  21.236  25.148  1.00  0.00    -0.356 N 
ATOM      4  C   UNL A   1      35.453  22.204  24.983  1.00  0.00     0.229 C 
ATOM      5  O   UNL A   1      35.864  23.366  25.090  1.00  0.00    -0.275 OA
ATOM      6  H   UNL A   1      37.263  21.572  25.438  1.00  0.00     0.163 HD
BRANCH   4   7
ATOM      7  C   UNL A   1      33.976  21.957  24.723  1.00  0.00     0.142 C 
ATOM      8  C   UNL A   1      33.435  22.017  27.302  1.00  0.00     0.076 C 
ATOM      9  C   UNL A   1      32.968  21.789  25.877  1.00  0.00     0.193 C 
ATOM     10  N   UNL A   1      31.738  22.459  25.424  1.00  0.00    -0.328 N 
ATOM     11  C   UNL A   1      33.299  22.886  23.722  1.00  0.00     0.081 C 
ATOM     12  C   UNL A   1      31.824  22.622  23.980  1.00  0.00     0.263 C 
ATOM     13  H   UNL A   1      30.984  21.825  25.685  1.00  0.00     0.348 HD
BRANCH  10  14
ATOM     14  C   UNL A   1      31.067  23.496  26.204  1.00  0.00     0.299 C 
BRANCH  14  15
ATOM     15  C   UNL A   1      31.346  24.962  25.913  1.00  0.00     0.007 A 
ATOM     16  C   UNL A   1      30.400  25.742  25.204  1.00  0.00     0.012 A 
ATOM     17  C   UNL A   1      32.573  25.557  26.242  1.00  0.00     0.015 A 
ATOM     18  C   UNL A   1      30.644  27.088  24.879  1.00  0.00     0.026 A 
ATOM     19  C   UNL A   1      32.795  26.886  25.918  1.00  0.00    -0.022 A 
ATOM     20  C   UNL A   1      31.847  27.656  25.248  1.00  0.00     0.040 A 
ATOM     21  C   UNL A   1      33.964  27.744  26.274  1.00  0.00     0.059 C 
ATOM     22  N   UNL A   1      32.290  28.965  25.023  1.00  0.00    -0.374 N 
ATOM     23  C   UNL A   1      33.728  28.933  25.329  1.00  0.00     0.121 C 
ATOM     24  C   UNL A   1      31.471  30.063  25.501  1.00  0.00     0.143 C 
ENDBRANCH  14  15
ENDBRANCH  10  14
ENDBRANCH   4   7
ENDBRANCH   2   3
ENDBRANCH   1   2
BRANCH   1  25
ATOM     25  C   UNL A   1      38.823  19.944  25.567  1.00  0.00     0.118 C 
BRANCH  25  26
ATOM     26  N   UNL A   1      40.031  19.151  25.718  1.00  0.00    -0.352 N 
ATOM     27  C   UNL A   1      41.310  19.506  26.073  1.00  0.00     0.251 C 
ATOM     28  H   UNL A   1      39.912  18.190  25.534  1.00  0.00     0.163 HD
ATOM     29  O   UNL A   1      42.215  18.693  25.899  1.00  0.00    -0.269 OA
BRANCH  27  30
ATOM     30  C   UNL A   1      41.633  20.847  26.630  1.00  0.00     0.039 A 
ATOM     31  C   UNL A   1      42.062  21.847  25.749  1.00  0.00     0.014 A 
ATOM     32  C   UNL A   1      41.594  21.125  27.997  1.00  0.00     0.014 A 
ATOM     33  C   UNL A   1      42.387  23.123  26.227  1.00  0.00     0.010 A 
ATOM     34  C   UNL A   1      41.817  22.422  28.463  1.00  0.00     0.010 A 
ATOM     35  C   UNL A   1      42.235  23.434  27.587  1.00  0.00    -0.014 A 
BRANCH  35  36
ATOM     36  C   UNL A   1      42.533  24.794  28.116  1.00  0.00     0.031 A 
ATOM     37  C   UNL A   1      43.934  25.155  28.541  1.00  0.00     0.074 A 
ATOM     38  C   UNL A   1      41.540  25.692  28.273  1.00  0.00     0.049 A 
ATOM     39  N   UNL A   1      44.372  26.250  29.111  1.00  0.00    -0.248 NA
ATOM     40  C   UNL A   1      44.976  24.139  28.322  1.00  0.00     0.031 C 
ATOM     41  C   UNL A   1      40.132  25.465  27.944  1.00  0.00     0.029 A 
ATOM     42  N   UNL A   1      41.563  26.976  28.759  1.00  0.00    -0.354 N 
ATOM     43  C   UNL A   1      45.726  26.041  29.345  1.00  0.00     0.074 A 
ATOM     44  C   UNL A   1      46.029  24.699  28.898  1.00  0.00     0.031 C 
ATOM     45  C   UNL A   1      39.432  26.580  28.213  1.00  0.00     0.029 A 
ATOM     46  C   UNL A   1      40.332  27.586  28.768  1.00  0.00     0.049 A 
ATOM     47  H   UNL A   1      42.386  27.419  29.073  1.00  0.00     0.167 HD
ATOM     48  C   UNL A   1      46.643  26.895  29.861  1.00  0.00     0.037 A 
ATOM     49  C   UNL A   1      39.965  28.814  29.183  1.00  0.00     0.037 A 
ATOM     50  C   UNL A   1      46.359  28.248  30.263  1.00  0.00     0.049 A 
ATOM     51  C   UNL A   1      41.003  29.749  29.738  1.00  0.00     0.074 A 
ATOM     52  C   UNL A   1      47.235  29.210  30.736  1.00  0.00     0.029 A 
ATOM     53  N   UNL A   1      45.103  28.833  30.229  1.00  0.00    -0.354 N 
ATOM     54  N   UNL A   1      42.287  29.552  29.906  1.00  0.00    -0.248 NA
ATOM     55  C   UNL A   1      40.538  31.079  30.159  1.00  0.00     0.031 C 
ATOM     56  C   UNL A   1      46.503  30.368  31.020  1.00  0.00     0.029 A 
ATOM     57  C   UNL A   1      45.178  30.139  30.687  1.00  0.00     0.049 A 
ATOM     58  H   UNL A   1      44.279  28.387  29.926  1.00  0.00     0.167 HD
ATOM     59  C   UNL A   1      42.789  30.739  30.425  1.00  0.00     0.074 A 
ATOM     60  C   UNL A   1      41.672  31.654  30.534  1.00  0.00     0.031 C 
ATOM     61  C   UNL A   1      44.061  31.043  30.779  1.00  0.00     0.037 A 
BRANCH  48  62
ATOM     62  C   UNL A   1      48.050  26.393  30.010  1.00  0.00     0.057 A 
ATOM     63  C   UNL A   1      49.003  26.554  28.997  1.00  0.00     0.134 A 
ATOM     64  C   UNL A   1      48.465  25.768  31.193  1.00  0.00     0.134 A 
ATOM     65  F   UNL A   1      48.667  27.134  27.834  1.00  0.00    -0.206 F 
ATOM     66  C   UNL A   1      50.311  26.089  29.144  1.00  0.00     0.040 A 
ATOM     67  C   UNL A   1      49.776  25.323  31.362  1.00  0.00     0.040 A 
ATOM     68  F   UNL A   1      47.605  25.588  32.208  1.00  0.00    -0.206 F 
ATOM     69  C   UNL A   1      50.702  25.476  30.332  1.00  0.00     0.006 A 
ENDBRANCH  48  62
BRANCH  49  70
ATOM     70  C   UNL A   1      38.551  29.244  29.064  1.00  0.00     0.057 A 
ATOM     71  C   UNL A   1      38.037  29.695  27.841  1.00  0.00     0.134 A 
ATOM     72  C   UNL A   1      37.681  29.224  30.160  1.00  0.00     0.134 A 
ATOM     73  F   UNL A   1      38.827  29.755  26.760  1.00  0.00    -0.206 F 
ATOM     74  C   UNL A   1      36.715  30.124  27.717  1.00  0.00     0.040 A 
ATOM     75  C   UNL A   1      36.351  29.629  30.046  1.00  0.00     0.040 A 
ATOM     76  F   UNL A   1      38.112  28.798  31.358  1.00  0.00    -0.206 F 
ATOM     77  C   UNL A   1      35.867  30.087  28.823  1.00  0.00     0.006 A 
ENDBRANCH  49  70
BRANCH  61  78
ATOM     78  C   UNL A   1      44.321  32.430  31.284  1.00  0.00     0.057 A 
ATOM     79  C   UNL A   1      44.280  32.740  32.648  1.00  0.00     0.134 A 
ATOM     80  C   UNL A   1      44.656  33.459  30.395  1.00  0.00     0.134 A 
ATOM     81  F   UNL A   1      43.953  31.801  33.549  1.00  0.00    -0.206 F 
ATOM     82  C   UNL A   1      44.543  34.030  33.110  1.00  0.00     0.040 A 
ATOM     83  C   UNL A   1      44.942  34.748  30.846  1.00  0.00     0.040 A 
ATOM     84  F   UNL A   1      44.720  33.226  29.074  1.00  0.00    -0.206 F 
ATOM     85  C   UNL A   1      44.882  35.037  32.208  1.00  0.00     0.006 A 
ENDBRANCH  61  78
ENDBRANCH  35  36
ENDBRANCH  27  30
ENDBRANCH  25  26
ENDBRANCH   1  25
TORSDOF 12
ENDMDL
