MODEL 1
REMARK VINA RESULT:      -9.4      0.000      0.000
REMARK SMILES CC(C)(C)OC(=O)[C@]1(C(=O)NCCCNC(=O)c2ccc(-c3c4nc(c(-c5c(F)cccc5F)c5ccc([nH]5)c(-c5c(F)cccc5F)c5nc(c(-c6c(F)cccc6F)c6ccc3[nH]6)C=C5)C=C4)cc2)CC=CC[C@@H]1[NH3+]
REMARK SMILES IDX 12 1 11 2 9 3 10 4 8 6 72 7 76 8 73 9 75 10 74 11 6 12 7 13
REMARK SMILES IDX 5 14 2 15 1 16 3 17 4 18 77 19 13 23 14 24 15 25 16 26 17 28
REMARK SMILES IDX 18 29 19 30 71 31 20 32 70 33 21 34 22 35 23 36 64 37 24 38
REMARK SMILES IDX 69 39 63 40 65 41 25 42 68 43 62 44 61 45 26 47 52 48 35 49
REMARK SMILES IDX 51 50 36 51 39 52 50 53 66 54 37 55 38 56 49 58 67 59 40 60
REMARK SMILES IDX 27 61 28 62 33 63 29 64 30 65 32 66 34 67 31 68 53 69 54 70
REMARK SMILES IDX 59 71 55 72 56 73 58 74 60 75 57 76 41 77 42 78 47 79 43 80
REMARK SMILES IDX 44 81 46 82 48 83 45 84
REMARK H PARENT 11 5 77 20 77 21 77 22 15 27 65 46 39 57
REMARK Flexibility Score: inf
ROOT
ATOM      1  C   UNL A   1      35.993  33.770  30.305  1.00  0.00     0.117 C 
ENDROOT
BRANCH   1   2
ATOM      2  N   UNL A   1      35.750  34.637  31.446  1.00  0.00    -0.355 N 
ATOM      3  C   UNL A   1      36.292  34.693  32.692  1.00  0.00     0.244 C 
ATOM      4  O   UNL A   1      35.684  35.434  33.476  1.00  0.00    -0.274 OA
ATOM      5  H   UNL A   1      35.056  35.317  31.285  1.00  0.00     0.163 HD
BRANCH   3   6
ATOM      6  C   UNL A   1      37.523  33.861  33.158  1.00  0.00     0.201 C 
ATOM      7  C   UNL A   1      38.719  34.078  32.184  1.00  0.00     0.062 C 
ATOM      8  C   UNL A   1      37.863  34.400  34.607  1.00  0.00     0.212 C 
ATOM      9  C   UNL A   1      40.103  34.165  32.722  1.00  0.00    -0.029 C 
ATOM     10  C   UNL A   1      39.339  34.401  35.067  1.00  0.00     0.093 C 
ATOM     11  C   UNL A   1      40.382  34.319  34.012  1.00  0.00    -0.025 C 
BRANCH   6  12
ATOM     12  C   UNL A   1      37.087  32.395  33.020  1.00  0.00     0.328 C 
ATOM     13  O   UNL A   1      35.934  32.037  33.250  1.00  0.00    -0.251 OA
BRANCH  12  14
ATOM     14  O   UNL A   1      38.058  31.536  32.621  1.00  0.00    -0.459 OA
BRANCH  14  15
ATOM     15  C   UNL A   1      38.459  30.443  33.502  1.00  0.00     0.104 C 
ATOM     16  C   UNL A   1      39.965  30.265  33.256  1.00  0.00     0.056 C 
ATOM     17  C   UNL A   1      37.736  29.150  33.107  1.00  0.00     0.056 C 
ATOM     18  C   UNL A   1      38.262  30.769  34.992  1.00  0.00     0.056 C 
ENDBRANCH  14  15
ENDBRANCH  12  14
ENDBRANCH   6  12
BRANCH   8  19
ATOM     19  N   UNL A   1      37.067  33.856  35.732  1.00  0.00    -0.353 N 
ATOM     20  H   UNL A   1      37.302  32.874  35.871  1.00  0.00     0.344 HD
ATOM     21  H   UNL A   1      36.073  33.942  35.519  1.00  0.00     0.344 HD
ATOM     22  H   UNL A   1      37.278  34.380  36.581  1.00  0.00     0.344 HD
ENDBRANCH   8  19
ENDBRANCH   3   6
ENDBRANCH   1   2
BRANCH   1  23
ATOM     23  C   UNL A   1      34.786  32.918  29.962  1.00  0.00     0.042 C 
BRANCH  23  24
ATOM     24  C   UNL A   1      34.617  32.692  28.471  1.00  0.00     0.118 C 
BRANCH  24  25
ATOM     25  N   UNL A   1      33.957  31.426  28.167  1.00  0.00    -0.352 N 
ATOM     26  C   UNL A   1      34.489  30.183  27.940  1.00  0.00     0.251 C 
ATOM     27  H   UNL A   1      32.975  31.473  28.115  1.00  0.00     0.163 HD
ATOM     28  O   UNL A   1      33.782  29.286  27.480  1.00  0.00    -0.269 OA
BRANCH  26  29
ATOM     29  C   UNL A   1      35.915  29.924  28.226  1.00  0.00     0.039 A 
ATOM     30  C   UNL A   1      36.288  29.443  29.482  1.00  0.00     0.014 A 
ATOM     31  C   UNL A   1      36.885  30.153  27.250  1.00  0.00     0.014 A 
ATOM     32  C   UNL A   1      37.625  29.121  29.728  1.00  0.00     0.010 A 
ATOM     33  C   UNL A   1      38.185  29.712  27.450  1.00  0.00     0.010 A 
ATOM     34  C   UNL A   1      38.577  29.212  28.699  1.00  0.00    -0.014 A 
BRANCH  34  35
ATOM     35  C   UNL A   1      39.996  28.833  28.910  1.00  0.00     0.031 A 
ATOM     36  C   UNL A   1      40.953  29.833  29.506  1.00  0.00     0.074 A 
ATOM     37  C   UNL A   1      40.437  27.626  28.508  1.00  0.00     0.049 A 
ATOM     38  N   UNL A   1      42.246  29.736  29.687  1.00  0.00    -0.248 NA
ATOM     39  C   UNL A   1      40.389  31.129  29.922  1.00  0.00     0.031 C 
ATOM     40  C   UNL A   1      39.622  26.591  27.869  1.00  0.00     0.029 A 
ATOM     41  N   UNL A   1      41.689  27.067  28.570  1.00  0.00    -0.354 N 
ATOM     42  C   UNL A   1      42.645  30.956  30.217  1.00  0.00     0.074 A 
ATOM     43  C   UNL A   1      41.476  31.804  30.262  1.00  0.00     0.031 C 
ATOM     44  C   UNL A   1      40.385  25.511  27.632  1.00  0.00     0.029 A 
ATOM     45  C   UNL A   1      41.752  25.794  28.057  1.00  0.00     0.049 A 
ATOM     46  H   UNL A   1      42.470  27.534  28.948  1.00  0.00     0.167 HD
ATOM     47  C   UNL A   1      43.868  31.327  30.664  1.00  0.00     0.037 A 
ATOM     48  C   UNL A   1      42.797  24.953  27.939  1.00  0.00     0.037 A 
ATOM     49  C   UNL A   1      45.022  30.470  30.650  1.00  0.00     0.049 A 
ATOM     50  C   UNL A   1      44.149  25.396  28.431  1.00  0.00     0.074 A 
ATOM     51  C   UNL A   1      46.296  30.732  31.120  1.00  0.00     0.029 A 
ATOM     52  N   UNL A   1      45.037  29.179  30.144  1.00  0.00    -0.354 N 
ATOM     53  N   UNL A   1      44.497  26.532  28.988  1.00  0.00    -0.248 NA
ATOM     54  C   UNL A   1      45.252  24.437  28.286  1.00  0.00     0.031 C 
ATOM     55  C   UNL A   1      47.094  29.615  30.857  1.00  0.00     0.029 A 
ATOM     56  C   UNL A   1      46.304  28.638  30.276  1.00  0.00     0.049 A 
ATOM     57  H   UNL A   1      44.263  28.717  29.748  1.00  0.00     0.167 HD
ATOM     58  C   UNL A   1      45.846  26.406  29.295  1.00  0.00     0.074 A 
ATOM     59  C   UNL A   1      46.249  25.081  28.875  1.00  0.00     0.031 C 
ATOM     60  C   UNL A   1      46.679  27.306  29.873  1.00  0.00     0.037 A 
BRANCH  47  61
ATOM     61  C   UNL A   1      44.012  32.713  31.223  1.00  0.00     0.057 A 
ATOM     62  C   UNL A   1      44.356  33.803  30.411  1.00  0.00     0.134 A 
ATOM     63  C   UNL A   1      43.768  32.971  32.577  1.00  0.00     0.134 A 
ATOM     64  F   UNL A   1      44.619  33.625  29.108  1.00  0.00    -0.206 F 
ATOM     65  C   UNL A   1      44.476  35.093  30.931  1.00  0.00     0.040 A 
ATOM     66  C   UNL A   1      43.854  34.262  33.102  1.00  0.00     0.040 A 
ATOM     67  F   UNL A   1      43.431  31.975  33.410  1.00  0.00    -0.206 F 
ATOM     68  C   UNL A   1      44.215  35.326  32.279  1.00  0.00     0.006 A 
ENDBRANCH  47  61
BRANCH  48  69
ATOM     69  C   UNL A   1      42.614  23.600  27.353  1.00  0.00     0.057 A 
ATOM     70  C   UNL A   1      42.324  22.495  28.164  1.00  0.00     0.134 A 
ATOM     71  C   UNL A   1      42.762  23.367  25.980  1.00  0.00     0.134 A 
ATOM     72  F   UNL A   1      42.186  22.649  29.488  1.00  0.00    -0.206 F 
ATOM     73  C   UNL A   1      42.221  21.206  27.638  1.00  0.00     0.040 A 
ATOM     74  C   UNL A   1      42.633  22.088  25.437  1.00  0.00     0.040 A 
ATOM     75  F   UNL A   1      43.030  24.382  25.146  1.00  0.00    -0.206 F 
ATOM     76  C   UNL A   1      42.375  21.001  26.269  1.00  0.00     0.006 A 
ENDBRANCH  48  69
BRANCH  60  77
ATOM     77  C   UNL A   1      48.089  26.867  30.139  1.00  0.00     0.057 A 
ATOM     78  C   UNL A   1      48.445  26.167  31.299  1.00  0.00     0.134 A 
ATOM     79  C   UNL A   1      49.098  27.120  29.200  1.00  0.00     0.134 A 
ATOM     80  F   UNL A   1      47.528  25.905  32.243  1.00  0.00    -0.206 F 
ATOM     81  C   UNL A   1      49.759  25.758  31.527  1.00  0.00     0.040 A 
ATOM     82  C   UNL A   1      50.408  26.688  29.403  1.00  0.00     0.040 A 
ATOM     83  F   UNL A   1      48.823  27.776  28.062  1.00  0.00    -0.206 F 
ATOM     84  C   UNL A   1      50.744  26.011  30.574  1.00  0.00     0.006 A 
ENDBRANCH  60  77
ENDBRANCH  34  35
ENDBRANCH  26  29
ENDBRANCH  24  25
ENDBRANCH  23  24
ENDBRANCH   1  23
TORSDOF 14
ENDMDL
MODEL 2
REMARK VINA RESULT:      -9.3      4.134      9.644
REMARK SMILES CC(C)(C)OC(=O)[C@]1(C(=O)NCCCNC(=O)c2ccc(-c3c4nc(c(-c5c(F)cccc5F)c5ccc([nH]5)c(-c5c(F)cccc5F)c5nc(c(-c6c(F)cccc6F)c6ccc3[nH]6)C=C5)C=C4)cc2)CC=CC[C@@H]1[NH3+]
REMARK SMILES IDX 12 1 11 2 9 3 10 4 8 6 72 7 76 8 73 9 75 10 74 11 6 12 7 13
REMARK SMILES IDX 5 14 2 15 1 16 3 17 4 18 77 19 13 23 14 24 15 25 16 26 17 28
REMARK SMILES IDX 18 29 19 30 71 31 20 32 70 33 21 34 22 35 23 36 64 37 24 38
REMARK SMILES IDX 69 39 63 40 65 41 25 42 68 43 62 44 61 45 26 47 52 48 35 49
REMARK SMILES IDX 51 50 36 51 39 52 50 53 66 54 37 55 38 56 49 58 67 59 40 60
REMARK SMILES IDX 27 61 28 62 33 63 29 64 30 65 32 66 34 67 31 68 53 69 54 70
REMARK SMILES IDX 59 71 55 72 56 73 58 74 60 75 57 76 41 77 42 78 47 79 43 80
REMARK SMILES IDX 44 81 46 82 48 83 45 84
REMARK H PARENT 11 5 77 20 77 21 77 22 15 27 65 46 39 57
REMARK Flexibility Score: inf
ROOT
ATOM      1  C   UNL A   1      36.445  21.122  24.814  1.00  0.00     0.117 C 
ENDROOT
BRANCH   1   2
ATOM      2  N   UNL A   1      35.581  21.045  25.981  1.00  0.00    -0.355 N 
ATOM      3  C   UNL A   1      34.479  21.747  26.360  1.00  0.00     0.244 C 
ATOM      4  O   UNL A   1      34.127  21.544  27.529  1.00  0.00    -0.274 OA
ATOM      5  H   UNL A   1      35.846  20.347  26.623  1.00  0.00     0.163 HD
BRANCH   3   6
ATOM      6  C   UNL A   1      33.740  22.782  25.462  1.00  0.00     0.201 C 
ATOM      7  C   UNL A   1      34.051  22.510  23.960  1.00  0.00     0.062 C 
ATOM      8  C   UNL A   1      32.201  22.574  25.773  1.00  0.00     0.212 C 
ATOM      9  C   UNL A   1      32.979  22.678  22.942  1.00  0.00    -0.029 C 
ATOM     10  C   UNL A   1      31.179  22.821  24.639  1.00  0.00     0.093 C 
ATOM     11  C   UNL A   1      31.692  22.809  23.244  1.00  0.00    -0.025 C 
BRANCH   6  12
ATOM     12  C   UNL A   1      34.369  24.137  25.816  1.00  0.00     0.328 C 
ATOM     13  O   UNL A   1      35.574  24.344  25.696  1.00  0.00    -0.251 OA
BRANCH  12  14
ATOM     14  O   UNL A   1      33.501  25.080  26.260  1.00  0.00    -0.459 OA
BRANCH  14  15
ATOM     15  C   UNL A   1      33.298  26.297  25.480  1.00  0.00     0.104 C 
ATOM     16  C   UNL A   1      31.777  26.513  25.466  1.00  0.00     0.056 C 
ATOM     17  C   UNL A   1      33.783  26.093  24.040  1.00  0.00     0.056 C 
ATOM     18  C   UNL A   1      33.942  27.537  26.123  1.00  0.00     0.056 C 
ENDBRANCH  14  15
ENDBRANCH  12  14
ENDBRANCH   6  12
BRANCH   8  19
ATOM     19  N   UNL A   1      31.663  23.237  26.983  1.00  0.00    -0.353 N 
ATOM     20  H   UNL A   1      30.993  22.619  27.440  1.00  0.00     0.344 HD
ATOM     21  H   UNL A   1      31.198  24.106  26.717  1.00  0.00     0.344 HD
ATOM     22  H   UNL A   1      32.428  23.444  27.625  1.00  0.00     0.344 HD
ENDBRANCH   8  19
ENDBRANCH   3   6
ENDBRANCH   1   2
BRANCH   1  23
ATOM     23  C   UNL A   1      37.566  20.103  24.861  1.00  0.00     0.042 C 
BRANCH  23  24
ATOM     24  C   UNL A   1      38.732  20.535  25.730  1.00  0.00     0.118 C 
BRANCH  24  25
ATOM     25  N   UNL A   1      39.789  19.530  25.793  1.00  0.00    -0.352 N 
ATOM     26  C   UNL A   1      41.124  19.668  26.073  1.00  0.00     0.251 C 
ATOM     27  H   UNL A   1      39.497  18.610  25.603  1.00  0.00     0.163 HD
ATOM     28  O   UNL A   1      41.896  18.733  25.859  1.00  0.00    -0.269 OA
BRANCH  26  29
ATOM     29  C   UNL A   1      41.642  20.943  26.609  1.00  0.00     0.039 A 
ATOM     30  C   UNL A   1      42.092  21.928  25.728  1.00  0.00     0.014 A 
ATOM     31  C   UNL A   1      41.680  21.167  27.985  1.00  0.00     0.014 A 
ATOM     32  C   UNL A   1      42.506  23.164  26.229  1.00  0.00     0.010 A 
ATOM     33  C   UNL A   1      41.966  22.435  28.472  1.00  0.00     0.010 A 
ATOM     34  C   UNL A   1      42.405  23.442  27.602  1.00  0.00    -0.014 A 
BRANCH  34  35
ATOM     35  C   UNL A   1      42.790  24.761  28.164  1.00  0.00     0.031 A 
ATOM     36  C   UNL A   1      41.737  25.818  28.373  1.00  0.00     0.074 A 
ATOM     37  C   UNL A   1      44.084  25.029  28.423  1.00  0.00     0.049 A 
ATOM     38  N   UNL A   1      41.877  27.061  28.761  1.00  0.00    -0.248 NA
ATOM     39  C   UNL A   1      40.346  25.442  28.068  1.00  0.00     0.031 C 
ATOM     40  C   UNL A   1      45.204  24.108  28.213  1.00  0.00     0.029 A 
ATOM     41  N   UNL A   1      44.680  26.166  28.911  1.00  0.00    -0.354 N 
ATOM     42  C   UNL A   1      40.601  27.610  28.731  1.00  0.00     0.074 A 
ATOM     43  C   UNL A   1      39.712  26.595  28.217  1.00  0.00     0.031 C 
ATOM     44  C   UNL A   1      46.343  24.702  28.605  1.00  0.00     0.029 A 
ATOM     45  C   UNL A   1      46.043  26.060  29.047  1.00  0.00     0.049 A 
ATOM     46  H   UNL A   1      44.177  26.980  29.143  1.00  0.00     0.167 HD
ATOM     47  C   UNL A   1      40.199  28.839  29.132  1.00  0.00     0.037 A 
ATOM     48  C   UNL A   1      46.948  26.961  29.476  1.00  0.00     0.037 A 
ATOM     49  C   UNL A   1      41.080  29.836  29.675  1.00  0.00     0.049 A 
ATOM     50  C   UNL A   1      46.474  28.324  29.902  1.00  0.00     0.074 A 
ATOM     51  C   UNL A   1      40.767  31.096  30.152  1.00  0.00     0.029 A 
ATOM     52  N   UNL A   1      42.451  29.680  29.818  1.00  0.00    -0.354 N 
ATOM     53  N   UNL A   1      45.255  28.808  29.926  1.00  0.00    -0.248 NA
ATOM     54  C   UNL A   1      47.502  29.265  30.369  1.00  0.00     0.031 C 
ATOM     55  C   UNL A   1      41.955  31.720  30.543  1.00  0.00     0.029 A 
ATOM     56  C   UNL A   1      43.000  30.829  30.363  1.00  0.00     0.049 A 
ATOM     57  H   UNL A   1      42.958  28.874  29.568  1.00  0.00     0.167 HD
ATOM     58  C   UNL A   1      45.366  30.091  30.447  1.00  0.00     0.074 A 
ATOM     59  C   UNL A   1      46.768  30.304  30.738  1.00  0.00     0.031 C 
ATOM     60  C   UNL A   1      44.396  31.012  30.667  1.00  0.00     0.037 A 
BRANCH  47  61
ATOM     61  C   UNL A   1      38.737  29.163  29.015  1.00  0.00     0.057 A 
ATOM     62  C   UNL A   1      37.876  29.100  30.120  1.00  0.00     0.134 A 
ATOM     63  C   UNL A   1      38.190  29.582  27.796  1.00  0.00     0.134 A 
ATOM     64  F   UNL A   1      38.331  28.692  31.314  1.00  0.00    -0.206 F 
ATOM     65  C   UNL A   1      36.521  29.416  30.010  1.00  0.00     0.040 A 
ATOM     66  C   UNL A   1      36.843  29.931  27.681  1.00  0.00     0.040 A 
ATOM     67  F   UNL A   1      38.957  29.670  26.699  1.00  0.00    -0.206 F 
ATOM     68  C   UNL A   1      36.003  29.842  28.789  1.00  0.00     0.006 A 
ENDBRANCH  47  61
BRANCH  48  69
ATOM     69  C   UNL A   1      48.389  26.606  29.548  1.00  0.00     0.057 A 
ATOM     70  C   UNL A   1      49.258  26.898  28.489  1.00  0.00     0.134 A 
ATOM     71  C   UNL A   1      48.927  25.935  30.654  1.00  0.00     0.134 A 
ATOM     72  F   UNL A   1      48.803  27.524  27.395  1.00  0.00    -0.206 F 
ATOM     73  C   UNL A   1      50.598  26.506  28.511  1.00  0.00     0.040 A 
ATOM     74  C   UNL A   1      50.271  25.564  30.701  1.00  0.00     0.040 A 
ATOM     75  F   UNL A   1      48.151  25.635  31.706  1.00  0.00    -0.206 F 
ATOM     76  C   UNL A   1      51.108  25.837  29.622  1.00  0.00     0.006 A 
ENDBRANCH  48  69
BRANCH  60  77
ATOM     77  C   UNL A   1      44.807  32.307  31.303  1.00  0.00     0.057 A 
ATOM     78  C   UNL A   1      44.832  32.479  32.693  1.00  0.00     0.134 A 
ATOM     79  C   UNL A   1      45.219  33.386  30.509  1.00  0.00     0.134 A 
ATOM     80  F   UNL A   1      44.438  31.489  33.508  1.00  0.00    -0.206 F 
ATOM     81  C   UNL A   1      45.226  33.688  33.269  1.00  0.00     0.040 A 
ATOM     82  C   UNL A   1      45.645  34.588  31.075  1.00  0.00     0.040 A 
ATOM     83  F   UNL A   1      45.230  33.284  29.171  1.00  0.00    -0.206 F 
ATOM     84  C   UNL A   1      45.642  34.743  32.460  1.00  0.00     0.006 A 
ENDBRANCH  60  77
ENDBRANCH  34  35
ENDBRANCH  26  29
ENDBRANCH  24  25
ENDBRANCH  23  24
ENDBRANCH   1  23
TORSDOF 14
ENDMDL
MODEL 3
REMARK VINA RESULT:      -9.3      4.197      9.881
REMARK SMILES CC(C)(C)OC(=O)[C@]1(C(=O)NCCCNC(=O)c2ccc(-c3c4nc(c(-c5c(F)cccc5F)c5ccc([nH]5)c(-c5c(F)cccc5F)c5nc(c(-c6c(F)cccc6F)c6ccc3[nH]6)C=C5)C=C4)cc2)CC=CC[C@@H]1[NH3+]
REMARK SMILES IDX 12 1 11 2 9 3 10 4 8 6 72 7 76 8 73 9 75 10 74 11 6 12 7 13
REMARK SMILES IDX 5 14 2 15 1 16 3 17 4 18 77 19 13 23 14 24 15 25 16 26 17 28
REMARK SMILES IDX 18 29 19 30 71 31 20 32 70 33 21 34 22 35 23 36 64 37 24 38
REMARK SMILES IDX 69 39 63 40 65 41 25 42 68 43 62 44 61 45 26 47 52 48 35 49
REMARK SMILES IDX 51 50 36 51 39 52 50 53 66 54 37 55 38 56 49 58 67 59 40 60
REMARK SMILES IDX 27 61 28 62 33 63 29 64 30 65 32 66 34 67 31 68 53 69 54 70
REMARK SMILES IDX 59 71 55 72 56 73 58 74 60 75 57 76 41 77 42 78 47 79 43 80
REMARK SMILES IDX 44 81 46 82 48 83 45 84
REMARK H PARENT 11 5 77 20 77 21 77 22 15 27 65 46 39 57
REMARK Flexibility Score: inf
ROOT
ATOM      1  C   UNL A   1      36.239  20.720  24.839  1.00  0.00     0.117 C 
ENDROOT
BRANCH   1   2
ATOM      2  N   UNL A   1      35.399  20.746  26.026  1.00  0.00    -0.355 N 
ATOM      3  C   UNL A   1      34.366  21.545  26.406  1.00  0.00     0.244 C 
ATOM      4  O   UNL A   1      34.025  21.405  27.588  1.00  0.00    -0.274 OA
ATOM      5  H   UNL A   1      35.621  20.048  26.683  1.00  0.00     0.163 HD
BRANCH   3   6
ATOM      6  C   UNL A   1      33.691  22.611  25.492  1.00  0.00     0.201 C 
ATOM      7  C   UNL A   1      34.027  22.328  23.998  1.00  0.00     0.062 C 
ATOM      8  C   UNL A   1      32.139  22.467  25.765  1.00  0.00     0.212 C 
ATOM      9  C   UNL A   1      32.988  22.541  22.954  1.00  0.00    -0.029 C 
ATOM     10  C   UNL A   1      31.155  22.757  24.608  1.00  0.00     0.093 C 
ATOM     11  C   UNL A   1      31.700  22.725  23.226  1.00  0.00    -0.025 C 
BRANCH   6  12
ATOM     12  C   UNL A   1      34.367  23.939  25.864  1.00  0.00     0.328 C 
ATOM     13  O   UNL A   1      35.585  24.088  25.799  1.00  0.00    -0.251 OA
BRANCH  12  14
ATOM     14  O   UNL A   1      33.525  24.926  26.259  1.00  0.00    -0.459 OA
BRANCH  14  15
ATOM     15  C   UNL A   1      33.275  26.057  25.371  1.00  0.00     0.104 C 
ATOM     16  C   UNL A   1      33.940  27.259  26.059  1.00  0.00     0.056 C 
ATOM     17  C   UNL A   1      31.769  26.322  25.257  1.00  0.00     0.056 C 
ATOM     18  C   UNL A   1      33.926  25.890  23.987  1.00  0.00     0.056 C 
ENDBRANCH  14  15
ENDBRANCH  12  14
ENDBRANCH   6  12
BRANCH   8  19
ATOM     19  N   UNL A   1      31.599  23.150  26.964  1.00  0.00    -0.353 N 
ATOM     20  H   UNL A   1      30.672  23.521  26.755  1.00  0.00     0.344 HD
ATOM     21  H   UNL A   1      32.220  23.915  27.228  1.00  0.00     0.344 HD
ATOM     22  H   UNL A   1      31.533  22.484  27.734  1.00  0.00     0.344 HD
ENDBRANCH   8  19
ENDBRANCH   3   6
ENDBRANCH   1   2
BRANCH   1  23
ATOM     23  C   UNL A   1      37.382  19.732  24.966  1.00  0.00     0.042 C 
BRANCH  23  24
ATOM     24  C   UNL A   1      38.661  20.359  25.487  1.00  0.00     0.118 C 
BRANCH  24  25
ATOM     25  N   UNL A   1      39.731  19.384  25.669  1.00  0.00    -0.352 N 
ATOM     26  C   UNL A   1      41.038  19.565  26.045  1.00  0.00     0.251 C 
ATOM     27  H   UNL A   1      39.475  18.450  25.495  1.00  0.00     0.163 HD
ATOM     28  O   UNL A   1      41.844  18.642  25.928  1.00  0.00    -0.269 OA
BRANCH  26  29
ATOM     29  C   UNL A   1      41.484  20.871  26.569  1.00  0.00     0.039 A 
ATOM     30  C   UNL A   1      42.039  21.809  25.697  1.00  0.00     0.014 A 
ATOM     31  C   UNL A   1      41.353  21.172  27.925  1.00  0.00     0.014 A 
ATOM     32  C   UNL A   1      42.388  23.075  26.175  1.00  0.00     0.010 A 
ATOM     33  C   UNL A   1      41.576  22.467  28.371  1.00  0.00     0.010 A 
ATOM     34  C   UNL A   1      42.118  23.428  27.508  1.00  0.00    -0.014 A 
BRANCH  34  35
ATOM     35  C   UNL A   1      42.430  24.778  28.038  1.00  0.00     0.031 A 
ATOM     36  C   UNL A   1      43.839  25.103  28.464  1.00  0.00     0.074 A 
ATOM     37  C   UNL A   1      41.446  25.682  28.198  1.00  0.00     0.049 A 
ATOM     38  N   UNL A   1      44.302  26.185  29.037  1.00  0.00    -0.248 NA
ATOM     39  C   UNL A   1      44.857  24.059  28.252  1.00  0.00     0.031 C 
ATOM     40  C   UNL A   1      40.034  25.470  27.874  1.00  0.00     0.029 A 
ATOM     41  N   UNL A   1      41.482  26.965  28.686  1.00  0.00    -0.354 N 
ATOM     42  C   UNL A   1      45.651  25.943  29.265  1.00  0.00     0.074 A 
ATOM     43  C   UNL A   1      45.918  24.589  28.839  1.00  0.00     0.031 C 
ATOM     44  C   UNL A   1      39.347  26.594  28.137  1.00  0.00     0.029 A 
ATOM     45  C   UNL A   1      40.258  27.589  28.692  1.00  0.00     0.049 A 
ATOM     46  H   UNL A   1      42.309  27.398  29.002  1.00  0.00     0.167 HD
ATOM     47  C   UNL A   1      46.592  26.786  29.750  1.00  0.00     0.037 A 
ATOM     48  C   UNL A   1      39.911  28.823  29.105  1.00  0.00     0.037 A 
ATOM     49  C   UNL A   1      46.331  28.144  30.141  1.00  0.00     0.049 A 
ATOM     50  C   UNL A   1      40.977  29.734  29.653  1.00  0.00     0.074 A 
ATOM     51  C   UNL A   1      47.222  29.095  30.604  1.00  0.00     0.029 A 
ATOM     52  N   UNL A   1      45.081  28.744  30.110  1.00  0.00    -0.354 N 
ATOM     53  N   UNL A   1      42.261  29.512  29.805  1.00  0.00    -0.248 NA
ATOM     54  C   UNL A   1      40.545  31.072  30.081  1.00  0.00     0.031 C 
ATOM     55  C   UNL A   1      46.504  30.259  30.894  1.00  0.00     0.029 A 
ATOM     56  C   UNL A   1      45.176  30.051  30.559  1.00  0.00     0.049 A 
ATOM     57  H   UNL A   1      44.250  28.307  29.813  1.00  0.00     0.167 HD
ATOM     58  C   UNL A   1      42.794  30.693  30.306  1.00  0.00     0.074 A 
ATOM     59  C   UNL A   1      41.697  31.631  30.420  1.00  0.00     0.031 C 
ATOM     60  C   UNL A   1      44.076  30.977  30.642  1.00  0.00     0.037 A 
BRANCH  47  61
ATOM     61  C   UNL A   1      47.996  26.266  29.865  1.00  0.00     0.057 A 
ATOM     62  C   UNL A   1      48.911  26.371  28.808  1.00  0.00     0.134 A 
ATOM     63  C   UNL A   1      48.454  25.690  31.057  1.00  0.00     0.134 A 
ATOM     64  F   UNL A   1      48.535  26.898  27.633  1.00  0.00    -0.206 F 
ATOM     65  C   UNL A   1      50.220  25.900  28.923  1.00  0.00     0.040 A 
ATOM     66  C   UNL A   1      49.769  25.244  31.195  1.00  0.00     0.040 A 
ATOM     67  F   UNL A   1      47.633  25.562  32.110  1.00  0.00    -0.206 F 
ATOM     68  C   UNL A   1      50.654  25.342  30.124  1.00  0.00     0.006 A 
ENDBRANCH  47  61
BRANCH  48  69
ATOM     69  C   UNL A   1      38.504  29.286  28.999  1.00  0.00     0.057 A 
ATOM     70  C   UNL A   1      37.656  29.280  30.115  1.00  0.00     0.134 A 
ATOM     71  C   UNL A   1      37.958  29.708  27.780  1.00  0.00     0.134 A 
ATOM     72  F   UNL A   1      38.113  28.871  31.307  1.00  0.00    -0.206 F 
ATOM     73  C   UNL A   1      36.311  29.642  30.016  1.00  0.00     0.040 A 
ATOM     74  C   UNL A   1      36.623  30.101  27.674  1.00  0.00     0.040 A 
ATOM     75  F   UNL A   1      38.718  29.748  26.676  1.00  0.00    -0.206 F 
ATOM     76  C   UNL A   1      35.792  30.056  28.791  1.00  0.00     0.006 A 
ENDBRANCH  48  69
BRANCH  60  77
ATOM     77  C   UNL A   1      44.373  32.373  31.106  1.00  0.00     0.057 A 
ATOM     78  C   UNL A   1      44.692  33.403  30.212  1.00  0.00     0.134 A 
ATOM     79  C   UNL A   1      44.301  32.696  32.468  1.00  0.00     0.134 A 
ATOM     80  F   UNL A   1      44.789  33.156  28.897  1.00  0.00    -0.206 F 
ATOM     81  C   UNL A   1      44.957  34.698  30.659  1.00  0.00     0.040 A 
ATOM     82  C   UNL A   1      44.532  33.994  32.923  1.00  0.00     0.040 A 
ATOM     83  F   UNL A   1      43.989  31.759  33.376  1.00  0.00    -0.206 F 
ATOM     84  C   UNL A   1      44.869  34.998  32.017  1.00  0.00     0.006 A 
ENDBRANCH  60  77
ENDBRANCH  34  35
ENDBRANCH  26  29
ENDBRANCH  24  25
ENDBRANCH  23  24
ENDBRANCH   1  23
TORSDOF 14
ENDMDL
