MODEL 1
REMARK VINA RESULT:     -12.3      0.000      0.000
REMARK SMILES CC(=O)NS(=O)(=O)c1cc(-c2ccn(C(F)F)c(=O)c2)ccc1C(=O)NCCCNC(=O)c1ccc(-c2c3nc(c(-c4c(F)cccc4F)c4ccc([nH]4)c(-c4c(F)cccc4F)c4nc(c(-c5c(F)cccc5F)c5ccc2[nH]5)C=C4)C=C3)cc1
REMARK SMILES IDX 28 1 27 2 26 3 24 4 25 5 23 7 8 8 9 9 10 10 22 11 21 12 5 13
REMARK SMILES IDX 6 14 7 15 4 16 1 17 2 18 3 19 11 21 12 22 20 23 13 24 18 25
REMARK SMILES IDX 14 26 19 27 15 28 16 29 17 30 29 31 30 32 31 33 32 35 33 36
REMARK SMILES IDX 34 37 86 38 35 39 85 40 36 41 37 42 38 43 79 44 39 45 84 46
REMARK SMILES IDX 78 47 80 48 40 49 83 50 77 51 76 52 41 54 67 55 50 56 66 57
REMARK SMILES IDX 51 58 54 59 65 60 81 61 52 62 53 63 64 65 82 66 55 67 42 68
REMARK SMILES IDX 43 69 48 70 44 71 45 72 47 73 49 74 46 75 68 76 69 77 74 78
REMARK SMILES IDX 70 79 71 80 73 81 75 82 72 83 56 84 57 85 62 86 58 87 59 88
REMARK SMILES IDX 61 89 63 90 60 91
REMARK H PARENT 26 6 4 20 30 34 80 53 54 64
REMARK Flexibility Score: inf
ROOT
ATOM      1  C   UNL A   1      31.443  29.035  24.165  1.00  0.00     0.042 C 
ENDROOT
BRANCH   1   2
ATOM      2  C   UNL A   1      31.292  27.532  23.892  1.00  0.00     0.118 C 
BRANCH   2   3
ATOM      3  N   UNL A   1      30.873  26.780  25.061  1.00  0.00    -0.352 N 
ATOM      4  C   UNL A   1      31.511  25.820  25.790  1.00  0.00     0.252 C 
ATOM      5  O   UNL A   1      31.035  25.446  26.860  1.00  0.00    -0.269 OA
ATOM      6  H   UNL A   1      29.970  27.001  25.383  1.00  0.00     0.163 HD
BRANCH   4   7
ATOM      7  C   UNL A   1      32.796  25.231  25.374  1.00  0.00     0.060 A 
ATOM      8  C   UNL A   1      32.937  23.932  24.884  1.00  0.00     0.101 A 
ATOM      9  C   UNL A   1      34.218  23.364  24.758  1.00  0.00     0.031 A 
ATOM     10  C   UNL A   1      35.355  24.061  25.190  1.00  0.00    -0.017 A 
ATOM     11  C   UNL A   1      33.946  25.960  25.723  1.00  0.00     0.016 A 
ATOM     12  C   UNL A   1      35.215  25.379  25.636  1.00  0.00     0.009 A 
BRANCH   8  13
ATOM     13  S   UNL A   1      31.532  22.920  24.535  1.00  0.00     0.264 S 
ATOM     14  O   UNL A   1      30.697  23.697  23.647  1.00  0.00    -0.201 OA
ATOM     15  O   UNL A   1      31.019  22.339  25.752  1.00  0.00    -0.201 OA
BRANCH  13  16
ATOM     16  N   UNL A   1      32.128  21.677  23.617  1.00  0.00    -0.249 N 
ATOM     17  C   UNL A   1      32.852  20.102  25.431  1.00  0.00     0.115 C 
ATOM     18  C   UNL A   1      32.449  20.370  24.009  1.00  0.00     0.230 C 
ATOM     19  O   UNL A   1      32.524  19.508  23.144  1.00  0.00    -0.274 OA
ATOM     20  H   UNL A   1      32.278  21.884  22.666  1.00  0.00     0.183 HD
ENDBRANCH  13  16
ENDBRANCH   8  13
BRANCH  10  21
ATOM     21  C   UNL A   1      36.626  23.328  25.367  1.00  0.00    -0.011 A 
ATOM     22  C   UNL A   1      37.741  23.926  26.084  1.00  0.00     0.027 A 
ATOM     23  C   UNL A   1      36.724  22.049  24.968  1.00  0.00     0.080 A 
ATOM     24  C   UNL A   1      38.822  23.203  26.397  1.00  0.00     0.095 A 
ATOM     25  C   UNL A   1      37.938  21.237  25.286  1.00  0.00     0.255 A 
ATOM     26  N   UNL A   1      38.920  21.876  26.025  1.00  0.00    -0.258 N 
ATOM     27  O   UNL A   1      37.975  20.071  24.905  1.00  0.00    -0.269 OA
BRANCH  26  28
ATOM     28  C   UNL A   1      40.066  21.095  26.419  1.00  0.00     0.451 C 
ATOM     29  F   UNL A   1      41.144  21.397  25.655  1.00  0.00    -0.185 F 
ATOM     30  F   UNL A   1      40.392  21.321  27.715  1.00  0.00    -0.185 F 
ENDBRANCH  26  28
ENDBRANCH  10  21
ENDBRANCH   4   7
ENDBRANCH   2   3
ENDBRANCH   1   2
BRANCH   1  31
ATOM     31  C   UNL A   1      32.322  29.346  25.382  1.00  0.00     0.118 C 
BRANCH  31  32
ATOM     32  N   UNL A   1      32.009  30.646  25.948  1.00  0.00    -0.352 N 
ATOM     33  C   UNL A   1      32.624  31.416  26.897  1.00  0.00     0.251 C 
ATOM     34  H   UNL A   1      31.193  31.054  25.578  1.00  0.00     0.163 HD
ATOM     35  O   UNL A   1      32.017  32.397  27.330  1.00  0.00    -0.269 OA
BRANCH  33  36
ATOM     36  C   UNL A   1      33.985  31.139  27.415  1.00  0.00     0.039 A 
ATOM     37  C   UNL A   1      34.254  29.834  27.851  1.00  0.00     0.014 A 
ATOM     38  C   UNL A   1      34.927  32.145  27.649  1.00  0.00     0.014 A 
ATOM     39  C   UNL A   1      35.449  29.534  28.510  1.00  0.00     0.010 A 
ATOM     40  C   UNL A   1      36.138  31.840  28.288  1.00  0.00     0.010 A 
ATOM     41  C   UNL A   1      36.398  30.538  28.744  1.00  0.00    -0.014 A 
BRANCH  41  42
ATOM     42  C   UNL A   1      37.614  30.245  29.545  1.00  0.00     0.031 A 
ATOM     43  C   UNL A   1      38.726  29.425  28.950  1.00  0.00     0.074 A 
ATOM     44  C   UNL A   1      37.741  30.721  30.796  1.00  0.00     0.049 A 
ATOM     45  N   UNL A   1      39.824  28.987  29.515  1.00  0.00    -0.248 NA
ATOM     46  C   UNL A   1      38.581  29.042  27.537  1.00  0.00     0.031 C 
ATOM     47  C   UNL A   1      36.754  31.541  31.496  1.00  0.00     0.029 A 
ATOM     48  N   UNL A   1      38.765  30.581  31.700  1.00  0.00    -0.354 N 
ATOM     49  C   UNL A   1      40.475  28.238  28.545  1.00  0.00     0.074 A 
ATOM     50  C   UNL A   1      39.666  28.303  27.346  1.00  0.00     0.031 C 
ATOM     51  C   UNL A   1      37.229  31.845  32.718  1.00  0.00     0.029 A 
ATOM     52  C   UNL A   1      38.541  31.226  32.889  1.00  0.00     0.049 A 
ATOM     53  H   UNL A   1      39.583  30.066  31.512  1.00  0.00     0.167 HD
ATOM     54  C   UNL A   1      41.635  27.547  28.644  1.00  0.00     0.037 A 
ATOM     55  C   UNL A   1      39.305  31.307  33.994  1.00  0.00     0.037 A 
ATOM     56  C   UNL A   1      42.477  27.509  29.808  1.00  0.00     0.049 A 
ATOM     57  C   UNL A   1      40.629  30.605  34.050  1.00  0.00     0.074 A 
ATOM     58  C   UNL A   1      43.655  26.808  30.003  1.00  0.00     0.029 A 
ATOM     59  N   UNL A   1      42.240  28.226  30.968  1.00  0.00    -0.354 N 
ATOM     60  N   UNL A   1      41.200  29.849  33.146  1.00  0.00    -0.248 NA
ATOM     61  C   UNL A   1      41.412  30.763  35.286  1.00  0.00     0.031 C 
ATOM     62  C   UNL A   1      44.139  27.114  31.283  1.00  0.00     0.029 A 
ATOM     63  C   UNL A   1      43.260  28.002  31.878  1.00  0.00     0.049 A 
ATOM     64  H   UNL A   1      41.462  28.809  31.125  1.00  0.00     0.167 HD
ATOM     65  C   UNL A   1      42.400  29.433  33.704  1.00  0.00     0.074 A 
ATOM     66  C   UNL A   1      42.487  30.032  35.019  1.00  0.00     0.031 C 
ATOM     67  C   UNL A   1      43.341  28.614  33.175  1.00  0.00     0.037 A 
BRANCH  54  68
ATOM     68  C   UNL A   1      42.047  26.746  27.452  1.00  0.00     0.057 A 
ATOM     69  C   UNL A   1      42.765  27.318  26.398  1.00  0.00     0.134 A 
ATOM     70  C   UNL A   1      41.735  25.383  27.371  1.00  0.00     0.134 A 
ATOM     71  F   UNL A   1      43.078  28.622  26.417  1.00  0.00    -0.206 F 
ATOM     72  C   UNL A   1      43.159  26.559  25.295  1.00  0.00     0.040 A 
ATOM     73  C   UNL A   1      42.126  24.614  26.275  1.00  0.00     0.040 A 
ATOM     74  F   UNL A   1      41.042  24.783  28.351  1.00  0.00    -0.206 F 
ATOM     75  C   UNL A   1      42.840  25.202  25.233  1.00  0.00     0.006 A 
ENDBRANCH  54  68
BRANCH  55  76
ATOM     76  C   UNL A   1      38.832  32.091  35.154  1.00  0.00     0.057 A 
ATOM     77  C   UNL A   1      38.222  31.462  36.245  1.00  0.00     0.134 A 
ATOM     78  C   UNL A   1      38.972  33.481  35.193  1.00  0.00     0.134 A 
ATOM     79  F   UNL A   1      38.048  30.132  36.247  1.00  0.00    -0.206 F 
ATOM     80  C   UNL A   1      37.763  32.194  37.340  1.00  0.00     0.040 A 
ATOM     81  C   UNL A   1      38.521  34.225  36.283  1.00  0.00     0.040 A 
ATOM     82  F   UNL A   1      39.541  34.132  34.168  1.00  0.00    -0.206 F 
ATOM     83  C   UNL A   1      37.914  33.580  37.361  1.00  0.00     0.006 A 
ENDBRANCH  55  76
BRANCH  67  84
ATOM     84  C   UNL A   1      44.539  28.323  34.018  1.00  0.00     0.057 A 
ATOM     85  C   UNL A   1      44.557  27.230  34.892  1.00  0.00     0.134 A 
ATOM     86  C   UNL A   1      45.686  29.118  33.940  1.00  0.00     0.134 A 
ATOM     87  F   UNL A   1      43.481  26.439  35.014  1.00  0.00    -0.206 F 
ATOM     88  C   UNL A   1      45.681  26.938  35.664  1.00  0.00     0.040 A 
ATOM     89  C   UNL A   1      46.817  28.836  34.707  1.00  0.00     0.040 A 
ATOM     90  F   UNL A   1      45.722  30.184  33.126  1.00  0.00    -0.206 F 
ATOM     91  C   UNL A   1      46.816  27.742  35.572  1.00  0.00     0.006 A 
ENDBRANCH  67  84
ENDBRANCH  41  42
ENDBRANCH  33  36
ENDBRANCH  31  32
ENDBRANCH   1  31
TORSDOF 14
ENDMDL
MODEL 2
REMARK VINA RESULT:     -12.2      0.368      6.082
REMARK SMILES CC(=O)NS(=O)(=O)c1cc(-c2ccn(C(F)F)c(=O)c2)ccc1C(=O)NCCCNC(=O)c1ccc(-c2c3nc(c(-c4c(F)cccc4F)c4ccc([nH]4)c(-c4c(F)cccc4F)c4nc(c(-c5c(F)cccc5F)c5ccc2[nH]5)C=C4)C=C3)cc1
REMARK SMILES IDX 28 1 27 2 26 3 24 4 25 5 23 7 8 8 9 9 10 10 22 11 21 12 5 13
REMARK SMILES IDX 6 14 7 15 4 16 1 17 2 18 3 19 11 21 12 22 20 23 13 24 18 25
REMARK SMILES IDX 14 26 19 27 15 28 16 29 17 30 29 31 30 32 31 33 32 35 33 36
REMARK SMILES IDX 34 37 86 38 35 39 85 40 36 41 37 42 38 43 79 44 39 45 84 46
REMARK SMILES IDX 78 47 80 48 40 49 83 50 77 51 76 52 41 54 67 55 50 56 66 57
REMARK SMILES IDX 51 58 54 59 65 60 81 61 52 62 53 63 64 65 82 66 55 67 42 68
REMARK SMILES IDX 43 69 48 70 44 71 45 72 47 73 49 74 46 75 68 76 69 77 74 78
REMARK SMILES IDX 70 79 71 80 73 81 75 82 72 83 56 84 57 85 62 86 58 87 59 88
REMARK SMILES IDX 61 89 63 90 60 91
REMARK H PARENT 26 6 4 20 30 34 80 53 54 64
REMARK Flexibility Score: inf
ROOT
ATOM      1  C   UNL A   1      31.479  28.943  24.086  1.00  0.00     0.042 C 
ENDROOT
BRANCH   1   2
ATOM      2  C   UNL A   1      31.202  27.454  23.838  1.00  0.00     0.118 C 
BRANCH   2   3
ATOM      3  N   UNL A   1      30.813  26.738  25.040  1.00  0.00    -0.352 N 
ATOM      4  C   UNL A   1      31.477  25.813  25.791  1.00  0.00     0.252 C 
ATOM      5  O   UNL A   1      31.024  25.472  26.882  1.00  0.00    -0.269 OA
ATOM      6  H   UNL A   1      29.913  26.959  25.370  1.00  0.00     0.163 HD
BRANCH   4   7
ATOM      7  C   UNL A   1      32.761  25.227  25.372  1.00  0.00     0.060 A 
ATOM      8  C   UNL A   1      32.903  23.928  24.881  1.00  0.00     0.101 A 
ATOM      9  C   UNL A   1      34.185  23.362  24.752  1.00  0.00     0.031 A 
ATOM     10  C   UNL A   1      35.322  24.059  25.184  1.00  0.00    -0.017 A 
ATOM     11  C   UNL A   1      33.911  25.956  25.722  1.00  0.00     0.016 A 
ATOM     12  C   UNL A   1      35.181  25.376  25.633  1.00  0.00     0.009 A 
BRANCH   8  13
ATOM     13  S   UNL A   1      31.499  22.916  24.531  1.00  0.00     0.264 S 
ATOM     14  O   UNL A   1      30.673  23.685  23.629  1.00  0.00    -0.201 OA
ATOM     15  O   UNL A   1      30.976  22.347  25.750  1.00  0.00    -0.201 OA
BRANCH  13  16
ATOM     16  N   UNL A   1      32.100  21.662  23.629  1.00  0.00    -0.249 N 
ATOM     17  C   UNL A   1      32.859  20.129  25.464  1.00  0.00     0.115 C 
ATOM     18  C   UNL A   1      32.439  20.367  24.041  1.00  0.00     0.230 C 
ATOM     19  O   UNL A   1      32.515  19.489  23.191  1.00  0.00    -0.274 OA
ATOM     20  H   UNL A   1      32.238  21.854  22.673  1.00  0.00     0.183 HD
ENDBRANCH  13  16
ENDBRANCH   8  13
BRANCH  10  21
ATOM     21  C   UNL A   1      36.594  23.327  25.360  1.00  0.00    -0.011 A 
ATOM     22  C   UNL A   1      37.713  23.930  26.064  1.00  0.00     0.027 A 
ATOM     23  C   UNL A   1      36.688  22.045  24.970  1.00  0.00     0.080 A 
ATOM     24  C   UNL A   1      38.796  23.209  26.376  1.00  0.00     0.095 A 
ATOM     25  C   UNL A   1      37.905  21.235  25.285  1.00  0.00     0.255 A 
ATOM     26  N   UNL A   1      38.892  21.879  26.014  1.00  0.00    -0.258 N 
ATOM     27  O   UNL A   1      37.939  20.066  24.914  1.00  0.00    -0.269 OA
BRANCH  26  28
ATOM     28  C   UNL A   1      40.040  21.101  26.407  1.00  0.00     0.451 C 
ATOM     29  F   UNL A   1      41.090  21.337  25.582  1.00  0.00    -0.185 F 
ATOM     30  F   UNL A   1      40.424  21.396  27.672  1.00  0.00    -0.185 F 
ENDBRANCH  26  28
ENDBRANCH  10  21
ENDBRANCH   4   7
ENDBRANCH   2   3
ENDBRANCH   1   2
BRANCH   1  31
ATOM     31  C   UNL A   1      32.378  29.198  25.302  1.00  0.00     0.118 C 
BRANCH  31  32
ATOM     32  N   UNL A   1      32.118  30.498  25.894  1.00  0.00    -0.352 N 
ATOM     33  C   UNL A   1      32.775  31.232  26.844  1.00  0.00     0.251 C 
ATOM     34  H   UNL A   1      31.310  30.938  25.545  1.00  0.00     0.163 HD
ATOM     35  O   UNL A   1      32.209  32.225  27.303  1.00  0.00    -0.269 OA
BRANCH  33  36
ATOM     36  C   UNL A   1      34.136  30.903  27.332  1.00  0.00     0.039 A 
ATOM     37  C   UNL A   1      34.394  29.564  27.661  1.00  0.00     0.014 A 
ATOM     38  C   UNL A   1      35.088  31.879  27.642  1.00  0.00     0.014 A 
ATOM     39  C   UNL A   1      35.589  29.202  28.288  1.00  0.00     0.010 A 
ATOM     40  C   UNL A   1      36.299  31.513  28.249  1.00  0.00     0.010 A 
ATOM     41  C   UNL A   1      36.548  30.175  28.598  1.00  0.00    -0.014 A 
BRANCH  41  42
ATOM     42  C   UNL A   1      37.764  29.808  29.367  1.00  0.00     0.031 A 
ATOM     43  C   UNL A   1      37.949  30.319  30.770  1.00  0.00     0.074 A 
ATOM     44  C   UNL A   1      38.699  29.006  28.828  1.00  0.00     0.049 A 
ATOM     45  N   UNL A   1      38.978  30.186  31.570  1.00  0.00    -0.248 NA
ATOM     46  C   UNL A   1      36.834  31.087  31.345  1.00  0.00     0.031 C 
ATOM     47  C   UNL A   1      38.647  28.422  27.489  1.00  0.00     0.029 A 
ATOM     48  N   UNL A   1      39.879  28.539  29.353  1.00  0.00    -0.354 N 
ATOM     49  C   UNL A   1      38.655  30.892  32.721  1.00  0.00     0.074 A 
ATOM     50  C   UNL A   1      37.324  31.429  32.529  1.00  0.00     0.031 C 
ATOM     51  C   UNL A   1      39.741  27.663  27.302  1.00  0.00     0.029 A 
ATOM     52  C   UNL A   1      40.575  27.722  28.500  1.00  0.00     0.049 A 
ATOM     53  H   UNL A   1      40.195  28.771  30.257  1.00  0.00     0.167 HD
ATOM     54  C   UNL A   1      39.403  31.088  33.832  1.00  0.00     0.037 A 
ATOM     55  C   UNL A   1      41.754  27.094  28.664  1.00  0.00     0.037 A 
ATOM     56  C   UNL A   1      40.705  30.524  34.062  1.00  0.00     0.049 A 
ATOM     57  C   UNL A   1      42.525  27.255  29.940  1.00  0.00     0.074 A 
ATOM     58  C   UNL A   1      41.545  30.697  35.149  1.00  0.00     0.029 A 
ATOM     59  N   UNL A   1      41.345  29.654  33.196  1.00  0.00    -0.354 N 
ATOM     60  N   UNL A   1      42.235  27.977  30.993  1.00  0.00    -0.248 NA
ATOM     61  C   UNL A   1      43.794  26.516  30.046  1.00  0.00     0.031 C 
ATOM     62  C   UNL A   1      42.692  29.918  34.945  1.00  0.00     0.029 A 
ATOM     63  C   UNL A   1      42.560  29.264  33.732  1.00  0.00     0.049 A 
ATOM     64  H   UNL A   1      40.989  29.357  32.327  1.00  0.00     0.167 HD
ATOM     65  C   UNL A   1      43.284  27.791  31.881  1.00  0.00     0.074 A 
ATOM     66  C   UNL A   1      44.213  26.874  31.253  1.00  0.00     0.031 C 
ATOM     67  C   UNL A   1      43.467  28.342  33.104  1.00  0.00     0.037 A 
BRANCH  54  68
ATOM     68  C   UNL A   1      38.829  31.982  34.883  1.00  0.00     0.057 A 
ATOM     69  C   UNL A   1      38.229  31.465  36.036  1.00  0.00     0.134 A 
ATOM     70  C   UNL A   1      38.894  33.373  34.744  1.00  0.00     0.134 A 
ATOM     71  F   UNL A   1      38.127  30.140  36.213  1.00  0.00    -0.206 F 
ATOM     72  C   UNL A   1      37.708  32.307  37.018  1.00  0.00     0.040 A 
ATOM     73  C   UNL A   1      38.380  34.225  35.722  1.00  0.00     0.040 A 
ATOM     74  F   UNL A   1      39.453  33.924  33.655  1.00  0.00    -0.206 F 
ATOM     75  C   UNL A   1      37.784  33.691  36.863  1.00  0.00     0.006 A 
ENDBRANCH  54  68
BRANCH  55  76
ATOM     76  C   UNL A   1      42.287  26.246  27.577  1.00  0.00     0.057 A 
ATOM     77  C   UNL A   1      43.082  26.792  26.564  1.00  0.00     0.134 A 
ATOM     78  C   UNL A   1      42.006  24.878  27.525  1.00  0.00     0.134 A 
ATOM     79  F   UNL A   1      43.365  28.102  26.560  1.00  0.00    -0.206 F 
ATOM     80  C   UNL A   1      43.582  26.001  25.530  1.00  0.00     0.040 A 
ATOM     81  C   UNL A   1      42.502  24.074  26.498  1.00  0.00     0.040 A 
ATOM     82  F   UNL A   1      41.241  24.308  28.467  1.00  0.00    -0.206 F 
ATOM     83  C   UNL A   1      43.292  24.638  25.496  1.00  0.00     0.006 A 
ENDBRANCH  55  76
BRANCH  67  84
ATOM     84  C   UNL A   1      44.713  27.969  33.838  1.00  0.00     0.057 A 
ATOM     85  C   UNL A   1      45.886  28.718  33.695  1.00  0.00     0.134 A 
ATOM     86  C   UNL A   1      44.736  26.875  34.709  1.00  0.00     0.134 A 
ATOM     87  F   UNL A   1      45.923  29.772  32.866  1.00  0.00    -0.206 F 
ATOM     88  C   UNL A   1      47.046  28.390  34.397  1.00  0.00     0.040 A 
ATOM     89  C   UNL A   1      45.890  26.537  35.417  1.00  0.00     0.040 A 
ATOM     90  F   UNL A   1      43.643  26.117  34.879  1.00  0.00    -0.206 F 
ATOM     91  C   UNL A   1      47.049  27.296  35.262  1.00  0.00     0.006 A 
ENDBRANCH  67  84
ENDBRANCH  41  42
ENDBRANCH  33  36
ENDBRANCH  31  32
ENDBRANCH   1  31
TORSDOF 14
ENDMDL
MODEL 3
REMARK VINA RESULT:     -12.1      3.426      8.895
REMARK SMILES CC(=O)NS(=O)(=O)c1cc(-c2ccn(C(F)F)c(=O)c2)ccc1C(=O)NCCCNC(=O)c1ccc(-c2c3nc(c(-c4c(F)cccc4F)c4ccc([nH]4)c(-c4c(F)cccc4F)c4nc(c(-c5c(F)cccc5F)c5ccc2[nH]5)C=C4)C=C3)cc1
REMARK SMILES IDX 28 1 27 2 26 3 24 4 25 5 23 7 8 8 9 9 10 10 22 11 21 12 5 13
REMARK SMILES IDX 6 14 7 15 4 16 1 17 2 18 3 19 11 21 12 22 20 23 13 24 18 25
REMARK SMILES IDX 14 26 19 27 15 28 16 29 17 30 29 31 30 32 31 33 32 35 33 36
REMARK SMILES IDX 34 37 86 38 35 39 85 40 36 41 37 42 38 43 79 44 39 45 84 46
REMARK SMILES IDX 78 47 80 48 40 49 83 50 77 51 76 52 41 54 67 55 50 56 66 57
REMARK SMILES IDX 51 58 54 59 65 60 81 61 52 62 53 63 64 65 82 66 55 67 42 68
REMARK SMILES IDX 43 69 48 70 44 71 45 72 47 73 49 74 46 75 68 76 69 77 74 78
REMARK SMILES IDX 70 79 71 80 73 81 75 82 72 83 56 84 57 85 62 86 58 87 59 88
REMARK SMILES IDX 61 89 63 90 60 91
REMARK H PARENT 26 6 4 20 30 34 80 53 54 64
REMARK Flexibility Score: inf
ROOT
ATOM      1  C   UNL A   1      34.458  20.958  25.367  1.00  0.00     0.042 C 
ENDROOT
BRANCH   1   2
ATOM      2  C   UNL A   1      33.326  21.895  24.927  1.00  0.00     0.118 C 
BRANCH   2   3
ATOM      3  N   UNL A   1      33.610  22.587  23.682  1.00  0.00    -0.352 N 
ATOM      4  C   UNL A   1      33.753  23.914  23.402  1.00  0.00     0.252 C 
ATOM      5  O   UNL A   1      34.178  24.265  22.304  1.00  0.00    -0.269 OA
ATOM      6  H   UNL A   1      33.718  21.994  22.905  1.00  0.00     0.163 HD
BRANCH   4   7
ATOM      7  C   UNL A   1      33.463  24.968  24.390  1.00  0.00     0.060 A 
ATOM      8  C   UNL A   1      32.401  25.867  24.283  1.00  0.00     0.101 A 
ATOM      9  C   UNL A   1      32.350  26.996  25.121  1.00  0.00     0.031 A 
ATOM     10  C   UNL A   1      33.395  27.272  26.015  1.00  0.00    -0.017 A 
ATOM     11  C   UNL A   1      34.465  25.201  25.349  1.00  0.00     0.016 A 
ATOM     12  C   UNL A   1      34.433  26.345  26.152  1.00  0.00     0.009 A 
BRANCH   8  13
ATOM     13  S   UNL A   1      31.172  25.698  23.026  1.00  0.00     0.264 S 
ATOM     14  O   UNL A   1      30.616  24.375  23.194  1.00  0.00    -0.201 OA
ATOM     15  O   UNL A   1      31.688  26.155  21.758  1.00  0.00    -0.201 OA
BRANCH  13  16
ATOM     16  N   UNL A   1      29.971  26.749  23.470  1.00  0.00    -0.249 N 
ATOM     17  C   UNL A   1      30.859  28.873  22.473  1.00  0.00     0.115 C 
ATOM     18  C   UNL A   1      29.722  28.047  23.003  1.00  0.00     0.230 C 
ATOM     19  O   UNL A   1      28.605  28.519  23.170  1.00  0.00    -0.274 OA
ATOM     20  H   UNL A   1      29.347  26.417  24.155  1.00  0.00     0.183 HD
ENDBRANCH  13  16
ENDBRANCH   8  13
BRANCH  10  21
ATOM     21  C   UNL A   1      33.487  28.616  26.623  1.00  0.00    -0.011 A 
ATOM     22  C   UNL A   1      34.708  29.059  27.277  1.00  0.00     0.027 A 
ATOM     23  C   UNL A   1      32.479  29.490  26.474  1.00  0.00     0.080 A 
ATOM     24  C   UNL A   1      34.854  30.328  27.670  1.00  0.00     0.095 A 
ATOM     25  C   UNL A   1      32.616  30.906  26.934  1.00  0.00     0.255 A 
ATOM     26  N   UNL A   1      33.839  31.248  27.490  1.00  0.00    -0.258 N 
ATOM     27  O   UNL A   1      31.669  31.667  26.768  1.00  0.00    -0.269 OA
BRANCH  26  28
ATOM     28  C   UNL A   1      34.032  32.627  27.867  1.00  0.00     0.451 C 
ATOM     29  F   UNL A   1      33.807  32.802  29.192  1.00  0.00    -0.185 F 
ATOM     30  F   UNL A   1      35.295  33.037  27.596  1.00  0.00    -0.185 F 
ENDBRANCH  26  28
ENDBRANCH  10  21
ENDBRANCH   4   7
ENDBRANCH   2   3
ENDBRANCH   1   2
BRANCH   1  31
ATOM     31  C   UNL A   1      35.814  21.660  25.493  1.00  0.00     0.118 C 
BRANCH  31  32
ATOM     32  N   UNL A   1      36.916  20.723  25.362  1.00  0.00    -0.352 N 
ATOM     33  C   UNL A   1      38.266  20.846  25.549  1.00  0.00     0.251 C 
ATOM     34  H   UNL A   1      36.637  19.821  25.084  1.00  0.00     0.163 HD
ATOM     35  O   UNL A   1      38.989  19.926  25.166  1.00  0.00    -0.269 OA
BRANCH  33  36
ATOM     36  C   UNL A   1      38.894  22.019  26.201  1.00  0.00     0.039 A 
ATOM     37  C   UNL A   1      38.470  23.290  25.786  1.00  0.00     0.014 A 
ATOM     38  C   UNL A   1      39.993  21.912  27.059  1.00  0.00     0.014 A 
ATOM     39  C   UNL A   1      39.131  24.441  26.224  1.00  0.00     0.010 A 
ATOM     40  C   UNL A   1      40.642  23.068  27.519  1.00  0.00     0.010 A 
ATOM     41  C   UNL A   1      40.231  24.339  27.086  1.00  0.00    -0.014 A 
BRANCH  41  42
ATOM     42  C   UNL A   1      41.004  25.552  27.457  1.00  0.00     0.031 A 
ATOM     43  C   UNL A   1      40.379  26.603  28.333  1.00  0.00     0.074 A 
ATOM     44  C   UNL A   1      42.269  25.713  27.033  1.00  0.00     0.049 A 
ATOM     45  N   UNL A   1      40.854  27.769  28.694  1.00  0.00    -0.248 NA
ATOM     46  C   UNL A   1      39.040  26.307  28.866  1.00  0.00     0.031 C 
ATOM     47  C   UNL A   1      43.011  24.772  26.194  1.00  0.00     0.029 A 
ATOM     48  N   UNL A   1      43.158  26.736  27.258  1.00  0.00    -0.354 N 
ATOM     49  C   UNL A   1      39.857  28.365  29.453  1.00  0.00     0.074 A 
ATOM     50  C   UNL A   1      38.760  27.422  29.526  1.00  0.00     0.031 C 
ATOM     51  C   UNL A   1      44.248  25.255  25.987  1.00  0.00     0.029 A 
ATOM     52  C   UNL A   1      44.379  26.545  26.662  1.00  0.00     0.049 A 
ATOM     53  H   UNL A   1      42.939  27.532  27.795  1.00  0.00     0.167 HD
ATOM     54  C   UNL A   1      39.847  29.591  30.027  1.00  0.00     0.037 A 
ATOM     55  C   UNL A   1      45.477  27.322  26.659  1.00  0.00     0.037 A 
ATOM     56  C   UNL A   1      40.943  30.521  30.007  1.00  0.00     0.049 A 
ATOM     57  C   UNL A   1      45.474  28.639  27.377  1.00  0.00     0.074 A 
ATOM     58  C   UNL A   1      41.005  31.798  30.539  1.00  0.00     0.029 A 
ATOM     59  N   UNL A   1      42.180  30.260  29.444  1.00  0.00    -0.354 N 
ATOM     60  N   UNL A   1      44.501  29.215  28.036  1.00  0.00    -0.248 NA
ATOM     61  C   UNL A   1      46.723  29.417  27.342  1.00  0.00     0.031 C 
ATOM     62  C   UNL A   1      42.291  32.306  30.307  1.00  0.00     0.029 A 
ATOM     63  C   UNL A   1      43.022  31.344  29.633  1.00  0.00     0.049 A 
ATOM     64  H   UNL A   1      42.426  29.428  28.978  1.00  0.00     0.167 HD
ATOM     65  C   UNL A   1      45.012  30.424  28.486  1.00  0.00     0.074 A 
ATOM     66  C   UNL A   1      46.388  30.494  28.039  1.00  0.00     0.031 C 
ATOM     67  C   UNL A   1      44.390  31.395  29.196  1.00  0.00     0.037 A 
BRANCH  54  68
ATOM     68  C   UNL A   1      38.585  30.006  30.710  1.00  0.00     0.057 A 
ATOM     69  C   UNL A   1      38.308  29.632  32.029  1.00  0.00     0.134 A 
ATOM     70  C   UNL A   1      37.647  30.804  30.043  1.00  0.00     0.134 A 
ATOM     71  F   UNL A   1      39.166  28.858  32.710  1.00  0.00    -0.206 F 
ATOM     72  C   UNL A   1      37.134  30.037  32.664  1.00  0.00     0.040 A 
ATOM     73  C   UNL A   1      36.471  31.217  30.669  1.00  0.00     0.040 A 
ATOM     74  F   UNL A   1      37.857  31.186  28.774  1.00  0.00    -0.206 F 
ATOM     75  C   UNL A   1      36.212  30.832  31.983  1.00  0.00     0.006 A 
ENDBRANCH  54  68
BRANCH  55  76
ATOM     76  C   UNL A   1      46.688  26.872  25.940  1.00  0.00     0.057 A 
ATOM     77  C   UNL A   1      46.924  27.259  24.617  1.00  0.00     0.134 A 
ATOM     78  C   UNL A   1      47.628  26.042  26.558  1.00  0.00     0.134 A 
ATOM     79  F   UNL A   1      46.043  28.040  23.975  1.00  0.00    -0.206 F 
ATOM     80  C   UNL A   1      48.059  26.832  23.928  1.00  0.00     0.040 A 
ATOM     81  C   UNL A   1      48.769  25.611  25.883  1.00  0.00     0.040 A 
ATOM     82  F   UNL A   1      47.443  25.636  27.823  1.00  0.00    -0.206 F 
ATOM     83  C   UNL A   1      48.986  26.005  24.563  1.00  0.00     0.006 A 
ENDBRANCH  55  76
BRANCH  67  84
ATOM     84  C   UNL A   1      45.191  32.610  29.531  1.00  0.00     0.057 A 
ATOM     85  C   UNL A   1      45.939  32.677  30.711  1.00  0.00     0.134 A 
ATOM     86  C   UNL A   1      45.235  33.706  28.664  1.00  0.00     0.134 A 
ATOM     87  F   UNL A   1      45.926  31.659  31.584  1.00  0.00    -0.206 F 
ATOM     88  C   UNL A   1      46.709  33.800  31.019  1.00  0.00     0.040 A 
ATOM     89  C   UNL A   1      46.001  34.834  28.960  1.00  0.00     0.040 A 
ATOM     90  F   UNL A   1      44.531  33.700  27.522  1.00  0.00    -0.206 F 
ATOM     91  C   UNL A   1      46.741  34.882  30.141  1.00  0.00     0.006 A 
ENDBRANCH  67  84
ENDBRANCH  41  42
ENDBRANCH  33  36
ENDBRANCH  31  32
ENDBRANCH   1  31
TORSDOF 14
ENDMDL
