MODEL 1
REMARK VINA RESULT:     -11.6      0.000      0.000
REMARK SMILES COc1cc2nc(SCC(=O)NCCCNC(=O)c3ccc(-c4c5nc(c(-c6c(F)cccc6F)c6ccc([nH]6)c(-c6c(F)cccc6F)c6nc(c(-c7c(F)cccc7F)c7ccc4[nH]7)C=C6)C=C5)cc3)nc(O)c2cc1OC
REMARK SMILES IDX 13 1 12 2 10 3 11 4 9 6 8 7 7 8 3 9 4 10 78 11 5 12 77 13
REMARK SMILES IDX 6 14 76 15 74 16 73 17 2 18 1 19 79 20 80 21 75 22 14 24
REMARK SMILES IDX 15 25 16 26 17 27 18 29 19 30 20 31 72 32 21 33 71 34 22 35
REMARK SMILES IDX 23 36 24 37 65 38 25 39 70 40 64 41 66 42 26 43 69 44 63 45
REMARK SMILES IDX 62 46 27 48 53 49 36 50 52 51 37 52 40 53 51 54 67 55 38 56
REMARK SMILES IDX 39 57 50 59 68 60 41 61 28 62 29 63 34 64 30 65 31 66 33 67
REMARK SMILES IDX 35 68 32 69 54 70 55 71 60 72 56 73 57 74 59 75 61 76 58 77
REMARK SMILES IDX 42 78 43 79 48 80 44 81 45 82 47 83 49 84 46 85
REMARK H PARENT 12 5 75 23 16 28 66 47 40 58
REMARK Flexibility Score: inf
ROOT
ATOM      1  C   UNL A   1      36.905  20.772  24.914  1.00  0.00     0.117 C 
ENDROOT
BRANCH   1   2
ATOM      2  N   UNL A   1      35.552  20.260  25.042  1.00  0.00    -0.355 N 
ATOM      3  C   UNL A   1      34.484  20.760  25.728  1.00  0.00     0.230 C 
ATOM      4  O   UNL A   1      33.425  20.126  25.673  1.00  0.00    -0.274 OA
ATOM      5  H   UNL A   1      35.379  19.420  24.557  1.00  0.00     0.163 HD
BRANCH   3   6
ATOM      6  C   UNL A   1      34.574  22.096  26.446  1.00  0.00     0.178 C 
BRANCH   6   7
ATOM      7  S   UNL A   1      33.220  22.400  27.617  1.00  0.00    -0.076 SA
BRANCH   7   8
ATOM      8  C   UNL A   1      32.225  23.565  26.725  1.00  0.00     0.192 A 
ATOM      9  C   UNL A   1      32.027  26.839  23.317  1.00  0.00     0.162 A 
ATOM     10  C   UNL A   1      32.728  25.860  24.032  1.00  0.00     0.079 A 
ATOM     11  C   UNL A   1      30.679  27.100  23.587  1.00  0.00     0.161 A 
ATOM     12  C   UNL A   1      32.130  25.145  25.058  1.00  0.00     0.083 A 
ATOM     13  C   UNL A   1      30.064  26.382  24.611  1.00  0.00     0.066 A 
ATOM     14  N   UNL A   1      32.844  24.241  25.743  1.00  0.00    -0.222 NA
ATOM     15  C   UNL A   1      30.792  25.412  25.343  1.00  0.00     0.066 A 
ATOM     16  C   UNL A   1      30.280  24.651  26.381  1.00  0.00     0.223 A 
ATOM     17  N   UNL A   1      30.948  23.724  27.071  1.00  0.00    -0.187 NA
BRANCH   9  18
ATOM     18  O   UNL A   1      32.725  27.457  22.309  1.00  0.00    -0.493 OA
ATOM     19  C   UNL A   1      33.554  28.508  22.806  1.00  0.00     0.278 C 
ENDBRANCH   9  18
BRANCH  11  20
ATOM     20  O   UNL A   1      30.056  28.031  22.801  1.00  0.00    -0.493 OA
ATOM     21  C   UNL A   1      29.890  29.338  23.334  1.00  0.00     0.278 C 
ENDBRANCH  11  20
BRANCH  16  22
ATOM     22  O   UNL A   1      29.005  24.820  26.825  1.00  0.00    -0.493 OA
ATOM     23  H   UNL A   1      28.804  25.515  27.420  1.00  0.00     0.295 HD
ENDBRANCH  16  22
ENDBRANCH   7   8
ENDBRANCH   6   7
ENDBRANCH   3   6
ENDBRANCH   1   2
BRANCH   1  24
ATOM     24  C   UNL A   1      37.952  19.668  25.035  1.00  0.00     0.042 C 
BRANCH  24  25
ATOM     25  C   UNL A   1      39.215  20.075  25.788  1.00  0.00     0.118 C 
BRANCH  25  26
ATOM     26  N   UNL A   1      40.226  19.026  25.826  1.00  0.00    -0.352 N 
ATOM     27  C   UNL A   1      41.576  19.109  26.072  1.00  0.00     0.251 C 
ATOM     28  H   UNL A   1      39.890  18.118  25.648  1.00  0.00     0.163 HD
ATOM     29  O   UNL A   1      42.284  18.116  25.924  1.00  0.00    -0.269 OA
BRANCH  27  30
ATOM     30  C   UNL A   1      42.189  20.394  26.475  1.00  0.00     0.039 A 
ATOM     31  C   UNL A   1      42.185  20.815  27.806  1.00  0.00     0.014 A 
ATOM     32  C   UNL A   1      42.772  21.199  25.491  1.00  0.00     0.014 A 
ATOM     33  C   UNL A   1      42.601  22.106  28.126  1.00  0.00     0.010 A 
ATOM     34  C   UNL A   1      43.258  22.466  25.825  1.00  0.00     0.010 A 
ATOM     35  C   UNL A   1      43.124  22.952  27.136  1.00  0.00    -0.014 A 
BRANCH  35  36
ATOM     36  C   UNL A   1      43.472  24.360  27.465  1.00  0.00     0.031 A 
ATOM     37  C   UNL A   1      44.901  24.828  27.360  1.00  0.00     0.074 A 
ATOM     38  C   UNL A   1      42.507  25.231  27.816  1.00  0.00     0.049 A 
ATOM     39  N   UNL A   1      45.413  26.000  27.645  1.00  0.00    -0.248 NA
ATOM     40  C   UNL A   1      45.885  23.850  26.871  1.00  0.00     0.031 C 
ATOM     41  C   UNL A   1      41.082  24.917  27.922  1.00  0.00     0.029 A 
ATOM     42  N   UNL A   1      42.580  26.563  28.136  1.00  0.00    -0.354 N 
ATOM     43  C   UNL A   1      46.774  25.895  27.385  1.00  0.00     0.074 A 
ATOM     44  C   UNL A   1      47.016  24.536  26.951  1.00  0.00     0.031 C 
ATOM     45  C   UNL A   1      40.410  26.033  28.249  1.00  0.00     0.029 A 
ATOM     46  C   UNL A   1      41.363  27.123  28.435  1.00  0.00     0.049 A 
ATOM     47  H   UNL A   1      43.424  27.069  28.151  1.00  0.00     0.167 HD
ATOM     48  C   UNL A   1      47.734  26.845  27.485  1.00  0.00     0.037 A 
ATOM     49  C   UNL A   1      41.050  28.370  28.834  1.00  0.00     0.037 A 
ATOM     50  C   UNL A   1      47.494  28.202  27.900  1.00  0.00     0.049 A 
ATOM     51  C   UNL A   1      42.144  29.384  29.013  1.00  0.00     0.074 A 
ATOM     52  C   UNL A   1      48.404  29.238  28.033  1.00  0.00     0.029 A 
ATOM     53  N   UNL A   1      46.253  28.714  28.245  1.00  0.00    -0.354 N 
ATOM     54  N   UNL A   1      43.428  29.266  28.775  1.00  0.00    -0.248 NA
ATOM     55  C   UNL A   1      41.747  30.702  29.529  1.00  0.00     0.031 C 
ATOM     56  C   UNL A   1      47.716  30.368  28.491  1.00  0.00     0.029 A 
ATOM     57  C   UNL A   1      46.375  30.046  28.604  1.00  0.00     0.049 A 
ATOM     58  H   UNL A   1      45.411  28.204  28.236  1.00  0.00     0.167 HD
ATOM     59  C   UNL A   1      43.986  30.498  29.086  1.00  0.00     0.074 A 
ATOM     60  C   UNL A   1      42.901  31.353  29.521  1.00  0.00     0.031 C 
ATOM     61  C   UNL A   1      45.282  30.888  29.018  1.00  0.00     0.037 A 
BRANCH  48  62
ATOM     62  C   UNL A   1      49.140  26.445  27.146  1.00  0.00     0.057 A 
ATOM     63  C   UNL A   1      49.998  25.943  28.133  1.00  0.00     0.134 A 
ATOM     64  C   UNL A   1      49.655  26.585  25.851  1.00  0.00     0.134 A 
ATOM     65  F   UNL A   1      49.571  25.790  29.395  1.00  0.00    -0.206 F 
ATOM     66  C   UNL A   1      51.319  25.595  27.843  1.00  0.00     0.040 A 
ATOM     67  C   UNL A   1      50.967  26.218  25.545  1.00  0.00     0.040 A 
ATOM     68  F   UNL A   1      48.881  27.048  24.858  1.00  0.00    -0.206 F 
ATOM     69  C   UNL A   1      51.805  25.727  26.544  1.00  0.00     0.006 A 
ENDBRANCH  48  62
BRANCH  49  70
ATOM     70  C   UNL A   1      39.638  28.732  29.112  1.00  0.00     0.057 A 
ATOM     71  C   UNL A   1      38.804  29.241  28.109  1.00  0.00     0.134 A 
ATOM     72  C   UNL A   1      39.083  28.551  30.384  1.00  0.00     0.134 A 
ATOM     73  F   UNL A   1      39.277  29.438  26.870  1.00  0.00    -0.206 F 
ATOM     74  C   UNL A   1      37.471  29.564  28.362  1.00  0.00     0.040 A 
ATOM     75  C   UNL A   1      37.744  28.846  30.645  1.00  0.00     0.040 A 
ATOM     76  F   UNL A   1      39.826  28.046  31.379  1.00  0.00    -0.206 F 
ATOM     77  C   UNL A   1      36.935  29.358  29.632  1.00  0.00     0.006 A 
ENDBRANCH  49  70
BRANCH  61  78
ATOM     78  C   UNL A   1      45.589  32.311  29.377  1.00  0.00     0.057 A 
ATOM     79  C   UNL A   1      45.563  33.311  28.398  1.00  0.00     0.134 A 
ATOM     80  C   UNL A   1      45.943  32.683  30.679  1.00  0.00     0.134 A 
ATOM     81  F   UNL A   1      45.236  33.017  27.130  1.00  0.00    -0.206 F 
ATOM     82  C   UNL A   1      45.883  34.635  28.702  1.00  0.00     0.040 A 
ATOM     83  C   UNL A   1      46.244  34.008  30.999  1.00  0.00     0.040 A 
ATOM     84  F   UNL A   1      45.970  31.773  31.663  1.00  0.00    -0.206 F 
ATOM     85  C   UNL A   1      46.220  34.987  30.007  1.00  0.00     0.006 A 
ENDBRANCH  61  78
ENDBRANCH  35  36
ENDBRANCH  27  30
ENDBRANCH  25  26
ENDBRANCH  24  25
ENDBRANCH   1  24
TORSDOF 15
ENDMDL
MODEL 2
REMARK VINA RESULT:     -11.4      5.222      9.804
REMARK SMILES COc1cc2nc(SCC(=O)NCCCNC(=O)c3ccc(-c4c5nc(c(-c6c(F)cccc6F)c6ccc([nH]6)c(-c6c(F)cccc6F)c6nc(c(-c7c(F)cccc7F)c7ccc4[nH]7)C=C6)C=C5)cc3)nc(O)c2cc1OC
REMARK SMILES IDX 13 1 12 2 10 3 11 4 9 6 8 7 7 8 3 9 4 10 78 11 5 12 77 13
REMARK SMILES IDX 6 14 76 15 74 16 73 17 2 18 1 19 79 20 80 21 75 22 14 24
REMARK SMILES IDX 15 25 16 26 17 27 18 29 19 30 20 31 72 32 21 33 71 34 22 35
REMARK SMILES IDX 23 36 24 37 65 38 25 39 70 40 64 41 66 42 26 43 69 44 63 45
REMARK SMILES IDX 62 46 27 48 53 49 36 50 52 51 37 52 40 53 51 54 67 55 38 56
REMARK SMILES IDX 39 57 50 59 68 60 41 61 28 62 29 63 34 64 30 65 31 66 33 67
REMARK SMILES IDX 35 68 32 69 54 70 55 71 60 72 56 73 57 74 59 75 61 76 58 77
REMARK SMILES IDX 42 78 43 79 48 80 44 81 45 82 47 83 49 84 46 85
REMARK H PARENT 12 5 75 23 16 28 66 47 40 58
REMARK Flexibility Score: inf
ROOT
ATOM      1  C   UNL A   1      32.046  30.437  26.082  1.00  0.00     0.117 C 
ENDROOT
BRANCH   1   2
ATOM      2  N   UNL A   1      31.194  30.040  24.974  1.00  0.00    -0.355 N 
ATOM      3  C   UNL A   1      31.055  28.828  24.363  1.00  0.00     0.230 C 
ATOM      4  O   UNL A   1      30.247  28.750  23.431  1.00  0.00    -0.274 OA
ATOM      5  H   UNL A   1      30.629  30.758  24.608  1.00  0.00     0.163 HD
BRANCH   3   6
ATOM      6  C   UNL A   1      31.792  27.604  24.880  1.00  0.00     0.178 C 
BRANCH   6   7
ATOM      7  S   UNL A   1      31.042  26.856  26.355  1.00  0.00    -0.076 SA
BRANCH   7   8
ATOM      8  C   UNL A   1      31.425  25.140  26.124  1.00  0.00     0.192 A 
ATOM      9  C   UNL A   1      34.572  21.930  24.653  1.00  0.00     0.162 A 
ATOM     10  C   UNL A   1      34.213  23.258  24.919  1.00  0.00     0.079 A 
ATOM     11  C   UNL A   1      33.691  20.877  24.929  1.00  0.00     0.161 A 
ATOM     12  C   UNL A   1      32.963  23.583  25.421  1.00  0.00     0.083 A 
ATOM     13  C   UNL A   1      32.434  21.191  25.442  1.00  0.00     0.066 A 
ATOM     14  N   UNL A   1      32.643  24.868  25.629  1.00  0.00    -0.222 NA
ATOM     15  C   UNL A   1      32.075  22.541  25.683  1.00  0.00     0.066 A 
ATOM     16  C   UNL A   1      30.853  22.961  26.183  1.00  0.00     0.223 A 
ATOM     17  N   UNL A   1      30.504  24.226  26.427  1.00  0.00    -0.187 NA
BRANCH   9  18
ATOM     18  O   UNL A   1      35.847  21.738  24.182  1.00  0.00    -0.493 OA
ATOM     19  C   UNL A   1      36.403  22.943  23.656  1.00  0.00     0.278 C 
ENDBRANCH   9  18
BRANCH  11  20
ATOM     20  O   UNL A   1      34.145  19.609  24.694  1.00  0.00    -0.493 OA
ATOM     21  C   UNL A   1      33.176  18.581  24.534  1.00  0.00     0.278 C 
ENDBRANCH  11  20
BRANCH  16  22
ATOM     22  O   UNL A   1      29.850  22.079  26.443  1.00  0.00    -0.493 OA
ATOM     23  H   UNL A   1      29.935  21.466  27.146  1.00  0.00     0.295 HD
ENDBRANCH  16  22
ENDBRANCH   7   8
ENDBRANCH   6   7
ENDBRANCH   3   6
ENDBRANCH   1   2
BRANCH   1  24
ATOM     24  C   UNL A   1      31.638  31.786  26.667  1.00  0.00     0.042 C 
BRANCH  24  25
ATOM     25  C   UNL A   1      32.784  32.576  27.293  1.00  0.00     0.118 C 
BRANCH  25  26
ATOM     26  N   UNL A   1      32.433  33.956  27.597  1.00  0.00    -0.352 N 
ATOM     27  C   UNL A   1      32.978  34.826  28.513  1.00  0.00     0.251 C 
ATOM     28  H   UNL A   1      31.690  34.324  27.065  1.00  0.00     0.163 HD
ATOM     29  O   UNL A   1      32.445  35.914  28.711  1.00  0.00    -0.269 OA
BRANCH  27  30
ATOM     30  C   UNL A   1      34.176  34.443  29.292  1.00  0.00     0.039 A 
ATOM     31  C   UNL A   1      35.458  34.540  28.745  1.00  0.00     0.014 A 
ATOM     32  C   UNL A   1      34.008  33.966  30.595  1.00  0.00     0.014 A 
ATOM     33  C   UNL A   1      36.545  34.001  29.430  1.00  0.00     0.010 A 
ATOM     34  C   UNL A   1      35.111  33.493  31.312  1.00  0.00     0.010 A 
ATOM     35  C   UNL A   1      36.380  33.453  30.712  1.00  0.00    -0.014 A 
BRANCH  35  36
ATOM     36  C   UNL A   1      37.524  32.792  31.393  1.00  0.00     0.031 A 
ATOM     37  C   UNL A   1      38.195  31.601  30.759  1.00  0.00     0.074 A 
ATOM     38  C   UNL A   1      37.992  33.281  32.558  1.00  0.00     0.049 A 
ATOM     39  N   UNL A   1      39.176  30.861  31.214  1.00  0.00    -0.248 NA
ATOM     40  C   UNL A   1      37.698  31.186  29.437  1.00  0.00     0.031 C 
ATOM     41  C   UNL A   1      37.457  34.447  33.261  1.00  0.00     0.029 A 
ATOM     42  N   UNL A   1      39.033  32.863  33.348  1.00  0.00    -0.354 N 
ATOM     43  C   UNL A   1      39.402  29.889  30.246  1.00  0.00     0.074 A 
ATOM     44  C   UNL A   1      38.434  30.112  29.193  1.00  0.00     0.031 C 
ATOM     45  C   UNL A   1      38.194  34.672  34.361  1.00  0.00     0.029 A 
ATOM     46  C   UNL A   1      39.213  33.633  34.471  1.00  0.00     0.049 A 
ATOM     47  H   UNL A   1      39.597  32.087  33.131  1.00  0.00     0.167 HD
ATOM     48  C   UNL A   1      40.336  28.909  30.228  1.00  0.00     0.037 A 
ATOM     49  C   UNL A   1      40.086  33.502  35.487  1.00  0.00     0.037 A 
ATOM     50  C   UNL A   1      41.310  28.695  31.266  1.00  0.00     0.049 A 
ATOM     51  C   UNL A   1      41.061  32.360  35.481  1.00  0.00     0.074 A 
ATOM     52  C   UNL A   1      42.298  27.727  31.338  1.00  0.00     0.029 A 
ATOM     53  N   UNL A   1      41.423  29.465  32.413  1.00  0.00    -0.354 N 
ATOM     54  N   UNL A   1      41.254  31.442  34.565  1.00  0.00    -0.248 NA
ATOM     55  C   UNL A   1      41.932  32.227  36.658  1.00  0.00     0.031 C 
ATOM     56  C   UNL A   1      42.986  27.892  32.545  1.00  0.00     0.029 A 
ATOM     57  C   UNL A   1      42.453  28.986  33.204  1.00  0.00     0.049 A 
ATOM     58  H   UNL A   1      40.853  30.238  32.631  1.00  0.00     0.167 HD
ATOM     59  C   UNL A   1      42.283  30.641  35.041  1.00  0.00     0.074 A 
ATOM     60  C   UNL A   1      42.680  31.186  36.322  1.00  0.00     0.031 C 
ATOM     61  C   UNL A   1      42.848  29.551  34.469  1.00  0.00     0.037 A 
BRANCH  48  62
ATOM     62  C   UNL A   1      40.343  27.983  29.047  1.00  0.00     0.057 A 
ATOM     63  C   UNL A   1      39.594  26.800  29.061  1.00  0.00     0.134 A 
ATOM     64  C   UNL A   1      41.115  28.247  27.909  1.00  0.00     0.134 A 
ATOM     65  F   UNL A   1      38.838  26.484  30.123  1.00  0.00    -0.206 F 
ATOM     66  C   UNL A   1      39.613  25.911  27.985  1.00  0.00     0.040 A 
ATOM     67  C   UNL A   1      41.124  27.377  26.817  1.00  0.00     0.040 A 
ATOM     68  F   UNL A   1      41.845  29.369  27.827  1.00  0.00    -0.206 F 
ATOM     69  C   UNL A   1      40.376  26.202  26.856  1.00  0.00     0.006 A 
ENDBRANCH  48  62
BRANCH  49  70
ATOM     70  C   UNL A   1      40.072  34.472  36.611  1.00  0.00     0.057 A 
ATOM     71  C   UNL A   1      40.880  35.614  36.600  1.00  0.00     0.134 A 
ATOM     72  C   UNL A   1      39.226  34.289  37.711  1.00  0.00     0.134 A 
ATOM     73  F   UNL A   1      41.713  35.846  35.574  1.00  0.00    -0.206 F 
ATOM     74  C   UNL A   1      40.854  36.537  37.645  1.00  0.00     0.040 A 
ATOM     75  C   UNL A   1      39.171  35.217  38.752  1.00  0.00     0.040 A 
ATOM     76  F   UNL A   1      38.412  33.225  37.767  1.00  0.00    -0.206 F 
ATOM     77  C   UNL A   1      39.992  36.344  38.722  1.00  0.00     0.006 A 
ENDBRANCH  49  70
BRANCH  61  78
ATOM     78  C   UNL A   1      43.986  28.906  35.201  1.00  0.00     0.057 A 
ATOM     79  C   UNL A   1      45.309  29.258  34.908  1.00  0.00     0.134 A 
ATOM     80  C   UNL A   1      43.775  27.915  36.167  1.00  0.00     0.134 A 
ATOM     81  F   UNL A   1      45.577  30.198  33.989  1.00  0.00    -0.206 F 
ATOM     82  C   UNL A   1      46.385  28.644  35.550  1.00  0.00     0.040 A 
ATOM     83  C   UNL A   1      44.843  27.308  36.830  1.00  0.00     0.040 A 
ATOM     84  F   UNL A   1      42.530  27.545  36.501  1.00  0.00    -0.206 F 
ATOM     85  C   UNL A   1      46.152  27.668  36.518  1.00  0.00     0.006 A 
ENDBRANCH  61  78
ENDBRANCH  35  36
ENDBRANCH  27  30
ENDBRANCH  25  26
ENDBRANCH  24  25
ENDBRANCH   1  24
TORSDOF 15
ENDMDL
MODEL 3
REMARK VINA RESULT:     -11.4      4.984     10.275
REMARK SMILES COc1cc2nc(SCC(=O)NCCCNC(=O)c3ccc(-c4c5nc(c(-c6c(F)cccc6F)c6ccc([nH]6)c(-c6c(F)cccc6F)c6nc(c(-c7c(F)cccc7F)c7ccc4[nH]7)C=C6)C=C5)cc3)nc(O)c2cc1OC
REMARK SMILES IDX 13 1 12 2 10 3 11 4 9 6 8 7 7 8 3 9 4 10 78 11 5 12 77 13
REMARK SMILES IDX 6 14 76 15 74 16 73 17 2 18 1 19 79 20 80 21 75 22 14 24
REMARK SMILES IDX 15 25 16 26 17 27 18 29 19 30 20 31 72 32 21 33 71 34 22 35
REMARK SMILES IDX 23 36 24 37 65 38 25 39 70 40 64 41 66 42 26 43 69 44 63 45
REMARK SMILES IDX 62 46 27 48 53 49 36 50 52 51 37 52 40 53 51 54 67 55 38 56
REMARK SMILES IDX 39 57 50 59 68 60 41 61 28 62 29 63 34 64 30 65 31 66 33 67
REMARK SMILES IDX 35 68 32 69 54 70 55 71 60 72 56 73 57 74 59 75 61 76 58 77
REMARK SMILES IDX 42 78 43 79 48 80 44 81 45 82 47 83 49 84 46 85
REMARK H PARENT 12 5 75 23 16 28 66 47 40 58
REMARK Flexibility Score: inf
ROOT
ATOM      1  C   UNL A   1      31.930  30.374  25.908  1.00  0.00     0.117 C 
ENDROOT
BRANCH   1   2
ATOM      2  N   UNL A   1      31.024  30.016  24.830  1.00  0.00    -0.355 N 
ATOM      3  C   UNL A   1      30.858  28.828  24.180  1.00  0.00     0.230 C 
ATOM      4  O   UNL A   1      30.005  28.782  23.287  1.00  0.00    -0.274 OA
ATOM      5  H   UNL A   1      30.440  30.745  24.520  1.00  0.00     0.163 HD
BRANCH   3   6
ATOM      6  C   UNL A   1      31.623  27.588  24.612  1.00  0.00     0.178 C 
BRANCH   6   7
ATOM      7  S   UNL A   1      31.141  26.952  26.243  1.00  0.00    -0.076 SA
BRANCH   7   8
ATOM      8  C   UNL A   1      31.494  25.222  26.074  1.00  0.00     0.192 A 
ATOM      9  C   UNL A   1      34.588  21.907  24.728  1.00  0.00     0.162 A 
ATOM     10  C   UNL A   1      34.252  23.249  24.945  1.00  0.00     0.079 A 
ATOM     11  C   UNL A   1      33.688  20.880  25.038  1.00  0.00     0.161 A 
ATOM     12  C   UNL A   1      33.007  23.614  25.432  1.00  0.00     0.083 A 
ATOM     13  C   UNL A   1      32.436  21.235  25.537  1.00  0.00     0.066 A 
ATOM     14  N   UNL A   1      32.709  24.911  25.593  1.00  0.00    -0.222 NA
ATOM     15  C   UNL A   1      32.099  22.598  25.728  1.00  0.00     0.066 A 
ATOM     16  C   UNL A   1      30.884  23.056  26.209  1.00  0.00     0.223 A 
ATOM     17  N   UNL A   1      30.557  24.335  26.407  1.00  0.00    -0.187 NA
BRANCH   9  18
ATOM     18  O   UNL A   1      35.861  21.677  24.268  1.00  0.00    -0.493 OA
ATOM     19  C   UNL A   1      36.498  22.883  23.847  1.00  0.00     0.278 C 
ENDBRANCH   9  18
BRANCH  11  20
ATOM     20  O   UNL A   1      34.120  19.597  24.851  1.00  0.00    -0.493 OA
ATOM     21  C   UNL A   1      33.134  18.582  24.714  1.00  0.00     0.278 C 
ENDBRANCH  11  20
BRANCH  16  22
ATOM     22  O   UNL A   1      29.865  22.202  26.497  1.00  0.00    -0.493 OA
ATOM     23  H   UNL A   1      29.886  21.697  27.286  1.00  0.00     0.295 HD
ENDBRANCH  16  22
ENDBRANCH   7   8
ENDBRANCH   6   7
ENDBRANCH   3   6
ENDBRANCH   1   2
BRANCH   1  24
ATOM     24  C   UNL A   1      31.607  31.744  26.499  1.00  0.00     0.042 C 
BRANCH  24  25
ATOM     25  C   UNL A   1      32.817  32.497  27.044  1.00  0.00     0.118 C 
BRANCH  25  26
ATOM     26  N   UNL A   1      32.500  33.846  27.494  1.00  0.00    -0.352 N 
ATOM     27  C   UNL A   1      33.057  34.595  28.504  1.00  0.00     0.251 C 
ATOM     28  H   UNL A   1      31.776  34.291  26.997  1.00  0.00     0.163 HD
ATOM     29  O   UNL A   1      32.553  35.671  28.814  1.00  0.00    -0.269 OA
BRANCH  27  30
ATOM     30  C   UNL A   1      34.235  34.094  29.248  1.00  0.00     0.039 A 
ATOM     31  C   UNL A   1      35.534  34.436  28.866  1.00  0.00     0.014 A 
ATOM     32  C   UNL A   1      34.028  33.256  30.348  1.00  0.00     0.014 A 
ATOM     33  C   UNL A   1      36.621  33.805  29.468  1.00  0.00     0.010 A 
ATOM     34  C   UNL A   1      35.123  32.681  31.000  1.00  0.00     0.010 A 
ATOM     35  C   UNL A   1      36.426  32.905  30.527  1.00  0.00    -0.014 A 
BRANCH  35  36
ATOM     36  C   UNL A   1      37.581  32.162  31.097  1.00  0.00     0.031 A 
ATOM     37  C   UNL A   1      38.073  32.479  32.486  1.00  0.00     0.074 A 
ATOM     38  C   UNL A   1      38.164  31.175  30.390  1.00  0.00     0.049 A 
ATOM     39  N   UNL A   1      39.089  31.975  33.141  1.00  0.00    -0.248 NA
ATOM     40  C   UNL A   1      37.323  33.498  33.238  1.00  0.00     0.031 C 
ATOM     41  C   UNL A   1      37.765  30.744  29.050  1.00  0.00     0.029 A 
ATOM     42  N   UNL A   1      39.210  30.346  30.710  1.00  0.00    -0.354 N 
ATOM     43  C   UNL A   1      39.108  32.623  34.371  1.00  0.00     0.074 A 
ATOM     44  C   UNL A   1      38.023  33.581  34.359  1.00  0.00     0.031 C 
ATOM     45  C   UNL A   1      38.534  29.709  28.675  1.00  0.00     0.029 A 
ATOM     46  C   UNL A   1      39.517  29.444  29.721  1.00  0.00     0.049 A 
ATOM     47  H   UNL A   1      39.694  30.394  31.565  1.00  0.00     0.167 HD
ATOM     48  C   UNL A   1      39.944  32.431  35.420  1.00  0.00     0.037 A 
ATOM     49  C   UNL A   1      40.495  28.521  29.655  1.00  0.00     0.037 A 
ATOM     50  C   UNL A   1      41.014  31.469  35.441  1.00  0.00     0.049 A 
ATOM     51  C   UNL A   1      41.458  28.382  30.800  1.00  0.00     0.074 A 
ATOM     52  C   UNL A   1      41.915  31.201  36.457  1.00  0.00     0.029 A 
ATOM     53  N   UNL A   1      41.324  30.611  34.397  1.00  0.00    -0.354 N 
ATOM     54  N   UNL A   1      41.471  29.010  31.950  1.00  0.00    -0.248 NA
ATOM     55  C   UNL A   1      42.551  27.413  30.631  1.00  0.00     0.031 C 
ATOM     56  C   UNL A   1      42.791  30.204  36.014  1.00  0.00     0.029 A 
ATOM     57  C   UNL A   1      42.410  29.824  34.739  1.00  0.00     0.049 A 
ATOM     58  H   UNL A   1      40.842  30.569  33.539  1.00  0.00     0.167 HD
ATOM     59  C   UNL A   1      42.553  28.496  32.651  1.00  0.00     0.074 A 
ATOM     60  C   UNL A   1      43.167  27.497  31.802  1.00  0.00     0.031 C 
ATOM     61  C   UNL A   1      42.999  28.822  33.889  1.00  0.00     0.037 A 
BRANCH  48  62
ATOM     62  C   UNL A   1      39.739  33.290  36.633  1.00  0.00     0.057 A 
ATOM     63  C   UNL A   1      40.457  34.482  36.795  1.00  0.00     0.134 A 
ATOM     64  C   UNL A   1      38.854  32.923  37.654  1.00  0.00     0.134 A 
ATOM     65  F   UNL A   1      41.325  34.888  35.857  1.00  0.00    -0.206 F 
ATOM     66  C   UNL A   1      40.302  35.278  37.932  1.00  0.00     0.040 A 
ATOM     67  C   UNL A   1      38.674  33.723  38.785  1.00  0.00     0.040 A 
ATOM     68  F   UNL A   1      38.127  31.800  37.554  1.00  0.00    -0.206 F 
ATOM     69  C   UNL A   1      39.404  34.901  38.928  1.00  0.00     0.006 A 
ENDBRANCH  48  62
BRANCH  49  70
ATOM     70  C   UNL A   1      40.629  27.662  28.452  1.00  0.00     0.057 A 
ATOM     71  C   UNL A   1      40.009  26.409  28.377  1.00  0.00     0.134 A 
ATOM     72  C   UNL A   1      41.361  28.088  27.338  1.00  0.00     0.134 A 
ATOM     73  F   UNL A   1      39.294  25.944  29.413  1.00  0.00    -0.206 F 
ATOM     74  C   UNL A   1      40.116  25.608  27.241  1.00  0.00     0.040 A 
ATOM     75  C   UNL A   1      41.455  27.308  26.185  1.00  0.00     0.040 A 
ATOM     76  F   UNL A   1      41.958  29.288  27.342  1.00  0.00    -0.206 F 
ATOM     77  C   UNL A   1      40.835  26.061  26.137  1.00  0.00     0.006 A 
ENDBRANCH  49  70
BRANCH  61  78
ATOM     78  C   UNL A   1      44.177  28.058  34.414  1.00  0.00     0.057 A 
ATOM     79  C   UNL A   1      43.992  26.860  35.115  1.00  0.00     0.134 A 
ATOM     80  C   UNL A   1      45.488  28.525  34.258  1.00  0.00     0.134 A 
ATOM     81  F   UNL A   1      42.760  26.363  35.302  1.00  0.00    -0.206 F 
ATOM     82  C   UNL A   1      45.072  26.154  35.646  1.00  0.00     0.040 A 
ATOM     83  C   UNL A   1      46.577  27.816  34.767  1.00  0.00     0.040 A 
ATOM     84  F   UNL A   1      45.730  29.659  33.584  1.00  0.00    -0.206 F 
ATOM     85  C   UNL A   1      46.369  26.630  35.468  1.00  0.00     0.006 A 
ENDBRANCH  61  78
ENDBRANCH  35  36
ENDBRANCH  27  30
ENDBRANCH  25  26
ENDBRANCH  24  25
ENDBRANCH   1  24
TORSDOF 15
ENDMDL
