MODEL 1
REMARK VINA RESULT:      -8.8      0.000      0.000
REMARK SMILES COC(=O)[C@H]1CC[C@]2(C)[C@H](CC[C@]3(C)[C@H]2CC=C2[C@H]4CC(C)(C)CC[C@]4(C(=O)NCCCNC(=O)c4ccc(-c5c6nc(c(-c7c(F)cccc7F)c7ccc([nH]7)c(-c7c(F)cccc7F)c7nc(c(-c8c(F)cccc8F)c8ccc5[nH]8)C=C7)C=C6)cc4)CC[C@@]23C)C1(C)C
REMARK SMILES IDX 31 1 30 2 29 3 27 4 28 5 26 7 5 8 6 9 94 10 7 11 10 12 95 13
REMARK SMILES IDX 96 14 8 15 11 16 15 17 9 18 12 19 16 20 13 21 17 22 92 23
REMARK SMILES IDX 14 24 18 25 91 26 93 27 19 28 90 29 20 30 21 31 25 32 24 33
REMARK SMILES IDX 22 34 23 35 3 36 4 37 2 38 1 39 32 40 33 41 34 42 35 44
REMARK SMILES IDX 36 45 37 46 89 47 38 48 88 49 39 50 40 51 41 52 82 53 42 54
REMARK SMILES IDX 87 55 81 56 83 57 43 58 86 59 80 60 79 61 44 63 70 64 53 65
REMARK SMILES IDX 69 66 54 67 57 68 68 69 84 70 55 71 56 72 67 74 85 75 58 76
REMARK SMILES IDX 45 77 46 78 51 79 47 80 48 81 50 82 52 83 49 84 71 85 72 86
REMARK SMILES IDX 77 87 73 88 74 89 76 90 78 91 75 92 59 93 60 94 65 95 61 96
REMARK SMILES IDX 62 97 64 98 66 99 63 100
REMARK H PARENT 29 6 33 43 83 62 57 73
REMARK Flexibility Score: inf
ROOT
ATOM      1  C   UNL A   1      47.296  25.274  26.293  1.00  0.00     0.042 C 
ENDROOT
BRANCH   1   2
ATOM      2  C   UNL A   1      47.727  26.163  27.478  1.00  0.00     0.117 C 
BRANCH   2   3
ATOM      3  N   UNL A   1      46.814  27.258  27.805  1.00  0.00    -0.356 N 
ATOM      4  C   UNL A   1      46.855  28.482  27.164  1.00  0.00     0.226 C 
ATOM      5  O   UNL A   1      46.464  28.568  26.001  1.00  0.00    -0.274 OA
ATOM      6  H   UNL A   1      46.143  27.117  28.512  1.00  0.00     0.163 HD
BRANCH   4   7
ATOM      7  C   UNL A   1      47.421  29.694  27.959  1.00  0.00     0.056 C 
ATOM      8  C   UNL A   1      43.214  33.952  33.603  1.00  0.00     0.105 C 
ATOM      9  C   UNL A   1      42.030  34.295  32.633  1.00  0.00     0.016 C 
ATOM     10  C   UNL A   1      44.402  33.069  33.047  1.00  0.00    -0.019 C 
ATOM     11  C   UNL A   1      42.247  34.183  31.096  1.00  0.00     0.008 C 
ATOM     12  C   UNL A   1      44.461  33.337  31.501  1.00  0.00     0.002 C 
ATOM     13  C   UNL A   1      44.245  31.577  33.470  1.00  0.00     0.012 C 
ATOM     14  C   UNL A   1      45.770  33.441  33.704  1.00  0.00     0.012 C 
ATOM     15  C   UNL A   1      43.157  32.977  30.708  1.00  0.00    -0.026 C 
ATOM     16  C   UNL A   1      45.719  32.892  30.807  1.00  0.00     0.005 C 
ATOM     17  C   UNL A   1      43.331  32.837  29.078  1.00  0.00     0.006 C 
ATOM     18  C   UNL A   1      42.367  31.744  31.234  1.00  0.00     0.012 C 
ATOM     19  C   UNL A   1      45.866  33.562  29.455  1.00  0.00     0.008 C 
ATOM     20  C   UNL A   1      42.827  31.429  28.530  1.00  0.00     0.032 C 
ATOM     21  C   UNL A   1      44.789  33.215  28.393  1.00  0.00    -0.020 C 
ATOM     22  C   UNL A   1      43.916  30.406  28.665  1.00  0.00    -0.027 C 
ATOM     23  C   UNL A   1      45.306  32.008  27.401  1.00  0.00    -0.006 C 
ATOM     24  C   UNL A   1      44.604  34.525  27.576  1.00  0.00     0.012 C 
ATOM     25  C   UNL A   1      45.153  30.762  28.283  1.00  0.00    -0.064 C 
ATOM     26  C   UNL A   1      46.766  32.063  26.804  1.00  0.00     0.013 C 
ATOM     27  C   UNL A   1      44.431  31.999  26.088  1.00  0.00     0.017 C 
ATOM     28  C   UNL A   1      46.425  30.249  28.960  1.00  0.00     0.031 C 
ATOM     29  C   UNL A   1      47.778  30.893  27.006  1.00  0.00     0.018 C 
ATOM     30  C   UNL A   1      46.291  29.433  30.265  1.00  0.00     0.015 C 
ATOM     31  C   UNL A   1      47.643  29.219  30.988  1.00  0.00    -0.035 C 
ATOM     32  C   UNL A   1      48.751  29.264  28.655  1.00  0.00     0.018 C 
ATOM     33  C   UNL A   1      48.628  28.555  30.008  1.00  0.00     0.007 C 
ATOM     34  C   UNL A   1      47.441  28.321  32.229  1.00  0.00     0.011 C 
ATOM     35  C   UNL A   1      48.219  30.552  31.515  1.00  0.00     0.011 C 
BRANCH   8  36
ATOM     36  C   UNL A   1      43.753  35.254  34.187  1.00  0.00     0.309 C 
ATOM     37  O   UNL A   1      43.976  35.451  35.371  1.00  0.00    -0.252 OA
BRANCH  36  38
ATOM     38  O   UNL A   1      43.812  36.200  33.204  1.00  0.00    -0.469 OA
ATOM     39  C   UNL A   1      43.468  37.515  33.633  1.00  0.00     0.282 C 
ENDBRANCH  36  38
ENDBRANCH   8  36
ENDBRANCH   4   7
ENDBRANCH   2   3
ENDBRANCH   1   2
BRANCH   1  40
ATOM     40  C   UNL A   1      46.433  24.044  26.610  1.00  0.00     0.118 C 
BRANCH  40  41
ATOM     41  N   UNL A   1      45.487  23.781  25.539  1.00  0.00    -0.352 N 
ATOM     42  C   UNL A   1      44.123  23.931  25.485  1.00  0.00     0.251 C 
ATOM     43  H   UNL A   1      45.893  23.437  24.710  1.00  0.00     0.163 HD
ATOM     44  O   UNL A   1      43.505  23.301  24.628  1.00  0.00    -0.269 OA
BRANCH  42  45
ATOM     45  C   UNL A   1      43.357  24.837  26.384  1.00  0.00     0.039 A 
ATOM     46  C   UNL A   1      43.702  26.197  26.392  1.00  0.00     0.014 A 
ATOM     47  C   UNL A   1      42.486  24.357  27.368  1.00  0.00     0.014 A 
ATOM     48  C   UNL A   1      43.202  27.064  27.376  1.00  0.00     0.010 A 
ATOM     49  C   UNL A   1      41.967  25.231  28.341  1.00  0.00     0.010 A 
ATOM     50  C   UNL A   1      42.339  26.589  28.375  1.00  0.00    -0.014 A 
BRANCH  50  51
ATOM     51  C   UNL A   1      41.879  27.483  29.481  1.00  0.00     0.031 A 
ATOM     52  C   UNL A   1      42.544  27.433  30.836  1.00  0.00     0.074 A 
ATOM     53  C   UNL A   1      40.857  28.342  29.294  1.00  0.00     0.049 A 
ATOM     54  N   UNL A   1      42.227  28.064  31.942  1.00  0.00    -0.248 NA
ATOM     55  C   UNL A   1      43.716  26.555  30.967  1.00  0.00     0.031 C 
ATOM     56  C   UNL A   1      40.128  28.528  28.041  1.00  0.00     0.029 A 
ATOM     57  N   UNL A   1      40.246  29.214  30.167  1.00  0.00    -0.354 N 
ATOM     58  C   UNL A   1      43.137  27.637  32.903  1.00  0.00     0.074 A 
ATOM     59  C   UNL A   1      44.015  26.685  32.253  1.00  0.00     0.031 C 
ATOM     60  C   UNL A   1      39.165  29.449  28.227  1.00  0.00     0.029 A 
ATOM     61  C   UNL A   1      39.183  29.891  29.619  1.00  0.00     0.049 A 
ATOM     62  H   UNL A   1      40.543  29.339  31.098  1.00  0.00     0.167 HD
ATOM     63  C   UNL A   1      43.240  28.004  34.204  1.00  0.00     0.037 A 
ATOM     64  C   UNL A   1      38.305  30.752  30.175  1.00  0.00     0.037 A 
ATOM     65  C   UNL A   1      42.410  28.986  34.854  1.00  0.00     0.049 A 
ATOM     66  C   UNL A   1      38.421  31.116  31.631  1.00  0.00     0.074 A 
ATOM     67  C   UNL A   1      42.499  29.464  36.152  1.00  0.00     0.029 A 
ATOM     68  N   UNL A   1      41.343  29.639  34.261  1.00  0.00    -0.354 N 
ATOM     69  N   UNL A   1      39.311  30.731  32.512  1.00  0.00    -0.248 NA
ATOM     70  C   UNL A   1      37.404  32.033  32.172  1.00  0.00     0.031 C 
ATOM     71  C   UNL A   1      41.459  30.377  36.358  1.00  0.00     0.029 A 
ATOM     72  C   UNL A   1      40.748  30.495  35.176  1.00  0.00     0.049 A 
ATOM     73  H   UNL A   1      41.051  29.516  33.330  1.00  0.00     0.167 HD
ATOM     74  C   UNL A   1      38.983  31.384  33.695  1.00  0.00     0.074 A 
ATOM     75  C   UNL A   1      37.814  32.191  33.423  1.00  0.00     0.031 C 
ATOM     76  C   UNL A   1      39.601  31.317  34.898  1.00  0.00     0.037 A 
BRANCH  63  77
ATOM     77  C   UNL A   1      44.289  27.335  35.042  1.00  0.00     0.057 A 
ATOM     78  C   UNL A   1      44.111  26.049  35.565  1.00  0.00     0.134 A 
ATOM     79  C   UNL A   1      45.530  27.953  35.250  1.00  0.00     0.134 A 
ATOM     80  F   UNL A   1      42.946  25.404  35.400  1.00  0.00    -0.206 F 
ATOM     81  C   UNL A   1      45.124  25.406  36.278  1.00  0.00     0.040 A 
ATOM     82  C   UNL A   1      46.558  27.312  35.943  1.00  0.00     0.040 A 
ATOM     83  F   UNL A   1      45.769  29.180  34.762  1.00  0.00    -0.206 F 
ATOM     84  C   UNL A   1      46.356  26.035  36.462  1.00  0.00     0.006 A 
ENDBRANCH  63  77
BRANCH  64  85
ATOM     85  C   UNL A   1      37.210  31.331  29.356  1.00  0.00     0.057 A 
ATOM     86  C   UNL A   1      37.283  32.641  28.871  1.00  0.00     0.134 A 
ATOM     87  C   UNL A   1      36.044  30.605  29.084  1.00  0.00     0.134 A 
ATOM     88  F   UNL A   1      38.363  33.395  29.127  1.00  0.00    -0.206 F 
ATOM     89  C   UNL A   1      36.231  33.217  28.160  1.00  0.00     0.040 A 
ATOM     90  C   UNL A   1      34.992  31.161  28.353  1.00  0.00     0.040 A 
ATOM     91  F   UNL A   1      35.910  29.346  29.526  1.00  0.00    -0.206 F 
ATOM     92  C   UNL A   1      35.081  32.474  27.896  1.00  0.00     0.006 A 
ENDBRANCH  64  85
BRANCH  76  93
ATOM     93  C   UNL A   1      39.065  32.174  36.006  1.00  0.00     0.057 A 
ATOM     94  C   UNL A   1      38.180  31.671  36.968  1.00  0.00     0.134 A 
ATOM     95  C   UNL A   1      39.482  33.504  36.144  1.00  0.00     0.134 A 
ATOM     96  F   UNL A   1      37.733  30.409  36.885  1.00  0.00    -0.206 F 
ATOM     97  C   UNL A   1      37.721  32.464  38.021  1.00  0.00     0.040 A 
ATOM     98  C   UNL A   1      39.046  34.301  37.204  1.00  0.00     0.040 A 
ATOM     99  F   UNL A   1      40.334  34.046  35.260  1.00  0.00    -0.206 F 
ATOM    100  C   UNL A   1      38.161  33.781  38.146  1.00  0.00     0.006 A 
ENDBRANCH  76  93
ENDBRANCH  50  51
ENDBRANCH  42  45
ENDBRANCH  40  41
ENDBRANCH   1  40
TORSDOF 12
ENDMDL
MODEL 2
REMARK VINA RESULT:      -8.7      3.982     10.741
REMARK SMILES COC(=O)[C@H]1CC[C@]2(C)[C@H](CC[C@]3(C)[C@H]2CC=C2[C@H]4CC(C)(C)CC[C@]4(C(=O)NCCCNC(=O)c4ccc(-c5c6nc(c(-c7c(F)cccc7F)c7ccc([nH]7)c(-c7c(F)cccc7F)c7nc(c(-c8c(F)cccc8F)c8ccc5[nH]8)C=C7)C=C6)cc4)CC[C@@]23C)C1(C)C
REMARK SMILES IDX 31 1 30 2 29 3 27 4 28 5 26 7 5 8 6 9 94 10 7 11 10 12 95 13
REMARK SMILES IDX 96 14 8 15 11 16 15 17 9 18 12 19 16 20 13 21 17 22 92 23
REMARK SMILES IDX 14 24 18 25 91 26 93 27 19 28 90 29 20 30 21 31 25 32 24 33
REMARK SMILES IDX 22 34 23 35 3 36 4 37 2 38 1 39 32 40 33 41 34 42 35 44
REMARK SMILES IDX 36 45 37 46 89 47 38 48 88 49 39 50 40 51 41 52 82 53 42 54
REMARK SMILES IDX 87 55 81 56 83 57 43 58 86 59 80 60 79 61 44 63 70 64 53 65
REMARK SMILES IDX 69 66 54 67 57 68 68 69 84 70 55 71 56 72 67 74 85 75 58 76
REMARK SMILES IDX 45 77 46 78 51 79 47 80 48 81 50 82 52 83 49 84 71 85 72 86
REMARK SMILES IDX 77 87 73 88 74 89 76 90 78 91 75 92 59 93 60 94 65 95 61 96
REMARK SMILES IDX 62 97 64 98 66 99 63 100
REMARK H PARENT 29 6 33 43 83 62 57 73
REMARK Flexibility Score: inf
ROOT
ATOM      1  C   UNL A   1      39.945  24.876  27.969  1.00  0.00     0.042 C 
ENDROOT
BRANCH   1   2
ATOM      2  C   UNL A   1      40.189  26.397  27.885  1.00  0.00     0.117 C 
BRANCH   2   3
ATOM      3  N   UNL A   1      38.985  27.222  27.796  1.00  0.00    -0.356 N 
ATOM      4  C   UNL A   1      38.976  28.568  28.108  1.00  0.00     0.226 C 
ATOM      5  O   UNL A   1      39.521  29.367  27.348  1.00  0.00    -0.274 OA
ATOM      6  H   UNL A   1      38.145  26.800  27.502  1.00  0.00     0.163 HD
BRANCH   4   7
ATOM      7  C   UNL A   1      38.282  28.998  29.433  1.00  0.00     0.056 C 
ATOM      8  C   UNL A   1      40.769  35.221  34.205  1.00  0.00     0.105 C 
ATOM      9  C   UNL A   1      42.226  34.664  34.375  1.00  0.00     0.016 C 
ATOM     10  C   UNL A   1      39.758  34.403  33.306  1.00  0.00    -0.019 C 
ATOM     11  C   UNL A   1      42.507  33.162  34.076  1.00  0.00     0.008 C 
ATOM     12  C   UNL A   1      40.221  32.904  33.377  1.00  0.00     0.002 C 
ATOM     13  C   UNL A   1      39.652  35.011  31.875  1.00  0.00     0.012 C 
ATOM     14  C   UNL A   1      38.285  34.529  33.812  1.00  0.00     0.012 C 
ATOM     15  C   UNL A   1      41.679  32.629  32.868  1.00  0.00    -0.026 C 
ATOM     16  C   UNL A   1      39.223  31.887  32.897  1.00  0.00     0.005 C 
ATOM     17  C   UNL A   1      42.028  31.057  32.528  1.00  0.00     0.006 C 
ATOM     18  C   UNL A   1      42.157  33.514  31.681  1.00  0.00     0.012 C 
ATOM     19  C   UNL A   1      39.573  30.498  33.395  1.00  0.00     0.008 C 
ATOM     20  C   UNL A   1      42.569  30.860  31.043  1.00  0.00     0.032 C 
ATOM     21  C   UNL A   1      40.904  29.894  32.874  1.00  0.00    -0.020 C 
ATOM     22  C   UNL A   1      41.418  30.737  30.090  1.00  0.00    -0.027 C 
ATOM     23  C   UNL A   1      40.640  28.923  31.571  1.00  0.00    -0.006 C 
ATOM     24  C   UNL A   1      41.445  29.047  34.060  1.00  0.00     0.012 C 
ATOM     25  C   UNL A   1      40.402  29.934  30.442  1.00  0.00    -0.064 C 
ATOM     26  C   UNL A   1      39.459  27.876  31.607  1.00  0.00     0.013 C 
ATOM     27  C   UNL A   1      41.888  27.980  31.361  1.00  0.00     0.017 C 
ATOM     28  C   UNL A   1      38.943  30.205  30.071  1.00  0.00     0.031 C 
ATOM     29  C   UNL A   1      38.347  27.858  30.513  1.00  0.00     0.018 C 
ATOM     30  C   UNL A   1      38.585  31.562  29.422  1.00  0.00     0.015 C 
ATOM     31  C   UNL A   1      37.059  31.817  29.356  1.00  0.00    -0.035 C 
ATOM     32  C   UNL A   1      36.769  29.259  29.147  1.00  0.00     0.018 C 
ATOM     33  C   UNL A   1      36.393  30.645  28.612  1.00  0.00     0.007 C 
ATOM     34  C   UNL A   1      36.779  33.144  28.615  1.00  0.00     0.011 C 
ATOM     35  C   UNL A   1      36.452  31.978  30.767  1.00  0.00     0.011 C 
BRANCH   8  36
ATOM     36  C   UNL A   1      40.175  35.452  35.590  1.00  0.00     0.309 C 
ATOM     37  O   UNL A   1      39.638  36.484  35.959  1.00  0.00    -0.252 OA
BRANCH  36  38
ATOM     38  O   UNL A   1      40.463  34.381  36.389  1.00  0.00    -0.469 OA
ATOM     39  C   UNL A   1      39.393  33.982  37.243  1.00  0.00     0.282 C 
ENDBRANCH  36  38
ENDBRANCH   8  36
ENDBRANCH   4   7
ENDBRANCH   2   3
ENDBRANCH   1   2
BRANCH   1  40
ATOM     40  C   UNL A   1      39.730  24.121  26.649  1.00  0.00     0.118 C 
BRANCH  40  41
ATOM     41  N   UNL A   1      40.771  23.130  26.439  1.00  0.00    -0.352 N 
ATOM     42  C   UNL A   1      42.093  23.273  26.097  1.00  0.00     0.251 C 
ATOM     43  H   UNL A   1      40.480  22.198  26.563  1.00  0.00     0.163 HD
ATOM     44  O   UNL A   1      42.674  22.302  25.613  1.00  0.00    -0.269 OA
BRANCH  42  45
ATOM     45  C   UNL A   1      42.870  24.525  26.308  1.00  0.00     0.039 A 
ATOM     46  C   UNL A   1      43.140  25.325  25.186  1.00  0.00     0.014 A 
ATOM     47  C   UNL A   1      43.526  24.808  27.510  1.00  0.00     0.014 A 
ATOM     48  C   UNL A   1      44.063  26.380  25.256  1.00  0.00     0.010 A 
ATOM     49  C   UNL A   1      44.435  25.880  27.586  1.00  0.00     0.010 A 
ATOM     50  C   UNL A   1      44.736  26.662  26.455  1.00  0.00    -0.014 A 
BRANCH  50  51
ATOM     51  C   UNL A   1      45.790  27.721  26.511  1.00  0.00     0.031 A 
ATOM     52  C   UNL A   1      45.412  29.173  26.678  1.00  0.00     0.074 A 
ATOM     53  C   UNL A   1      47.095  27.401  26.402  1.00  0.00     0.049 A 
ATOM     54  N   UNL A   1      46.176  30.240  26.658  1.00  0.00    -0.248 NA
ATOM     55  C   UNL A   1      43.987  29.466  26.893  1.00  0.00     0.031 C 
ATOM     56  C   UNL A   1      47.625  26.047  26.259  1.00  0.00     0.029 A 
ATOM     57  N   UNL A   1      48.216  28.201  26.380  1.00  0.00    -0.354 N 
ATOM     58  C   UNL A   1      45.324  31.327  26.824  1.00  0.00     0.074 A 
ATOM     59  C   UNL A   1      43.982  30.792  26.936  1.00  0.00     0.031 C 
ATOM     60  C   UNL A   1      48.964  26.108  26.159  1.00  0.00     0.029 A 
ATOM     61  C   UNL A   1      49.387  27.506  26.191  1.00  0.00     0.049 A 
ATOM     62  H   UNL A   1      48.181  29.179  26.489  1.00  0.00     0.167 HD
ATOM     63  C   UNL A   1      45.627  32.646  26.885  1.00  0.00     0.037 A 
ATOM     64  C   UNL A   1      50.655  27.941  26.038  1.00  0.00     0.037 A 
ATOM     65  C   UNL A   1      46.959  33.193  26.828  1.00  0.00     0.049 A 
ATOM     66  C   UNL A   1      50.959  29.415  26.074  1.00  0.00     0.074 A 
ATOM     67  C   UNL A   1      47.352  34.515  26.954  1.00  0.00     0.029 A 
ATOM     68  N   UNL A   1      48.112  32.452  26.629  1.00  0.00    -0.354 N 
ATOM     69  N   UNL A   1      50.146  30.424  26.271  1.00  0.00    -0.248 NA
ATOM     70  C   UNL A   1      52.360  29.812  25.862  1.00  0.00     0.031 C 
ATOM     71  C   UNL A   1      48.740  34.580  26.790  1.00  0.00     0.029 A 
ATOM     72  C   UNL A   1      49.213  33.294  26.601  1.00  0.00     0.049 A 
ATOM     73  H   UNL A   1      48.145  31.474  26.524  1.00  0.00     0.167 HD
ATOM     74  C   UNL A   1      50.939  31.564  26.243  1.00  0.00     0.074 A 
ATOM     75  C   UNL A   1      52.299  31.129  26.010  1.00  0.00     0.031 C 
ATOM     76  C   UNL A   1      50.569  32.858  26.396  1.00  0.00     0.037 A 
BRANCH  63  77
ATOM     77  C   UNL A   1      44.494  33.622  27.012  1.00  0.00     0.057 A 
ATOM     78  C   UNL A   1      44.011  34.038  28.258  1.00  0.00     0.134 A 
ATOM     79  C   UNL A   1      43.942  34.219  25.870  1.00  0.00     0.134 A 
ATOM     80  F   UNL A   1      44.497  33.505  29.388  1.00  0.00    -0.206 F 
ATOM     81  C   UNL A   1      43.008  35.004  28.363  1.00  0.00     0.040 A 
ATOM     82  C   UNL A   1      42.955  35.200  25.963  1.00  0.00     0.040 A 
ATOM     83  F   UNL A   1      44.373  33.873  24.647  1.00  0.00    -0.206 F 
ATOM     84  C   UNL A   1      42.483  35.594  27.214  1.00  0.00     0.006 A 
ENDBRANCH  63  77
BRANCH  64  85
ATOM     85  C   UNL A   1      51.754  26.968  25.813  1.00  0.00     0.057 A 
ATOM     86  C   UNL A   1      52.105  26.559  24.522  1.00  0.00     0.134 A 
ATOM     87  C   UNL A   1      52.443  26.388  26.885  1.00  0.00     0.134 A 
ATOM     88  F   UNL A   1      51.459  27.057  23.457  1.00  0.00    -0.206 F 
ATOM     89  C   UNL A   1      53.089  25.594  24.303  1.00  0.00     0.040 A 
ATOM     90  C   UNL A   1      53.446  25.439  26.680  1.00  0.00     0.040 A 
ATOM     91  F   UNL A   1      52.149  26.735  28.146  1.00  0.00    -0.206 F 
ATOM     92  C   UNL A   1      53.766  25.033  25.386  1.00  0.00     0.006 A 
ENDBRANCH  64  85
BRANCH  76  93
ATOM     93  C   UNL A   1      51.646  33.900  26.371  1.00  0.00     0.057 A 
ATOM     94  C   UNL A   1      52.067  34.501  25.179  1.00  0.00     0.134 A 
ATOM     95  C   UNL A   1      52.232  34.347  27.562  1.00  0.00     0.134 A 
ATOM     96  F   UNL A   1      51.554  34.109  24.003  1.00  0.00    -0.206 F 
ATOM     97  C   UNL A   1      53.040  35.502  25.171  1.00  0.00     0.040 A 
ATOM     98  C   UNL A   1      53.192  35.361  27.570  1.00  0.00     0.040 A 
ATOM     99  F   UNL A   1      51.870  33.818  28.741  1.00  0.00    -0.206 F 
ATOM    100  C   UNL A   1      53.599  35.941  26.370  1.00  0.00     0.006 A 
ENDBRANCH  76  93
ENDBRANCH  50  51
ENDBRANCH  42  45
ENDBRANCH  40  41
ENDBRANCH   1  40
TORSDOF 12
ENDMDL
MODEL 3
REMARK VINA RESULT:      -8.5      4.695     11.298
REMARK SMILES COC(=O)[C@H]1CC[C@]2(C)[C@H](CC[C@]3(C)[C@H]2CC=C2[C@H]4CC(C)(C)CC[C@]4(C(=O)NCCCNC(=O)c4ccc(-c5c6nc(c(-c7c(F)cccc7F)c7ccc([nH]7)c(-c7c(F)cccc7F)c7nc(c(-c8c(F)cccc8F)c8ccc5[nH]8)C=C7)C=C6)cc4)CC[C@@]23C)C1(C)C
REMARK SMILES IDX 31 1 30 2 29 3 27 4 28 5 26 7 5 8 6 9 94 10 7 11 10 12 95 13
REMARK SMILES IDX 96 14 8 15 11 16 15 17 9 18 12 19 16 20 13 21 17 22 92 23
REMARK SMILES IDX 14 24 18 25 91 26 93 27 19 28 90 29 20 30 21 31 25 32 24 33
REMARK SMILES IDX 22 34 23 35 3 36 4 37 2 38 1 39 32 40 33 41 34 42 35 44
REMARK SMILES IDX 36 45 37 46 89 47 38 48 88 49 39 50 40 51 41 52 82 53 42 54
REMARK SMILES IDX 87 55 81 56 83 57 43 58 86 59 80 60 79 61 44 63 70 64 53 65
REMARK SMILES IDX 69 66 54 67 57 68 68 69 84 70 55 71 56 72 67 74 85 75 58 76
REMARK SMILES IDX 45 77 46 78 51 79 47 80 48 81 50 82 52 83 49 84 71 85 72 86
REMARK SMILES IDX 77 87 73 88 74 89 76 90 78 91 75 92 59 93 60 94 65 95 61 96
REMARK SMILES IDX 62 97 64 98 66 99 63 100
REMARK H PARENT 29 6 33 43 83 62 57 73
REMARK Flexibility Score: inf
ROOT
ATOM      1  C   UNL A   1      38.082  31.025  29.600  1.00  0.00     0.042 C 
ENDROOT
BRANCH   1   2
ATOM      2  C   UNL A   1      39.590  31.194  29.879  1.00  0.00     0.117 C 
BRANCH   2   3
ATOM      3  N   UNL A   1      40.069  30.596  31.124  1.00  0.00    -0.356 N 
ATOM      4  C   UNL A   1      41.310  29.997  31.238  1.00  0.00     0.226 C 
ATOM      5  O   UNL A   1      42.320  30.698  31.242  1.00  0.00    -0.274 OA
ATOM      6  H   UNL A   1      39.483  30.621  31.915  1.00  0.00     0.163 HD
BRANCH   4   7
ATOM      7  C   UNL A   1      41.356  28.444  31.336  1.00  0.00     0.056 C 
ATOM      8  C   UNL A   1      44.988  23.521  25.836  1.00  0.00     0.105 C 
ATOM      9  C   UNL A   1      44.170  24.080  24.620  1.00  0.00     0.016 C 
ATOM     10  C   UNL A   1      44.721  24.145  27.265  1.00  0.00    -0.019 C 
ATOM     11  C   UNL A   1      42.846  24.853  24.884  1.00  0.00     0.008 C 
ATOM     12  C   UNL A   1      43.238  24.661  27.247  1.00  0.00     0.002 C 
ATOM     13  C   UNL A   1      45.803  25.205  27.631  1.00  0.00     0.012 C 
ATOM     14  C   UNL A   1      44.907  23.097  28.409  1.00  0.00     0.012 C 
ATOM     15  C   UNL A   1      42.919  25.745  26.160  1.00  0.00    -0.026 C 
ATOM     16  C   UNL A   1      42.638  24.973  28.591  1.00  0.00     0.005 C 
ATOM     17  C   UNL A   1      41.533  26.600  26.394  1.00  0.00     0.006 C 
ATOM     18  C   UNL A   1      44.071  26.740  25.842  1.00  0.00     0.012 C 
ATOM     19  C   UNL A   1      41.126  25.039  28.513  1.00  0.00     0.008 C 
ATOM     20  C   UNL A   1      41.783  28.172  26.419  1.00  0.00     0.032 C 
ATOM     21  C   UNL A   1      40.529  26.173  27.639  1.00  0.00    -0.020 C 
ATOM     22  C   UNL A   1      42.199  28.605  27.793  1.00  0.00    -0.027 C 
ATOM     23  C   UNL A   1      40.138  27.482  28.557  1.00  0.00    -0.006 C 
ATOM     24  C   UNL A   1      39.241  25.559  27.021  1.00  0.00     0.012 C 
ATOM     25  C   UNL A   1      41.506  28.117  28.834  1.00  0.00    -0.064 C 
ATOM     26  C   UNL A   1      39.360  27.276  29.914  1.00  0.00     0.013 C 
ATOM     27  C   UNL A   1      39.134  28.400  27.756  1.00  0.00     0.017 C 
ATOM     28  C   UNL A   1      42.132  27.812  30.196  1.00  0.00     0.031 C 
ATOM     29  C   UNL A   1      39.915  27.820  31.267  1.00  0.00     0.018 C 
ATOM     30  C   UNL A   1      43.669  27.884  30.337  1.00  0.00     0.015 C 
ATOM     31  C   UNL A   1      44.184  27.288  31.670  1.00  0.00    -0.035 C 
ATOM     32  C   UNL A   1      41.951  28.045  32.724  1.00  0.00     0.018 C 
ATOM     33  C   UNL A   1      43.478  28.002  32.837  1.00  0.00     0.007 C 
ATOM     34  C   UNL A   1      45.714  27.479  31.776  1.00  0.00     0.011 C 
ATOM     35  C   UNL A   1      43.939  25.765  31.739  1.00  0.00     0.011 C 
BRANCH   8  36
ATOM     36  C   UNL A   1      44.813  22.006  25.882  1.00  0.00     0.309 C 
ATOM     37  O   UNL A   1      43.761  21.430  26.109  1.00  0.00    -0.252 OA
BRANCH  36  38
ATOM     38  O   UNL A   1      46.035  21.407  25.767  1.00  0.00    -0.469 OA
ATOM     39  C   UNL A   1      46.009  20.143  25.107  1.00  0.00     0.282 C 
ENDBRANCH  36  38
ENDBRANCH   8  36
ENDBRANCH   4   7
ENDBRANCH   2   3
ENDBRANCH   1   2
BRANCH   1  40
ATOM     40  C   UNL A   1      37.290  32.283  29.216  1.00  0.00     0.118 C 
BRANCH  40  41
ATOM     41  N   UNL A   1      36.971  33.077  30.389  1.00  0.00    -0.352 N 
ATOM     42  C   UNL A   1      37.768  33.852  31.195  1.00  0.00     0.251 C 
ATOM     43  H   UNL A   1      36.023  33.057  30.651  1.00  0.00     0.163 HD
ATOM     44  O   UNL A   1      37.363  34.120  32.325  1.00  0.00    -0.269 OA
BRANCH  42  45
ATOM     45  C   UNL A   1      39.079  34.413  30.766  1.00  0.00     0.039 A 
ATOM     46  C   UNL A   1      39.176  34.926  29.463  1.00  0.00     0.014 A 
ATOM     47  C   UNL A   1      40.250  34.238  31.511  1.00  0.00     0.014 A 
ATOM     48  C   UNL A   1      40.424  35.244  28.904  1.00  0.00     0.010 A 
ATOM     49  C   UNL A   1      41.499  34.579  30.957  1.00  0.00     0.010 A 
ATOM     50  C   UNL A   1      41.605  35.060  29.638  1.00  0.00    -0.014 A 
BRANCH  50  51
ATOM     51  C   UNL A   1      42.941  35.305  29.016  1.00  0.00     0.031 A 
ATOM     52  C   UNL A   1      43.881  34.156  28.736  1.00  0.00     0.074 A 
ATOM     53  C   UNL A   1      43.338  36.555  28.703  1.00  0.00     0.049 A 
ATOM     54  N   UNL A   1      45.114  34.180  28.287  1.00  0.00    -0.248 NA
ATOM     55  C   UNL A   1      43.370  32.803  29.001  1.00  0.00     0.031 C 
ATOM     56  C   UNL A   1      42.541  37.766  28.888  1.00  0.00     0.029 A 
ATOM     57  N   UNL A   1      44.523  37.015  28.175  1.00  0.00    -0.354 N 
ATOM     58  C   UNL A   1      45.534  32.855  28.245  1.00  0.00     0.074 A 
ATOM     59  C   UNL A   1      44.427  32.051  28.723  1.00  0.00     0.031 C 
ATOM     60  C   UNL A   1      43.258  38.829  28.486  1.00  0.00     0.029 A 
ATOM     61  C   UNL A   1      44.580  38.383  28.051  1.00  0.00     0.049 A 
ATOM     62  H   UNL A   1      45.261  36.418  27.910  1.00  0.00     0.167 HD
ATOM     63  C   UNL A   1      46.725  32.350  27.841  1.00  0.00     0.037 A 
ATOM     64  C   UNL A   1      45.585  39.191  27.656  1.00  0.00     0.037 A 
ATOM     65  C   UNL A   1      47.818  33.128  27.315  1.00  0.00     0.049 A 
ATOM     66  C   UNL A   1      46.910  38.606  27.247  1.00  0.00     0.074 A 
ATOM     67  C   UNL A   1      49.032  32.680  26.818  1.00  0.00     0.029 A 
ATOM     68  N   UNL A   1      47.832  34.509  27.216  1.00  0.00    -0.354 N 
ATOM     69  N   UNL A   1      47.275  37.349  27.177  1.00  0.00    -0.248 NA
ATOM     70  C   UNL A   1      47.969  39.555  26.864  1.00  0.00     0.031 C 
ATOM     71  C   UNL A   1      49.798  33.794  26.458  1.00  0.00     0.029 A 
ATOM     72  C   UNL A   1      49.044  34.931  26.692  1.00  0.00     0.049 A 
ATOM     73  H   UNL A   1      47.091  35.102  27.477  1.00  0.00     0.167 HD
ATOM     74  C   UNL A   1      48.584  37.357  26.711  1.00  0.00     0.074 A 
ATOM     75  C   UNL A   1      48.955  38.741  26.513  1.00  0.00     0.031 C 
ATOM     76  C   UNL A   1      49.404  36.306  26.471  1.00  0.00     0.037 A 
BRANCH  63  77
ATOM     77  C   UNL A   1      46.936  30.868  27.957  1.00  0.00     0.057 A 
ATOM     78  C   UNL A   1      46.677  29.998  26.892  1.00  0.00     0.134 A 
ATOM     79  C   UNL A   1      47.490  30.321  29.123  1.00  0.00     0.134 A 
ATOM     80  F   UNL A   1      46.147  30.460  25.750  1.00  0.00    -0.206 F 
ATOM     81  C   UNL A   1      46.950  28.632  26.986  1.00  0.00     0.040 A 
ATOM     82  C   UNL A   1      47.786  28.961  29.221  1.00  0.00     0.040 A 
ATOM     83  F   UNL A   1      47.774  31.106  30.174  1.00  0.00    -0.206 F 
ATOM     84  C   UNL A   1      47.514  28.111  28.151  1.00  0.00     0.006 A 
ENDBRANCH  63  77
BRANCH  64  85
ATOM     85  C   UNL A   1      45.395  40.663  27.642  1.00  0.00     0.057 A 
ATOM     86  C   UNL A   1      45.631  41.435  28.785  1.00  0.00     0.134 A 
ATOM     87  C   UNL A   1      44.925  41.325  26.501  1.00  0.00     0.134 A 
ATOM     88  F   UNL A   1      46.053  40.851  29.917  1.00  0.00    -0.206 F 
ATOM     89  C   UNL A   1      45.389  42.809  28.803  1.00  0.00     0.040 A 
ATOM     90  C   UNL A   1      44.701  42.703  26.498  1.00  0.00     0.040 A 
ATOM     91  F   UNL A   1      44.674  40.641  25.376  1.00  0.00    -0.206 F 
ATOM     92  C   UNL A   1      44.925  43.448  27.654  1.00  0.00     0.006 A 
ENDBRANCH  64  85
BRANCH  76  93
ATOM     93  C   UNL A   1      50.766  36.596  25.917  1.00  0.00     0.057 A 
ATOM     94  C   UNL A   1      51.877  36.786  26.747  1.00  0.00     0.134 A 
ATOM     95  C   UNL A   1      50.980  36.631  24.532  1.00  0.00     0.134 A 
ATOM     96  F   UNL A   1      51.737  36.777  28.081  1.00  0.00    -0.206 F 
ATOM     97  C   UNL A   1      53.151  37.012  26.220  1.00  0.00     0.040 A 
ATOM     98  C   UNL A   1      52.251  36.836  23.994  1.00  0.00     0.040 A 
ATOM     99  F   UNL A   1      49.959  36.450  23.681  1.00  0.00    -0.206 F 
ATOM    100  C   UNL A   1      53.341  37.029  24.840  1.00  0.00     0.006 A 
ENDBRANCH  76  93
ENDBRANCH  50  51
ENDBRANCH  42  45
ENDBRANCH  40  41
ENDBRANCH   1  40
TORSDOF 12
ENDMDL
