MODEL 1
REMARK VINA RESULT:     -11.2      0.000      0.000
REMARK SMILES Cn1ccnc1SCC[C@@H]1CCC[C@]1([NH3+])C(=O)NCCCNC(=O)c1ccc(-c2c3nc(c(-c4c(F)cccc4F)c4ccc([nH]4)c(-c4c(F)cccc4F)c4nc(c(-c5c(F)cccc5F)c5ccc2[nH]5)C=C4)C=C3)cc1
REMARK SMILES IDX 19 1 18 2 16 3 17 4 14 6 10 7 11 8 12 9 13 10 9 11 8 12 7 13
REMARK SMILES IDX 6 14 1 15 2 16 3 17 4 18 5 19 15 20 20 24 21 25 22 26 23 27
REMARK SMILES IDX 24 29 25 30 26 31 78 32 27 33 77 34 28 35 29 36 30 37 71 38
REMARK SMILES IDX 31 39 76 40 70 41 72 42 32 43 75 44 69 45 68 46 33 48 59 49
REMARK SMILES IDX 42 50 58 51 43 52 46 53 57 54 73 55 44 56 45 57 56 59 74 60
REMARK SMILES IDX 47 61 34 62 35 63 40 64 36 65 37 66 39 67 41 68 38 69 60 70
REMARK SMILES IDX 61 71 66 72 62 73 63 74 65 75 67 76 64 77 48 78 49 79 54 80
REMARK SMILES IDX 50 81 51 82 53 83 55 84 52 85
REMARK H PARENT 18 5 15 21 15 22 15 23 22 28 72 47 46 58
REMARK Flexibility Score: inf
ROOT
ATOM      1  C   UNL A   1      31.583  30.856  26.033  1.00  0.00     0.118 C 
ENDROOT
BRANCH   1   2
ATOM      2  N   UNL A   1      31.425  29.796  27.013  1.00  0.00    -0.351 N 
ATOM      3  C   UNL A   1      31.748  28.472  26.985  1.00  0.00     0.281 C 
ATOM      4  O   UNL A   1      31.467  27.828  28.001  1.00  0.00    -0.268 OA
ATOM      5  H   UNL A   1      31.006  30.087  27.855  1.00  0.00     0.163 HD
BRANCH   3   6
ATOM      6  C   UNL A   1      32.465  27.815  25.755  1.00  0.00     0.176 C 
ATOM      7  C   UNL A   1      31.546  27.550  24.527  1.00  0.00     0.061 C 
ATOM      8  C   UNL A   1      30.685  26.377  25.021  1.00  0.00     0.011 C 
ATOM      9  C   UNL A   1      31.635  25.492  25.814  1.00  0.00     0.008 C 
ATOM     10  C   UNL A   1      32.856  26.357  26.126  1.00  0.00     0.079 C 
BRANCH   7  11
ATOM     11  C   UNL A   1      30.621  28.621  23.931  1.00  0.00     0.022 C 
BRANCH  11  12
ATOM     12  C   UNL A   1      29.681  28.240  22.785  1.00  0.00     0.079 C 
BRANCH  12  13
ATOM     13  S   UNL A   1      28.003  28.939  22.751  1.00  0.00    -0.088 SA
BRANCH  13  14
ATOM     14  C   UNL A   1      28.133  30.451  21.931  1.00  0.00     0.167 A 
ATOM     15  C   UNL A   1      28.778  31.953  23.876  1.00  0.00     0.152 C 
ATOM     16  N   UNL A   1      28.474  31.651  22.502  1.00  0.00    -0.329 N 
ATOM     17  C   UNL A   1      28.469  32.591  21.500  1.00  0.00     0.108 A 
ATOM     18  C   UNL A   1      28.028  31.925  20.383  1.00  0.00     0.132 A 
ATOM     19  N   UNL A   1      27.831  30.599  20.659  1.00  0.00    -0.231 NA
ENDBRANCH  13  14
ENDBRANCH  12  13
ENDBRANCH  11  12
ENDBRANCH   7  11
BRANCH   6  20
ATOM     20  N   UNL A   1      33.719  28.553  25.482  1.00  0.00    -0.345 N 
ATOM     21  H   UNL A   1      34.206  28.121  24.697  1.00  0.00     0.345 HD
ATOM     22  H   UNL A   1      34.317  28.525  26.309  1.00  0.00     0.345 HD
ATOM     23  H   UNL A   1      33.501  29.523  25.256  1.00  0.00     0.345 HD
ENDBRANCH   6  20
ENDBRANCH   3   6
ENDBRANCH   1   2
BRANCH   1  24
ATOM     24  C   UNL A   1      31.407  32.234  26.653  1.00  0.00     0.042 C 
BRANCH  24  25
ATOM     25  C   UNL A   1      32.706  32.851  27.129  1.00  0.00     0.118 C 
BRANCH  25  26
ATOM     26  N   UNL A   1      32.522  34.196  27.644  1.00  0.00    -0.352 N 
ATOM     27  C   UNL A   1      33.148  34.797  28.710  1.00  0.00     0.251 C 
ATOM     28  H   UNL A   1      31.861  34.750  27.167  1.00  0.00     0.163 HD
ATOM     29  O   UNL A   1      32.734  35.861  29.149  1.00  0.00    -0.269 OA
BRANCH  27  30
ATOM     30  C   UNL A   1      34.309  34.127  29.341  1.00  0.00     0.039 A 
ATOM     31  C   UNL A   1      34.082  33.165  30.326  1.00  0.00     0.014 A 
ATOM     32  C   UNL A   1      35.613  34.430  28.942  1.00  0.00     0.014 A 
ATOM     33  C   UNL A   1      35.163  32.472  30.873  1.00  0.00     0.010 A 
ATOM     34  C   UNL A   1      36.675  33.661  29.405  1.00  0.00     0.010 A 
ATOM     35  C   UNL A   1      36.466  32.690  30.393  1.00  0.00    -0.014 A 
BRANCH  35  36
ATOM     36  C   UNL A   1      37.626  31.942  30.942  1.00  0.00     0.031 A 
ATOM     37  C   UNL A   1      38.131  32.249  32.327  1.00  0.00     0.074 A 
ATOM     38  C   UNL A   1      38.251  31.020  30.185  1.00  0.00     0.049 A 
ATOM     39  N   UNL A   1      39.149  31.734  32.970  1.00  0.00    -0.248 NA
ATOM     40  C   UNL A   1      37.419  33.297  33.078  1.00  0.00     0.031 C 
ATOM     41  C   UNL A   1      37.892  30.666  28.810  1.00  0.00     0.029 A 
ATOM     42  N   UNL A   1      39.323  30.210  30.465  1.00  0.00    -0.354 N 
ATOM     43  C   UNL A   1      39.203  32.402  34.187  1.00  0.00     0.074 A 
ATOM     44  C   UNL A   1      38.164  33.408  34.167  1.00  0.00     0.031 C 
ATOM     45  C   UNL A   1      38.705  29.687  28.381  1.00  0.00     0.029 A 
ATOM     46  C   UNL A   1      39.668  29.373  29.432  1.00  0.00     0.049 A 
ATOM     47  H   UNL A   1      39.800  30.227  31.326  1.00  0.00     0.167 HD
ATOM     48  C   UNL A   1      40.022  32.180  35.242  1.00  0.00     0.037 A 
ATOM     49  C   UNL A   1      40.651  28.458  29.341  1.00  0.00     0.037 A 
ATOM     50  C   UNL A   1      41.040  31.163  35.269  1.00  0.00     0.049 A 
ATOM     51  C   UNL A   1      41.558  28.238  30.520  1.00  0.00     0.074 A 
ATOM     52  C   UNL A   1      41.884  30.818  36.309  1.00  0.00     0.029 A 
ATOM     53  N   UNL A   1      41.352  30.332  34.204  1.00  0.00    -0.354 N 
ATOM     54  N   UNL A   1      41.549  28.825  31.692  1.00  0.00    -0.248 NA
ATOM     55  C   UNL A   1      42.609  27.222  30.366  1.00  0.00     0.031 C 
ATOM     56  C   UNL A   1      42.746  29.814  35.855  1.00  0.00     0.029 A 
ATOM     57  C   UNL A   1      42.396  29.492  34.554  1.00  0.00     0.049 A 
ATOM     58  H   UNL A   1      40.900  30.338  33.330  1.00  0.00     0.167 HD
ATOM     59  C   UNL A   1      42.569  28.230  32.425  1.00  0.00     0.074 A 
ATOM     60  C   UNL A   1      43.165  27.225  31.569  1.00  0.00     0.031 C 
ATOM     61  C   UNL A   1      42.974  28.490  33.693  1.00  0.00     0.037 A 
BRANCH  48  62
ATOM     62  C   UNL A   1      39.846  33.052  36.453  1.00  0.00     0.057 A 
ATOM     63  C   UNL A   1      40.590  34.226  36.637  1.00  0.00     0.134 A 
ATOM     64  C   UNL A   1      38.902  32.729  37.436  1.00  0.00     0.134 A 
ATOM     65  F   UNL A   1      41.521  34.588  35.739  1.00  0.00    -0.206 F 
ATOM     66  C   UNL A   1      40.427  35.028  37.767  1.00  0.00     0.040 A 
ATOM     67  C   UNL A   1      38.706  33.540  38.555  1.00  0.00     0.040 A 
ATOM     68  F   UNL A   1      38.150  31.624  37.323  1.00  0.00    -0.206 F 
ATOM     69  C   UNL A   1      39.476  34.689  38.727  1.00  0.00     0.006 A 
ENDBRANCH  48  62
BRANCH  49  70
ATOM     70  C   UNL A   1      40.816  27.661  28.097  1.00  0.00     0.057 A 
ATOM     71  C   UNL A   1      40.201  26.412  27.951  1.00  0.00     0.134 A 
ATOM     72  C   UNL A   1      41.597  28.122  27.031  1.00  0.00     0.134 A 
ATOM     73  F   UNL A   1      39.454  25.908  28.944  1.00  0.00    -0.206 F 
ATOM     74  C   UNL A   1      40.376  25.639  26.801  1.00  0.00     0.040 A 
ATOM     75  C   UNL A   1      41.758  27.373  25.863  1.00  0.00     0.040 A 
ATOM     76  F   UNL A   1      42.206  29.314  27.103  1.00  0.00    -0.206 F 
ATOM     77  C   UNL A   1      41.153  26.123  25.751  1.00  0.00     0.006 A 
ENDBRANCH  49  70
BRANCH  61  78
ATOM     78  C   UNL A   1      44.088  27.650  34.247  1.00  0.00     0.057 A 
ATOM     79  C   UNL A   1      43.853  26.410  34.853  1.00  0.00     0.134 A 
ATOM     80  C   UNL A   1      45.420  28.071  34.131  1.00  0.00     0.134 A 
ATOM     81  F   UNL A   1      42.601  25.953  35.006  1.00  0.00    -0.206 F 
ATOM     82  C   UNL A   1      44.901  25.630  35.349  1.00  0.00     0.040 A 
ATOM     83  C   UNL A   1      46.476  27.287  34.594  1.00  0.00     0.040 A 
ATOM     84  F   UNL A   1      45.716  29.244  33.551  1.00  0.00    -0.206 F 
ATOM     85  C   UNL A   1      46.217  26.066  35.211  1.00  0.00     0.006 A 
ENDBRANCH  61  78
ENDBRANCH  35  36
ENDBRANCH  27  30
ENDBRANCH  25  26
ENDBRANCH  24  25
ENDBRANCH   1  24
TORSDOF 15
ENDMDL
MODEL 2
REMARK VINA RESULT:     -11.1      0.935      6.324
REMARK SMILES Cn1ccnc1SCC[C@@H]1CCC[C@]1([NH3+])C(=O)NCCCNC(=O)c1ccc(-c2c3nc(c(-c4c(F)cccc4F)c4ccc([nH]4)c(-c4c(F)cccc4F)c4nc(c(-c5c(F)cccc5F)c5ccc2[nH]5)C=C4)C=C3)cc1
REMARK SMILES IDX 19 1 18 2 16 3 17 4 14 6 10 7 11 8 12 9 13 10 9 11 8 12 7 13
REMARK SMILES IDX 6 14 1 15 2 16 3 17 4 18 5 19 15 20 20 24 21 25 22 26 23 27
REMARK SMILES IDX 24 29 25 30 26 31 78 32 27 33 77 34 28 35 29 36 30 37 71 38
REMARK SMILES IDX 31 39 76 40 70 41 72 42 32 43 75 44 69 45 68 46 33 48 59 49
REMARK SMILES IDX 42 50 58 51 43 52 46 53 57 54 73 55 44 56 45 57 56 59 74 60
REMARK SMILES IDX 47 61 34 62 35 63 40 64 36 65 37 66 39 67 41 68 38 69 60 70
REMARK SMILES IDX 61 71 66 72 62 73 63 74 65 75 67 76 64 77 48 78 49 79 54 80
REMARK SMILES IDX 50 81 51 82 53 83 55 84 52 85
REMARK H PARENT 18 5 15 21 15 22 15 23 22 28 72 47 46 58
REMARK Flexibility Score: inf
ROOT
ATOM      1  C   UNL A   1      31.750  30.797  26.044  1.00  0.00     0.118 C 
ENDROOT
BRANCH   1   2
ATOM      2  N   UNL A   1      31.537  29.762  27.040  1.00  0.00    -0.351 N 
ATOM      3  C   UNL A   1      31.806  28.427  27.041  1.00  0.00     0.281 C 
ATOM      4  O   UNL A   1      31.487  27.813  28.064  1.00  0.00    -0.268 OA
ATOM      5  H   UNL A   1      31.119  30.086  27.871  1.00  0.00     0.163 HD
BRANCH   3   6
ATOM      6  C   UNL A   1      32.512  27.718  25.833  1.00  0.00     0.176 C 
ATOM      7  C   UNL A   1      31.597  27.455  24.602  1.00  0.00     0.061 C 
ATOM      8  C   UNL A   1      30.693  26.322  25.115  1.00  0.00     0.011 C 
ATOM      9  C   UNL A   1      31.606  25.425  25.937  1.00  0.00     0.008 C 
ATOM     10  C   UNL A   1      32.853  26.257  26.242  1.00  0.00     0.079 C 
BRANCH   7  11
ATOM     11  C   UNL A   1      30.712  28.542  23.974  1.00  0.00     0.022 C 
BRANCH  11  12
ATOM     12  C   UNL A   1      29.820  28.180  22.784  1.00  0.00     0.079 C 
BRANCH  12  13
ATOM     13  S   UNL A   1      28.114  28.807  22.739  1.00  0.00    -0.088 SA
BRANCH  13  14
ATOM     14  C   UNL A   1      28.189  30.339  21.949  1.00  0.00     0.167 A 
ATOM     15  C   UNL A   1      28.795  31.821  23.921  1.00  0.00     0.152 C 
ATOM     16  N   UNL A   1      28.494  31.537  22.542  1.00  0.00    -0.329 N 
ATOM     17  C   UNL A   1      28.453  32.496  21.560  1.00  0.00     0.108 A 
ATOM     18  C   UNL A   1      28.028  31.838  20.431  1.00  0.00     0.132 A 
ATOM     19  N   UNL A   1      27.876  30.502  20.682  1.00  0.00    -0.231 NA
ENDBRANCH  13  14
ENDBRANCH  12  13
ENDBRANCH  11  12
ENDBRANCH   7  11
BRANCH   6  20
ATOM     20  N   UNL A   1      33.793  28.408  25.556  1.00  0.00    -0.345 N 
ATOM     21  H   UNL A   1      34.547  27.723  25.509  1.00  0.00     0.345 HD
ATOM     22  H   UNL A   1      33.988  29.076  26.302  1.00  0.00     0.345 HD
ATOM     23  H   UNL A   1      33.727  28.903  24.667  1.00  0.00     0.345 HD
ENDBRANCH   6  20
ENDBRANCH   3   6
ENDBRANCH   1   2
BRANCH   1  24
ATOM     24  C   UNL A   1      31.453  32.185  26.591  1.00  0.00     0.042 C 
BRANCH  24  25
ATOM     25  C   UNL A   1      32.632  32.816  27.304  1.00  0.00     0.118 C 
BRANCH  25  26
ATOM     26  N   UNL A   1      32.398  34.213  27.626  1.00  0.00    -0.352 N 
ATOM     27  C   UNL A   1      33.007  34.981  28.590  1.00  0.00     0.251 C 
ATOM     28  H   UNL A   1      31.713  34.668  27.084  1.00  0.00     0.163 HD
ATOM     29  O   UNL A   1      32.554  36.080  28.880  1.00  0.00    -0.269 OA
BRANCH  27  30
ATOM     30  C   UNL A   1      34.197  34.452  29.295  1.00  0.00     0.039 A 
ATOM     31  C   UNL A   1      34.027  33.814  30.524  1.00  0.00     0.014 A 
ATOM     32  C   UNL A   1      35.470  34.563  28.732  1.00  0.00     0.014 A 
ATOM     33  C   UNL A   1      35.129  33.242  31.162  1.00  0.00     0.010 A 
ATOM     34  C   UNL A   1      36.544  33.897  29.311  1.00  0.00     0.010 A 
ATOM     35  C   UNL A   1      36.392  33.250  30.545  1.00  0.00    -0.014 A 
BRANCH  35  36
ATOM     36  C   UNL A   1      37.572  32.624  31.194  1.00  0.00     0.031 A 
ATOM     37  C   UNL A   1      38.224  31.420  30.568  1.00  0.00     0.074 A 
ATOM     38  C   UNL A   1      38.031  33.107  32.365  1.00  0.00     0.049 A 
ATOM     39  N   UNL A   1      39.237  30.710  30.997  1.00  0.00    -0.248 NA
ATOM     40  C   UNL A   1      37.641  30.928  29.308  1.00  0.00     0.031 C 
ATOM     41  C   UNL A   1      37.456  34.236  33.101  1.00  0.00     0.029 A 
ATOM     42  N   UNL A   1      39.088  32.708  33.145  1.00  0.00    -0.354 N 
ATOM     43  C   UNL A   1      39.401  29.688  30.070  1.00  0.00     0.074 A 
ATOM     44  C   UNL A   1      38.342  29.824  29.095  1.00  0.00     0.031 C 
ATOM     45  C   UNL A   1      38.189  34.460  34.204  1.00  0.00     0.029 A 
ATOM     46  C   UNL A   1      39.257  33.469  34.276  1.00  0.00     0.049 A 
ATOM     47  H   UNL A   1      39.670  31.949  32.914  1.00  0.00     0.167 HD
ATOM     48  C   UNL A   1      40.364  28.738  30.015  1.00  0.00     0.037 A 
ATOM     49  C   UNL A   1      40.169  33.375  35.262  1.00  0.00     0.037 A 
ATOM     50  C   UNL A   1      41.431  28.619  30.973  1.00  0.00     0.049 A 
ATOM     51  C   UNL A   1      41.221  32.303  35.187  1.00  0.00     0.074 A 
ATOM     52  C   UNL A   1      42.490  27.729  30.975  1.00  0.00     0.029 A 
ATOM     53  N   UNL A   1      41.570  29.413  32.101  1.00  0.00    -0.354 N 
ATOM     54  N   UNL A   1      41.409  31.390  34.265  1.00  0.00    -0.248 NA
ATOM     55  C   UNL A   1      42.195  32.253  36.287  1.00  0.00     0.031 C 
ATOM     56  C   UNL A   1      43.240  27.948  32.135  1.00  0.00     0.029 A 
ATOM     57  C   UNL A   1      42.684  29.015  32.822  1.00  0.00     0.049 A 
ATOM     58  H   UNL A   1      40.968  30.149  32.352  1.00  0.00     0.167 HD
ATOM     59  C   UNL A   1      42.536  30.678  34.656  1.00  0.00     0.074 A 
ATOM     60  C   UNL A   1      42.999  31.276  35.892  1.00  0.00     0.031 C 
ATOM     61  C   UNL A   1      43.136  29.626  34.047  1.00  0.00     0.037 A 
BRANCH  48  62
ATOM     62  C   UNL A   1      40.307  27.758  28.878  1.00  0.00     0.057 A 
ATOM     63  C   UNL A   1      41.011  27.965  27.683  1.00  0.00     0.134 A 
ATOM     64  C   UNL A   1      39.558  26.579  28.986  1.00  0.00     0.134 A 
ATOM     65  F   UNL A   1      41.738  29.079  27.507  1.00  0.00    -0.206 F 
ATOM     66  C   UNL A   1      40.948  27.053  26.628  1.00  0.00     0.040 A 
ATOM     67  C   UNL A   1      39.513  25.644  27.951  1.00  0.00     0.040 A 
ATOM     68  F   UNL A   1      38.863  26.313  30.102  1.00  0.00    -0.206 F 
ATOM     69  C   UNL A   1      40.202  25.884  26.764  1.00  0.00     0.006 A 
ENDBRANCH  48  62
BRANCH  49  70
ATOM     70  C   UNL A   1      40.146  34.338  36.394  1.00  0.00     0.057 A 
ATOM     71  C   UNL A   1      39.521  34.016  37.605  1.00  0.00     0.134 A 
ATOM     72  C   UNL A   1      40.736  35.603  36.291  1.00  0.00     0.134 A 
ATOM     73  F   UNL A   1      38.923  32.825  37.759  1.00  0.00    -0.206 F 
ATOM     74  C   UNL A   1      39.462  34.925  38.663  1.00  0.00     0.040 A 
ATOM     75  C   UNL A   1      40.710  36.512  37.351  1.00  0.00     0.040 A 
ATOM     76  F   UNL A   1      41.358  35.971  35.161  1.00  0.00    -0.206 F 
ATOM     77  C   UNL A   1      40.064  36.175  38.539  1.00  0.00     0.006 A 
ENDBRANCH  49  70
BRANCH  61  78
ATOM     78  C   UNL A   1      44.381  29.079  34.683  1.00  0.00     0.057 A 
ATOM     79  C   UNL A   1      45.653  29.583  34.384  1.00  0.00     0.134 A 
ATOM     80  C   UNL A   1      44.298  28.061  35.643  1.00  0.00     0.134 A 
ATOM     81  F   UNL A   1      45.803  30.549  33.465  1.00  0.00    -0.206 F 
ATOM     82  C   UNL A   1      46.801  29.076  34.996  1.00  0.00     0.040 A 
ATOM     83  C   UNL A   1      45.435  27.568  36.284  1.00  0.00     0.040 A 
ATOM     84  F   UNL A   1      43.110  27.541  35.985  1.00  0.00    -0.206 F 
ATOM     85  C   UNL A   1      46.692  28.071  35.956  1.00  0.00     0.006 A 
ENDBRANCH  61  78
ENDBRANCH  35  36
ENDBRANCH  27  30
ENDBRANCH  25  26
ENDBRANCH  24  25
ENDBRANCH   1  24
TORSDOF 15
ENDMDL
MODEL 3
REMARK VINA RESULT:     -11.0      6.270     11.090
REMARK SMILES Cn1ccnc1SCC[C@@H]1CCC[C@]1([NH3+])C(=O)NCCCNC(=O)c1ccc(-c2c3nc(c(-c4c(F)cccc4F)c4ccc([nH]4)c(-c4c(F)cccc4F)c4nc(c(-c5c(F)cccc5F)c5ccc2[nH]5)C=C4)C=C3)cc1
REMARK SMILES IDX 19 1 18 2 16 3 17 4 14 6 10 7 11 8 12 9 13 10 9 11 8 12 7 13
REMARK SMILES IDX 6 14 1 15 2 16 3 17 4 18 5 19 15 20 20 24 21 25 22 26 23 27
REMARK SMILES IDX 24 29 25 30 26 31 78 32 27 33 77 34 28 35 29 36 30 37 71 38
REMARK SMILES IDX 31 39 76 40 70 41 72 42 32 43 75 44 69 45 68 46 33 48 59 49
REMARK SMILES IDX 42 50 58 51 43 52 46 53 57 54 73 55 44 56 45 57 56 59 74 60
REMARK SMILES IDX 47 61 34 62 35 63 40 64 36 65 37 66 39 67 41 68 38 69 60 70
REMARK SMILES IDX 61 71 66 72 62 73 63 74 65 75 67 76 64 77 48 78 49 79 54 80
REMARK SMILES IDX 50 81 51 82 53 83 55 84 52 85
REMARK H PARENT 18 5 15 21 15 22 15 23 22 28 72 47 46 58
REMARK Flexibility Score: inf
ROOT
ATOM      1  C   UNL A   1      36.920  20.242  25.024  1.00  0.00     0.118 C 
ENDROOT
BRANCH   1   2
ATOM      2  N   UNL A   1      37.170  21.468  24.285  1.00  0.00    -0.351 N 
ATOM      3  C   UNL A   1      36.563  22.687  24.307  1.00  0.00     0.281 C 
ATOM      4  O   UNL A   1      37.022  23.532  23.533  1.00  0.00    -0.268 OA
ATOM      5  H   UNL A   1      37.920  21.407  23.650  1.00  0.00     0.163 HD
BRANCH   3   6
ATOM      6  C   UNL A   1      35.376  23.009  25.281  1.00  0.00     0.176 C 
ATOM      7  C   UNL A   1      33.992  22.457  24.833  1.00  0.00     0.061 C 
ATOM      8  C   UNL A   1      33.652  23.375  23.648  1.00  0.00     0.011 C 
ATOM      9  C   UNL A   1      34.129  24.758  24.065  1.00  0.00     0.008 C 
ATOM     10  C   UNL A   1      35.092  24.538  25.233  1.00  0.00     0.079 C 
BRANCH   7  11
ATOM     11  C   UNL A   1      33.777  20.999  24.402  1.00  0.00     0.022 C 
BRANCH  11  12
ATOM     12  C   UNL A   1      32.362  20.524  24.060  1.00  0.00     0.079 C 
BRANCH  12  13
ATOM     13  S   UNL A   1      32.152  18.967  23.147  1.00  0.00    -0.088 SA
BRANCH  13  14
ATOM     14  C   UNL A   1      32.668  17.714  24.214  1.00  0.00     0.167 A 
ATOM     15  C   UNL A   1      34.407  16.578  22.751  1.00  0.00     0.152 C 
ATOM     16  N   UNL A   1      33.629  16.773  23.947  1.00  0.00    -0.329 N 
ATOM     17  C   UNL A   1      33.737  15.977  25.061  1.00  0.00     0.108 A 
ATOM     18  C   UNL A   1      32.760  16.423  25.918  1.00  0.00     0.132 A 
ATOM     19  N   UNL A   1      32.110  17.503  25.387  1.00  0.00    -0.231 NA
ENDBRANCH  13  14
ENDBRANCH  12  13
ENDBRANCH  11  12
ENDBRANCH   7  11
BRANCH   6  20
ATOM     20  N   UNL A   1      35.791  22.682  26.665  1.00  0.00    -0.345 N 
ATOM     21  H   UNL A   1      36.379  23.431  27.031  1.00  0.00     0.345 HD
ATOM     22  H   UNL A   1      36.317  21.808  26.665  1.00  0.00     0.345 HD
ATOM     23  H   UNL A   1      34.964  22.580  27.252  1.00  0.00     0.345 HD
ENDBRANCH   6  20
ENDBRANCH   3   6
ENDBRANCH   1   2
BRANCH   1  24
ATOM     24  C   UNL A   1      38.118  19.307  24.998  1.00  0.00     0.042 C 
BRANCH  24  25
ATOM     25  C   UNL A   1      39.317  19.843  25.754  1.00  0.00     0.118 C 
BRANCH  25  26
ATOM     26  N   UNL A   1      40.397  18.875  25.833  1.00  0.00    -0.352 N 
ATOM     27  C   UNL A   1      41.740  19.105  26.016  1.00  0.00     0.251 C 
ATOM     28  H   UNL A   1      40.132  17.930  25.743  1.00  0.00     0.163 HD
ATOM     29  O   UNL A   1      42.548  18.202  25.850  1.00  0.00    -0.269 OA
BRANCH  27  30
ATOM     30  C   UNL A   1      42.199  20.464  26.385  1.00  0.00     0.039 A 
ATOM     31  C   UNL A   1      42.548  21.358  25.372  1.00  0.00     0.014 A 
ATOM     32  C   UNL A   1      42.260  20.860  27.723  1.00  0.00     0.014 A 
ATOM     33  C   UNL A   1      42.908  22.666  25.702  1.00  0.00     0.010 A 
ATOM     34  C   UNL A   1      42.508  22.191  28.041  1.00  0.00     0.010 A 
ATOM     35  C   UNL A   1      42.859  23.103  27.037  1.00  0.00    -0.014 A 
BRANCH  35  36
ATOM     36  C   UNL A   1      43.212  24.498  27.405  1.00  0.00     0.031 A 
ATOM     37  C   UNL A   1      44.648  24.948  27.361  1.00  0.00     0.074 A 
ATOM     38  C   UNL A   1      42.251  25.348  27.819  1.00  0.00     0.049 A 
ATOM     39  N   UNL A   1      45.162  26.109  27.679  1.00  0.00    -0.248 NA
ATOM     40  C   UNL A   1      45.644  23.950  26.935  1.00  0.00     0.031 C 
ATOM     41  C   UNL A   1      40.830  25.020  27.955  1.00  0.00     0.029 A 
ATOM     42  N   UNL A   1      42.325  26.663  28.204  1.00  0.00    -0.354 N 
ATOM     43  C   UNL A   1      46.533  25.975  27.503  1.00  0.00     0.074 A 
ATOM     44  C   UNL A   1      46.781  24.603  27.121  1.00  0.00     0.031 C 
ATOM     45  C   UNL A   1      40.163  26.114  28.356  1.00  0.00     0.029 A 
ATOM     46  C   UNL A   1      41.112  27.207  28.547  1.00  0.00     0.049 A 
ATOM     47  H   UNL A   1      43.169  27.169  28.230  1.00  0.00     0.167 HD
ATOM     48  C   UNL A   1      47.500  26.916  27.617  1.00  0.00     0.037 A 
ATOM     49  C   UNL A   1      40.799  28.447  28.970  1.00  0.00     0.037 A 
ATOM     50  C   UNL A   1      47.249  28.288  27.973  1.00  0.00     0.049 A 
ATOM     51  C   UNL A   1      41.891  29.472  29.103  1.00  0.00     0.074 A 
ATOM     52  C   UNL A   1      48.149  29.334  28.060  1.00  0.00     0.029 A 
ATOM     53  N   UNL A   1      46.004  28.800  28.307  1.00  0.00    -0.354 N 
ATOM     54  N   UNL A   1      43.174  29.351  28.860  1.00  0.00    -0.248 NA
ATOM     55  C   UNL A   1      41.491  30.809  29.562  1.00  0.00     0.031 C 
ATOM     56  C   UNL A   1      47.459  30.468  28.500  1.00  0.00     0.029 A 
ATOM     57  C   UNL A   1      46.118  30.143  28.626  1.00  0.00     0.049 A 
ATOM     58  H   UNL A   1      45.165  28.286  28.316  1.00  0.00     0.167 HD
ATOM     59  C   UNL A   1      43.729  30.601  29.106  1.00  0.00     0.074 A 
ATOM     60  C   UNL A   1      42.639  31.470  29.503  1.00  0.00     0.031 C 
ATOM     61  C   UNL A   1      45.022  30.996  29.011  1.00  0.00     0.037 A 
BRANCH  48  62
ATOM     62  C   UNL A   1      48.916  26.492  27.348  1.00  0.00     0.057 A 
ATOM     63  C   UNL A   1      49.472  26.532  26.061  1.00  0.00     0.134 A 
ATOM     64  C   UNL A   1      49.745  26.062  28.393  1.00  0.00     0.134 A 
ATOM     65  F   UNL A   1      48.730  26.921  25.013  1.00  0.00    -0.206 F 
ATOM     66  C   UNL A   1      50.786  26.129  25.818  1.00  0.00     0.040 A 
ATOM     67  C   UNL A   1      51.070  25.689  28.167  1.00  0.00     0.040 A 
ATOM     68  F   UNL A   1      49.282  26.004  29.651  1.00  0.00    -0.206 F 
ATOM     69  C   UNL A   1      51.592  25.713  26.875  1.00  0.00     0.006 A 
ENDBRANCH  48  62
BRANCH  49  70
ATOM     70  C   UNL A   1      39.388  28.797  29.276  1.00  0.00     0.057 A 
ATOM     71  C   UNL A   1      38.545  29.329  28.292  1.00  0.00     0.134 A 
ATOM     72  C   UNL A   1      38.850  28.619  30.556  1.00  0.00     0.134 A 
ATOM     73  F   UNL A   1      39.006  29.539  27.051  1.00  0.00    -0.206 F 
ATOM     74  C   UNL A   1      37.227  29.694  28.576  1.00  0.00     0.040 A 
ATOM     75  C   UNL A   1      37.526  28.952  30.847  1.00  0.00     0.040 A 
ATOM     76  F   UNL A   1      39.602  28.106  31.541  1.00  0.00    -0.206 F 
ATOM     77  C   UNL A   1      36.713  29.500  29.857  1.00  0.00     0.006 A 
ENDBRANCH  49  70
BRANCH  61  78
ATOM     78  C   UNL A   1      45.326  32.438  29.301  1.00  0.00     0.057 A 
ATOM     79  C   UNL A   1      45.721  32.873  30.572  1.00  0.00     0.134 A 
ATOM     80  C   UNL A   1      45.263  33.396  28.280  1.00  0.00     0.134 A 
ATOM     81  F   UNL A   1      45.790  32.009  31.597  1.00  0.00    -0.206 F 
ATOM     82  C   UNL A   1      46.018  34.214  30.824  1.00  0.00     0.040 A 
ATOM     83  C   UNL A   1      45.588  34.732  28.513  1.00  0.00     0.040 A 
ATOM     84  F   UNL A   1      44.903  33.044  27.037  1.00  0.00    -0.206 F 
ATOM     85  C   UNL A   1      45.959  35.146  29.789  1.00  0.00     0.006 A 
ENDBRANCH  61  78
ENDBRANCH  35  36
ENDBRANCH  27  30
ENDBRANCH  25  26
ENDBRANCH  24  25
ENDBRANCH   1  24
TORSDOF 15
ENDMDL
