MODEL 1
REMARK VINA RESULT:     -11.0      0.000      0.000
REMARK SMILES CC[C@H](NC(=O)N1CCO[C@@H](CC(=O)NCCCNC(=O)c2ccc(-c3c4nc(c(-c5c(F)cccc5F)c5ccc([nH]5)c(-c5c(F)cccc5F)c5nc(c(-c6c(F)cccc6F)c6ccc3[nH]6)C=C5)C=C4)cc2)C1)c1cccs1
REMARK SMILES IDX 16 1 15 2 13 3 14 4 12 6 11 7 7 8 8 9 76 10 9 11 10 12 5 13
REMARK SMILES IDX 4 14 6 16 3 17 2 18 1 19 77 20 78 21 81 22 79 23 80 24 17 25
REMARK SMILES IDX 18 26 19 27 20 28 21 30 22 31 23 32 75 33 24 34 74 35 25 36
REMARK SMILES IDX 26 37 27 38 68 39 28 40 73 41 67 42 69 43 29 44 72 45 66 46
REMARK SMILES IDX 65 47 30 49 56 50 39 51 55 52 40 53 43 54 54 55 70 56 41 57
REMARK SMILES IDX 42 58 53 60 71 61 44 62 31 63 32 64 37 65 33 66 34 67 36 68
REMARK SMILES IDX 38 69 35 70 57 71 58 72 63 73 59 74 60 75 62 76 64 77 61 78
REMARK SMILES IDX 45 79 46 80 51 81 47 82 48 83 50 84 52 85 49 86
REMARK H PARENT 15 5 4 15 19 29 69 48 43 59
REMARK Flexibility Score: inf
ROOT
ATOM      1  C   UNL A   1      36.433  20.014  24.983  1.00  0.00     0.117 C 
ENDROOT
BRANCH   1   2
ATOM      2  N   UNL A   1      36.434  21.472  25.051  1.00  0.00    -0.356 N 
ATOM      3  C   UNL A   1      35.752  22.346  25.851  1.00  0.00     0.222 C 
ATOM      4  O   UNL A   1      35.927  23.552  25.668  1.00  0.00    -0.275 OA
ATOM      5  H   UNL A   1      37.037  21.905  24.404  1.00  0.00     0.163 HD
BRANCH   3   6
ATOM      6  C   UNL A   1      34.769  21.862  26.896  1.00  0.00     0.133 C 
BRANCH   6   7
ATOM      7  C   UNL A   1      33.339  21.779  26.345  1.00  0.00     0.147 C 
ATOM      8  N   UNL A   1      31.338  23.267  25.945  1.00  0.00    -0.320 N 
ATOM      9  C   UNL A   1      31.430  22.934  24.522  1.00  0.00     0.150 C 
ATOM     10  C   UNL A   1      32.600  23.084  26.640  1.00  0.00     0.154 C 
ATOM     11  C   UNL A   1      32.113  21.577  24.321  1.00  0.00     0.182 C 
ATOM     12  O   UNL A   1      33.420  21.561  24.921  1.00  0.00    -0.374 OA
BRANCH   8  13
ATOM     13  C   UNL A   1      30.512  24.206  26.504  1.00  0.00     0.318 C 
ATOM     14  N   UNL A   1      30.621  25.508  26.227  1.00  0.00    -0.330 N 
ATOM     15  H   UNL A   1      30.081  26.077  26.822  1.00  0.00     0.166 HD
ATOM     16  O   UNL A   1      29.591  23.901  27.269  1.00  0.00    -0.249 OA
BRANCH  14  17
ATOM     17  C   UNL A   1      31.360  26.264  25.240  1.00  0.00     0.124 C 
BRANCH  17  18
ATOM     18  C   UNL A   1      30.441  26.605  24.052  1.00  0.00     0.027 C 
ATOM     19  C   UNL A   1      31.109  26.313  22.710  1.00  0.00     0.006 C 
ENDBRANCH  17  18
BRANCH  17  20
ATOM     20  C   UNL A   1      31.939  27.512  25.887  1.00  0.00     0.027 A 
ATOM     21  C   UNL A   1      31.584  28.065  27.106  1.00  0.00     0.017 A 
ATOM     22  S   UNL A   1      33.141  28.483  25.118  1.00  0.00    -0.147 S 
ATOM     23  C   UNL A   1      32.258  29.292  27.377  1.00  0.00     0.012 A 
ATOM     24  C   UNL A   1      33.115  29.645  26.362  1.00  0.00     0.065 A 
ENDBRANCH  17  20
ENDBRANCH  14  17
ENDBRANCH   8  13
ENDBRANCH   6   7
ENDBRANCH   3   6
ENDBRANCH   1   2
BRANCH   1  25
ATOM     25  C   UNL A   1      37.836  19.418  24.838  1.00  0.00     0.042 C 
BRANCH  25  26
ATOM     26  C   UNL A   1      38.920  20.061  25.692  1.00  0.00     0.118 C 
BRANCH  26  27
ATOM     27  N   UNL A   1      40.094  19.212  25.799  1.00  0.00    -0.352 N 
ATOM     28  C   UNL A   1      41.409  19.526  26.039  1.00  0.00     0.251 C 
ATOM     29  H   UNL A   1      39.916  18.252  25.681  1.00  0.00     0.163 HD
ATOM     30  O   UNL A   1      42.257  18.658  25.833  1.00  0.00    -0.269 OA
BRANCH  28  31
ATOM     31  C   UNL A   1      41.849  20.859  26.538  1.00  0.00     0.039 A 
ATOM     32  C   UNL A   1      41.885  21.062  27.924  1.00  0.00     0.014 A 
ATOM     33  C   UNL A   1      42.109  21.942  25.694  1.00  0.00     0.014 A 
ATOM     34  C   UNL A   1      42.185  22.323  28.454  1.00  0.00     0.010 A 
ATOM     35  C   UNL A   1      42.489  23.181  26.223  1.00  0.00     0.010 A 
ATOM     36  C   UNL A   1      42.496  23.398  27.609  1.00  0.00    -0.014 A 
BRANCH  36  37
ATOM     37  C   UNL A   1      42.758  24.757  28.162  1.00  0.00     0.031 A 
ATOM     38  C   UNL A   1      44.159  25.168  28.542  1.00  0.00     0.074 A 
ATOM     39  C   UNL A   1      41.743  25.626  28.338  1.00  0.00     0.049 A 
ATOM     40  N   UNL A   1      44.584  26.301  29.048  1.00  0.00    -0.248 NA
ATOM     41  C   UNL A   1      45.219  24.167  28.352  1.00  0.00     0.031 C 
ATOM     42  C   UNL A   1      40.335  25.354  28.051  1.00  0.00     0.029 A 
ATOM     43  N   UNL A   1      41.745  26.921  28.799  1.00  0.00    -0.354 N 
ATOM     44  C   UNL A   1      45.950  26.138  29.252  1.00  0.00     0.074 A 
ATOM     45  C   UNL A   1      46.273  24.783  28.863  1.00  0.00     0.031 C 
ATOM     46  C   UNL A   1      39.612  26.455  28.315  1.00  0.00     0.029 A 
ATOM     47  C   UNL A   1      40.500  27.502  28.815  1.00  0.00     0.049 A 
ATOM     48  H   UNL A   1      42.560  27.388  29.092  1.00  0.00     0.167 HD
ATOM     49  C   UNL A   1      46.859  27.038  29.698  1.00  0.00     0.037 A 
ATOM     50  C   UNL A   1      40.116  28.739  29.184  1.00  0.00     0.037 A 
ATOM     51  C   UNL A   1      46.554  28.399  30.051  1.00  0.00     0.049 A 
ATOM     52  C   UNL A   1      41.146  29.729  29.655  1.00  0.00     0.074 A 
ATOM     53  C   UNL A   1      47.417  29.400  30.462  1.00  0.00     0.029 A 
ATOM     54  N   UNL A   1      45.283  28.953  30.029  1.00  0.00    -0.354 N 
ATOM     55  N   UNL A   1      42.441  29.576  29.788  1.00  0.00    -0.248 NA
ATOM     56  C   UNL A   1      40.660  31.069  30.017  1.00  0.00     0.031 C 
ATOM     57  C   UNL A   1      46.665  30.551  30.720  1.00  0.00     0.029 A 
ATOM     58  C   UNL A   1      45.337  30.278  30.430  1.00  0.00     0.049 A 
ATOM     59  H   UNL A   1      44.463  28.476  29.767  1.00  0.00     0.167 HD
ATOM     60  C   UNL A   1      42.927  30.804  30.218  1.00  0.00     0.074 A 
ATOM     61  C   UNL A   1      41.790  31.695  30.313  1.00  0.00     0.031 C 
ATOM     62  C   UNL A   1      44.203  31.160  30.508  1.00  0.00     0.037 A 
BRANCH  49  63
ATOM     63  C   UNL A   1      48.283  26.576  29.823  1.00  0.00     0.057 A 
ATOM     64  C   UNL A   1      49.216  26.776  28.798  1.00  0.00     0.134 A 
ATOM     65  C   UNL A   1      48.733  25.948  30.991  1.00  0.00     0.134 A 
ATOM     66  F   UNL A   1      48.849  27.362  27.648  1.00  0.00    -0.206 F 
ATOM     67  C   UNL A   1      50.538  26.342  28.916  1.00  0.00     0.040 A 
ATOM     68  C   UNL A   1      50.059  25.534  31.133  1.00  0.00     0.040 A 
ATOM     69  F   UNL A   1      47.894  25.733  32.016  1.00  0.00    -0.206 F 
ATOM     70  C   UNL A   1      50.963  25.723  30.091  1.00  0.00     0.006 A 
ENDBRANCH  49  63
BRANCH  50  71
ATOM     71  C   UNL A   1      38.688  29.131  29.087  1.00  0.00     0.057 A 
ATOM     72  C   UNL A   1      38.147  29.592  27.880  1.00  0.00     0.134 A 
ATOM     73  C   UNL A   1      37.833  29.064  30.193  1.00  0.00     0.134 A 
ATOM     74  F   UNL A   1      38.922  29.698  26.791  1.00  0.00    -0.206 F 
ATOM     75  C   UNL A   1      36.813  29.989  27.781  1.00  0.00     0.040 A 
ATOM     76  C   UNL A   1      36.491  29.435  30.102  1.00  0.00     0.040 A 
ATOM     77  F   UNL A   1      38.290  28.628  31.376  1.00  0.00    -0.206 F 
ATOM     78  C   UNL A   1      35.979  29.905  28.894  1.00  0.00     0.006 A 
ENDBRANCH  50  71
BRANCH  62  79
ATOM     79  C   UNL A   1      44.442  32.584  30.916  1.00  0.00     0.057 A 
ATOM     80  C   UNL A   1      44.418  32.984  32.258  1.00  0.00     0.134 A 
ATOM     81  C   UNL A   1      44.731  33.560  29.955  1.00  0.00     0.134 A 
ATOM     82  F   UNL A   1      44.135  32.099  33.226  1.00  0.00    -0.206 F 
ATOM     83  C   UNL A   1      44.648  34.311  32.628  1.00  0.00     0.040 A 
ATOM     84  C   UNL A   1      44.986  34.884  30.313  1.00  0.00     0.040 A 
ATOM     85  F   UNL A   1      44.778  33.241  28.653  1.00  0.00    -0.206 F 
ATOM     86  C   UNL A   1      44.939  35.264  31.653  1.00  0.00     0.006 A 
ENDBRANCH  62  79
ENDBRANCH  36  37
ENDBRANCH  28  31
ENDBRANCH  26  27
ENDBRANCH  25  26
ENDBRANCH   1  25
TORSDOF 15
ENDMDL
MODEL 2
REMARK VINA RESULT:     -10.9      3.295      8.459
REMARK SMILES CC[C@H](NC(=O)N1CCO[C@@H](CC(=O)NCCCNC(=O)c2ccc(-c3c4nc(c(-c5c(F)cccc5F)c5ccc([nH]5)c(-c5c(F)cccc5F)c5nc(c(-c6c(F)cccc6F)c6ccc3[nH]6)C=C5)C=C4)cc2)C1)c1cccs1
REMARK SMILES IDX 16 1 15 2 13 3 14 4 12 6 11 7 7 8 8 9 76 10 9 11 10 12 5 13
REMARK SMILES IDX 4 14 6 16 3 17 2 18 1 19 77 20 78 21 81 22 79 23 80 24 17 25
REMARK SMILES IDX 18 26 19 27 20 28 21 30 22 31 23 32 75 33 24 34 74 35 25 36
REMARK SMILES IDX 26 37 27 38 68 39 28 40 73 41 67 42 69 43 29 44 72 45 66 46
REMARK SMILES IDX 65 47 30 49 56 50 39 51 55 52 40 53 43 54 54 55 70 56 41 57
REMARK SMILES IDX 42 58 53 60 71 61 44 62 31 63 32 64 37 65 33 66 34 67 36 68
REMARK SMILES IDX 38 69 35 70 57 71 58 72 63 73 59 74 60 75 62 76 64 77 61 78
REMARK SMILES IDX 45 79 46 80 51 81 47 82 48 83 50 84 52 85 49 86
REMARK H PARENT 15 5 4 15 19 29 69 48 43 59
REMARK Flexibility Score: inf
ROOT
ATOM      1  C   UNL A   1      31.459  29.732  25.457  1.00  0.00     0.117 C 
ENDROOT
BRANCH   1   2
ATOM      2  N   UNL A   1      32.518  29.551  24.468  1.00  0.00    -0.356 N 
ATOM      3  C   UNL A   1      33.506  28.614  24.355  1.00  0.00     0.222 C 
ATOM      4  O   UNL A   1      34.298  28.721  23.416  1.00  0.00    -0.275 OA
ATOM      5  H   UNL A   1      32.520  30.227  23.753  1.00  0.00     0.163 HD
BRANCH   3   6
ATOM      6  C   UNL A   1      33.668  27.504  25.373  1.00  0.00     0.133 C 
BRANCH   6   7
ATOM      7  C   UNL A   1      33.218  26.145  24.818  1.00  0.00     0.147 C 
ATOM      8  N   UNL A   1      31.990  24.070  25.565  1.00  0.00    -0.320 N 
ATOM      9  C   UNL A   1      31.006  24.326  24.509  1.00  0.00     0.150 C 
ATOM     10  C   UNL A   1      32.702  25.271  25.960  1.00  0.00     0.154 C 
ATOM     11  C   UNL A   1      31.628  25.140  23.369  1.00  0.00     0.182 C 
ATOM     12  O   UNL A   1      32.169  26.380  23.855  1.00  0.00    -0.374 OA
BRANCH   8  13
ATOM     13  C   UNL A   1      31.896  23.115  26.542  1.00  0.00     0.318 C 
ATOM     14  N   UNL A   1      32.367  21.876  26.378  1.00  0.00    -0.330 N 
ATOM     15  H   UNL A   1      32.082  21.257  27.088  1.00  0.00     0.166 HD
ATOM     16  O   UNL A   1      31.403  23.353  27.650  1.00  0.00    -0.249 OA
BRANCH  14  17
ATOM     17  C   UNL A   1      33.207  21.248  25.382  1.00  0.00     0.124 C 
BRANCH  17  18
ATOM     18  C   UNL A   1      32.355  20.852  24.161  1.00  0.00     0.027 C 
ATOM     19  C   UNL A   1      32.457  19.360  23.852  1.00  0.00     0.006 C 
ENDBRANCH  17  18
BRANCH  17  20
ATOM     20  C   UNL A   1      34.338  22.192  25.004  1.00  0.00     0.027 A 
ATOM     21  C   UNL A   1      34.612  22.710  23.749  1.00  0.00     0.017 A 
ATOM     22  S   UNL A   1      35.521  22.723  26.142  1.00  0.00    -0.147 S 
ATOM     23  C   UNL A   1      35.804  23.492  23.720  1.00  0.00     0.012 A 
ATOM     24  C   UNL A   1      36.409  23.558  24.952  1.00  0.00     0.065 A 
ENDBRANCH  17  20
ENDBRANCH  14  17
ENDBRANCH   8  13
ENDBRANCH   6   7
ENDBRANCH   3   6
ENDBRANCH   1   2
BRANCH   1  25
ATOM     25  C   UNL A   1      31.336  31.177  25.948  1.00  0.00     0.042 C 
BRANCH  25  26
ATOM     26  C   UNL A   1      32.399  31.632  26.938  1.00  0.00     0.118 C 
BRANCH  26  27
ATOM     27  N   UNL A   1      32.250  33.036  27.279  1.00  0.00    -0.352 N 
ATOM     28  C   UNL A   1      32.967  33.833  28.138  1.00  0.00     0.251 C 
ATOM     29  H   UNL A   1      31.511  33.493  26.816  1.00  0.00     0.163 HD
ATOM     30  O   UNL A   1      32.491  34.926  28.446  1.00  0.00    -0.269 OA
BRANCH  28  31
ATOM     31  C   UNL A   1      34.286  33.437  28.703  1.00  0.00     0.039 A 
ATOM     32  C   UNL A   1      35.431  33.680  27.932  1.00  0.00     0.014 A 
ATOM     33  C   UNL A   1      34.423  32.731  29.902  1.00  0.00     0.014 A 
ATOM     34  C   UNL A   1      36.689  33.234  28.357  1.00  0.00     0.010 A 
ATOM     35  C   UNL A   1      35.689  32.358  30.368  1.00  0.00     0.010 A 
ATOM     36  C   UNL A   1      36.834  32.572  29.585  1.00  0.00    -0.014 A 
BRANCH  36  37
ATOM     37  C   UNL A   1      38.157  32.042  30.018  1.00  0.00     0.031 A 
ATOM     38  C   UNL A   1      38.663  30.725  29.483  1.00  0.00     0.074 A 
ATOM     39  C   UNL A   1      38.910  32.728  30.900  1.00  0.00     0.049 A 
ATOM     40  N   UNL A   1      39.781  30.094  29.748  1.00  0.00    -0.248 NA
ATOM     41  C   UNL A   1      37.785  30.009  28.544  1.00  0.00     0.031 C 
ATOM     42  C   UNL A   1      38.534  33.994  31.530  1.00  0.00     0.029 A 
ATOM     43  N   UNL A   1      40.153  32.456  31.419  1.00  0.00    -0.354 N 
ATOM     44  C   UNL A   1      39.730  28.906  29.026  1.00  0.00     0.074 A 
ATOM     45  C   UNL A   1      38.450  28.881  28.352  1.00  0.00     0.031 C 
ATOM     46  C   UNL A   1      39.534  34.403  32.326  1.00  0.00     0.029 A 
ATOM     47  C   UNL A   1      40.612  33.418  32.286  1.00  0.00     0.049 A 
ATOM     48  H   UNL A   1      40.666  31.648  31.191  1.00  0.00     0.167 HD
ATOM     49  C   UNL A   1      40.668  27.936  28.912  1.00  0.00     0.037 A 
ATOM     50  C   UNL A   1      41.771  33.501  32.967  1.00  0.00     0.037 A 
ATOM     51  C   UNL A   1      41.959  27.971  29.548  1.00  0.00     0.049 A 
ATOM     52  C   UNL A   1      42.807  32.422  32.808  1.00  0.00     0.074 A 
ATOM     53  C   UNL A   1      42.995  27.059  29.448  1.00  0.00     0.029 A 
ATOM     54  N   UNL A   1      42.391  28.976  30.399  1.00  0.00    -0.354 N 
ATOM     55  N   UNL A   1      42.765  31.335  32.077  1.00  0.00    -0.248 NA
ATOM     56  C   UNL A   1      44.060  32.591  33.561  1.00  0.00     0.031 C 
ATOM     57  C   UNL A   1      44.044  27.496  30.265  1.00  0.00     0.029 A 
ATOM     58  C   UNL A   1      43.675  28.701  30.841  1.00  0.00     0.049 A 
ATOM     59  H   UNL A   1      41.865  29.767  30.652  1.00  0.00     0.167 HD
ATOM     60  C   UNL A   1      43.990  30.706  32.258  1.00  0.00     0.074 A 
ATOM     61  C   UNL A   1      44.760  31.540  33.158  1.00  0.00     0.031 C 
ATOM     62  C   UNL A   1      44.437  29.543  31.725  1.00  0.00     0.037 A 
BRANCH  49  63
ATOM     63  C   UNL A   1      40.331  26.748  28.055  1.00  0.00     0.057 A 
ATOM     64  C   UNL A   1      40.848  26.602  26.762  1.00  0.00     0.134 A 
ATOM     65  C   UNL A   1      39.504  25.728  28.539  1.00  0.00     0.134 A 
ATOM     66  F   UNL A   1      41.640  27.549  26.234  1.00  0.00    -0.206 F 
ATOM     67  C   UNL A   1      40.530  25.499  25.967  1.00  0.00     0.040 A 
ATOM     68  C   UNL A   1      39.200  24.606  27.765  1.00  0.00     0.040 A 
ATOM     69  F   UNL A   1      38.981  25.799  29.772  1.00  0.00    -0.206 F 
ATOM     70  C   UNL A   1      39.707  24.494  26.472  1.00  0.00     0.006 A 
ENDBRANCH  49  63
BRANCH  50  71
ATOM     71  C   UNL A   1      42.034  34.673  33.839  1.00  0.00     0.057 A 
ATOM     72  C   UNL A   1      41.704  34.648  35.200  1.00  0.00     0.134 A 
ATOM     73  C   UNL A   1      42.611  35.845  33.336  1.00  0.00     0.134 A 
ATOM     74  F   UNL A   1      41.130  33.561  35.735  1.00  0.00    -0.206 F 
ATOM     75  C   UNL A   1      41.922  35.752  36.025  1.00  0.00     0.040 A 
ATOM     76  C   UNL A   1      42.856  36.947  34.156  1.00  0.00     0.040 A 
ATOM     77  F   UNL A   1      42.951  35.929  32.042  1.00  0.00    -0.206 F 
ATOM     78  C   UNL A   1      42.505  36.905  35.504  1.00  0.00     0.006 A 
ENDBRANCH  50  71
BRANCH  62  79
ATOM     79  C   UNL A   1      45.836  29.122  32.069  1.00  0.00     0.057 A 
ATOM     80  C   UNL A   1      46.113  28.302  33.169  1.00  0.00     0.134 A 
ATOM     81  C   UNL A   1      46.915  29.520  31.269  1.00  0.00     0.134 A 
ATOM     82  F   UNL A   1      45.125  27.897  33.982  1.00  0.00    -0.206 F 
ATOM     83  C   UNL A   1      47.418  27.912  33.477  1.00  0.00     0.040 A 
ATOM     84  C   UNL A   1      48.220  29.117  31.553  1.00  0.00     0.040 A 
ATOM     85  F   UNL A   1      46.716  30.299  30.196  1.00  0.00    -0.206 F 
ATOM     86  C   UNL A   1      48.476  28.315  32.663  1.00  0.00     0.006 A 
ENDBRANCH  62  79
ENDBRANCH  36  37
ENDBRANCH  28  31
ENDBRANCH  26  27
ENDBRANCH  25  26
ENDBRANCH   1  25
TORSDOF 15
ENDMDL
MODEL 3
REMARK VINA RESULT:     -10.8      0.560      6.245
REMARK SMILES CC[C@H](NC(=O)N1CCO[C@@H](CC(=O)NCCCNC(=O)c2ccc(-c3c4nc(c(-c5c(F)cccc5F)c5ccc([nH]5)c(-c5c(F)cccc5F)c5nc(c(-c6c(F)cccc6F)c6ccc3[nH]6)C=C5)C=C4)cc2)C1)c1cccs1
REMARK SMILES IDX 16 1 15 2 13 3 14 4 12 6 11 7 7 8 8 9 76 10 9 11 10 12 5 13
REMARK SMILES IDX 4 14 6 16 3 17 2 18 1 19 77 20 78 21 81 22 79 23 80 24 17 25
REMARK SMILES IDX 18 26 19 27 20 28 21 30 22 31 23 32 75 33 24 34 74 35 25 36
REMARK SMILES IDX 26 37 27 38 68 39 28 40 73 41 67 42 69 43 29 44 72 45 66 46
REMARK SMILES IDX 65 47 30 49 56 50 39 51 55 52 40 53 43 54 54 55 70 56 41 57
REMARK SMILES IDX 42 58 53 60 71 61 44 62 31 63 32 64 37 65 33 66 34 67 36 68
REMARK SMILES IDX 38 69 35 70 57 71 58 72 63 73 59 74 60 75 62 76 64 77 61 78
REMARK SMILES IDX 45 79 46 80 51 81 47 82 48 83 50 84 52 85 49 86
REMARK H PARENT 15 5 4 15 19 29 69 48 43 59
REMARK Flexibility Score: inf
ROOT
ATOM      1  C   UNL A   1      36.307  20.442  25.002  1.00  0.00     0.117 C 
ENDROOT
BRANCH   1   2
ATOM      2  N   UNL A   1      36.376  21.899  24.917  1.00  0.00    -0.356 N 
ATOM      3  C   UNL A   1      35.706  22.881  25.591  1.00  0.00     0.222 C 
ATOM      4  O   UNL A   1      35.946  24.053  25.291  1.00  0.00    -0.275 OA
ATOM      5  H   UNL A   1      37.022  22.233  24.255  1.00  0.00     0.163 HD
BRANCH   3   6
ATOM      6  C   UNL A   1      34.662  22.555  26.638  1.00  0.00     0.133 C 
BRANCH   6   7
ATOM      7  C   UNL A   1      33.261  22.414  26.028  1.00  0.00     0.147 C 
ATOM      8  N   UNL A   1      31.202  23.808  25.585  1.00  0.00    -0.320 N 
ATOM      9  C   UNL A   1      31.367  23.519  24.158  1.00  0.00     0.150 C 
ATOM     10  C   UNL A   1      32.444  23.671  26.325  1.00  0.00     0.154 C 
ATOM     11  C   UNL A   1      32.127  22.204  23.952  1.00  0.00     0.182 C 
ATOM     12  O   UNL A   1      33.408  22.239  24.603  1.00  0.00    -0.374 OA
BRANCH   8  13
ATOM     13  C   UNL A   1      30.307  24.688  26.133  1.00  0.00     0.318 C 
ATOM     14  N   UNL A   1      30.329  25.994  25.857  1.00  0.00    -0.330 N 
ATOM     15  H   UNL A   1      29.745  26.524  26.445  1.00  0.00     0.166 HD
ATOM     16  O   UNL A   1      29.400  24.320  26.888  1.00  0.00    -0.249 OA
BRANCH  14  17
ATOM     17  C   UNL A   1      31.027  26.799  24.879  1.00  0.00     0.124 C 
BRANCH  17  18
ATOM     18  C   UNL A   1      30.013  27.417  23.897  1.00  0.00     0.027 C 
ATOM     19  C   UNL A   1      28.695  26.646  23.876  1.00  0.00     0.006 C 
ENDBRANCH  17  18
BRANCH  17  20
ATOM     20  C   UNL A   1      31.849  27.863  25.591  1.00  0.00     0.027 A 
ATOM     21  C   UNL A   1      31.777  28.222  26.926  1.00  0.00     0.017 A 
ATOM     22  S   UNL A   1      33.003  28.848  24.767  1.00  0.00    -0.147 S 
ATOM     23  C   UNL A   1      32.624  29.322  27.251  1.00  0.00     0.012 A 
ATOM     24  C   UNL A   1      33.326  29.774  26.159  1.00  0.00     0.065 A 
ENDBRANCH  17  20
ENDBRANCH  14  17
ENDBRANCH   8  13
ENDBRANCH   6   7
ENDBRANCH   3   6
ENDBRANCH   1   2
BRANCH   1  25
ATOM     25  C   UNL A   1      37.672  19.767  24.847  1.00  0.00     0.042 C 
BRANCH  25  26
ATOM     26  C   UNL A   1      38.802  20.360  25.676  1.00  0.00     0.118 C 
BRANCH  26  27
ATOM     27  N   UNL A   1      39.888  19.414  25.860  1.00  0.00    -0.352 N 
ATOM     28  C   UNL A   1      41.220  19.617  26.126  1.00  0.00     0.251 C 
ATOM     29  H   UNL A   1      39.625  18.469  25.780  1.00  0.00     0.163 HD
ATOM     30  O   UNL A   1      41.989  18.665  25.988  1.00  0.00    -0.269 OA
BRANCH  28  31
ATOM     31  C   UNL A   1      41.769  20.926  26.576  1.00  0.00     0.039 A 
ATOM     32  C   UNL A   1      41.730  21.219  27.946  1.00  0.00     0.014 A 
ATOM     33  C   UNL A   1      42.206  21.915  25.691  1.00  0.00     0.014 A 
ATOM     34  C   UNL A   1      42.129  22.474  28.421  1.00  0.00     0.010 A 
ATOM     35  C   UNL A   1      42.683  23.140  26.172  1.00  0.00     0.010 A 
ATOM     36  C   UNL A   1      42.617  23.450  27.539  1.00  0.00    -0.014 A 
BRANCH  36  37
ATOM     37  C   UNL A   1      42.987  24.808  28.027  1.00  0.00     0.031 A 
ATOM     38  C   UNL A   1      41.922  25.849  28.265  1.00  0.00     0.074 A 
ATOM     39  C   UNL A   1      44.279  25.122  28.250  1.00  0.00     0.049 A 
ATOM     40  N   UNL A   1      42.047  27.088  28.677  1.00  0.00    -0.248 NA
ATOM     41  C   UNL A   1      40.534  25.456  27.978  1.00  0.00     0.031 C 
ATOM     42  C   UNL A   1      45.417  24.231  28.028  1.00  0.00     0.029 A 
ATOM     43  N   UNL A   1      44.850  26.281  28.717  1.00  0.00    -0.354 N 
ATOM     44  C   UNL A   1      40.763  27.621  28.680  1.00  0.00     0.074 A 
ATOM     45  C   UNL A   1      39.880  26.589  28.181  1.00  0.00     0.031 C 
ATOM     46  C   UNL A   1      46.547  24.863  28.385  1.00  0.00     0.029 A 
ATOM     47  C   UNL A   1      46.217  26.213  28.835  1.00  0.00     0.049 A 
ATOM     48  H   UNL A   1      44.329  27.084  28.945  1.00  0.00     0.167 HD
ATOM     49  C   UNL A   1      40.348  28.846  29.083  1.00  0.00     0.037 A 
ATOM     50  C   UNL A   1      47.105  27.131  29.263  1.00  0.00     0.037 A 
ATOM     51  C   UNL A   1      41.213  29.865  29.616  1.00  0.00     0.049 A 
ATOM     52  C   UNL A   1      46.620  28.478  29.727  1.00  0.00     0.074 A 
ATOM     53  C   UNL A   1      40.877  31.117  30.099  1.00  0.00     0.029 A 
ATOM     54  N   UNL A   1      42.589  29.745  29.740  1.00  0.00    -0.354 N 
ATOM     55  N   UNL A   1      45.396  28.944  29.776  1.00  0.00    -0.248 NA
ATOM     56  C   UNL A   1      47.641  29.421  30.206  1.00  0.00     0.031 C 
ATOM     57  C   UNL A   1      42.053  31.769  30.487  1.00  0.00     0.029 A 
ATOM     58  C   UNL A   1      43.117  30.906  30.283  1.00  0.00     0.049 A 
ATOM     59  H   UNL A   1      43.113  28.953  29.482  1.00  0.00     0.167 HD
ATOM     60  C   UNL A   1      45.496  30.220  30.316  1.00  0.00     0.074 A 
ATOM     61  C   UNL A   1      46.899  30.450  30.591  1.00  0.00     0.031 C 
ATOM     62  C   UNL A   1      44.513  31.119  30.564  1.00  0.00     0.037 A 
BRANCH  49  63
ATOM     63  C   UNL A   1      38.881  29.150  28.967  1.00  0.00     0.057 A 
ATOM     64  C   UNL A   1      38.018  29.049  30.066  1.00  0.00     0.134 A 
ATOM     65  C   UNL A   1      38.332  29.575  27.752  1.00  0.00     0.134 A 
ATOM     66  F   UNL A   1      38.479  28.638  31.258  1.00  0.00    -0.206 F 
ATOM     67  C   UNL A   1      36.655  29.329  29.954  1.00  0.00     0.040 A 
ATOM     68  C   UNL A   1      36.975  29.885  27.633  1.00  0.00     0.040 A 
ATOM     69  F   UNL A   1      39.102  29.703  26.661  1.00  0.00    -0.206 F 
ATOM     70  C   UNL A   1      36.132  29.754  28.734  1.00  0.00     0.006 A 
ENDBRANCH  49  63
BRANCH  50  71
ATOM     71  C   UNL A   1      48.550  26.796  29.313  1.00  0.00     0.057 A 
ATOM     72  C   UNL A   1      49.102  26.143  30.422  1.00  0.00     0.134 A 
ATOM     73  C   UNL A   1      49.415  27.127  28.263  1.00  0.00     0.134 A 
ATOM     74  F   UNL A   1      48.327  25.820  31.468  1.00  0.00    -0.206 F 
ATOM     75  C   UNL A   1      50.463  25.846  30.493  1.00  0.00     0.040 A 
ATOM     76  C   UNL A   1      50.774  26.815  28.311  1.00  0.00     0.040 A 
ATOM     77  F   UNL A   1      48.947  27.751  27.172  1.00  0.00    -0.206 F 
ATOM     78  C   UNL A   1      51.303  26.178  29.432  1.00  0.00     0.006 A 
ENDBRANCH  50  71
BRANCH  62  79
ATOM     79  C   UNL A   1      44.914  32.419  31.198  1.00  0.00     0.057 A 
ATOM     80  C   UNL A   1      44.944  32.587  32.588  1.00  0.00     0.134 A 
ATOM     81  C   UNL A   1      45.304  33.506  30.406  1.00  0.00     0.134 A 
ATOM     82  F   UNL A   1      44.570  31.587  33.401  1.00  0.00    -0.206 F 
ATOM     83  C   UNL A   1      45.323  33.799  33.167  1.00  0.00     0.040 A 
ATOM     84  C   UNL A   1      45.708  34.714  30.974  1.00  0.00     0.040 A 
ATOM     85  F   UNL A   1      45.305  33.408  29.068  1.00  0.00    -0.206 F 
ATOM     86  C   UNL A   1      45.713  34.865  32.359  1.00  0.00     0.006 A 
ENDBRANCH  62  79
ENDBRANCH  36  37
ENDBRANCH  28  31
ENDBRANCH  26  27
ENDBRANCH  25  26
ENDBRANCH   1  25
TORSDOF 15
ENDMDL
