MODEL 1
REMARK VINA RESULT:     -11.8      0.000      0.000
REMARK SMILES O=C(CC[NH+]1CC[NH+]([C@@H]2CCO[C@@]3(CCOC3)C2)CC1)NCCCNC(=O)c1ccc(-c2c3nc(c(-c4c(F)cccc4F)c4ccc([nH]4)c(-c4c(F)cccc4F)c4nc(c(-c5c(F)cccc5F)c5ccc2[nH]5)C=C4)C=C3)cc1
REMARK SMILES IDX 22 1 21 2 1 3 2 4 3 6 4 7 5 8 6 9 20 10 7 12 19 13 8 14 9 16
REMARK SMILES IDX 10 17 18 18 11 19 13 20 12 21 14 22 17 23 15 24 16 25 23 26
REMARK SMILES IDX 24 27 25 28 26 29 27 31 28 32 29 33 81 34 30 35 80 36 31 37
REMARK SMILES IDX 32 38 33 39 74 40 34 41 79 42 73 43 75 44 35 45 78 46 72 47
REMARK SMILES IDX 71 48 36 50 62 51 45 52 61 53 46 54 49 55 60 56 76 57 47 58
REMARK SMILES IDX 48 59 59 61 77 62 50 63 37 64 38 65 43 66 39 67 40 68 42 69
REMARK SMILES IDX 44 70 41 71 63 72 64 73 69 74 65 75 66 76 68 77 70 78 67 79
REMARK SMILES IDX 51 80 52 81 57 82 53 83 54 84 56 85 58 86 55 87
REMARK H PARENT 21 5 5 11 8 15 25 30 75 49 49 60
REMARK Flexibility Score: inf
ROOT
ATOM      1  C   UNL A   1      32.032  30.168  26.638  1.00  0.00     0.117 C 
ENDROOT
BRANCH   1   2
ATOM      2  N   UNL A   1      32.594  29.932  25.316  1.00  0.00    -0.356 N 
ATOM      3  O   UNL A   1      33.861  28.170  26.055  1.00  0.00    -0.275 OA
ATOM      4  C   UNL A   1      33.454  28.864  25.125  1.00  0.00     0.225 C 
ATOM      5  H   UNL A   1      32.365  30.526  24.565  1.00  0.00     0.163 HD
BRANCH   4   6
ATOM      6  C   UNL A   1      33.886  28.584  23.701  1.00  0.00     0.161 C 
BRANCH   6   7
ATOM      7  C   UNL A   1      32.717  28.564  22.700  1.00  0.00     0.272 C 
BRANCH   7   8
ATOM      8  N   UNL A   1      32.251  27.341  22.036  1.00  0.00    -0.325 N 
ATOM      9  C   UNL A   1      33.254  26.322  21.743  1.00  0.00     0.324 C 
ATOM     10  C   UNL A   1      31.050  26.719  22.566  1.00  0.00     0.324 C 
ATOM     11  H   UNL A   1      31.992  27.765  21.144  1.00  0.00     0.348 HD
ATOM     12  C   UNL A   1      33.529  25.287  22.854  1.00  0.00     0.324 C 
ATOM     13  C   UNL A   1      31.296  25.821  23.783  1.00  0.00     0.324 C 
ATOM     14  N   UNL A   1      32.425  24.893  23.760  1.00  0.00    -0.323 N 
ATOM     15  H   UNL A   1      32.774  25.022  24.710  1.00  0.00     0.348 HD
BRANCH  14  16
ATOM     16  C   UNL A   1      32.142  23.448  23.756  1.00  0.00     0.189 C 
ATOM     17  C   UNL A   1      31.068  22.951  24.716  1.00  0.00     0.093 C 
ATOM     18  C   UNL A   1      33.373  22.546  23.916  1.00  0.00     0.103 C 
ATOM     19  C   UNL A   1      31.582  22.676  26.124  1.00  0.00     0.167 C 
ATOM     20  C   UNL A   1      33.881  22.278  25.328  1.00  0.00     0.099 C 
ATOM     21  O   UNL A   1      32.802  21.946  26.202  1.00  0.00    -0.372 OA
ATOM     22  C   UNL A   1      34.811  21.056  25.340  1.00  0.00     0.066 C 
ATOM     23  C   UNL A   1      34.866  23.367  25.809  1.00  0.00     0.195 C 
ATOM     24  C   UNL A   1      36.178  21.619  25.053  1.00  0.00     0.163 C 
ATOM     25  O   UNL A   1      36.213  22.853  25.765  1.00  0.00    -0.378 OA
ENDBRANCH  14  16
ENDBRANCH   7   8
ENDBRANCH   6   7
ENDBRANCH   4   6
ENDBRANCH   1   2
BRANCH   1  26
ATOM     26  C   UNL A   1      31.391  31.538  26.874  1.00  0.00     0.042 C 
BRANCH  26  27
ATOM     27  C   UNL A   1      32.219  32.765  26.490  1.00  0.00     0.118 C 
BRANCH  27  28
ATOM     28  N   UNL A   1      32.171  33.876  27.431  1.00  0.00    -0.352 N 
ATOM     29  C   UNL A   1      33.044  34.267  28.422  1.00  0.00     0.251 C 
ATOM     30  H   UNL A   1      31.375  34.448  27.343  1.00  0.00     0.163 HD
ATOM     31  O   UNL A   1      32.772  35.267  29.095  1.00  0.00    -0.269 OA
BRANCH  29  32
ATOM     32  C   UNL A   1      34.299  33.531  28.729  1.00  0.00     0.039 A 
ATOM     33  C   UNL A   1      35.532  34.175  28.582  1.00  0.00     0.014 A 
ATOM     34  C   UNL A   1      34.289  32.190  29.102  1.00  0.00     0.014 A 
ATOM     35  C   UNL A   1      36.723  33.505  28.906  1.00  0.00     0.010 A 
ATOM     36  C   UNL A   1      35.465  31.514  29.428  1.00  0.00     0.010 A 
ATOM     37  C   UNL A   1      36.690  32.180  29.381  1.00  0.00    -0.014 A 
BRANCH  37  38
ATOM     38  C   UNL A   1      37.856  31.553  30.055  1.00  0.00     0.031 A 
ATOM     39  C   UNL A   1      38.689  30.486  29.404  1.00  0.00     0.074 A 
ATOM     40  C   UNL A   1      38.036  31.841  31.360  1.00  0.00     0.049 A 
ATOM     41  N   UNL A   1      39.679  29.793  29.910  1.00  0.00    -0.248 NA
ATOM     42  C   UNL A   1      38.348  30.123  28.022  1.00  0.00     0.031 C 
ATOM     43  C   UNL A   1      37.207  32.768  32.136  1.00  0.00     0.029 A 
ATOM     44  N   UNL A   1      38.942  31.365  32.272  1.00  0.00    -0.354 N 
ATOM     45  C   UNL A   1      40.085  28.915  28.913  1.00  0.00     0.074 A 
ATOM     46  C   UNL A   1      39.199  29.131  27.786  1.00  0.00     0.031 C 
ATOM     47  C   UNL A   1      37.652  32.806  33.400  1.00  0.00     0.029 A 
ATOM     48  C   UNL A   1      38.774  31.886  33.533  1.00  0.00     0.049 A 
ATOM     49  H   UNL A   1      39.644  30.712  32.047  1.00  0.00     0.167 HD
ATOM     50  C   UNL A   1      41.111  28.029  28.932  1.00  0.00     0.037 A 
ATOM     51  C   UNL A   1      39.445  31.650  34.675  1.00  0.00     0.037 A 
ATOM     52  C   UNL A   1      41.984  27.820  30.064  1.00  0.00     0.049 A 
ATOM     53  C   UNL A   1      40.590  30.683  34.663  1.00  0.00     0.074 A 
ATOM     54  C   UNL A   1      43.110  27.016  30.150  1.00  0.00     0.029 A 
ATOM     55  N   UNL A   1      41.819  28.404  31.311  1.00  0.00    -0.354 N 
ATOM     56  N   UNL A   1      41.046  29.958  33.671  1.00  0.00    -0.248 NA
ATOM     57  C   UNL A   1      41.321  30.509  35.924  1.00  0.00     0.031 C 
ATOM     58  C   UNL A   1      43.594  27.077  31.462  1.00  0.00     0.029 A 
ATOM     59  C   UNL A   1      42.802  27.956  32.180  1.00  0.00     0.049 A 
ATOM     60  H   UNL A   1      41.107  29.044  31.545  1.00  0.00     0.167 HD
ATOM     61  C   UNL A   1      42.129  29.256  34.182  1.00  0.00     0.074 A 
ATOM     62  C   UNL A   1      42.274  29.660  35.565  1.00  0.00     0.031 C 
ATOM     63  C   UNL A   1      42.930  28.356  33.559  1.00  0.00     0.037 A 
BRANCH  50  64
ATOM     64  C   UNL A   1      41.368  27.223  27.688  1.00  0.00     0.057 A 
ATOM     65  C   UNL A   1      42.198  27.696  26.663  1.00  0.00     0.134 A 
ATOM     66  C   UNL A   1      40.843  25.931  27.543  1.00  0.00     0.134 A 
ATOM     67  F   UNL A   1      42.737  28.923  26.738  1.00  0.00    -0.206 F 
ATOM     68  C   UNL A   1      42.476  26.929  25.530  1.00  0.00     0.040 A 
ATOM     69  C   UNL A   1      41.134  25.144  26.426  1.00  0.00     0.040 A 
ATOM     70  F   UNL A   1      40.054  25.405  28.491  1.00  0.00    -0.206 F 
ATOM     71  C   UNL A   1      41.948  25.644  25.412  1.00  0.00     0.006 A 
ENDBRANCH  50  64
BRANCH  51  72
ATOM     72  C   UNL A   1      39.071  32.381  35.909  1.00  0.00     0.057 A 
ATOM     73  C   UNL A   1      38.243  31.789  36.869  1.00  0.00     0.134 A 
ATOM     74  C   UNL A   1      39.552  33.668  36.175  1.00  0.00     0.134 A 
ATOM     75  F   UNL A   1      37.744  30.561  36.664  1.00  0.00    -0.206 F 
ATOM     76  C   UNL A   1      37.890  32.457  38.041  1.00  0.00     0.040 A 
ATOM     77  C   UNL A   1      39.227  34.338  37.356  1.00  0.00     0.040 A 
ATOM     78  F   UNL A   1      40.366  34.282  35.303  1.00  0.00    -0.206 F 
ATOM     79  C   UNL A   1      38.388  33.735  38.290  1.00  0.00     0.006 A 
ENDBRANCH  51  72
BRANCH  63  80
ATOM     80  C   UNL A   1      44.042  27.762  34.373  1.00  0.00     0.057 A 
ATOM     81  C   UNL A   1      45.269  28.418  34.536  1.00  0.00     0.134 A 
ATOM     82  C   UNL A   1      43.879  26.527  35.012  1.00  0.00     0.134 A 
ATOM     83  F   UNL A   1      45.494  29.596  33.934  1.00  0.00    -0.206 F 
ATOM     84  C   UNL A   1      46.302  27.857  35.287  1.00  0.00     0.040 A 
ATOM     85  C   UNL A   1      44.895  25.967  35.788  1.00  0.00     0.040 A 
ATOM     86  F   UNL A   1      42.728  25.847  34.899  1.00  0.00    -0.206 F 
ATOM     87  C   UNL A   1      46.114  26.630  35.921  1.00  0.00     0.006 A 
ENDBRANCH  63  80
ENDBRANCH  37  38
ENDBRANCH  29  32
ENDBRANCH  27  28
ENDBRANCH  26  27
ENDBRANCH   1  26
TORSDOF 13
ENDMDL
MODEL 2
REMARK VINA RESULT:     -11.7      1.078      1.698
REMARK SMILES O=C(CC[NH+]1CC[NH+]([C@@H]2CCO[C@@]3(CCOC3)C2)CC1)NCCCNC(=O)c1ccc(-c2c3nc(c(-c4c(F)cccc4F)c4ccc([nH]4)c(-c4c(F)cccc4F)c4nc(c(-c5c(F)cccc5F)c5ccc2[nH]5)C=C4)C=C3)cc1
REMARK SMILES IDX 22 1 21 2 1 3 2 4 3 6 4 7 5 8 6 9 20 10 7 12 19 13 8 14 9 16
REMARK SMILES IDX 10 17 18 18 11 19 13 20 12 21 14 22 17 23 15 24 16 25 23 26
REMARK SMILES IDX 24 27 25 28 26 29 27 31 28 32 29 33 81 34 30 35 80 36 31 37
REMARK SMILES IDX 32 38 33 39 74 40 34 41 79 42 73 43 75 44 35 45 78 46 72 47
REMARK SMILES IDX 71 48 36 50 62 51 45 52 61 53 46 54 49 55 60 56 76 57 47 58
REMARK SMILES IDX 48 59 59 61 77 62 50 63 37 64 38 65 43 66 39 67 40 68 42 69
REMARK SMILES IDX 44 70 41 71 63 72 64 73 69 74 65 75 66 76 68 77 70 78 67 79
REMARK SMILES IDX 51 80 52 81 57 82 53 83 54 84 56 85 58 86 55 87
REMARK H PARENT 21 5 5 11 8 15 25 30 75 49 49 60
REMARK Flexibility Score: inf
ROOT
ATOM      1  C   UNL A   1      31.763  30.288  26.315  1.00  0.00     0.117 C 
ENDROOT
BRANCH   1   2
ATOM      2  N   UNL A   1      32.328  29.856  25.045  1.00  0.00    -0.356 N 
ATOM      3  O   UNL A   1      34.140  28.887  26.061  1.00  0.00    -0.275 OA
ATOM      4  C   UNL A   1      33.492  29.106  25.040  1.00  0.00     0.225 C 
ATOM      5  H   UNL A   1      31.886  30.093  24.197  1.00  0.00     0.163 HD
BRANCH   4   6
ATOM      6  C   UNL A   1      33.945  28.563  23.701  1.00  0.00     0.161 C 
BRANCH   6   7
ATOM      7  C   UNL A   1      32.851  28.607  22.620  1.00  0.00     0.272 C 
BRANCH   7   8
ATOM      8  N   UNL A   1      32.261  27.403  22.025  1.00  0.00    -0.325 N 
ATOM      9  C   UNL A   1      33.178  26.329  21.656  1.00  0.00     0.324 C 
ATOM     10  C   UNL A   1      31.086  26.851  22.679  1.00  0.00     0.324 C 
ATOM     11  H   UNL A   1      31.939  27.828  21.155  1.00  0.00     0.348 HD
ATOM     12  C   UNL A   1      33.505  25.294  22.753  1.00  0.00     0.324 C 
ATOM     13  C   UNL A   1      31.404  25.957  23.882  1.00  0.00     0.324 C 
ATOM     14  N   UNL A   1      32.477  24.971  23.767  1.00  0.00    -0.323 N 
ATOM     15  H   UNL A   1      32.922  25.093  24.677  1.00  0.00     0.348 HD
BRANCH  14  16
ATOM     16  C   UNL A   1      32.121  23.542  23.816  1.00  0.00     0.189 C 
ATOM     17  C   UNL A   1      31.032  23.134  24.801  1.00  0.00     0.093 C 
ATOM     18  C   UNL A   1      33.306  22.586  23.998  1.00  0.00     0.103 C 
ATOM     19  C   UNL A   1      31.544  22.882  26.214  1.00  0.00     0.167 C 
ATOM     20  C   UNL A   1      33.814  22.341  25.415  1.00  0.00     0.099 C 
ATOM     21  O   UNL A   1      32.727  22.095  26.308  1.00  0.00    -0.372 OA
ATOM     22  C   UNL A   1      34.681  21.074  25.463  1.00  0.00     0.066 C 
ATOM     23  C   UNL A   1      34.856  23.395  25.850  1.00  0.00     0.195 C 
ATOM     24  C   UNL A   1      36.072  21.558  25.147  1.00  0.00     0.163 C 
ATOM     25  O   UNL A   1      36.175  22.812  25.814  1.00  0.00    -0.378 OA
ENDBRANCH  14  16
ENDBRANCH   7   8
ENDBRANCH   6   7
ENDBRANCH   4   6
ENDBRANCH   1   2
BRANCH   1  26
ATOM     26  C   UNL A   1      31.576  31.796  26.502  1.00  0.00     0.042 C 
BRANCH  26  27
ATOM     27  C   UNL A   1      32.707  32.553  27.199  1.00  0.00     0.118 C 
BRANCH  27  28
ATOM     28  N   UNL A   1      32.387  33.909  27.626  1.00  0.00    -0.352 N 
ATOM     29  C   UNL A   1      33.000  34.745  28.533  1.00  0.00     0.251 C 
ATOM     30  H   UNL A   1      31.595  34.295  27.189  1.00  0.00     0.163 HD
ATOM     31  O   UNL A   1      32.527  35.871  28.718  1.00  0.00    -0.269 OA
BRANCH  29  32
ATOM     32  C   UNL A   1      34.201  34.349  29.313  1.00  0.00     0.039 A 
ATOM     33  C   UNL A   1      34.050  33.856  30.614  1.00  0.00     0.014 A 
ATOM     34  C   UNL A   1      35.489  34.513  28.810  1.00  0.00     0.014 A 
ATOM     35  C   UNL A   1      35.174  33.441  31.348  1.00  0.00     0.010 A 
ATOM     36  C   UNL A   1      36.612  34.103  29.528  1.00  0.00     0.010 A 
ATOM     37  C   UNL A   1      36.462  33.517  30.786  1.00  0.00    -0.014 A 
BRANCH  37  38
ATOM     38  C   UNL A   1      37.620  32.788  31.362  1.00  0.00     0.031 A 
ATOM     39  C   UNL A   1      38.247  31.602  30.685  1.00  0.00     0.074 A 
ATOM     40  C   UNL A   1      37.982  33.109  32.621  1.00  0.00     0.049 A 
ATOM     41  N   UNL A   1      39.205  30.820  31.118  1.00  0.00    -0.248 NA
ATOM     42  C   UNL A   1      37.710  31.222  29.372  1.00  0.00     0.031 C 
ATOM     43  C   UNL A   1      37.358  34.161  33.430  1.00  0.00     0.029 A 
ATOM     44  N   UNL A   1      38.928  32.569  33.454  1.00  0.00    -0.354 N 
ATOM     45  C   UNL A   1      39.392  29.858  30.133  1.00  0.00     0.074 A 
ATOM     46  C   UNL A   1      38.411  30.128  29.100  1.00  0.00     0.031 C 
ATOM     47  C   UNL A   1      37.948  34.201  34.633  1.00  0.00     0.029 A 
ATOM     48  C   UNL A   1      38.967  33.161  34.693  1.00  0.00     0.049 A 
ATOM     49  H   UNL A   1      39.522  31.830  33.189  1.00  0.00     0.167 HD
ATOM     50  C   UNL A   1      40.307  28.858  30.089  1.00  0.00     0.037 A 
ATOM     51  C   UNL A   1      39.735  32.898  35.766  1.00  0.00     0.037 A 
ATOM     52  C   UNL A   1      41.277  28.598  31.128  1.00  0.00     0.049 A 
ATOM     53  C   UNL A   1      40.756  31.803  35.682  1.00  0.00     0.074 A 
ATOM     54  C   UNL A   1      42.307  27.672  31.135  1.00  0.00     0.029 A 
ATOM     55  N   UNL A   1      41.323  29.251  32.350  1.00  0.00    -0.354 N 
ATOM     56  N   UNL A   1      41.010  30.986  34.690  1.00  0.00    -0.248 NA
ATOM     57  C   UNL A   1      41.604  31.599  36.864  1.00  0.00     0.031 C 
ATOM     58  C   UNL A   1      42.944  27.732  32.380  1.00  0.00     0.029 A 
ATOM     59  C   UNL A   1      42.344  28.729  33.130  1.00  0.00     0.049 A 
ATOM     60  H   UNL A   1      40.720  29.980  32.624  1.00  0.00     0.167 HD
ATOM     61  C   UNL A   1      42.058  30.185  35.117  1.00  0.00     0.074 A 
ATOM     62  C   UNL A   1      42.407  30.629  36.450  1.00  0.00     0.031 C 
ATOM     63  C   UNL A   1      42.675  29.171  34.462  1.00  0.00     0.037 A 
BRANCH  50  64
ATOM     64  C   UNL A   1      40.326  27.974  28.872  1.00  0.00     0.057 A 
ATOM     65  C   UNL A   1      41.086  28.296  27.740  1.00  0.00     0.134 A 
ATOM     66  C   UNL A   1      39.638  26.752  28.856  1.00  0.00     0.134 A 
ATOM     67  F   UNL A   1      41.772  29.449  27.689  1.00  0.00    -0.206 F 
ATOM     68  C   UNL A   1      41.142  27.453  26.629  1.00  0.00     0.040 A 
ATOM     69  C   UNL A   1      39.707  25.888  27.761  1.00  0.00     0.040 A 
ATOM     70  F   UNL A   1      38.904  26.369  29.910  1.00  0.00    -0.206 F 
ATOM     71  C   UNL A   1      40.457  26.240  26.640  1.00  0.00     0.006 A 
ENDBRANCH  50  64
BRANCH  51  72
ATOM     72  C   UNL A   1      39.592  33.721  36.990  1.00  0.00     0.057 A 
ATOM     73  C   UNL A   1      40.279  34.933  37.122  1.00  0.00     0.134 A 
ATOM     74  C   UNL A   1      38.749  33.339  38.040  1.00  0.00     0.134 A 
ATOM     75  F   UNL A   1      41.108  35.347  36.153  1.00  0.00    -0.206 F 
ATOM     76  C   UNL A   1      40.148  35.727  38.261  1.00  0.00     0.040 A 
ATOM     77  C   UNL A   1      38.589  34.135  39.174  1.00  0.00     0.040 A 
ATOM     78  F   UNL A   1      38.048  32.197  37.964  1.00  0.00    -0.206 F 
ATOM     79  C   UNL A   1      39.295  35.330  39.290  1.00  0.00     0.006 A 
ENDBRANCH  51  72
BRANCH  63  80
ATOM     80  C   UNL A   1      43.801  28.485  35.180  1.00  0.00     0.057 A 
ATOM     81  C   UNL A   1      45.124  28.936  35.079  1.00  0.00     0.134 A 
ATOM     82  C   UNL A   1      43.557  27.372  35.993  1.00  0.00     0.134 A 
ATOM     83  F   UNL A   1      45.426  29.986  34.301  1.00  0.00    -0.206 F 
ATOM     84  C   UNL A   1      46.166  28.290  35.743  1.00  0.00     0.040 A 
ATOM     85  C   UNL A   1      44.588  26.733  36.684  1.00  0.00     0.040 A 
ATOM     86  F   UNL A   1      42.313  26.891  36.136  1.00  0.00    -0.206 F 
ATOM     87  C   UNL A   1      45.899  27.188  36.553  1.00  0.00     0.006 A 
ENDBRANCH  63  80
ENDBRANCH  37  38
ENDBRANCH  29  32
ENDBRANCH  27  28
ENDBRANCH  26  27
ENDBRANCH   1  26
TORSDOF 13
ENDMDL
MODEL 3
REMARK VINA RESULT:     -11.7      2.610      8.258
REMARK SMILES O=C(CC[NH+]1CC[NH+]([C@@H]2CCO[C@@]3(CCOC3)C2)CC1)NCCCNC(=O)c1ccc(-c2c3nc(c(-c4c(F)cccc4F)c4ccc([nH]4)c(-c4c(F)cccc4F)c4nc(c(-c5c(F)cccc5F)c5ccc2[nH]5)C=C4)C=C3)cc1
REMARK SMILES IDX 22 1 21 2 1 3 2 4 3 6 4 7 5 8 6 9 20 10 7 12 19 13 8 14 9 16
REMARK SMILES IDX 10 17 18 18 11 19 13 20 12 21 14 22 17 23 15 24 16 25 23 26
REMARK SMILES IDX 24 27 25 28 26 29 27 31 28 32 29 33 81 34 30 35 80 36 31 37
REMARK SMILES IDX 32 38 33 39 74 40 34 41 79 42 73 43 75 44 35 45 78 46 72 47
REMARK SMILES IDX 71 48 36 50 62 51 45 52 61 53 46 54 49 55 60 56 76 57 47 58
REMARK SMILES IDX 48 59 59 61 77 62 50 63 37 64 38 65 43 66 39 67 40 68 42 69
REMARK SMILES IDX 44 70 41 71 63 72 64 73 69 74 65 75 66 76 68 77 70 78 67 79
REMARK SMILES IDX 51 80 52 81 57 82 53 83 54 84 56 85 58 86 55 87
REMARK H PARENT 21 5 5 11 8 15 25 30 75 49 49 60
REMARK Flexibility Score: inf
ROOT
ATOM      1  C   UNL A   1      41.820  20.993  27.006  1.00  0.00     0.117 C 
ENDROOT
BRANCH   1   2
ATOM      2  N   UNL A   1      40.643  20.389  26.397  1.00  0.00    -0.356 N 
ATOM      3  O   UNL A   1      39.457  22.349  26.492  1.00  0.00    -0.275 OA
ATOM      4  C   UNL A   1      39.537  21.177  26.128  1.00  0.00     0.225 C 
ATOM      5  H   UNL A   1      40.634  19.429  26.177  1.00  0.00     0.163 HD
BRANCH   4   6
ATOM      6  C   UNL A   1      38.406  20.525  25.361  1.00  0.00     0.161 C 
BRANCH   6   7
ATOM      7  C   UNL A   1      37.268  21.497  25.002  1.00  0.00     0.272 C 
BRANCH   7   8
ATOM      8  N   UNL A   1      36.353  22.063  25.999  1.00  0.00    -0.325 N 
ATOM      9  C   UNL A   1      36.300  23.518  26.099  1.00  0.00     0.324 C 
ATOM     10  C   UNL A   1      35.009  21.513  26.051  1.00  0.00     0.324 C 
ATOM     11  H   UNL A   1      36.839  21.728  26.832  1.00  0.00     0.348 HD
ATOM     12  C   UNL A   1      35.298  24.237  25.171  1.00  0.00     0.324 C 
ATOM     13  C   UNL A   1      34.052  22.103  25.010  1.00  0.00     0.324 C 
ATOM     14  N   UNL A   1      34.040  23.550  24.801  1.00  0.00    -0.323 N 
ATOM     15  H   UNL A   1      33.987  23.576  23.783  1.00  0.00     0.348 HD
BRANCH  14  16
ATOM     16  C   UNL A   1      32.825  24.298  25.168  1.00  0.00     0.189 C 
ATOM     17  C   UNL A   1      31.487  23.629  24.879  1.00  0.00     0.093 C 
ATOM     18  C   UNL A   1      32.762  25.733  24.630  1.00  0.00     0.103 C 
ATOM     19  C   UNL A   1      30.987  23.845  23.456  1.00  0.00     0.167 C 
ATOM     20  C   UNL A   1      32.262  25.939  23.204  1.00  0.00     0.099 C 
ATOM     21  O   UNL A   1      31.078  25.179  22.967  1.00  0.00    -0.372 OA
ATOM     22  C   UNL A   1      31.862  27.405  22.983  1.00  0.00     0.066 C 
ATOM     23  C   UNL A   1      33.399  25.814  22.165  1.00  0.00     0.195 C 
ATOM     24  C   UNL A   1      33.132  28.081  22.538  1.00  0.00     0.163 C 
ATOM     25  O   UNL A   1      33.767  27.126  21.692  1.00  0.00    -0.378 OA
ENDBRANCH  14  16
ENDBRANCH   7   8
ENDBRANCH   6   7
ENDBRANCH   4   6
ENDBRANCH   1   2
BRANCH   1  26
ATOM     26  C   UNL A   1      42.966  21.362  26.060  1.00  0.00     0.042 C 
BRANCH  26  27
ATOM     27  C   UNL A   1      42.755  22.579  25.158  1.00  0.00     0.118 C 
BRANCH  27  28
ATOM     28  N   UNL A   1      43.965  23.296  24.777  1.00  0.00    -0.352 N 
ATOM     29  C   UNL A   1      44.455  24.522  25.166  1.00  0.00     0.251 C 
ATOM     30  H   UNL A   1      44.532  22.819  24.129  1.00  0.00     0.163 HD
ATOM     31  O   UNL A   1      45.527  24.913  24.692  1.00  0.00    -0.269 OA
BRANCH  29  32
ATOM     32  C   UNL A   1      43.745  25.408  26.126  1.00  0.00     0.039 A 
ATOM     33  C   UNL A   1      42.744  24.878  26.947  1.00  0.00     0.014 A 
ATOM     34  C   UNL A   1      44.004  26.775  26.191  1.00  0.00     0.014 A 
ATOM     35  C   UNL A   1      42.093  25.695  27.885  1.00  0.00     0.010 A 
ATOM     36  C   UNL A   1      43.365  27.595  27.120  1.00  0.00     0.010 A 
ATOM     37  C   UNL A   1      42.437  27.053  28.011  1.00  0.00    -0.014 A 
BRANCH  37  38
ATOM     38  C   UNL A   1      42.043  27.863  29.192  1.00  0.00     0.031 A 
ATOM     39  C   UNL A   1      42.700  27.707  30.534  1.00  0.00     0.074 A 
ATOM     40  C   UNL A   1      40.935  28.623  29.072  1.00  0.00     0.049 A 
ATOM     41  N   UNL A   1      42.396  28.286  31.670  1.00  0.00    -0.248 NA
ATOM     42  C   UNL A   1      43.816  26.757  30.625  1.00  0.00     0.031 C 
ATOM     43  C   UNL A   1      40.136  28.753  27.850  1.00  0.00     0.029 A 
ATOM     44  N   UNL A   1      40.269  29.397  29.987  1.00  0.00    -0.354 N 
ATOM     45  C   UNL A   1      43.283  27.777  32.611  1.00  0.00     0.074 A 
ATOM     46  C   UNL A   1      44.105  26.804  31.920  1.00  0.00     0.031 C 
ATOM     47  C   UNL A   1      39.100  29.570  28.085  1.00  0.00     0.029 A 
ATOM     48  C   UNL A   1      39.142  29.996  29.478  1.00  0.00     0.049 A 
ATOM     49  H   UNL A   1      40.569  29.513  30.918  1.00  0.00     0.167 HD
ATOM     50  C   UNL A   1      43.408  28.107  33.920  1.00  0.00     0.037 A 
ATOM     51  C   UNL A   1      38.236  30.798  30.065  1.00  0.00     0.037 A 
ATOM     52  C   UNL A   1      42.578  29.076  34.598  1.00  0.00     0.049 A 
ATOM     53  C   UNL A   1      38.411  31.166  31.507  1.00  0.00     0.074 A 
ATOM     54  C   UNL A   1      42.687  29.549  35.895  1.00  0.00     0.029 A 
ATOM     55  N   UNL A   1      41.476  29.705  34.038  1.00  0.00    -0.354 N 
ATOM     56  N   UNL A   1      39.336  30.778  32.350  1.00  0.00    -0.248 NA
ATOM     57  C   UNL A   1      37.423  32.091  32.078  1.00  0.00     0.031 C 
ATOM     58  C   UNL A   1      41.622  30.426  36.134  1.00  0.00     0.029 A 
ATOM     59  C   UNL A   1      40.879  30.538  34.972  1.00  0.00     0.049 A 
ATOM     60  H   UNL A   1      41.164  29.578  33.113  1.00  0.00     0.167 HD
ATOM     61  C   UNL A   1      39.055  31.425  33.545  1.00  0.00     0.074 A 
ATOM     62  C   UNL A   1      37.886  32.248  33.310  1.00  0.00     0.031 C 
ATOM     63  C   UNL A   1      39.708  31.343  34.731  1.00  0.00     0.037 A 
BRANCH  50  64
ATOM     64  C   UNL A   1      44.493  27.432  34.715  1.00  0.00     0.057 A 
ATOM     65  C   UNL A   1      45.757  28.015  34.878  1.00  0.00     0.134 A 
ATOM     66  C   UNL A   1      44.252  26.225  35.387  1.00  0.00     0.134 A 
ATOM     67  F   UNL A   1      46.055  29.171  34.265  1.00  0.00    -0.206 F 
ATOM     68  C   UNL A   1      46.748  27.413  35.655  1.00  0.00     0.040 A 
ATOM     69  C   UNL A   1      45.228  25.626  36.187  1.00  0.00     0.040 A 
ATOM     70  F   UNL A   1      43.061  25.617  35.292  1.00  0.00    -0.206 F 
ATOM     71  C   UNL A   1      46.482  26.217  36.319  1.00  0.00     0.006 A 
ENDBRANCH  50  64
BRANCH  51  72
ATOM     72  C   UNL A   1      37.110  31.340  29.266  1.00  0.00     0.057 A 
ATOM     73  C   UNL A   1      35.960  30.576  29.040  1.00  0.00     0.134 A 
ATOM     74  C   UNL A   1      37.139  32.636  28.738  1.00  0.00     0.134 A 
ATOM     75  F   UNL A   1      35.878  29.324  29.513  1.00  0.00    -0.206 F 
ATOM     76  C   UNL A   1      34.887  31.073  28.300  1.00  0.00     0.040 A 
ATOM     77  C   UNL A   1      36.063  33.155  28.019  1.00  0.00     0.040 A 
ATOM     78  F   UNL A   1      38.206  33.425  28.938  1.00  0.00    -0.206 F 
ATOM     79  C   UNL A   1      34.934  32.370  27.792  1.00  0.00     0.006 A 
ENDBRANCH  51  72
BRANCH  63  80
ATOM     80  C   UNL A   1      39.174  32.179  35.858  1.00  0.00     0.057 A 
ATOM     81  C   UNL A   1      39.569  33.511  36.039  1.00  0.00     0.134 A 
ATOM     82  C   UNL A   1      38.244  31.651  36.761  1.00  0.00     0.134 A 
ATOM     83  F   UNL A   1      40.471  34.070  35.219  1.00  0.00    -0.206 F 
ATOM     84  C   UNL A   1      39.075  34.280  37.093  1.00  0.00     0.040 A 
ATOM     85  C   UNL A   1      37.722  32.418  37.804  1.00  0.00     0.040 A 
ATOM     86  F   UNL A   1      37.822  30.383  36.642  1.00  0.00    -0.206 F 
ATOM     87  C   UNL A   1      38.144  33.735  37.976  1.00  0.00     0.006 A 
ENDBRANCH  63  80
ENDBRANCH  37  38
ENDBRANCH  29  32
ENDBRANCH  27  28
ENDBRANCH  26  27
ENDBRANCH   1  26
TORSDOF 13
ENDMDL
