MODEL 1
REMARK VINA RESULT:     -12.2      0.000      0.000
REMARK SMILES COc1ccc(NC(=O)[C@@H]2[C@@H](C(=O)NCCCNC(=O)c3ccc(-c4c5nc(c(-c6c(F)cccc6F)c6ccc([nH]6)c(-c6c(F)cccc6F)c6nc(c(-c7c(F)cccc7F)c7ccc4[nH]7)C=C6)C=C5)cc3)[C@@H]3CC[C@H]2C3=C(C)C)cc1
REMARK SMILES IDX 15 1 14 2 12 3 13 4 11 6 10 7 78 8 75 9 77 10 79 11 76 12
REMARK SMILES IDX 80 13 81 14 82 15 8 16 7 17 9 19 6 20 3 21 4 22 84 23 5 24
REMARK SMILES IDX 83 25 2 26 1 27 16 28 17 29 18 30 19 31 20 33 21 34 22 35
REMARK SMILES IDX 74 36 23 37 73 38 24 39 25 40 26 41 67 42 27 43 72 44 66 45
REMARK SMILES IDX 68 46 28 47 71 48 65 49 64 50 29 52 55 53 38 54 54 55 39 56
REMARK SMILES IDX 42 57 53 58 69 59 40 60 41 61 52 63 70 64 43 65 30 66 31 67
REMARK SMILES IDX 36 68 32 69 33 70 35 71 37 72 34 73 56 74 57 75 62 76 58 77
REMARK SMILES IDX 59 78 61 79 63 80 60 81 44 82 45 83 50 84 46 85 47 86 49 87
REMARK SMILES IDX 51 88 48 89
REMARK H PARENT 14 5 7 18 18 32 68 51 42 62
REMARK Flexibility Score: inf
ROOT
ATOM      1  C   UNL A   1      37.076  21.836  23.873  1.00  0.00     0.117 C 
ENDROOT
BRANCH   1   2
ATOM      2  N   UNL A   1      36.884  22.953  24.777  1.00  0.00    -0.356 N 
ATOM      3  C   UNL A   1      35.845  23.830  24.866  1.00  0.00     0.224 C 
ATOM      4  O   UNL A   1      35.831  24.582  25.841  1.00  0.00    -0.275 OA
ATOM      5  H   UNL A   1      37.613  23.100  25.422  1.00  0.00     0.163 HD
BRANCH   3   6
ATOM      6  C   UNL A   1      34.737  23.776  23.816  1.00  0.00     0.098 C 
ATOM      7  C   UNL A   1      33.645  24.888  23.933  1.00  0.00     0.099 C 
ATOM      8  C   UNL A   1      32.348  24.066  24.197  1.00  0.00     0.028 C 
ATOM      9  C   UNL A   1      33.956  22.474  24.119  1.00  0.00     0.028 C 
ATOM     10  C   UNL A   1      31.908  23.127  23.061  1.00  0.00     0.009 C 
ATOM     11  C   UNL A   1      32.955  23.023  25.100  1.00  0.00    -0.064 C 
ATOM     12  C   UNL A   1      33.052  22.116  22.941  1.00  0.00     0.009 C 
ATOM     13  C   UNL A   1      32.759  22.775  26.404  1.00  0.00    -0.077 C 
ATOM     14  C   UNL A   1      33.566  21.777  27.188  1.00  0.00     0.039 C 
ATOM     15  C   UNL A   1      31.769  23.571  27.209  1.00  0.00     0.039 C 
BRANCH   7  16
ATOM     16  C   UNL A   1      33.552  25.814  22.722  1.00  0.00     0.228 C 
ATOM     17  N   UNL A   1      33.217  27.134  22.769  1.00  0.00    -0.326 N 
ATOM     18  H   UNL A   1      33.257  27.549  21.879  1.00  0.00     0.169 HD
ATOM     19  O   UNL A   1      33.798  25.400  21.583  1.00  0.00    -0.274 OA
BRANCH  17  20
ATOM     20  C   UNL A   1      32.829  28.058  23.754  1.00  0.00     0.041 A 
ATOM     21  C   UNL A   1      32.184  29.789  25.884  1.00  0.00     0.119 A 
ATOM     22  C   UNL A   1      31.270  29.544  24.872  1.00  0.00     0.048 A 
ATOM     23  C   UNL A   1      33.440  29.194  25.834  1.00  0.00     0.048 A 
ATOM     24  C   UNL A   1      31.614  28.720  23.799  1.00  0.00     0.030 A 
ATOM     25  C   UNL A   1      33.756  28.329  24.774  1.00  0.00     0.030 A 
BRANCH  21  26
ATOM     26  O   UNL A   1      31.759  30.562  26.925  1.00  0.00    -0.497 OA
ATOM     27  C   UNL A   1      31.299  31.842  26.501  1.00  0.00     0.278 C 
ENDBRANCH  21  26
ENDBRANCH  17  20
ENDBRANCH   7  16
ENDBRANCH   3   6
ENDBRANCH   1   2
BRANCH   1  28
ATOM     28  C   UNL A   1      37.432  20.552  24.608  1.00  0.00     0.042 C 
BRANCH  28  29
ATOM     29  C   UNL A   1      38.490  20.719  25.695  1.00  0.00     0.118 C 
BRANCH  29  30
ATOM     30  N   UNL A   1      39.531  19.701  25.645  1.00  0.00    -0.352 N 
ATOM     31  C   UNL A   1      40.866  19.778  25.955  1.00  0.00     0.251 C 
ATOM     32  H   UNL A   1      39.228  18.814  25.341  1.00  0.00     0.163 HD
ATOM     33  O   UNL A   1      41.606  18.831  25.696  1.00  0.00    -0.269 OA
BRANCH  31  34
ATOM     34  C   UNL A   1      41.430  21.002  26.565  1.00  0.00     0.039 A 
ATOM     35  C   UNL A   1      41.991  21.972  25.730  1.00  0.00     0.014 A 
ATOM     36  C   UNL A   1      41.415  21.197  27.949  1.00  0.00     0.014 A 
ATOM     37  C   UNL A   1      42.459  23.171  26.274  1.00  0.00     0.010 A 
ATOM     38  C   UNL A   1      41.804  22.424  28.479  1.00  0.00     0.010 A 
ATOM     39  C   UNL A   1      42.324  23.427  27.647  1.00  0.00    -0.014 A 
BRANCH  39  40
ATOM     40  C   UNL A   1      42.691  24.746  28.226  1.00  0.00     0.031 A 
ATOM     41  C   UNL A   1      41.648  25.810  28.427  1.00  0.00     0.074 A 
ATOM     42  C   UNL A   1      43.983  25.014  28.498  1.00  0.00     0.049 A 
ATOM     43  N   UNL A   1      41.794  27.043  28.842  1.00  0.00    -0.248 NA
ATOM     44  C   UNL A   1      40.262  25.447  28.094  1.00  0.00     0.031 C 
ATOM     45  C   UNL A   1      45.100  24.085  28.302  1.00  0.00     0.029 A 
ATOM     46  N   UNL A   1      44.581  26.151  28.982  1.00  0.00    -0.354 N 
ATOM     47  C   UNL A   1      40.525  27.607  28.805  1.00  0.00     0.074 A 
ATOM     48  C   UNL A   1      39.631  26.598  28.279  1.00  0.00     0.031 C 
ATOM     49  C   UNL A   1      46.240  24.683  28.679  1.00  0.00     0.029 A 
ATOM     50  C   UNL A   1      45.946  26.049  29.099  1.00  0.00     0.049 A 
ATOM     51  H   UNL A   1      44.078  26.963  29.224  1.00  0.00     0.167 HD
ATOM     52  C   UNL A   1      40.138  28.847  29.191  1.00  0.00     0.037 A 
ATOM     53  C   UNL A   1      46.862  26.957  29.485  1.00  0.00     0.037 A 
ATOM     54  C   UNL A   1      41.028  29.843  29.728  1.00  0.00     0.049 A 
ATOM     55  C   UNL A   1      46.411  28.332  29.890  1.00  0.00     0.074 A 
ATOM     56  C   UNL A   1      40.720  31.102  30.212  1.00  0.00     0.029 A 
ATOM     57  N   UNL A   1      42.403  29.698  29.840  1.00  0.00    -0.354 N 
ATOM     58  N   UNL A   1      45.198  28.827  29.924  1.00  0.00    -0.248 NA
ATOM     59  C   UNL A   1      47.456  29.275  30.315  1.00  0.00     0.031 C 
ATOM     60  C   UNL A   1      41.914  31.742  30.560  1.00  0.00     0.029 A 
ATOM     61  C   UNL A   1      42.962  30.859  30.353  1.00  0.00     0.049 A 
ATOM     62  H   UNL A   1      42.909  28.890  29.593  1.00  0.00     0.167 HD
ATOM     63  C   UNL A   1      45.329  30.128  30.396  1.00  0.00     0.074 A 
ATOM     64  C   UNL A   1      46.739  30.339  30.650  1.00  0.00     0.031 C 
ATOM     65  C   UNL A   1      44.367  31.060  30.601  1.00  0.00     0.037 A 
BRANCH  52  66
ATOM     66  C   UNL A   1      38.685  29.198  29.037  1.00  0.00     0.057 A 
ATOM     67  C   UNL A   1      37.791  29.149  30.114  1.00  0.00     0.134 A 
ATOM     68  C   UNL A   1      38.181  29.623  27.801  1.00  0.00     0.134 A 
ATOM     69  F   UNL A   1      38.204  28.742  31.324  1.00  0.00    -0.206 F 
ATOM     70  C   UNL A   1      36.442  29.477  29.961  1.00  0.00     0.040 A 
ATOM     71  C   UNL A   1      36.842  29.984  27.642  1.00  0.00     0.040 A 
ATOM     72  F   UNL A   1      38.983  29.704  26.728  1.00  0.00    -0.206 F 
ATOM     73  C   UNL A   1      35.966  29.902  28.723  1.00  0.00     0.006 A 
ENDBRANCH  52  66
BRANCH  53  74
ATOM     74  C   UNL A   1      48.301  26.589  29.513  1.00  0.00     0.057 A 
ATOM     75  C   UNL A   1      48.862  25.950  30.625  1.00  0.00     0.134 A 
ATOM     76  C   UNL A   1      49.148  26.860  28.432  1.00  0.00     0.134 A 
ATOM     77  F   UNL A   1      48.108  25.681  31.701  1.00  0.00    -0.206 F 
ATOM     78  C   UNL A   1      50.215  25.610  30.668  1.00  0.00     0.040 A 
ATOM     79  C   UNL A   1      50.495  26.501  28.448  1.00  0.00     0.040 A 
ATOM     80  F   UNL A   1      48.669  27.464  27.332  1.00  0.00    -0.206 F 
ATOM     81  C   UNL A   1      51.034  25.879  29.572  1.00  0.00     0.006 A 
ENDBRANCH  53  74
BRANCH  65  82
ATOM     82  C   UNL A   1      44.799  32.388  31.153  1.00  0.00     0.057 A 
ATOM     83  C   UNL A   1      44.902  32.621  32.531  1.00  0.00     0.134 A 
ATOM     84  C   UNL A   1      45.159  33.434  30.293  1.00  0.00     0.134 A 
ATOM     85  F   UNL A   1      44.560  31.666  33.409  1.00  0.00    -0.206 F 
ATOM     86  C   UNL A   1      45.328  33.852  33.033  1.00  0.00     0.040 A 
ATOM     87  C   UNL A   1      45.614  34.659  30.783  1.00  0.00     0.040 A 
ATOM     88  F   UNL A   1      45.093  33.277  28.962  1.00  0.00    -0.206 F 
ATOM     89  C   UNL A   1      45.694  34.873  32.157  1.00  0.00     0.006 A 
ENDBRANCH  65  82
ENDBRANCH  39  40
ENDBRANCH  31  34
ENDBRANCH  29  30
ENDBRANCH  28  29
ENDBRANCH   1  28
TORSDOF 13
ENDMDL
MODEL 2
REMARK VINA RESULT:     -12.1      2.230      6.819
REMARK SMILES COc1ccc(NC(=O)[C@@H]2[C@@H](C(=O)NCCCNC(=O)c3ccc(-c4c5nc(c(-c6c(F)cccc6F)c6ccc([nH]6)c(-c6c(F)cccc6F)c6nc(c(-c7c(F)cccc7F)c7ccc4[nH]7)C=C6)C=C5)cc3)[C@@H]3CC[C@H]2C3=C(C)C)cc1
REMARK SMILES IDX 15 1 14 2 12 3 13 4 11 6 10 7 78 8 75 9 77 10 79 11 76 12
REMARK SMILES IDX 80 13 81 14 82 15 8 16 7 17 9 19 6 20 3 21 4 22 84 23 5 24
REMARK SMILES IDX 83 25 2 26 1 27 16 28 17 29 18 30 19 31 20 33 21 34 22 35
REMARK SMILES IDX 74 36 23 37 73 38 24 39 25 40 26 41 67 42 27 43 72 44 66 45
REMARK SMILES IDX 68 46 28 47 71 48 65 49 64 50 29 52 55 53 38 54 54 55 39 56
REMARK SMILES IDX 42 57 53 58 69 59 40 60 41 61 52 63 70 64 43 65 30 66 31 67
REMARK SMILES IDX 36 68 32 69 33 70 35 71 37 72 34 73 56 74 57 75 62 76 58 77
REMARK SMILES IDX 59 78 61 79 63 80 60 81 44 82 45 83 50 84 46 85 47 86 49 87
REMARK SMILES IDX 51 88 48 89
REMARK H PARENT 14 5 7 18 18 32 68 51 42 62
REMARK Flexibility Score: inf
ROOT
ATOM      1  C   UNL A   1      33.649  27.029  26.424  1.00  0.00     0.117 C 
ENDROOT
BRANCH   1   2
ATOM      2  N   UNL A   1      32.606  26.022  26.393  1.00  0.00    -0.356 N 
ATOM      3  C   UNL A   1      32.524  24.877  25.657  1.00  0.00     0.224 C 
ATOM      4  O   UNL A   1      31.621  24.092  25.946  1.00  0.00    -0.275 OA
ATOM      5  H   UNL A   1      31.843  26.190  26.993  1.00  0.00     0.163 HD
BRANCH   3   6
ATOM      6  C   UNL A   1      33.584  24.603  24.593  1.00  0.00     0.098 C 
ATOM      7  C   UNL A   1      33.167  23.596  23.472  1.00  0.00     0.099 C 
ATOM      8  C   UNL A   1      34.190  22.435  23.659  1.00  0.00     0.028 C 
ATOM      9  C   UNL A   1      34.721  23.860  25.337  1.00  0.00     0.028 C 
ATOM     10  C   UNL A   1      35.663  22.796  23.408  1.00  0.00     0.009 C 
ATOM     11  C   UNL A   1      34.230  22.447  25.166  1.00  0.00    -0.064 C 
ATOM     12  C   UNL A   1      35.985  23.841  24.480  1.00  0.00     0.009 C 
ATOM     13  C   UNL A   1      33.816  21.535  26.059  1.00  0.00    -0.077 C 
ATOM     14  C   UNL A   1      33.800  21.776  27.543  1.00  0.00     0.039 C 
ATOM     15  C   UNL A   1      33.230  20.222  25.617  1.00  0.00     0.039 C 
BRANCH   7  16
ATOM     16  C   UNL A   1      33.155  24.186  22.064  1.00  0.00     0.228 C 
ATOM     17  N   UNL A   1      32.775  25.457  21.751  1.00  0.00    -0.326 N 
ATOM     18  H   UNL A   1      32.882  25.640  20.790  1.00  0.00     0.169 HD
ATOM     19  O   UNL A   1      33.514  23.516  21.089  1.00  0.00    -0.274 OA
BRANCH  17  20
ATOM     20  C   UNL A   1      32.272  26.575  22.437  1.00  0.00     0.041 A 
ATOM     21  C   UNL A   1      31.048  28.769  23.717  1.00  0.00     0.119 A 
ATOM     22  C   UNL A   1      32.372  28.836  23.315  1.00  0.00     0.048 A 
ATOM     23  C   UNL A   1      30.325  27.600  23.510  1.00  0.00     0.048 A 
ATOM     24  C   UNL A   1      32.982  27.729  22.720  1.00  0.00     0.030 A 
ATOM     25  C   UNL A   1      30.936  26.511  22.867  1.00  0.00     0.030 A 
BRANCH  21  26
ATOM     26  O   UNL A   1      30.505  29.906  24.243  1.00  0.00    -0.497 OA
ATOM     27  C   UNL A   1      29.405  30.388  23.478  1.00  0.00     0.278 C 
ENDBRANCH  21  26
ENDBRANCH  17  20
ENDBRANCH   7  16
ENDBRANCH   3   6
ENDBRANCH   1   2
BRANCH   1  28
ATOM     28  C   UNL A   1      33.165  28.343  27.016  1.00  0.00     0.042 C 
BRANCH  28  29
ATOM     29  C   UNL A   1      34.012  29.555  26.642  1.00  0.00     0.118 C 
BRANCH  29  30
ATOM     30  N   UNL A   1      33.921  30.641  27.610  1.00  0.00    -0.352 N 
ATOM     31  C   UNL A   1      34.788  31.021  28.604  1.00  0.00     0.251 C 
ATOM     32  H   UNL A   1      33.107  31.192  27.538  1.00  0.00     0.163 HD
ATOM     33  O   UNL A   1      34.445  31.881  29.414  1.00  0.00    -0.269 OA
BRANCH  31  34
ATOM     34  C   UNL A   1      36.115  30.382  28.733  1.00  0.00     0.039 A 
ATOM     35  C   UNL A   1      37.012  30.473  27.664  1.00  0.00     0.014 A 
ATOM     36  C   UNL A   1      36.479  29.691  29.892  1.00  0.00     0.014 A 
ATOM     37  C   UNL A   1      38.299  29.946  27.791  1.00  0.00     0.010 A 
ATOM     38  C   UNL A   1      37.788  29.241  30.047  1.00  0.00     0.010 A 
ATOM     39  C   UNL A   1      38.714  29.370  29.001  1.00  0.00    -0.014 A 
BRANCH  39  40
ATOM     40  C   UNL A   1      40.118  28.924  29.202  1.00  0.00     0.031 A 
ATOM     41  C   UNL A   1      41.146  29.866  29.766  1.00  0.00     0.074 A 
ATOM     42  C   UNL A   1      40.486  27.692  28.802  1.00  0.00     0.049 A 
ATOM     43  N   UNL A   1      42.430  29.681  29.937  1.00  0.00    -0.248 NA
ATOM     44  C   UNL A   1      40.670  31.199  30.166  1.00  0.00     0.031 C 
ATOM     45  C   UNL A   1      39.597  26.698  28.194  1.00  0.00     0.029 A 
ATOM     46  N   UNL A   1      41.708  27.067  28.829  1.00  0.00    -0.354 N 
ATOM     47  C   UNL A   1      42.919  30.877  30.449  1.00  0.00     0.074 A 
ATOM     48  C   UNL A   1      41.803  31.795  30.512  1.00  0.00     0.031 C 
ATOM     49  C   UNL A   1      40.298  25.587  27.925  1.00  0.00     0.029 A 
ATOM     50  C   UNL A   1      41.693  25.802  28.295  1.00  0.00     0.049 A 
ATOM     51  H   UNL A   1      42.520  27.487  29.198  1.00  0.00     0.167 HD
ATOM     52  C   UNL A   1      44.179  31.176  30.847  1.00  0.00     0.037 A 
ATOM     53  C   UNL A   1      42.691  24.917  28.109  1.00  0.00     0.037 A 
ATOM     54  C   UNL A   1      45.284  30.254  30.796  1.00  0.00     0.049 A 
ATOM     55  C   UNL A   1      44.085  25.278  28.540  1.00  0.00     0.074 A 
ATOM     56  C   UNL A   1      46.582  30.440  31.240  1.00  0.00     0.029 A 
ATOM     57  N   UNL A   1      45.226  28.977  30.257  1.00  0.00    -0.354 N 
ATOM     58  N   UNL A   1      44.518  26.384  29.095  1.00  0.00    -0.248 NA
ATOM     59  C   UNL A   1      45.129  24.267  28.323  1.00  0.00     0.031 C 
ATOM     60  C   UNL A   1      47.324  29.299  30.915  1.00  0.00     0.029 A 
ATOM     61  C   UNL A   1      46.474  28.376  30.326  1.00  0.00     0.049 A 
ATOM     62  H   UNL A   1      44.418  28.558  29.883  1.00  0.00     0.167 HD
ATOM     63  C   UNL A   1      45.876  26.194  29.316  1.00  0.00     0.074 A 
ATOM     64  C   UNL A   1      46.192  24.859  28.850  1.00  0.00     0.031 C 
ATOM     65  C   UNL A   1      46.779  27.048  29.858  1.00  0.00     0.037 A 
BRANCH  52  66
ATOM     66  C   UNL A   1      44.432  32.564  31.365  1.00  0.00     0.057 A 
ATOM     67  C   UNL A   1      44.312  32.882  32.724  1.00  0.00     0.134 A 
ATOM     68  C   UNL A   1      44.832  33.587  30.496  1.00  0.00     0.134 A 
ATOM     69  F   UNL A   1      43.924  31.952  33.609  1.00  0.00    -0.206 F 
ATOM     70  C   UNL A   1      44.548  34.176  33.195  1.00  0.00     0.040 A 
ATOM     71  C   UNL A   1      45.102  34.876  30.960  1.00  0.00     0.040 A 
ATOM     72  F   UNL A   1      44.977  33.350  29.183  1.00  0.00    -0.206 F 
ATOM     73  C   UNL A   1      44.951  35.175  32.313  1.00  0.00     0.006 A 
ENDBRANCH  52  66
BRANCH  53  74
ATOM     74  C   UNL A   1      42.404  23.598  27.489  1.00  0.00     0.057 A 
ATOM     75  C   UNL A   1      42.450  23.426  26.101  1.00  0.00     0.134 A 
ATOM     76  C   UNL A   1      42.081  22.479  28.266  1.00  0.00     0.134 A 
ATOM     77  F   UNL A   1      42.734  24.465  25.301  1.00  0.00    -0.206 F 
ATOM     78  C   UNL A   1      42.170  22.195  25.507  1.00  0.00     0.040 A 
ATOM     79  C   UNL A   1      41.826  21.235  27.688  1.00  0.00     0.040 A 
ATOM     80  F   UNL A   1      42.028  22.576  29.604  1.00  0.00    -0.206 F 
ATOM     81  C   UNL A   1      41.864  21.092  26.303  1.00  0.00     0.006 A 
ENDBRANCH  53  74
BRANCH  65  82
ATOM     82  C   UNL A   1      48.191  26.559  30.004  1.00  0.00     0.057 A 
ATOM     83  C   UNL A   1      48.622  25.866  31.144  1.00  0.00     0.134 A 
ATOM     84  C   UNL A   1      49.120  26.746  28.972  1.00  0.00     0.134 A 
ATOM     85  F   UNL A   1      47.786  25.664  32.173  1.00  0.00    -0.206 F 
ATOM     86  C   UNL A   1      49.931  25.394  31.258  1.00  0.00     0.040 A 
ATOM     87  C   UNL A   1      50.423  26.254  29.064  1.00  0.00     0.040 A 
ATOM     88  F   UNL A   1      48.772  27.393  27.850  1.00  0.00    -0.206 F 
ATOM     89  C   UNL A   1      50.833  25.581  30.213  1.00  0.00     0.006 A 
ENDBRANCH  65  82
ENDBRANCH  39  40
ENDBRANCH  31  34
ENDBRANCH  29  30
ENDBRANCH  28  29
ENDBRANCH   1  28
TORSDOF 13
ENDMDL
MODEL 3
REMARK VINA RESULT:     -12.1      4.087      9.265
REMARK SMILES COc1ccc(NC(=O)[C@@H]2[C@@H](C(=O)NCCCNC(=O)c3ccc(-c4c5nc(c(-c6c(F)cccc6F)c6ccc([nH]6)c(-c6c(F)cccc6F)c6nc(c(-c7c(F)cccc7F)c7ccc4[nH]7)C=C6)C=C5)cc3)[C@@H]3CC[C@H]2C3=C(C)C)cc1
REMARK SMILES IDX 15 1 14 2 12 3 13 4 11 6 10 7 78 8 75 9 77 10 79 11 76 12
REMARK SMILES IDX 80 13 81 14 82 15 8 16 7 17 9 19 6 20 3 21 4 22 84 23 5 24
REMARK SMILES IDX 83 25 2 26 1 27 16 28 17 29 18 30 19 31 20 33 21 34 22 35
REMARK SMILES IDX 74 36 23 37 73 38 24 39 25 40 26 41 67 42 27 43 72 44 66 45
REMARK SMILES IDX 68 46 28 47 71 48 65 49 64 50 29 52 55 53 38 54 54 55 39 56
REMARK SMILES IDX 42 57 53 58 69 59 40 60 41 61 52 63 70 64 43 65 30 66 31 67
REMARK SMILES IDX 36 68 32 69 33 70 35 71 37 72 34 73 56 74 57 75 62 76 58 77
REMARK SMILES IDX 59 78 61 79 63 80 60 81 44 82 45 83 50 84 46 85 47 86 49 87
REMARK SMILES IDX 51 88 48 89
REMARK H PARENT 14 5 7 18 18 32 68 51 42 62
REMARK Flexibility Score: inf
ROOT
ATOM      1  C   UNL A   1      31.714  30.411  25.791  1.00  0.00     0.117 C 
ENDROOT
BRANCH   1   2
ATOM      2  N   UNL A   1      32.687  29.430  26.230  1.00  0.00    -0.356 N 
ATOM      3  C   UNL A   1      32.644  28.070  26.156  1.00  0.00     0.224 C 
ATOM      4  O   UNL A   1      33.679  27.463  26.432  1.00  0.00    -0.275 OA
ATOM      5  H   UNL A   1      33.500  29.802  26.644  1.00  0.00     0.163 HD
BRANCH   3   6
ATOM      6  C   UNL A   1      31.365  27.394  25.666  1.00  0.00     0.098 C 
ATOM      7  C   UNL A   1      31.486  25.867  25.358  1.00  0.00     0.099 C 
ATOM      8  C   UNL A   1      31.164  25.799  23.835  1.00  0.00     0.028 C 
ATOM      9  C   UNL A   1      31.085  28.019  24.276  1.00  0.00     0.028 C 
ATOM     10  C   UNL A   1      29.741  26.223  23.433  1.00  0.00     0.009 C 
ATOM     11  C   UNL A   1      31.877  27.063  23.425  1.00  0.00    -0.064 C 
ATOM     12  C   UNL A   1      29.659  27.699  23.834  1.00  0.00     0.009 C 
ATOM     13  C   UNL A   1      32.965  27.244  22.661  1.00  0.00    -0.077 C 
ATOM     14  C   UNL A   1      33.632  28.578  22.473  1.00  0.00     0.039 C 
ATOM     15  C   UNL A   1      33.664  26.082  22.011  1.00  0.00     0.039 C 
BRANCH   7  16
ATOM     16  C   UNL A   1      30.593  24.975  26.217  1.00  0.00     0.228 C 
ATOM     17  N   UNL A   1      30.825  23.660  26.485  1.00  0.00    -0.326 N 
ATOM     18  H   UNL A   1      30.145  23.288  27.091  1.00  0.00     0.169 HD
ATOM     19  O   UNL A   1      29.569  25.422  26.749  1.00  0.00    -0.274 OA
BRANCH  17  20
ATOM     20  C   UNL A   1      31.780  22.693  26.126  1.00  0.00     0.041 A 
ATOM     21  C   UNL A   1      33.861  20.898  25.499  1.00  0.00     0.119 A 
ATOM     22  C   UNL A   1      32.749  21.003  24.679  1.00  0.00     0.048 A 
ATOM     23  C   UNL A   1      33.938  21.667  26.654  1.00  0.00     0.048 A 
ATOM     24  C   UNL A   1      31.703  21.863  25.020  1.00  0.00     0.030 A 
ATOM     25  C   UNL A   1      32.902  22.564  26.961  1.00  0.00     0.030 A 
BRANCH  21  26
ATOM     26  O   UNL A   1      34.864  20.076  25.074  1.00  0.00    -0.497 OA
ATOM     27  C   UNL A   1      36.141  20.707  25.118  1.00  0.00     0.278 C 
ENDBRANCH  21  26
ENDBRANCH  17  20
ENDBRANCH   7  16
ENDBRANCH   3   6
ENDBRANCH   1   2
BRANCH   1  28
ATOM     28  C   UNL A   1      31.530  31.534  26.801  1.00  0.00     0.042 C 
BRANCH  28  29
ATOM     29  C   UNL A   1      32.800  32.318  27.114  1.00  0.00     0.118 C 
BRANCH  29  30
ATOM     30  N   UNL A   1      32.543  33.698  27.505  1.00  0.00    -0.352 N 
ATOM     31  C   UNL A   1      33.142  34.477  28.463  1.00  0.00     0.251 C 
ATOM     32  H   UNL A   1      31.824  34.143  27.000  1.00  0.00     0.163 HD
ATOM     33  O   UNL A   1      32.667  35.577  28.737  1.00  0.00    -0.269 OA
BRANCH  31  34
ATOM     34  C   UNL A   1      34.333  33.992  29.194  1.00  0.00     0.039 A 
ATOM     35  C   UNL A   1      34.149  33.171  30.310  1.00  0.00     0.014 A 
ATOM     36  C   UNL A   1      35.624  34.344  28.794  1.00  0.00     0.014 A 
ATOM     37  C   UNL A   1      35.257  32.636  30.970  1.00  0.00     0.010 A 
ATOM     38  C   UNL A   1      36.725  33.745  29.400  1.00  0.00     0.010 A 
ATOM     39  C   UNL A   1      36.554  32.879  30.490  1.00  0.00    -0.014 A 
BRANCH  39  40
ATOM     40  C   UNL A   1      37.738  32.214  31.095  1.00  0.00     0.031 A 
ATOM     41  C   UNL A   1      38.454  31.114  30.362  1.00  0.00     0.074 A 
ATOM     42  C   UNL A   1      38.120  32.547  32.343  1.00  0.00     0.049 A 
ATOM     43  N   UNL A   1      39.452  30.367  30.762  1.00  0.00    -0.248 NA
ATOM     44  C   UNL A   1      37.969  30.796  29.010  1.00  0.00     0.031 C 
ATOM     45  C   UNL A   1      37.479  33.563  33.182  1.00  0.00     0.029 A 
ATOM     46  N   UNL A   1      39.131  32.058  33.133  1.00  0.00    -0.354 N 
ATOM     47  C   UNL A   1      39.703  29.482  29.721  1.00  0.00     0.074 A 
ATOM     48  C   UNL A   1      38.721  29.752  28.693  1.00  0.00     0.031 C 
ATOM     49  C   UNL A   1      38.122  33.633  34.357  1.00  0.00     0.029 A 
ATOM     50  C   UNL A   1      39.189  32.638  34.377  1.00  0.00     0.049 A 
ATOM     51  H   UNL A   1      39.755  31.356  32.836  1.00  0.00     0.167 HD
ATOM     52  C   UNL A   1      40.674  28.543  29.624  1.00  0.00     0.037 A 
ATOM     53  C   UNL A   1      39.999  32.388  35.423  1.00  0.00     0.037 A 
ATOM     54  C   UNL A   1      41.659  28.287  30.643  1.00  0.00     0.049 A 
ATOM     55  C   UNL A   1      41.057  31.328  35.299  1.00  0.00     0.074 A 
ATOM     56  C   UNL A   1      42.725  27.405  30.609  1.00  0.00     0.029 A 
ATOM     57  N   UNL A   1      41.691  28.904  31.886  1.00  0.00    -0.354 N 
ATOM     58  N   UNL A   1      41.333  30.552  34.279  1.00  0.00    -0.248 NA
ATOM     59  C   UNL A   1      41.919  31.110  36.469  1.00  0.00     0.031 C 
ATOM     60  C   UNL A   1      43.366  27.444  31.852  1.00  0.00     0.029 A 
ATOM     61  C   UNL A   1      42.738  28.396  32.640  1.00  0.00     0.049 A 
ATOM     62  H   UNL A   1      41.064  29.599  32.188  1.00  0.00     0.167 HD
ATOM     63  C   UNL A   1      42.414  29.773  34.674  1.00  0.00     0.074 A 
ATOM     64  C   UNL A   1      42.753  30.182  36.021  1.00  0.00     0.031 C 
ATOM     65  C   UNL A   1      43.066  28.808  33.981  1.00  0.00     0.037 A 
BRANCH  52  66
ATOM     66  C   UNL A   1      40.714  27.713  28.371  1.00  0.00     0.057 A 
ATOM     67  C   UNL A   1      41.455  28.100  27.247  1.00  0.00     0.134 A 
ATOM     68  C   UNL A   1      40.026  26.494  28.301  1.00  0.00     0.134 A 
ATOM     69  F   UNL A   1      42.129  29.260  27.243  1.00  0.00    -0.206 F 
ATOM     70  C   UNL A   1      41.484  27.323  26.088  1.00  0.00     0.040 A 
ATOM     71  C   UNL A   1      40.074  25.693  27.159  1.00  0.00     0.040 A 
ATOM     72  F   UNL A   1      39.305  26.057  29.345  1.00  0.00    -0.206 F 
ATOM     73  C   UNL A   1      40.798  26.112  26.044  1.00  0.00     0.006 A 
ENDBRANCH  52  66
BRANCH  53  74
ATOM     74  C   UNL A   1      39.843  33.165  36.680  1.00  0.00     0.057 A 
ATOM     75  C   UNL A   1      40.597  34.322  36.913  1.00  0.00     0.134 A 
ATOM     76  C   UNL A   1      38.938  32.775  37.674  1.00  0.00     0.134 A 
ATOM     77  F   UNL A   1      41.495  34.736  36.007  1.00  0.00    -0.206 F 
ATOM     78  C   UNL A   1      40.468  35.053  38.094  1.00  0.00     0.040 A 
ATOM     79  C   UNL A   1      38.778  33.511  38.848  1.00  0.00     0.040 A 
ATOM     80  F   UNL A   1      38.180  31.680  37.508  1.00  0.00    -0.206 F 
ATOM     81  C   UNL A   1      39.549  34.652  39.063  1.00  0.00     0.006 A 
ENDBRANCH  53  74
BRANCH  65  82
ATOM     82  C   UNL A   1      44.232  28.143  34.654  1.00  0.00     0.057 A 
ATOM     83  C   UNL A   1      44.093  26.946  35.369  1.00  0.00     0.134 A 
ATOM     84  C   UNL A   1      45.520  28.686  34.548  1.00  0.00     0.134 A 
ATOM     85  F   UNL A   1      42.886  26.381  35.520  1.00  0.00    -0.206 F 
ATOM     86  C   UNL A   1      45.189  26.325  35.970  1.00  0.00     0.040 A 
ATOM     87  C   UNL A   1      46.627  28.058  35.120  1.00  0.00     0.040 A 
ATOM     88  F   UNL A   1      45.726  29.826  33.871  1.00  0.00    -0.206 F 
ATOM     89  C   UNL A   1      46.462  26.877  35.839  1.00  0.00     0.006 A 
ENDBRANCH  65  82
ENDBRANCH  39  40
ENDBRANCH  31  34
ENDBRANCH  29  30
ENDBRANCH  28  29
ENDBRANCH   1  28
TORSDOF 13
ENDMDL
