MODEL 1
REMARK VINA RESULT:     -10.3      0.000      0.000
REMARK SMILES C=CCN(CC(=O)NCCCNC(=O)c1ccc(-c2c3nc(c(-c4c(F)cccc4F)c4ccc([nH]4)c(-c4c(F)cccc4F)c4nc(c(-c5c(F)cccc5F)c5ccc2[nH]5)C=C4)C=C3)cc1)C(=O)CC1([NH2+]C)CCCCC1
REMARK SMILES IDX 6 1 7 2 8 3 5 5 4 6 3 7 2 8 1 9 69 10 70 11 71 12 72 13
REMARK SMILES IDX 75 14 79 15 76 16 78 17 77 18 73 19 74 20 9 23 10 24 11 25
REMARK SMILES IDX 12 26 13 27 14 29 15 30 16 31 68 32 17 33 67 34 18 35 19 36
REMARK SMILES IDX 20 37 61 38 21 39 66 40 60 41 62 42 22 43 65 44 59 45 58 46
REMARK SMILES IDX 23 48 49 49 32 50 48 51 33 52 36 53 47 54 63 55 34 56 35 57
REMARK SMILES IDX 46 59 64 60 37 61 24 62 25 63 30 64 26 65 27 66 29 67 31 68
REMARK SMILES IDX 28 69 50 70 51 71 56 72 52 73 53 74 55 75 57 76 54 77 38 78
REMARK SMILES IDX 39 79 44 80 40 81 41 82 43 83 45 84 42 85
REMARK H PARENT 8 4 73 21 73 22 12 28 62 47 36 58
REMARK Flexibility Score: inf
ROOT
ATOM      1  C   UNL A   1      34.412  21.647  26.622  1.00  0.00     0.239 C 
ATOM      2  O   UNL A   1      33.793  21.279  27.621  1.00  0.00    -0.273 OA
ATOM      3  N   UNL A   1      35.282  20.775  26.044  1.00  0.00    -0.354 N 
ATOM      4  H   UNL A   1      35.371  19.901  26.490  1.00  0.00     0.163 HD
ENDROOT
BRANCH   1   5
ATOM      5  C   UNL A   1      34.221  23.041  26.020  1.00  0.00     0.219 C 
BRANCH   5   6
ATOM      6  N   UNL A   1      32.868  23.349  25.538  1.00  0.00    -0.329 N 
BRANCH   6   7
ATOM      7  C   UNL A   1      32.476  22.736  24.267  1.00  0.00     0.147 C 
BRANCH   7   8
ATOM      8  C   UNL A   1      33.458  23.089  23.189  1.00  0.00    -0.014 C 
ATOM      9  C   UNL A   1      33.683  24.349  22.791  1.00  0.00     0.006 C 
ENDBRANCH   7   8
ENDBRANCH   6   7
BRANCH   6  10
ATOM     10  C   UNL A   1      31.925  24.170  26.153  1.00  0.00     0.229 C 
ATOM     11  O   UNL A   1      31.593  23.939  27.325  1.00  0.00    -0.275 OA
BRANCH  10  12
ATOM     12  C   UNL A   1      31.187  25.289  25.416  1.00  0.00     0.168 C 
BRANCH  12  13
ATOM     13  C   UNL A   1      31.587  26.794  25.558  1.00  0.00     0.105 C 
ATOM     14  C   UNL A   1      31.182  27.377  26.926  1.00  0.00     0.069 C 
ATOM     15  C   UNL A   1      33.155  26.821  25.486  1.00  0.00     0.069 C 
ATOM     16  C   UNL A   1      31.811  28.714  27.302  1.00  0.00     0.006 C 
ATOM     17  C   UNL A   1      33.805  28.148  25.897  1.00  0.00     0.006 C 
ATOM     18  C   UNL A   1      33.329  28.607  27.268  1.00  0.00     0.000 C 
BRANCH  13  19
ATOM     19  N   UNL A   1      31.139  27.664  24.449  1.00  0.00    -0.343 N 
ATOM     20  C   UNL A   1      31.151  27.089  23.114  1.00  0.00     0.331 C 
ATOM     21  H   UNL A   1      31.745  28.483  24.437  1.00  0.00     0.346 HD
ATOM     22  H   UNL A   1      30.156  27.857  24.645  1.00  0.00     0.346 HD
ENDBRANCH  13  19
ENDBRANCH  12  13
ENDBRANCH  10  12
ENDBRANCH   6  10
ENDBRANCH   5   6
ENDBRANCH   1   5
BRANCH   3  23
ATOM     23  C   UNL A   1      36.092  20.962  24.860  1.00  0.00     0.117 C 
BRANCH  23  24
ATOM     24  C   UNL A   1      37.279  20.010  24.827  1.00  0.00     0.042 C 
BRANCH  24  25
ATOM     25  C   UNL A   1      38.523  20.575  25.501  1.00  0.00     0.118 C 
BRANCH  25  26
ATOM     26  N   UNL A   1      39.553  19.560  25.693  1.00  0.00    -0.352 N 
ATOM     27  C   UNL A   1      40.877  19.694  26.024  1.00  0.00     0.251 C 
ATOM     28  H   UNL A   1      39.249  18.633  25.563  1.00  0.00     0.163 HD
ATOM     29  O   UNL A   1      41.646  18.755  25.855  1.00  0.00    -0.269 OA
BRANCH  27  30
ATOM     30  C   UNL A   1      41.372  20.966  26.585  1.00  0.00     0.039 A 
ATOM     31  C   UNL A   1      41.897  21.933  25.724  1.00  0.00     0.014 A 
ATOM     32  C   UNL A   1      41.351  21.186  27.964  1.00  0.00     0.014 A 
ATOM     33  C   UNL A   1      42.346  23.147  26.245  1.00  0.00     0.010 A 
ATOM     34  C   UNL A   1      41.714  22.426  28.471  1.00  0.00     0.010 A 
ATOM     35  C   UNL A   1      42.227  23.414  27.619  1.00  0.00    -0.014 A 
BRANCH  35  36
ATOM     36  C   UNL A   1      42.645  24.714  28.194  1.00  0.00     0.031 A 
ATOM     37  C   UNL A   1      41.625  25.795  28.424  1.00  0.00     0.074 A 
ATOM     38  C   UNL A   1      43.951  24.948  28.425  1.00  0.00     0.049 A 
ATOM     39  N   UNL A   1      41.804  27.026  28.828  1.00  0.00    -0.248 NA
ATOM     40  C   UNL A   1      40.223  25.455  28.131  1.00  0.00     0.031 C 
ATOM     41  C   UNL A   1      45.038  23.995  28.185  1.00  0.00     0.029 A 
ATOM     42  N   UNL A   1      44.587  26.065  28.902  1.00  0.00    -0.354 N 
ATOM     43  C   UNL A   1      40.544  27.612  28.813  1.00  0.00     0.074 A 
ATOM     44  C   UNL A   1      39.619  26.619  28.313  1.00  0.00     0.031 C 
ATOM     45  C   UNL A   1      46.203  24.562  28.535  1.00  0.00     0.029 A 
ATOM     46  C   UNL A   1      45.950  25.926  28.988  1.00  0.00     0.049 A 
ATOM     47  H   UNL A   1      44.112  26.888  29.157  1.00  0.00     0.167 HD
ATOM     48  C   UNL A   1      40.187  28.858  29.206  1.00  0.00     0.037 A 
ATOM     49  C   UNL A   1      46.891  26.804  29.381  1.00  0.00     0.037 A 
ATOM     50  C   UNL A   1      41.108  29.829  29.734  1.00  0.00     0.049 A 
ATOM     51  C   UNL A   1      46.469  28.176  29.825  1.00  0.00     0.074 A 
ATOM     52  C   UNL A   1      40.841  31.095  30.224  1.00  0.00     0.029 A 
ATOM     53  N   UNL A   1      42.479  29.640  29.838  1.00  0.00    -0.354 N 
ATOM     54  N   UNL A   1      45.265  28.694  29.876  1.00  0.00    -0.248 NA
ATOM     55  C   UNL A   1      47.534  29.084  30.273  1.00  0.00     0.031 C 
ATOM     56  C   UNL A   1      42.055  31.686  30.589  1.00  0.00     0.029 A 
ATOM     57  C   UNL A   1      43.072  30.772  30.370  1.00  0.00     0.049 A 
ATOM     58  H   UNL A   1      42.958  28.821  29.574  1.00  0.00     0.167 HD
ATOM     59  C   UNL A   1      45.423  29.976  30.386  1.00  0.00     0.074 A 
ATOM     60  C   UNL A   1      46.838  30.152  30.641  1.00  0.00     0.031 C 
ATOM     61  C   UNL A   1      44.482  30.922  30.623  1.00  0.00     0.037 A 
BRANCH  48  62
ATOM     62  C   UNL A   1      38.739  29.233  29.085  1.00  0.00     0.057 A 
ATOM     63  C   UNL A   1      37.866  29.175  30.181  1.00  0.00     0.134 A 
ATOM     64  C   UNL A   1      38.215  29.682  27.867  1.00  0.00     0.134 A 
ATOM     65  F   UNL A   1      38.300  28.741  31.374  1.00  0.00    -0.206 F 
ATOM     66  C   UNL A   1      36.519  29.522  30.062  1.00  0.00     0.040 A 
ATOM     67  C   UNL A   1      36.876  30.058  27.743  1.00  0.00     0.040 A 
ATOM     68  F   UNL A   1      38.995  29.767  26.779  1.00  0.00    -0.206 F 
ATOM     69  C   UNL A   1      36.023  29.972  28.841  1.00  0.00     0.006 A 
ENDBRANCH  48  62
BRANCH  49  70
ATOM     70  C   UNL A   1      48.319  26.402  29.401  1.00  0.00     0.057 A 
ATOM     71  C   UNL A   1      49.145  26.629  28.294  1.00  0.00     0.134 A 
ATOM     72  C   UNL A   1      48.894  25.791  30.521  1.00  0.00     0.134 A 
ATOM     73  F   UNL A   1      48.648  27.197  27.186  1.00  0.00    -0.206 F 
ATOM     74  C   UNL A   1      50.487  26.246  28.293  1.00  0.00     0.040 A 
ATOM     75  C   UNL A   1      50.240  25.426  30.543  1.00  0.00     0.040 A 
ATOM     76  F   UNL A   1      48.157  25.557  31.617  1.00  0.00    -0.206 F 
ATOM     77  C   UNL A   1      51.040  25.647  29.424  1.00  0.00     0.006 A 
ENDBRANCH  49  70
BRANCH  61  78
ATOM     78  C   UNL A   1      44.949  32.216  31.222  1.00  0.00     0.057 A 
ATOM     79  C   UNL A   1      45.316  33.308  30.427  1.00  0.00     0.134 A 
ATOM     80  C   UNL A   1      44.990  32.381  32.612  1.00  0.00     0.134 A 
ATOM     81  F   UNL A   1      45.310  33.208  29.089  1.00  0.00    -0.206 F 
ATOM     82  C   UNL A   1      45.728  34.515  30.994  1.00  0.00     0.040 A 
ATOM     83  C   UNL A   1      45.376  33.590  33.191  1.00  0.00     0.040 A 
ATOM     84  F   UNL A   1      44.643  31.375  33.429  1.00  0.00    -0.206 F 
ATOM     85  C   UNL A   1      45.752  34.660  32.381  1.00  0.00     0.006 A 
ENDBRANCH  61  78
ENDBRANCH  35  36
ENDBRANCH  27  30
ENDBRANCH  25  26
ENDBRANCH  24  25
ENDBRANCH  23  24
ENDBRANCH   3  23
TORSDOF 17
ENDMDL
MODEL 2
REMARK VINA RESULT:     -10.0      3.317      8.737
REMARK SMILES C=CCN(CC(=O)NCCCNC(=O)c1ccc(-c2c3nc(c(-c4c(F)cccc4F)c4ccc([nH]4)c(-c4c(F)cccc4F)c4nc(c(-c5c(F)cccc5F)c5ccc2[nH]5)C=C4)C=C3)cc1)C(=O)CC1([NH2+]C)CCCCC1
REMARK SMILES IDX 6 1 7 2 8 3 5 5 4 6 3 7 2 8 1 9 69 10 70 11 71 12 72 13
REMARK SMILES IDX 75 14 79 15 76 16 78 17 77 18 73 19 74 20 9 23 10 24 11 25
REMARK SMILES IDX 12 26 13 27 14 29 15 30 16 31 68 32 17 33 67 34 18 35 19 36
REMARK SMILES IDX 20 37 61 38 21 39 66 40 60 41 62 42 22 43 65 44 59 45 58 46
REMARK SMILES IDX 23 48 49 49 32 50 48 51 33 52 36 53 47 54 63 55 34 56 35 57
REMARK SMILES IDX 46 59 64 60 37 61 24 62 25 63 30 64 26 65 27 66 29 67 31 68
REMARK SMILES IDX 28 69 50 70 51 71 56 72 52 73 53 74 55 75 57 76 54 77 38 78
REMARK SMILES IDX 39 79 44 80 40 81 41 82 43 83 45 84 42 85
REMARK H PARENT 8 4 73 21 73 22 12 28 62 47 36 58
REMARK Flexibility Score: inf
ROOT
ATOM      1  C   UNL A   1      33.043  28.989  26.239  1.00  0.00     0.239 C 
ATOM      2  O   UNL A   1      33.985  28.544  26.896  1.00  0.00    -0.273 OA
ATOM      3  N   UNL A   1      32.432  30.125  26.674  1.00  0.00    -0.354 N 
ATOM      4  H   UNL A   1      32.782  30.504  27.513  1.00  0.00     0.163 HD
ENDROOT
BRANCH   1   5
ATOM      5  C   UNL A   1      32.556  28.306  24.959  1.00  0.00     0.219 C 
BRANCH   5   6
ATOM      6  N   UNL A   1      32.013  26.951  25.125  1.00  0.00    -0.329 N 
BRANCH   6   7
ATOM      7  C   UNL A   1      30.761  26.663  24.424  1.00  0.00     0.147 C 
BRANCH   7   8
ATOM      8  C   UNL A   1      30.997  25.689  23.307  1.00  0.00    -0.014 C 
ATOM      9  C   UNL A   1      30.575  24.416  23.347  1.00  0.00     0.006 C 
ENDBRANCH   7   8
ENDBRANCH   6   7
BRANCH   6  10
ATOM     10  C   UNL A   1      32.554  25.919  25.888  1.00  0.00     0.229 C 
ATOM     11  O   UNL A   1      31.848  25.360  26.741  1.00  0.00    -0.275 OA
BRANCH  10  12
ATOM     12  C   UNL A   1      34.025  25.505  25.806  1.00  0.00     0.168 C 
BRANCH  12  13
ATOM     13  C   UNL A   1      34.477  24.122  25.231  1.00  0.00     0.105 C 
ATOM     14  C   UNL A   1      34.369  24.067  23.695  1.00  0.00     0.069 C 
ATOM     15  C   UNL A   1      35.998  23.991  25.597  1.00  0.00     0.069 C 
ATOM     16  C   UNL A   1      35.089  22.911  23.010  1.00  0.00     0.006 C 
ATOM     17  C   UNL A   1      36.744  22.856  24.888  1.00  0.00     0.006 C 
ATOM     18  C   UNL A   1      36.566  22.922  23.377  1.00  0.00     0.000 C 
BRANCH  13  19
ATOM     19  N   UNL A   1      33.831  22.947  25.858  1.00  0.00    -0.343 N 
ATOM     20  C   UNL A   1      34.115  22.710  27.263  1.00  0.00     0.331 C 
ATOM     21  H   UNL A   1      34.128  22.121  25.340  1.00  0.00     0.346 HD
ATOM     22  H   UNL A   1      32.830  23.144  25.819  1.00  0.00     0.346 HD
ENDBRANCH  13  19
ENDBRANCH  12  13
ENDBRANCH  10  12
ENDBRANCH   6  10
ENDBRANCH   5   6
ENDBRANCH   1   5
BRANCH   3  23
ATOM     23  C   UNL A   1      31.337  30.848  26.065  1.00  0.00     0.117 C 
BRANCH  23  24
ATOM     24  C   UNL A   1      31.313  32.308  26.494  1.00  0.00     0.042 C 
BRANCH  24  25
ATOM     25  C   UNL A   1      32.620  32.772  27.126  1.00  0.00     0.118 C 
BRANCH  25  26
ATOM     26  N   UNL A   1      32.490  34.077  27.762  1.00  0.00    -0.352 N 
ATOM     27  C   UNL A   1      33.178  34.621  28.816  1.00  0.00     0.251 C 
ATOM     28  H   UNL A   1      31.797  34.659  27.374  1.00  0.00     0.163 HD
ATOM     29  O   UNL A   1      32.734  35.608  29.391  1.00  0.00    -0.269 OA
BRANCH  27  30
ATOM     30  C   UNL A   1      34.452  34.019  29.254  1.00  0.00     0.039 A 
ATOM     31  C   UNL A   1      34.469  33.211  30.394  1.00  0.00     0.014 A 
ATOM     32  C   UNL A   1      35.635  34.283  28.560  1.00  0.00     0.014 A 
ATOM     33  C   UNL A   1      35.665  32.620  30.801  1.00  0.00     0.010 A 
ATOM     34  C   UNL A   1      36.805  33.625  28.913  1.00  0.00     0.010 A 
ATOM     35  C   UNL A   1      36.835  32.797  30.043  1.00  0.00    -0.014 A 
BRANCH  35  36
ATOM     36  C   UNL A   1      38.108  32.139  30.420  1.00  0.00     0.031 A 
ATOM     37  C   UNL A   1      39.060  32.827  31.358  1.00  0.00     0.074 A 
ATOM     38  C   UNL A   1      38.441  30.964  29.850  1.00  0.00     0.049 A 
ATOM     39  N   UNL A   1      40.258  32.462  31.735  1.00  0.00    -0.248 NA
ATOM     40  C   UNL A   1      38.619  34.113  31.923  1.00  0.00     0.031 C 
ATOM     41  C   UNL A   1      37.623  30.231  28.881  1.00  0.00     0.029 A 
ATOM     42  N   UNL A   1      39.562  30.189  29.994  1.00  0.00    -0.354 N 
ATOM     43  C   UNL A   1      40.720  33.481  32.557  1.00  0.00     0.074 A 
ATOM     44  C   UNL A   1      39.697  34.503  32.585  1.00  0.00     0.031 C 
ATOM     45  C   UNL A   1      38.262  29.103  28.534  1.00  0.00     0.029 A 
ATOM     46  C   UNL A   1      39.545  29.052  29.225  1.00  0.00     0.049 A 
ATOM     47  H   UNL A   1      40.308  30.426  30.591  1.00  0.00     0.167 HD
ATOM     48  C   UNL A   1      41.883  33.547  33.248  1.00  0.00     0.037 A 
ATOM     49  C   UNL A   1      40.467  28.081  29.089  1.00  0.00     0.037 A 
ATOM     50  C   UNL A   1      42.882  32.512  33.242  1.00  0.00     0.049 A 
ATOM     51  C   UNL A   1      41.744  28.170  29.876  1.00  0.00     0.074 A 
ATOM     52  C   UNL A   1      44.064  32.449  33.958  1.00  0.00     0.029 A 
ATOM     53  N   UNL A   1      42.815  31.357  32.476  1.00  0.00    -0.354 N 
ATOM     54  N   UNL A   1      42.138  29.104  30.708  1.00  0.00    -0.248 NA
ATOM     55  C   UNL A   1      42.702  27.068  29.712  1.00  0.00     0.031 C 
ATOM     56  C   UNL A   1      44.730  31.273  33.597  1.00  0.00     0.029 A 
ATOM     57  C   UNL A   1      43.942  30.582  32.691  1.00  0.00     0.049 A 
ATOM     58  H   UNL A   1      42.074  31.123  31.871  1.00  0.00     0.167 HD
ATOM     59  C   UNL A   1      43.374  28.691  31.187  1.00  0.00     0.074 A 
ATOM     60  C   UNL A   1      43.658  27.415  30.562  1.00  0.00     0.031 C 
ATOM     61  C   UNL A   1      44.199  29.311  32.065  1.00  0.00     0.037 A 
BRANCH  48  62
ATOM     62  C   UNL A   1      42.130  34.777  34.072  1.00  0.00     0.057 A 
ATOM     63  C   UNL A   1      42.721  35.926  33.527  1.00  0.00     0.134 A 
ATOM     64  C   UNL A   1      41.750  34.825  35.419  1.00  0.00     0.134 A 
ATOM     65  F   UNL A   1      43.121  35.943  32.247  1.00  0.00    -0.206 F 
ATOM     66  C   UNL A   1      42.951  37.066  34.299  1.00  0.00     0.040 A 
ATOM     67  C   UNL A   1      41.951  35.969  36.194  1.00  0.00     0.040 A 
ATOM     68  F   UNL A   1      41.175  33.764  36.003  1.00  0.00    -0.206 F 
ATOM     69  C   UNL A   1      42.559  37.091  35.636  1.00  0.00     0.006 A 
ENDBRANCH  48  62
BRANCH  49  70
ATOM     70  C   UNL A   1      40.202  26.928  28.194  1.00  0.00     0.057 A 
ATOM     71  C   UNL A   1      39.390  25.867  28.609  1.00  0.00     0.134 A 
ATOM     72  C   UNL A   1      40.744  26.859  26.905  1.00  0.00     0.134 A 
ATOM     73  F   UNL A   1      38.854  25.869  29.839  1.00  0.00    -0.206 F 
ATOM     74  C   UNL A   1      39.140  24.770  27.783  1.00  0.00     0.040 A 
ATOM     75  C   UNL A   1      40.484  25.780  26.059  1.00  0.00     0.040 A 
ATOM     76  F   UNL A   1      41.522  27.849  26.444  1.00  0.00    -0.206 F 
ATOM     77  C   UNL A   1      39.684  24.728  26.501  1.00  0.00     0.006 A 
ENDBRANCH  49  70
BRANCH  61  78
ATOM     78  C   UNL A   1      45.468  28.599  32.430  1.00  0.00     0.057 A 
ATOM     79  C   UNL A   1      45.524  27.681  33.486  1.00  0.00     0.134 A 
ATOM     80  C   UNL A   1      46.637  28.805  31.687  1.00  0.00     0.134 A 
ATOM     81  F   UNL A   1      44.441  27.450  34.243  1.00  0.00    -0.206 F 
ATOM     82  C   UNL A   1      46.704  27.008  33.804  1.00  0.00     0.040 A 
ATOM     83  C   UNL A   1      47.816  28.119  31.978  1.00  0.00     0.040 A 
ATOM     84  F   UNL A   1      46.648  29.665  30.658  1.00  0.00    -0.206 F 
ATOM     85  C   UNL A   1      47.854  27.221  33.043  1.00  0.00     0.006 A 
ENDBRANCH  61  78
ENDBRANCH  35  36
ENDBRANCH  27  30
ENDBRANCH  25  26
ENDBRANCH  24  25
ENDBRANCH  23  24
ENDBRANCH   3  23
TORSDOF 17
ENDMDL
MODEL 3
REMARK VINA RESULT:     -10.0      1.713      2.311
REMARK SMILES C=CCN(CC(=O)NCCCNC(=O)c1ccc(-c2c3nc(c(-c4c(F)cccc4F)c4ccc([nH]4)c(-c4c(F)cccc4F)c4nc(c(-c5c(F)cccc5F)c5ccc2[nH]5)C=C4)C=C3)cc1)C(=O)CC1([NH2+]C)CCCCC1
REMARK SMILES IDX 6 1 7 2 8 3 5 5 4 6 3 7 2 8 1 9 69 10 70 11 71 12 72 13
REMARK SMILES IDX 75 14 79 15 76 16 78 17 77 18 73 19 74 20 9 23 10 24 11 25
REMARK SMILES IDX 12 26 13 27 14 29 15 30 16 31 68 32 17 33 67 34 18 35 19 36
REMARK SMILES IDX 20 37 61 38 21 39 66 40 60 41 62 42 22 43 65 44 59 45 58 46
REMARK SMILES IDX 23 48 49 49 32 50 48 51 33 52 36 53 47 54 63 55 34 56 35 57
REMARK SMILES IDX 46 59 64 60 37 61 24 62 25 63 30 64 26 65 27 66 29 67 31 68
REMARK SMILES IDX 28 69 50 70 51 71 56 72 52 73 53 74 55 75 57 76 54 77 38 78
REMARK SMILES IDX 39 79 44 80 40 81 41 82 43 83 45 84 42 85
REMARK H PARENT 8 4 73 21 73 22 12 28 62 47 36 58
REMARK Flexibility Score: inf
ROOT
ATOM      1  C   UNL A   1      35.878  22.844  25.552  1.00  0.00     0.239 C 
ATOM      2  O   UNL A   1      36.319  23.979  25.740  1.00  0.00    -0.273 OA
ATOM      3  N   UNL A   1      36.757  21.854  25.237  1.00  0.00    -0.354 N 
ATOM      4  H   UNL A   1      37.700  22.127  25.160  1.00  0.00     0.163 HD
ENDROOT
BRANCH   1   5
ATOM      5  C   UNL A   1      34.386  22.527  25.670  1.00  0.00     0.219 C 
BRANCH   5   6
ATOM      6  N   UNL A   1      33.601  22.681  24.437  1.00  0.00    -0.329 N 
BRANCH   6   7
ATOM      7  C   UNL A   1      33.051  21.453  23.860  1.00  0.00     0.147 C 
BRANCH   7   8
ATOM      8  C   UNL A   1      32.762  20.450  24.937  1.00  0.00    -0.014 C 
ATOM      9  C   UNL A   1      32.580  19.144  24.689  1.00  0.00     0.006 C 
ENDBRANCH   7   8
ENDBRANCH   6   7
BRANCH   6  10
ATOM     10  C   UNL A   1      33.337  23.866  23.754  1.00  0.00     0.229 C 
ATOM     11  O   UNL A   1      34.144  24.270  22.904  1.00  0.00    -0.275 OA
BRANCH  10  12
ATOM     12  C   UNL A   1      32.142  24.766  24.078  1.00  0.00     0.168 C 
BRANCH  12  13
ATOM     13  C   UNL A   1      32.150  25.774  25.274  1.00  0.00     0.105 C 
ATOM     14  C   UNL A   1      33.567  26.291  25.589  1.00  0.00     0.069 C 
ATOM     15  C   UNL A   1      31.301  27.003  24.793  1.00  0.00     0.069 C 
ATOM     16  C   UNL A   1      33.652  27.515  26.495  1.00  0.00     0.006 C 
ATOM     17  C   UNL A   1      31.405  28.254  25.674  1.00  0.00     0.006 C 
ATOM     18  C   UNL A   1      32.854  28.665  25.899  1.00  0.00     0.000 C 
BRANCH  13  19
ATOM     19  N   UNL A   1      31.469  25.294  26.496  1.00  0.00    -0.343 N 
ATOM     20  C   UNL A   1      30.885  23.964  26.448  1.00  0.00     0.331 C 
ATOM     21  H   UNL A   1      30.719  25.952  26.708  1.00  0.00     0.346 HD
ATOM     22  H   UNL A   1      32.203  25.236  27.203  1.00  0.00     0.346 HD
ENDBRANCH  13  19
ENDBRANCH  12  13
ENDBRANCH  10  12
ENDBRANCH   6  10
ENDBRANCH   5   6
ENDBRANCH   1   5
BRANCH   3  23
ATOM     23  C   UNL A   1      36.488  20.451  25.003  1.00  0.00     0.117 C 
BRANCH  23  24
ATOM     24  C   UNL A   1      37.769  19.645  24.851  1.00  0.00     0.042 C 
BRANCH  24  25
ATOM     25  C   UNL A   1      38.899  20.135  25.750  1.00  0.00     0.118 C 
BRANCH  25  26
ATOM     26  N   UNL A   1      39.944  19.133  25.913  1.00  0.00    -0.352 N 
ATOM     27  C   UNL A   1      41.301  19.282  26.049  1.00  0.00     0.251 C 
ATOM     28  H   UNL A   1      39.627  18.201  25.926  1.00  0.00     0.163 HD
ATOM     29  O   UNL A   1      42.041  18.319  25.883  1.00  0.00    -0.269 OA
BRANCH  27  30
ATOM     30  C   UNL A   1      41.866  20.600  26.398  1.00  0.00     0.039 A 
ATOM     31  C   UNL A   1      42.201  21.492  25.376  1.00  0.00     0.014 A 
ATOM     32  C   UNL A   1      42.098  20.939  27.733  1.00  0.00     0.014 A 
ATOM     33  C   UNL A   1      42.715  22.748  25.699  1.00  0.00     0.010 A 
ATOM     34  C   UNL A   1      42.524  22.220  28.057  1.00  0.00     0.010 A 
ATOM     35  C   UNL A   1      42.849  23.132  27.043  1.00  0.00    -0.014 A 
BRANCH  35  36
ATOM     36  C   UNL A   1      43.340  24.480  27.418  1.00  0.00     0.031 A 
ATOM     37  C   UNL A   1      42.365  25.539  27.852  1.00  0.00     0.074 A 
ATOM     38  C   UNL A   1      44.648  24.769  27.284  1.00  0.00     0.049 A 
ATOM     39  N   UNL A   1      42.584  26.799  28.128  1.00  0.00    -0.248 NA
ATOM     40  C   UNL A   1      40.953  25.137  27.957  1.00  0.00     0.031 C 
ATOM     41  C   UNL A   1      45.678  23.839  26.815  1.00  0.00     0.029 A 
ATOM     42  N   UNL A   1      45.332  25.934  27.516  1.00  0.00    -0.354 N 
ATOM     43  C   UNL A   1      41.338  27.341  28.416  1.00  0.00     0.074 A 
ATOM     44  C   UNL A   1      40.362  26.290  28.231  1.00  0.00     0.031 C 
ATOM     45  C   UNL A   1      46.865  24.464  26.815  1.00  0.00     0.029 A 
ATOM     46  C   UNL A   1      46.676  25.845  27.246  1.00  0.00     0.049 A 
ATOM     47  H   UNL A   1      44.902  26.756  27.844  1.00  0.00     0.167 HD
ATOM     48  C   UNL A   1      41.037  28.598  28.823  1.00  0.00     0.037 A 
ATOM     49  C   UNL A   1      47.643  26.776  27.330  1.00  0.00     0.037 A 
ATOM     50  C   UNL A   1      42.016  29.630  29.036  1.00  0.00     0.049 A 
ATOM     51  C   UNL A   1      47.287  28.160  27.796  1.00  0.00     0.074 A 
ATOM     52  C   UNL A   1      41.826  30.915  29.511  1.00  0.00     0.029 A 
ATOM     53  N   UNL A   1      43.374  29.492  28.785  1.00  0.00    -0.354 N 
ATOM     54  N   UNL A   1      46.115  28.641  28.136  1.00  0.00    -0.248 NA
ATOM     55  C   UNL A   1      48.387  29.128  27.898  1.00  0.00     0.031 C 
ATOM     56  C   UNL A   1      43.064  31.567  29.512  1.00  0.00     0.029 A 
ATOM     57  C   UNL A   1      44.031  30.674  29.080  1.00  0.00     0.049 A 
ATOM     58  H   UNL A   1      43.806  28.674  28.447  1.00  0.00     0.167 HD
ATOM     59  C   UNL A   1      46.340  29.957  28.518  1.00  0.00     0.074 A 
ATOM     60  C   UNL A   1      47.762  30.194  28.380  1.00  0.00     0.031 C 
ATOM     61  C   UNL A   1      45.449  30.885  28.944  1.00  0.00     0.037 A 
BRANCH  48  62
ATOM     62  C   UNL A   1      39.591  28.918  29.068  1.00  0.00     0.057 A 
ATOM     63  C   UNL A   1      39.011  28.789  30.338  1.00  0.00     0.134 A 
ATOM     64  C   UNL A   1      38.775  29.384  28.031  1.00  0.00     0.134 A 
ATOM     65  F   UNL A   1      39.734  28.335  31.373  1.00  0.00    -0.206 F 
ATOM     66  C   UNL A   1      37.665  29.085  30.560  1.00  0.00     0.040 A 
ATOM     67  C   UNL A   1      37.434  29.710  28.247  1.00  0.00     0.040 A 
ATOM     68  F   UNL A   1      39.266  29.536  26.792  1.00  0.00    -0.206 F 
ATOM     69  C   UNL A   1      36.874  29.553  29.513  1.00  0.00     0.006 A 
ENDBRANCH  48  62
BRANCH  49  70
ATOM     70  C   UNL A   1      49.044  26.423  26.993  1.00  0.00     0.057 A 
ATOM     71  C   UNL A   1      49.542  26.609  25.699  1.00  0.00     0.134 A 
ATOM     72  C   UNL A   1      49.919  25.898  27.951  1.00  0.00     0.134 A 
ATOM     73  F   UNL A   1      48.747  27.095  24.734  1.00  0.00    -0.206 F 
ATOM     74  C   UNL A   1      50.854  26.271  25.364  1.00  0.00     0.040 A 
ATOM     75  C   UNL A   1      51.241  25.578  27.637  1.00  0.00     0.040 A 
ATOM     76  F   UNL A   1      49.506  25.706  29.213  1.00  0.00    -0.206 F 
ATOM     77  C   UNL A   1      51.709  25.759  26.338  1.00  0.00     0.006 A 
ENDBRANCH  49  70
BRANCH  61  78
ATOM     78  C   UNL A   1      45.994  32.229  29.329  1.00  0.00     0.057 A 
ATOM     79  C   UNL A   1      46.451  32.498  30.624  1.00  0.00     0.134 A 
ATOM     80  C   UNL A   1      46.100  33.250  28.377  1.00  0.00     0.134 A 
ATOM     81  F   UNL A   1      46.364  31.565  31.584  1.00  0.00    -0.206 F 
ATOM     82  C   UNL A   1      46.976  33.745  30.966  1.00  0.00     0.040 A 
ATOM     83  C   UNL A   1      46.646  34.493  28.700  1.00  0.00     0.040 A 
ATOM     84  F   UNL A   1      45.688  33.054  27.116  1.00  0.00    -0.206 F 
ATOM     85  C   UNL A   1      47.081  34.745  29.999  1.00  0.00     0.006 A 
ENDBRANCH  61  78
ENDBRANCH  35  36
ENDBRANCH  27  30
ENDBRANCH  25  26
ENDBRANCH  24  25
ENDBRANCH  23  24
ENDBRANCH   3  23
TORSDOF 17
ENDMDL
