MODEL 1
REMARK VINA RESULT:     -10.7      0.000      0.000
REMARK SMILES CC(C)n1cncc1[C@@H](O)[C@H](C)C(=O)NCCCNC(=O)c1ccc(-c2c3nc(c(-c4c(F)cccc4F)c4ccc([nH]4)c(-c4c(F)cccc4F)c4nc(c(-c5c(F)cccc5F)c5ccc2[nH]5)C=C4)C=C3)cc1
REMARK SMILES IDX 16 1 15 2 13 3 14 4 11 6 12 7 9 8 8 9 4 10 5 11 6 12 7 13
REMARK SMILES IDX 2 14 1 15 3 16 10 17 17 19 18 20 19 21 20 22 21 24 22 25
REMARK SMILES IDX 23 26 75 27 24 28 74 29 25 30 26 31 27 32 68 33 28 34 73 35
REMARK SMILES IDX 67 36 69 37 29 38 72 39 66 40 65 41 30 43 56 44 39 45 55 46
REMARK SMILES IDX 40 47 43 48 54 49 70 50 41 51 42 52 53 54 71 55 44 56 31 57
REMARK SMILES IDX 32 58 37 59 33 60 34 61 36 62 38 63 35 64 57 65 58 66 63 67
REMARK SMILES IDX 59 68 60 69 62 70 64 71 61 72 45 73 46 74 51 75 47 76 48 77
REMARK SMILES IDX 50 78 52 79 49 80
REMARK H PARENT 15 5 10 18 19 23 69 42 43 53
REMARK Flexibility Score: inf
ROOT
ATOM      1  C   UNL A   1      38.246  31.458  32.366  1.00  0.00     0.117 C 
ENDROOT
BRANCH   1   2
ATOM      2  N   UNL A   1      38.039  32.187  31.127  1.00  0.00    -0.356 N 
ATOM      3  C   UNL A   1      37.197  33.239  30.897  1.00  0.00     0.225 C 
ATOM      4  O   UNL A   1      37.337  33.873  29.847  1.00  0.00    -0.275 OA
ATOM      5  H   UNL A   1      38.571  31.886  30.356  1.00  0.00     0.163 HD
BRANCH   3   6
ATOM      6  C   UNL A   1      36.052  33.569  31.848  1.00  0.00     0.110 C 
ATOM      7  C   UNL A   1      36.380  34.862  32.607  1.00  0.00     0.021 C 
BRANCH   6   8
ATOM      8  C   UNL A   1      34.627  33.371  31.264  1.00  0.00     0.175 C 
BRANCH   8   9
ATOM      9  C   UNL A   1      34.040  34.544  30.541  1.00  0.00     0.067 A 
ATOM     10  N   UNL A   1      33.365  35.607  31.109  1.00  0.00    -0.330 N 
ATOM     11  C   UNL A   1      33.037  36.472  30.091  1.00  0.00     0.199 A 
ATOM     12  N   UNL A   1      33.397  36.014  28.920  1.00  0.00    -0.245 NA
ATOM     13  C   UNL A   1      33.993  34.818  29.182  1.00  0.00     0.137 A 
BRANCH  10  14
ATOM     14  C   UNL A   1      32.879  35.817  32.471  1.00  0.00     0.082 C 
ATOM     15  C   UNL A   1      33.555  37.043  33.088  1.00  0.00     0.031 C 
ATOM     16  C   UNL A   1      31.362  35.857  32.648  1.00  0.00     0.031 C 
ENDBRANCH  10  14
ENDBRANCH   8   9
BRANCH   8  17
ATOM     17  O   UNL A   1      34.492  32.261  30.385  1.00  0.00    -0.386 OA
ATOM     18  H   UNL A   1      35.221  32.265  29.745  1.00  0.00     0.211 HD
ENDBRANCH   8  17
ENDBRANCH   6   8
ENDBRANCH   3   6
ENDBRANCH   1   2
BRANCH   1  19
ATOM     19  C   UNL A   1      37.192  30.406  32.678  1.00  0.00     0.042 C 
BRANCH  19  20
ATOM     20  C   UNL A   1      37.146  29.301  31.646  1.00  0.00     0.118 C 
BRANCH  20  21
ATOM     21  N   UNL A   1      36.189  29.568  30.572  1.00  0.00    -0.352 N 
ATOM     22  C   UNL A   1      36.432  29.609  29.210  1.00  0.00     0.251 C 
ATOM     23  H   UNL A   1      35.261  29.740  30.851  1.00  0.00     0.163 HD
ATOM     24  O   UNL A   1      35.657  30.136  28.438  1.00  0.00    -0.269 OA
BRANCH  22  25
ATOM     25  C   UNL A   1      37.691  29.011  28.732  1.00  0.00     0.039 A 
ATOM     26  C   UNL A   1      38.409  29.616  27.703  1.00  0.00     0.014 A 
ATOM     27  C   UNL A   1      38.198  27.913  29.423  1.00  0.00     0.014 A 
ATOM     28  C   UNL A   1      39.704  29.173  27.453  1.00  0.00     0.010 A 
ATOM     29  C   UNL A   1      39.526  27.582  29.277  1.00  0.00     0.010 A 
ATOM     30  C   UNL A   1      40.279  28.186  28.274  1.00  0.00    -0.014 A 
BRANCH  30  31
ATOM     31  C   UNL A   1      41.699  27.871  28.140  1.00  0.00     0.031 A 
ATOM     32  C   UNL A   1      42.007  26.625  27.384  1.00  0.00     0.074 A 
ATOM     33  C   UNL A   1      42.708  28.682  28.522  1.00  0.00     0.049 A 
ATOM     34  N   UNL A   1      42.431  25.505  27.867  1.00  0.00    -0.248 NA
ATOM     35  C   UNL A   1      41.701  26.575  25.947  1.00  0.00     0.031 C 
ATOM     36  C   UNL A   1      42.650  30.071  28.988  1.00  0.00     0.029 A 
ATOM     37  N   UNL A   1      44.046  28.430  28.493  1.00  0.00    -0.354 N 
ATOM     38  C   UNL A   1      42.640  24.663  26.778  1.00  0.00     0.074 A 
ATOM     39  C   UNL A   1      42.025  25.313  25.650  1.00  0.00     0.031 C 
ATOM     40  C   UNL A   1      43.894  30.602  28.986  1.00  0.00     0.029 A 
ATOM     41  C   UNL A   1      44.845  29.542  28.706  1.00  0.00     0.049 A 
ATOM     42  H   UNL A   1      44.415  27.531  28.335  1.00  0.00     0.167 HD
ATOM     43  C   UNL A   1      43.501  23.609  26.864  1.00  0.00     0.037 A 
ATOM     44  C   UNL A   1      46.196  29.596  28.661  1.00  0.00     0.037 A 
ATOM     45  C   UNL A   1      43.815  23.308  28.241  1.00  0.00     0.049 A 
ATOM     46  C   UNL A   1      46.705  28.216  28.842  1.00  0.00     0.074 A 
ATOM     47  C   UNL A   1      43.077  22.973  29.361  1.00  0.00     0.029 A 
ATOM     48  N   UNL A   1      45.043  23.700  28.715  1.00  0.00    -0.354 N 
ATOM     49  N   UNL A   1      46.635  27.556  29.964  1.00  0.00    -0.248 NA
ATOM     50  C   UNL A   1      46.920  27.406  27.655  1.00  0.00     0.031 C 
ATOM     51  C   UNL A   1      43.714  23.659  30.439  1.00  0.00     0.029 A 
ATOM     52  C   UNL A   1      44.836  24.310  29.925  1.00  0.00     0.049 A 
ATOM     53  H   UNL A   1      45.910  23.567  28.269  1.00  0.00     0.167 HD
ATOM     54  C   UNL A   1      46.339  26.257  29.585  1.00  0.00     0.074 A 
ATOM     55  C   UNL A   1      46.645  26.200  28.157  1.00  0.00     0.031 C 
ATOM     56  C   UNL A   1      45.610  25.435  30.396  1.00  0.00     0.037 A 
BRANCH  43  57
ATOM     57  C   UNL A   1      44.362  23.100  25.730  1.00  0.00     0.057 A 
ATOM     58  C   UNL A   1      44.433  21.712  25.496  1.00  0.00     0.134 A 
ATOM     59  C   UNL A   1      45.347  23.863  25.074  1.00  0.00     0.134 A 
ATOM     60  F   UNL A   1      43.553  20.871  26.061  1.00  0.00    -0.206 F 
ATOM     61  C   UNL A   1      45.466  21.124  24.754  1.00  0.00     0.040 A 
ATOM     62  C   UNL A   1      46.353  23.290  24.289  1.00  0.00     0.040 A 
ATOM     63  F   UNL A   1      45.459  25.186  25.234  1.00  0.00    -0.206 F 
ATOM     64  C   UNL A   1      46.438  21.914  24.157  1.00  0.00     0.006 A 
ENDBRANCH  43  57
BRANCH  44  65
ATOM     65  C   UNL A   1      47.076  30.711  28.255  1.00  0.00     0.057 A 
ATOM     66  C   UNL A   1      46.984  31.273  26.974  1.00  0.00     0.134 A 
ATOM     67  C   UNL A   1      47.814  31.439  29.203  1.00  0.00     0.134 A 
ATOM     68  F   UNL A   1      46.277  30.664  26.011  1.00  0.00    -0.206 F 
ATOM     69  C   UNL A   1      47.558  32.512  26.664  1.00  0.00     0.040 A 
ATOM     70  C   UNL A   1      48.397  32.674  28.905  1.00  0.00     0.040 A 
ATOM     71  F   UNL A   1      47.913  31.021  30.473  1.00  0.00    -0.206 F 
ATOM     72  C   UNL A   1      48.253  33.225  27.636  1.00  0.00     0.006 A 
ENDBRANCH  44  65
BRANCH  56  73
ATOM     73  C   UNL A   1      45.404  25.854  31.825  1.00  0.00     0.057 A 
ATOM     74  C   UNL A   1      46.334  25.654  32.859  1.00  0.00     0.134 A 
ATOM     75  C   UNL A   1      44.263  26.603  32.141  1.00  0.00     0.134 A 
ATOM     76  F   UNL A   1      47.503  25.042  32.635  1.00  0.00    -0.206 F 
ATOM     77  C   UNL A   1      46.108  26.130  34.154  1.00  0.00     0.040 A 
ATOM     78  C   UNL A   1      44.045  27.114  33.421  1.00  0.00     0.040 A 
ATOM     79  F   UNL A   1      43.355  26.883  31.193  1.00  0.00    -0.206 F 
ATOM     80  C   UNL A   1      44.962  26.866  34.438  1.00  0.00     0.006 A 
ENDBRANCH  56  73
ENDBRANCH  30  31
ENDBRANCH  22  25
ENDBRANCH  20  21
ENDBRANCH  19  20
ENDBRANCH   1  19
TORSDOF 14
ENDMDL
MODEL 2
REMARK VINA RESULT:     -10.6      3.664      8.182
REMARK SMILES CC(C)n1cncc1[C@@H](O)[C@H](C)C(=O)NCCCNC(=O)c1ccc(-c2c3nc(c(-c4c(F)cccc4F)c4ccc([nH]4)c(-c4c(F)cccc4F)c4nc(c(-c5c(F)cccc5F)c5ccc2[nH]5)C=C4)C=C3)cc1
REMARK SMILES IDX 16 1 15 2 13 3 14 4 11 6 12 7 9 8 8 9 4 10 5 11 6 12 7 13
REMARK SMILES IDX 2 14 1 15 3 16 10 17 17 19 18 20 19 21 20 22 21 24 22 25
REMARK SMILES IDX 23 26 75 27 24 28 74 29 25 30 26 31 27 32 68 33 28 34 73 35
REMARK SMILES IDX 67 36 69 37 29 38 72 39 66 40 65 41 30 43 56 44 39 45 55 46
REMARK SMILES IDX 40 47 43 48 54 49 70 50 41 51 42 52 53 54 71 55 44 56 31 57
REMARK SMILES IDX 32 58 37 59 33 60 34 61 36 62 38 63 35 64 57 65 58 66 63 67
REMARK SMILES IDX 59 68 60 69 62 70 64 71 61 72 45 73 46 74 51 75 47 76 48 77
REMARK SMILES IDX 50 78 52 79 49 80
REMARK H PARENT 15 5 10 18 19 23 69 42 43 53
REMARK Flexibility Score: inf
ROOT
ATOM      1  C   UNL A   1      33.355  30.390  27.251  1.00  0.00     0.117 C 
ENDROOT
BRANCH   1   2
ATOM      2  N   UNL A   1      32.464  29.291  27.582  1.00  0.00    -0.356 N 
ATOM      3  C   UNL A   1      31.944  28.346  26.746  1.00  0.00     0.225 C 
ATOM      4  O   UNL A   1      31.402  27.359  27.254  1.00  0.00    -0.275 OA
ATOM      5  H   UNL A   1      32.204  29.220  28.529  1.00  0.00     0.163 HD
BRANCH   3   6
ATOM      6  C   UNL A   1      31.932  28.535  25.232  1.00  0.00     0.110 C 
ATOM      7  C   UNL A   1      31.028  29.722  24.877  1.00  0.00     0.021 C 
BRANCH   6   8
ATOM      8  C   UNL A   1      33.314  28.396  24.537  1.00  0.00     0.175 C 
BRANCH   8   9
ATOM      9  C   UNL A   1      33.466  27.242  23.594  1.00  0.00     0.067 A 
ATOM     10  N   UNL A   1      33.603  25.911  23.938  1.00  0.00    -0.330 N 
ATOM     11  C   UNL A   1      33.671  25.193  22.766  1.00  0.00     0.199 A 
ATOM     12  N   UNL A   1      33.649  25.966  21.712  1.00  0.00    -0.245 NA
ATOM     13  C   UNL A   1      33.547  27.229  22.209  1.00  0.00     0.137 A 
BRANCH  10  14
ATOM     14  C   UNL A   1      33.818  25.273  25.235  1.00  0.00     0.082 C 
ATOM     15  C   UNL A   1      32.580  24.469  25.637  1.00  0.00     0.031 C 
ATOM     16  C   UNL A   1      35.098  24.452  25.379  1.00  0.00     0.031 C 
ENDBRANCH  10  14
ENDBRANCH   8   9
BRANCH   8  17
ATOM     17  O   UNL A   1      33.738  29.548  23.818  1.00  0.00    -0.386 OA
ATOM     18  H   UNL A   1      34.356  30.059  24.362  1.00  0.00     0.211 HD
ENDBRANCH   8  17
ENDBRANCH   6   8
ENDBRANCH   3   6
ENDBRANCH   1   2
BRANCH   1  19
ATOM     19  C   UNL A   1      34.831  30.123  27.506  1.00  0.00     0.042 C 
BRANCH  19  20
ATOM     20  C   UNL A   1      35.605  31.384  27.822  1.00  0.00     0.118 C 
BRANCH  20  21
ATOM     21  N   UNL A   1      35.051  32.119  28.958  1.00  0.00    -0.352 N 
ATOM     22  C   UNL A   1      35.327  31.937  30.303  1.00  0.00     0.251 C 
ATOM     23  H   UNL A   1      34.405  32.830  28.741  1.00  0.00     0.163 HD
ATOM     24  O   UNL A   1      34.599  32.376  31.169  1.00  0.00    -0.269 OA
BRANCH  22  25
ATOM     25  C   UNL A   1      36.530  31.159  30.644  1.00  0.00     0.039 A 
ATOM     26  C   UNL A   1      36.433  29.794  30.906  1.00  0.00     0.014 A 
ATOM     27  C   UNL A   1      37.766  31.797  30.565  1.00  0.00     0.014 A 
ATOM     28  C   UNL A   1      37.606  29.050  30.973  1.00  0.00     0.010 A 
ATOM     29  C   UNL A   1      38.910  31.036  30.480  1.00  0.00     0.010 A 
ATOM     30  C   UNL A   1      38.844  29.665  30.712  1.00  0.00    -0.014 A 
BRANCH  30  31
ATOM     31  C   UNL A   1      40.046  28.845  30.582  1.00  0.00     0.031 A 
ATOM     32  C   UNL A   1      40.808  28.626  31.842  1.00  0.00     0.074 A 
ATOM     33  C   UNL A   1      40.412  28.187  29.462  1.00  0.00     0.049 A 
ATOM     34  N   UNL A   1      41.941  29.151  32.169  1.00  0.00    -0.248 NA
ATOM     35  C   UNL A   1      40.191  27.828  32.912  1.00  0.00     0.031 C 
ATOM     36  C   UNL A   1      39.664  27.998  28.215  1.00  0.00     0.029 A 
ATOM     37  N   UNL A   1      41.546  27.465  29.244  1.00  0.00    -0.354 N 
ATOM     38  C   UNL A   1      42.288  28.599  33.400  1.00  0.00     0.074 A 
ATOM     39  C   UNL A   1      41.109  27.925  33.879  1.00  0.00     0.031 C 
ATOM     40  C   UNL A   1      40.261  27.043  27.468  1.00  0.00     0.029 A 
ATOM     41  C   UNL A   1      41.525  26.696  28.091  1.00  0.00     0.049 A 
ATOM     42  H   UNL A   1      42.318  27.488  29.855  1.00  0.00     0.167 HD
ATOM     43  C   UNL A   1      43.588  28.559  33.807  1.00  0.00     0.037 A 
ATOM     44  C   UNL A   1      42.478  25.833  27.669  1.00  0.00     0.037 A 
ATOM     45  C   UNL A   1      44.406  29.450  33.017  1.00  0.00     0.049 A 
ATOM     46  C   UNL A   1      43.744  26.200  28.347  1.00  0.00     0.074 A 
ATOM     47  C   UNL A   1      44.392  30.804  32.741  1.00  0.00     0.029 A 
ATOM     48  N   UNL A   1      45.215  28.889  32.058  1.00  0.00    -0.354 N 
ATOM     49  N   UNL A   1      44.420  27.284  28.090  1.00  0.00    -0.248 NA
ATOM     50  C   UNL A   1      44.046  25.563  29.618  1.00  0.00     0.031 C 
ATOM     51  C   UNL A   1      44.762  30.903  31.365  1.00  0.00     0.029 A 
ATOM     52  C   UNL A   1      45.046  29.615  30.908  1.00  0.00     0.049 A 
ATOM     53  H   UNL A   1      45.807  28.111  32.176  1.00  0.00     0.167 HD
ATOM     54  C   UNL A   1      44.878  27.710  29.326  1.00  0.00     0.074 A 
ATOM     55  C   UNL A   1      44.721  26.554  30.206  1.00  0.00     0.031 C 
ATOM     56  C   UNL A   1      45.075  29.036  29.585  1.00  0.00     0.037 A 
BRANCH  43  57
ATOM     57  C   UNL A   1      44.202  27.454  34.637  1.00  0.00     0.057 A 
ATOM     58  C   UNL A   1      44.092  26.122  34.189  1.00  0.00     0.134 A 
ATOM     59  C   UNL A   1      44.609  27.597  35.977  1.00  0.00     0.134 A 
ATOM     60  F   UNL A   1      43.714  25.846  32.932  1.00  0.00    -0.206 F 
ATOM     61  C   UNL A   1      44.271  25.023  35.039  1.00  0.00     0.040 A 
ATOM     62  C   UNL A   1      44.840  26.506  36.821  1.00  0.00     0.040 A 
ATOM     63  F   UNL A   1      44.706  28.788  36.577  1.00  0.00    -0.206 F 
ATOM     64  C   UNL A   1      44.635  25.214  36.365  1.00  0.00     0.006 A 
ENDBRANCH  43  57
BRANCH  44  65
ATOM     65  C   UNL A   1      42.334  24.584  26.895  1.00  0.00     0.057 A 
ATOM     66  C   UNL A   1      42.902  24.455  25.620  1.00  0.00     0.134 A 
ATOM     67  C   UNL A   1      41.894  23.397  27.503  1.00  0.00     0.134 A 
ATOM     68  F   UNL A   1      43.377  25.530  24.973  1.00  0.00    -0.206 F 
ATOM     69  C   UNL A   1      43.064  23.209  25.003  1.00  0.00     0.040 A 
ATOM     70  C   UNL A   1      42.043  22.147  26.895  1.00  0.00     0.040 A 
ATOM     71  F   UNL A   1      41.390  23.401  28.746  1.00  0.00    -0.206 F 
ATOM     72  C   UNL A   1      42.649  22.048  25.647  1.00  0.00     0.006 A 
ENDBRANCH  44  65
BRANCH  56  73
ATOM     73  C   UNL A   1      45.086  29.990  28.423  1.00  0.00     0.057 A 
ATOM     74  C   UNL A   1      43.947  30.619  27.896  1.00  0.00     0.134 A 
ATOM     75  C   UNL A   1      46.322  30.380  27.894  1.00  0.00     0.134 A 
ATOM     76  F   UNL A   1      42.729  30.394  28.403  1.00  0.00    -0.206 F 
ATOM     77  C   UNL A   1      44.035  31.549  26.855  1.00  0.00     0.040 A 
ATOM     78  C   UNL A   1      46.426  31.333  26.880  1.00  0.00     0.040 A 
ATOM     79  F   UNL A   1      47.461  29.863  28.383  1.00  0.00    -0.206 F 
ATOM     80  C   UNL A   1      45.278  31.912  26.346  1.00  0.00     0.006 A 
ENDBRANCH  56  73
ENDBRANCH  30  31
ENDBRANCH  22  25
ENDBRANCH  20  21
ENDBRANCH  19  20
ENDBRANCH   1  19
TORSDOF 14
ENDMDL
MODEL 3
REMARK VINA RESULT:     -10.5      3.749      5.833
REMARK SMILES CC(C)n1cncc1[C@@H](O)[C@H](C)C(=O)NCCCNC(=O)c1ccc(-c2c3nc(c(-c4c(F)cccc4F)c4ccc([nH]4)c(-c4c(F)cccc4F)c4nc(c(-c5c(F)cccc5F)c5ccc2[nH]5)C=C4)C=C3)cc1
REMARK SMILES IDX 16 1 15 2 13 3 14 4 11 6 12 7 9 8 8 9 4 10 5 11 6 12 7 13
REMARK SMILES IDX 2 14 1 15 3 16 10 17 17 19 18 20 19 21 20 22 21 24 22 25
REMARK SMILES IDX 23 26 75 27 24 28 74 29 25 30 26 31 27 32 68 33 28 34 73 35
REMARK SMILES IDX 67 36 69 37 29 38 72 39 66 40 65 41 30 43 56 44 39 45 55 46
REMARK SMILES IDX 40 47 43 48 54 49 70 50 41 51 42 52 53 54 71 55 44 56 31 57
REMARK SMILES IDX 32 58 37 59 33 60 34 61 36 62 38 63 35 64 57 65 58 66 63 67
REMARK SMILES IDX 59 68 60 69 62 70 64 71 61 72 45 73 46 74 51 75 47 76 48 77
REMARK SMILES IDX 50 78 52 79 49 80
REMARK H PARENT 15 5 10 18 19 23 69 42 43 53
REMARK Flexibility Score: inf
ROOT
ATOM      1  C   UNL A   1      33.473  28.626  25.950  1.00  0.00     0.117 C 
ENDROOT
BRANCH   1   2
ATOM      2  N   UNL A   1      33.925  28.835  24.586  1.00  0.00    -0.356 N 
ATOM      3  C   UNL A   1      33.576  28.136  23.465  1.00  0.00     0.225 C 
ATOM      4  O   UNL A   1      33.881  28.613  22.368  1.00  0.00    -0.275 OA
ATOM      5  H   UNL A   1      34.563  29.572  24.453  1.00  0.00     0.163 HD
BRANCH   3   6
ATOM      6  C   UNL A   1      32.922  26.761  23.551  1.00  0.00     0.110 C 
ATOM      7  C   UNL A   1      31.410  26.905  23.337  1.00  0.00     0.021 C 
BRANCH   6   8
ATOM      8  C   UNL A   1      33.686  25.617  22.830  1.00  0.00     0.175 C 
BRANCH   8   9
ATOM      9  C   UNL A   1      33.224  24.224  23.128  1.00  0.00     0.067 A 
ATOM     10  N   UNL A   1      33.019  23.675  24.378  1.00  0.00    -0.330 N 
ATOM     11  C   UNL A   1      32.559  22.392  24.189  1.00  0.00     0.199 A 
ATOM     12  N   UNL A   1      32.514  22.066  22.923  1.00  0.00    -0.245 NA
ATOM     13  C   UNL A   1      32.943  23.176  22.263  1.00  0.00     0.137 A 
BRANCH  10  14
ATOM     14  C   UNL A   1      33.345  24.177  25.711  1.00  0.00     0.082 C 
ATOM     15  C   UNL A   1      32.065  24.556  26.458  1.00  0.00     0.031 C 
ATOM     16  C   UNL A   1      34.256  23.292  26.562  1.00  0.00     0.031 C 
ENDBRANCH  10  14
ENDBRANCH   8   9
BRANCH   8  17
ATOM     17  O   UNL A   1      33.720  25.725  21.412  1.00  0.00    -0.386 OA
ATOM     18  H   UNL A   1      33.358  26.583  21.144  1.00  0.00     0.211 HD
ENDBRANCH   8  17
ENDBRANCH   6   8
ENDBRANCH   3   6
ENDBRANCH   1   2
BRANCH   1  19
ATOM     19  C   UNL A   1      33.956  29.661  26.955  1.00  0.00     0.042 C 
BRANCH  19  20
ATOM     20  C   UNL A   1      35.277  29.285  27.590  1.00  0.00     0.118 C 
BRANCH  20  21
ATOM     21  N   UNL A   1      35.463  29.888  28.910  1.00  0.00    -0.352 N 
ATOM     22  C   UNL A   1      36.511  29.689  29.793  1.00  0.00     0.251 C 
ATOM     23  H   UNL A   1      34.760  30.511  29.205  1.00  0.00     0.163 HD
ATOM     24  O   UNL A   1      36.422  29.985  30.966  1.00  0.00    -0.269 OA
BRANCH  22  25
ATOM     25  C   UNL A   1      37.736  29.072  29.256  1.00  0.00     0.039 A 
ATOM     26  C   UNL A   1      38.358  29.610  28.132  1.00  0.00     0.014 A 
ATOM     27  C   UNL A   1      38.315  28.031  29.978  1.00  0.00     0.014 A 
ATOM     28  C   UNL A   1      39.635  29.164  27.807  1.00  0.00     0.010 A 
ATOM     29  C   UNL A   1      39.632  27.705  29.746  1.00  0.00     0.010 A 
ATOM     30  C   UNL A   1      40.291  28.244  28.645  1.00  0.00    -0.014 A 
BRANCH  30  31
ATOM     31  C   UNL A   1      41.701  27.935  28.417  1.00  0.00     0.031 A 
ATOM     32  C   UNL A   1      41.963  26.692  27.640  1.00  0.00     0.074 A 
ATOM     33  C   UNL A   1      42.729  28.750  28.732  1.00  0.00     0.049 A 
ATOM     34  N   UNL A   1      42.422  25.573  28.093  1.00  0.00    -0.248 NA
ATOM     35  C   UNL A   1      41.563  26.642  26.226  1.00  0.00     0.031 C 
ATOM     36  C   UNL A   1      42.697  30.138  29.204  1.00  0.00     0.029 A 
ATOM     37  N   UNL A   1      44.064  28.503  28.615  1.00  0.00    -0.354 N 
ATOM     38  C   UNL A   1      42.563  24.733  26.990  1.00  0.00     0.074 A 
ATOM     39  C   UNL A   1      41.872  25.382  25.906  1.00  0.00     0.031 C 
ATOM     40  C   UNL A   1      43.935  30.674  29.121  1.00  0.00     0.029 A 
ATOM     41  C   UNL A   1      44.870  29.619  28.777  1.00  0.00     0.049 A 
ATOM     42  H   UNL A   1      44.425  27.606  28.431  1.00  0.00     0.167 HD
ATOM     43  C   UNL A   1      43.432  23.683  27.018  1.00  0.00     0.037 A 
ATOM     44  C   UNL A   1      46.216  29.678  28.642  1.00  0.00     0.037 A 
ATOM     45  C   UNL A   1      43.837  23.381  28.370  1.00  0.00     0.049 A 
ATOM     46  C   UNL A   1      46.740  28.301  28.787  1.00  0.00     0.074 A 
ATOM     47  C   UNL A   1      43.177  23.041  29.536  1.00  0.00     0.029 A 
ATOM     48  N   UNL A   1      45.093  23.778  28.763  1.00  0.00    -0.354 N 
ATOM     49  N   UNL A   1      46.748  27.638  29.910  1.00  0.00    -0.248 NA
ATOM     50  C   UNL A   1      46.880  27.493  27.586  1.00  0.00     0.031 C 
ATOM     51  C   UNL A   1      43.881  23.728  30.571  1.00  0.00     0.029 A 
ATOM     52  C   UNL A   1      44.964  24.385  29.984  1.00  0.00     0.049 A 
ATOM     53  H   UNL A   1      45.929  23.649  28.260  1.00  0.00     0.167 HD
ATOM     54  C   UNL A   1      46.432  26.338  29.549  1.00  0.00     0.074 A 
ATOM     55  C   UNL A   1      46.643  26.285  28.104  1.00  0.00     0.031 C 
ATOM     56  C   UNL A   1      45.763  25.512  30.406  1.00  0.00     0.037 A 
BRANCH  43  57
ATOM     57  C   UNL A   1      44.218  23.179  25.828  1.00  0.00     0.057 A 
ATOM     58  C   UNL A   1      44.262  21.792  25.576  1.00  0.00     0.134 A 
ATOM     59  C   UNL A   1      45.168  23.941  25.121  1.00  0.00     0.134 A 
ATOM     60  F   UNL A   1      43.411  20.953  26.184  1.00  0.00    -0.206 F 
ATOM     61  C   UNL A   1      45.243  21.204  24.767  1.00  0.00     0.040 A 
ATOM     62  C   UNL A   1      46.119  23.368  24.271  1.00  0.00     0.040 A 
ATOM     63  F   UNL A   1      45.301  25.261  25.288  1.00  0.00    -0.206 F 
ATOM     64  C   UNL A   1      46.184  21.992  24.120  1.00  0.00     0.006 A 
ENDBRANCH  43  57
BRANCH  44  65
ATOM     65  C   UNL A   1      47.061  30.798  28.181  1.00  0.00     0.057 A 
ATOM     66  C   UNL A   1      46.835  31.410  26.940  1.00  0.00     0.134 A 
ATOM     67  C   UNL A   1      47.914  31.480  29.065  1.00  0.00     0.134 A 
ATOM     68  F   UNL A   1      46.014  30.847  26.042  1.00  0.00    -0.206 F 
ATOM     69  C   UNL A   1      47.390  32.653  26.614  1.00  0.00     0.040 A 
ATOM     70  C   UNL A   1      48.479  32.718  28.749  1.00  0.00     0.040 A 
ATOM     71  F   UNL A   1      48.148  31.012  30.299  1.00  0.00    -0.206 F 
ATOM     72  C   UNL A   1      48.202  33.319  27.526  1.00  0.00     0.006 A 
ENDBRANCH  44  65
BRANCH  56  73
ATOM     73  C   UNL A   1      45.649  25.929  31.846  1.00  0.00     0.057 A 
ATOM     74  C   UNL A   1      46.643  25.725  32.817  1.00  0.00     0.134 A 
ATOM     75  C   UNL A   1      44.533  26.680  32.236  1.00  0.00     0.134 A 
ATOM     76  F   UNL A   1      47.794  25.111  32.516  1.00  0.00    -0.206 F 
ATOM     77  C   UNL A   1      46.503  26.198  34.125  1.00  0.00     0.040 A 
ATOM     78  C   UNL A   1      44.399  27.188  33.529  1.00  0.00     0.040 A 
ATOM     79  F   UNL A   1      43.566  26.964  31.349  1.00  0.00    -0.206 F 
ATOM     80  C   UNL A   1      45.379  26.935  34.484  1.00  0.00     0.006 A 
ENDBRANCH  56  73
ENDBRANCH  30  31
ENDBRANCH  22  25
ENDBRANCH  20  21
ENDBRANCH  19  20
ENDBRANCH   1  19
TORSDOF 14
ENDMDL
