MODEL 1
REMARK VINA RESULT:      -9.8      0.000      0.000
REMARK SMILES O=C(Cc1ccc(CBr)cc1)NCCCNC(=O)c1ccc(-c2c3nc(c(-c4c(F)cccc4F)c4ccc([nH]4)c(-c4c(F)cccc4F)c4nc(c(-c5c(F)cccc5F)c5ccc2[nH]5)C=C4)C=C3)cc1
REMARK SMILES IDX 14 1 13 2 12 3 1 4 2 5 3 7 4 8 5 9 11 10 6 11 10 12 7 13
REMARK SMILES IDX 8 14 9 15 15 16 16 17 17 18 18 20 19 21 20 22 72 23 21 24
REMARK SMILES IDX 71 25 22 26 23 27 24 28 65 29 25 30 70 31 64 32 66 33 26 34
REMARK SMILES IDX 69 35 63 36 62 37 27 39 53 40 36 41 52 42 37 43 40 44 51 45
REMARK SMILES IDX 67 46 38 47 39 48 50 50 68 51 41 52 28 53 29 54 34 55 30 56
REMARK SMILES IDX 31 57 33 58 35 59 32 60 54 61 55 62 60 63 56 64 57 65 59 66
REMARK SMILES IDX 61 67 58 68 42 69 43 70 48 71 44 72 45 73 47 74 49 75 46 76
REMARK H PARENT 12 6 16 19 66 38 40 49
REMARK Flexibility Score: inf
ROOT
ATOM      1  C   UNL A   1      44.893  18.796  24.869  1.00  0.00     0.042 C 
ENDROOT
BRANCH   1   2
ATOM      2  C   UNL A   1      46.217  19.533  25.049  1.00  0.00     0.117 C 
BRANCH   2   3
ATOM      3  N   UNL A   1      46.242  20.807  24.362  1.00  0.00    -0.356 N 
ATOM      4  O   UNL A   1      45.873  22.109  26.215  1.00  0.00    -0.275 OA
ATOM      5  C   UNL A   1      46.085  22.015  25.009  1.00  0.00     0.224 C 
ATOM      6  H   UNL A   1      46.376  20.813  23.386  1.00  0.00     0.163 HD
BRANCH   5   7
ATOM      7  C   UNL A   1      46.099  23.234  24.097  1.00  0.00     0.135 C 
BRANCH   7   8
ATOM      8  C   UNL A   1      46.036  24.552  24.832  1.00  0.00    -0.039 A 
ATOM      9  C   UNL A   1      47.198  25.120  25.367  1.00  0.00     0.004 A 
ATOM     10  C   UNL A   1      44.821  25.238  24.970  1.00  0.00     0.004 A 
ATOM     11  C   UNL A   1      47.147  26.351  26.023  1.00  0.00     0.005 A 
ATOM     12  C   UNL A   1      44.774  26.476  25.616  1.00  0.00     0.005 A 
ATOM     13  C   UNL A   1      45.937  27.048  26.146  1.00  0.00    -0.037 A 
BRANCH  13  14
ATOM     14  C   UNL A   1      45.884  28.375  26.844  1.00  0.00     0.116 C 
ATOM     15  Br  UNL A   1      44.043  28.988  26.943  1.00  0.00    -0.088 Br
ENDBRANCH  13  14
ENDBRANCH   7   8
ENDBRANCH   5   7
ENDBRANCH   2   3
ENDBRANCH   1   2
BRANCH   1  16
ATOM     16  C   UNL A   1      44.003  18.755  26.111  1.00  0.00     0.118 C 
BRANCH  16  17
ATOM     17  N   UNL A   1      42.585  18.641  25.806  1.00  0.00    -0.352 N 
ATOM     18  C   UNL A   1      41.554  19.521  26.017  1.00  0.00     0.251 C 
ATOM     19  H   UNL A   1      42.322  17.794  25.377  1.00  0.00     0.163 HD
ATOM     20  O   UNL A   1      40.401  19.163  25.773  1.00  0.00    -0.269 OA
BRANCH  18  21
ATOM     21  C   UNL A   1      41.793  20.882  26.552  1.00  0.00     0.039 A 
ATOM     22  C   UNL A   1      41.562  21.111  27.914  1.00  0.00     0.014 A 
ATOM     23  C   UNL A   1      42.188  21.941  25.731  1.00  0.00     0.014 A 
ATOM     24  C   UNL A   1      41.781  22.379  28.459  1.00  0.00     0.010 A 
ATOM     25  C   UNL A   1      42.465  23.190  26.288  1.00  0.00     0.010 A 
ATOM     26  C   UNL A   1      42.261  23.424  27.657  1.00  0.00    -0.014 A 
BRANCH  26  27
ATOM     27  C   UNL A   1      42.543  24.766  28.231  1.00  0.00     0.031 A 
ATOM     28  C   UNL A   1      43.917  25.099  28.744  1.00  0.00     0.074 A 
ATOM     29  C   UNL A   1      41.551  25.670  28.342  1.00  0.00     0.049 A 
ATOM     30  N   UNL A   1      44.336  26.186  29.343  1.00  0.00    -0.248 NA
ATOM     31  C   UNL A   1      44.950  24.065  28.586  1.00  0.00     0.031 C 
ATOM     32  C   UNL A   1      40.165  25.463  27.919  1.00  0.00     0.029 A 
ATOM     33  N   UNL A   1      41.555  26.943  28.856  1.00  0.00    -0.354 N 
ATOM     34  C   UNL A   1      45.672  25.959  29.649  1.00  0.00     0.074 A 
ATOM     35  C   UNL A   1      45.983  24.616  29.208  1.00  0.00     0.031 C 
ATOM     36  C   UNL A   1      39.457  26.575  28.174  1.00  0.00     0.029 A 
ATOM     37  C   UNL A   1      40.329  27.560  28.808  1.00  0.00     0.049 A 
ATOM     38  H   UNL A   1      42.360  27.372  29.225  1.00  0.00     0.167 HD
ATOM     39  C   UNL A   1      46.564  26.799  30.228  1.00  0.00     0.037 A 
ATOM     40  C   UNL A   1      39.948  28.781  29.230  1.00  0.00     0.037 A 
ATOM     41  C   UNL A   1      46.269  28.146  30.638  1.00  0.00     0.049 A 
ATOM     42  C   UNL A   1      40.959  29.698  29.859  1.00  0.00     0.074 A 
ATOM     43  C   UNL A   1      47.123  29.090  31.180  1.00  0.00     0.029 A 
ATOM     44  N   UNL A   1      45.021  28.742  30.546  1.00  0.00    -0.354 N 
ATOM     45  N   UNL A   1      42.231  29.488  30.093  1.00  0.00    -0.248 NA
ATOM     46  C   UNL A   1      40.482  31.023  30.277  1.00  0.00     0.031 C 
ATOM     47  C   UNL A   1      46.386  30.249  31.445  1.00  0.00     0.029 A 
ATOM     48  C   UNL A   1      45.080  30.038  31.034  1.00  0.00     0.049 A 
ATOM     49  H   UNL A   1      44.212  28.310  30.188  1.00  0.00     0.167 HD
ATOM     50  C   UNL A   1      42.713  30.662  30.657  1.00  0.00     0.074 A 
ATOM     51  C   UNL A   1      41.598  31.583  30.724  1.00  0.00     0.031 C 
ATOM     52  C   UNL A   1      43.967  30.949  31.083  1.00  0.00     0.037 A 
BRANCH  39  53
ATOM     53  C   UNL A   1      47.955  26.279  30.447  1.00  0.00     0.057 A 
ATOM     54  C   UNL A   1      48.974  26.480  29.508  1.00  0.00     0.134 A 
ATOM     55  C   UNL A   1      48.287  25.601  31.627  1.00  0.00     0.134 A 
ATOM     56  F   UNL A   1      48.717  27.112  28.352  1.00  0.00    -0.206 F 
ATOM     57  C   UNL A   1      50.267  26.001  29.720  1.00  0.00     0.040 A 
ATOM     58  C   UNL A   1      49.583  25.139  31.861  1.00  0.00     0.040 A 
ATOM     59  F   UNL A   1      47.360  25.381  32.572  1.00  0.00    -0.206 F 
ATOM     60  C   UNL A   1      50.576  25.332  30.903  1.00  0.00     0.006 A 
ENDBRANCH  39  53
BRANCH  40  61
ATOM     61  C   UNL A   1      38.543  29.223  29.047  1.00  0.00     0.057 A 
ATOM     62  C   UNL A   1      37.638  29.201  30.115  1.00  0.00     0.134 A 
ATOM     63  C   UNL A   1      38.071  29.666  27.807  1.00  0.00     0.134 A 
ATOM     64  F   UNL A   1      38.029  28.766  31.322  1.00  0.00    -0.206 F 
ATOM     65  C   UNL A   1      36.308  29.589  29.952  1.00  0.00     0.040 A 
ATOM     66  C   UNL A   1      36.748  30.077  27.635  1.00  0.00     0.040 A 
ATOM     67  F   UNL A   1      38.892  29.714  26.747  1.00  0.00    -0.206 F 
ATOM     68  C   UNL A   1      35.860  30.033  28.709  1.00  0.00     0.006 A 
ENDBRANCH  40  61
BRANCH  52  69
ATOM     69  C   UNL A   1      44.209  32.327  31.622  1.00  0.00     0.057 A 
ATOM     70  C   UNL A   1      44.077  32.620  32.985  1.00  0.00     0.134 A 
ATOM     71  C   UNL A   1      44.613  33.363  30.771  1.00  0.00     0.134 A 
ATOM     72  F   UNL A   1      43.680  31.674  33.849  1.00  0.00    -0.206 F 
ATOM     73  C   UNL A   1      44.323  33.902  33.480  1.00  0.00     0.040 A 
ATOM     74  C   UNL A   1      44.883  34.643  31.258  1.00  0.00     0.040 A 
ATOM     75  F   UNL A   1      44.764  33.145  29.456  1.00  0.00    -0.206 F 
ATOM     76  C   UNL A   1      44.732  34.916  32.616  1.00  0.00     0.006 A 
ENDBRANCH  52  69
ENDBRANCH  26  27
ENDBRANCH  18  21
ENDBRANCH  16  17
ENDBRANCH   1  16
TORSDOF 12
ENDMDL
MODEL 2
REMARK VINA RESULT:      -9.8      0.629      6.505
REMARK SMILES O=C(Cc1ccc(CBr)cc1)NCCCNC(=O)c1ccc(-c2c3nc(c(-c4c(F)cccc4F)c4ccc([nH]4)c(-c4c(F)cccc4F)c4nc(c(-c5c(F)cccc5F)c5ccc2[nH]5)C=C4)C=C3)cc1
REMARK SMILES IDX 14 1 13 2 12 3 1 4 2 5 3 7 4 8 5 9 11 10 6 11 10 12 7 13
REMARK SMILES IDX 8 14 9 15 15 16 16 17 17 18 18 20 19 21 20 22 72 23 21 24
REMARK SMILES IDX 71 25 22 26 23 27 24 28 65 29 25 30 70 31 64 32 66 33 26 34
REMARK SMILES IDX 69 35 63 36 62 37 27 39 53 40 36 41 52 42 37 43 40 44 51 45
REMARK SMILES IDX 67 46 38 47 39 48 50 50 68 51 41 52 28 53 29 54 34 55 30 56
REMARK SMILES IDX 31 57 33 58 35 59 32 60 54 61 55 62 60 63 56 64 57 65 59 66
REMARK SMILES IDX 61 67 58 68 42 69 43 70 48 71 44 72 45 73 47 74 49 75 46 76
REMARK H PARENT 12 6 16 19 66 38 40 49
REMARK Flexibility Score: inf
ROOT
ATOM      1  C   UNL A   1      44.288  18.870  24.831  1.00  0.00     0.042 C 
ENDROOT
BRANCH   1   2
ATOM      2  C   UNL A   1      45.751  19.214  25.101  1.00  0.00     0.117 C 
BRANCH   2   3
ATOM      3  N   UNL A   1      46.151  20.461  24.484  1.00  0.00    -0.356 N 
ATOM      4  O   UNL A   1      45.501  21.824  26.212  1.00  0.00    -0.275 OA
ATOM      5  C   UNL A   1      46.011  21.686  25.103  1.00  0.00     0.224 C 
ATOM      6  H   UNL A   1      46.540  20.435  23.580  1.00  0.00     0.163 HD
BRANCH   5   7
ATOM      7  C   UNL A   1      46.453  22.877  24.265  1.00  0.00     0.135 C 
BRANCH   7   8
ATOM      8  C   UNL A   1      45.851  24.193  24.702  1.00  0.00    -0.039 A 
ATOM      9  C   UNL A   1      44.466  24.388  24.653  1.00  0.00     0.004 A 
ATOM     10  C   UNL A   1      46.665  25.228  25.184  1.00  0.00     0.004 A 
ATOM     11  C   UNL A   1      43.905  25.593  25.081  1.00  0.00     0.005 A 
ATOM     12  C   UNL A   1      46.101  26.428  25.623  1.00  0.00     0.005 A 
ATOM     13  C   UNL A   1      44.715  26.622  25.581  1.00  0.00    -0.037 A 
BRANCH  13  14
ATOM     14  C   UNL A   1      44.111  27.914  26.050  1.00  0.00     0.116 C 
ATOM     15  Br  UNL A   1      42.256  28.011  25.482  1.00  0.00    -0.088 Br
ENDBRANCH  13  14
ENDBRANCH   7   8
ENDBRANCH   5   7
ENDBRANCH   2   3
ENDBRANCH   1   2
BRANCH   1  16
ATOM     16  C   UNL A   1      43.452  18.584  26.078  1.00  0.00     0.118 C 
BRANCH  16  17
ATOM     17  N   UNL A   1      42.019  18.570  25.824  1.00  0.00    -0.352 N 
ATOM     18  C   UNL A   1      41.058  19.514  26.085  1.00  0.00     0.251 C 
ATOM     19  H   UNL A   1      41.684  17.749  25.396  1.00  0.00     0.163 HD
ATOM     20  O   UNL A   1      39.876  19.238  25.881  1.00  0.00    -0.269 OA
BRANCH  18  21
ATOM     21  C   UNL A   1      41.408  20.847  26.629  1.00  0.00     0.039 A 
ATOM     22  C   UNL A   1      41.495  20.997  28.018  1.00  0.00     0.014 A 
ATOM     23  C   UNL A   1      41.601  21.956  25.801  1.00  0.00     0.014 A 
ATOM     24  C   UNL A   1      41.827  22.237  28.570  1.00  0.00     0.010 A 
ATOM     25  C   UNL A   1      41.993  23.178  26.350  1.00  0.00     0.010 A 
ATOM     26  C   UNL A   1      42.107  23.333  27.740  1.00  0.00    -0.014 A 
BRANCH  26  27
ATOM     27  C   UNL A   1      42.507  24.646  28.310  1.00  0.00     0.031 A 
ATOM     28  C   UNL A   1      41.488  25.737  28.496  1.00  0.00     0.074 A 
ATOM     29  C   UNL A   1      43.799  24.880  28.611  1.00  0.00     0.049 A 
ATOM     30  N   UNL A   1      41.658  26.968  28.907  1.00  0.00    -0.248 NA
ATOM     31  C   UNL A   1      40.097  25.407  28.149  1.00  0.00     0.031 C 
ATOM     32  C   UNL A   1      44.894  23.924  28.445  1.00  0.00     0.029 A 
ATOM     33  N   UNL A   1      44.411  26.003  29.112  1.00  0.00    -0.354 N 
ATOM     34  C   UNL A   1      40.405  27.564  28.852  1.00  0.00     0.074 A 
ATOM     35  C   UNL A   1      39.490  26.572  28.326  1.00  0.00     0.031 C 
ATOM     36  C   UNL A   1      46.041  24.494  28.852  1.00  0.00     0.029 A 
ATOM     37  C   UNL A   1      45.767  25.864  29.276  1.00  0.00     0.049 A 
ATOM     38  H   UNL A   1      43.923  26.829  29.331  1.00  0.00     0.167 HD
ATOM     39  C   UNL A   1      40.044  28.816  29.221  1.00  0.00     0.037 A 
ATOM     40  C   UNL A   1      46.688  26.742  29.716  1.00  0.00     0.037 A 
ATOM     41  C   UNL A   1      40.942  29.794  29.774  1.00  0.00     0.049 A 
ATOM     42  C   UNL A   1      46.260  28.122  30.130  1.00  0.00     0.074 A 
ATOM     43  C   UNL A   1      40.655  31.069  30.231  1.00  0.00     0.029 A 
ATOM     44  N   UNL A   1      42.304  29.604  29.950  1.00  0.00    -0.354 N 
ATOM     45  N   UNL A   1      45.062  28.652  30.121  1.00  0.00    -0.248 NA
ATOM     46  C   UNL A   1      47.313  29.023  30.620  1.00  0.00     0.031 C 
ATOM     47  C   UNL A   1      41.849  31.662  30.656  1.00  0.00     0.029 A 
ATOM     48  C   UNL A   1      42.873  30.743  30.498  1.00  0.00     0.049 A 
ATOM     49  H   UNL A   1      42.794  28.782  29.721  1.00  0.00     0.167 HD
ATOM     50  C   UNL A   1      45.211  29.936  30.630  1.00  0.00     0.074 A 
ATOM     51  C   UNL A   1      46.615  30.102  30.946  1.00  0.00     0.031 C 
ATOM     52  C   UNL A   1      44.268  30.891  30.818  1.00  0.00     0.037 A 
BRANCH  39  53
ATOM     53  C   UNL A   1      38.603  29.198  29.041  1.00  0.00     0.057 A 
ATOM     54  C   UNL A   1      38.097  29.603  27.800  1.00  0.00     0.134 A 
ATOM     55  C   UNL A   1      37.706  29.128  30.114  1.00  0.00     0.134 A 
ATOM     56  F   UNL A   1      38.909  29.703  26.735  1.00  0.00    -0.206 F 
ATOM     57  C   UNL A   1      36.756  29.951  27.636  1.00  0.00     0.040 A 
ATOM     58  C   UNL A   1      36.357  29.449  29.957  1.00  0.00     0.040 A 
ATOM     59  F   UNL A   1      38.124  28.741  31.329  1.00  0.00    -0.206 F 
ATOM     60  C   UNL A   1      35.880  29.868  28.717  1.00  0.00     0.006 A 
ENDBRANCH  39  53
BRANCH  40  61
ATOM     61  C   UNL A   1      48.112  26.335  29.814  1.00  0.00     0.057 A 
ATOM     62  C   UNL A   1      48.608  25.728  30.974  1.00  0.00     0.134 A 
ATOM     63  C   UNL A   1      49.008  26.549  28.761  1.00  0.00     0.134 A 
ATOM     64  F   UNL A   1      47.799  25.517  32.023  1.00  0.00    -0.206 F 
ATOM     65  C   UNL A   1      49.949  25.363  31.091  1.00  0.00     0.040 A 
ATOM     66  C   UNL A   1      50.349  26.169  28.856  1.00  0.00     0.040 A 
ATOM     67  F   UNL A   1      48.592  27.121  27.622  1.00  0.00    -0.206 F 
ATOM     68  C   UNL A   1      50.824  25.580  30.027  1.00  0.00     0.006 A 
ENDBRANCH  40  61
BRANCH  52  69
ATOM     69  C   UNL A   1      44.716  32.185  31.428  1.00  0.00     0.057 A 
ATOM     70  C   UNL A   1      44.706  32.391  32.813  1.00  0.00     0.134 A 
ATOM     71  C   UNL A   1      45.196  33.225  30.621  1.00  0.00     0.134 A 
ATOM     72  F   UNL A   1      44.246  31.439  33.639  1.00  0.00    -0.206 F 
ATOM     73  C   UNL A   1      45.142  33.593  33.373  1.00  0.00     0.040 A 
ATOM     74  C   UNL A   1      45.655  34.423  31.171  1.00  0.00     0.040 A 
ATOM     75  F   UNL A   1      45.237  33.088  29.287  1.00  0.00    -0.206 F 
ATOM     76  C   UNL A   1      45.623  34.611  32.551  1.00  0.00     0.006 A 
ENDBRANCH  52  69
ENDBRANCH  26  27
ENDBRANCH  18  21
ENDBRANCH  16  17
ENDBRANCH   1  16
TORSDOF 12
ENDMDL
MODEL 3
REMARK VINA RESULT:      -9.7      4.994     11.069
REMARK SMILES O=C(Cc1ccc(CBr)cc1)NCCCNC(=O)c1ccc(-c2c3nc(c(-c4c(F)cccc4F)c4ccc([nH]4)c(-c4c(F)cccc4F)c4nc(c(-c5c(F)cccc5F)c5ccc2[nH]5)C=C4)C=C3)cc1
REMARK SMILES IDX 14 1 13 2 12 3 1 4 2 5 3 7 4 8 5 9 11 10 6 11 10 12 7 13
REMARK SMILES IDX 8 14 9 15 15 16 16 17 17 18 18 20 19 21 20 22 72 23 21 24
REMARK SMILES IDX 71 25 22 26 23 27 24 28 65 29 25 30 70 31 64 32 66 33 26 34
REMARK SMILES IDX 69 35 63 36 62 37 27 39 53 40 36 41 52 42 37 43 40 44 51 45
REMARK SMILES IDX 67 46 38 47 39 48 50 50 68 51 41 52 28 53 29 54 34 55 30 56
REMARK SMILES IDX 31 57 33 58 35 59 32 60 54 61 55 62 60 63 56 64 57 65 59 66
REMARK SMILES IDX 61 67 58 68 42 69 43 70 48 71 44 72 45 73 47 74 49 75 46 76
REMARK H PARENT 12 6 16 19 66 38 40 49
REMARK Flexibility Score: inf
ROOT
ATOM      1  C   UNL A   1      33.228  36.885  30.569  1.00  0.00     0.042 C 
ENDROOT
BRANCH   1   2
ATOM      2  C   UNL A   1      33.036  35.604  31.377  1.00  0.00     0.117 C 
BRANCH   2   3
ATOM      3  N   UNL A   1      34.077  35.408  32.363  1.00  0.00    -0.356 N 
ATOM      4  O   UNL A   1      33.331  33.376  33.126  1.00  0.00    -0.275 OA
ATOM      5  C   UNL A   1      34.157  34.285  33.160  1.00  0.00     0.224 C 
ATOM      6  H   UNL A   1      34.760  36.109  32.472  1.00  0.00     0.163 HD
BRANCH   5   7
ATOM      7  C   UNL A   1      35.303  34.295  34.163  1.00  0.00     0.135 C 
BRANCH   7   8
ATOM      8  C   UNL A   1      36.241  33.118  34.036  1.00  0.00    -0.039 A 
ATOM      9  C   UNL A   1      35.955  32.079  33.143  1.00  0.00     0.004 A 
ATOM     10  C   UNL A   1      37.421  33.057  34.791  1.00  0.00     0.004 A 
ATOM     11  C   UNL A   1      36.834  31.002  33.003  1.00  0.00     0.005 A 
ATOM     12  C   UNL A   1      38.305  31.985  34.642  1.00  0.00     0.005 A 
ATOM     13  C   UNL A   1      38.023  30.949  33.743  1.00  0.00    -0.037 A 
BRANCH  13  14
ATOM     14  C   UNL A   1      38.972  29.796  33.587  1.00  0.00     0.116 C 
ATOM     15  Br  UNL A   1      38.188  28.460  32.415  1.00  0.00    -0.088 Br
ENDBRANCH  13  14
ENDBRANCH   7   8
ENDBRANCH   5   7
ENDBRANCH   2   3
ENDBRANCH   1   2
BRANCH   1  16
ATOM     16  C   UNL A   1      33.534  36.674  29.087  1.00  0.00     0.118 C 
BRANCH  16  17
ATOM     17  N   UNL A   1      32.745  35.614  28.477  1.00  0.00    -0.352 N 
ATOM     18  C   UNL A   1      33.067  34.309  28.203  1.00  0.00     0.251 C 
ATOM     19  H   UNL A   1      31.832  35.877  28.218  1.00  0.00     0.163 HD
ATOM     20  O   UNL A   1      32.268  33.615  27.575  1.00  0.00    -0.269 OA
BRANCH  18  21
ATOM     21  C   UNL A   1      34.361  33.724  28.625  1.00  0.00     0.039 A 
ATOM     22  C   UNL A   1      35.521  34.116  27.946  1.00  0.00     0.014 A 
ATOM     23  C   UNL A   1      34.444  32.764  29.637  1.00  0.00     0.014 A 
ATOM     24  C   UNL A   1      36.762  33.591  28.317  1.00  0.00     0.010 A 
ATOM     25  C   UNL A   1      35.690  32.288  30.047  1.00  0.00     0.010 A 
ATOM     26  C   UNL A   1      36.862  32.693  29.389  1.00  0.00    -0.014 A 
BRANCH  26  27
ATOM     27  C   UNL A   1      38.180  32.162  29.826  1.00  0.00     0.031 A 
ATOM     28  C   UNL A   1      38.664  30.827  29.329  1.00  0.00     0.074 A 
ATOM     29  C   UNL A   1      38.921  32.853  30.714  1.00  0.00     0.049 A 
ATOM     30  N   UNL A   1      39.747  30.166  29.653  1.00  0.00    -0.248 NA
ATOM     31  C   UNL A   1      37.804  30.131  28.360  1.00  0.00     0.031 C 
ATOM     32  C   UNL A   1      38.552  34.140  31.304  1.00  0.00     0.029 A 
ATOM     33  N   UNL A   1      40.135  32.562  31.283  1.00  0.00    -0.354 N 
ATOM     34  C   UNL A   1      39.690  28.974  28.943  1.00  0.00     0.074 A 
ATOM     35  C   UNL A   1      38.445  28.982  28.204  1.00  0.00     0.031 C 
ATOM     36  C   UNL A   1      39.527  34.536  32.138  1.00  0.00     0.029 A 
ATOM     37  C   UNL A   1      40.573  33.517  32.167  1.00  0.00     0.049 A 
ATOM     38  H   UNL A   1      40.644  31.744  31.078  1.00  0.00     0.167 HD
ATOM     39  C   UNL A   1      40.599  27.970  28.896  1.00  0.00     0.037 A 
ATOM     40  C   UNL A   1      41.688  33.566  32.920  1.00  0.00     0.037 A 
ATOM     41  C   UNL A   1      41.853  27.971  29.602  1.00  0.00     0.049 A 
ATOM     42  C   UNL A   1      42.687  32.446  32.841  1.00  0.00     0.074 A 
ATOM     43  C   UNL A   1      42.862  27.025  29.570  1.00  0.00     0.029 A 
ATOM     44  N   UNL A   1      42.270  28.972  30.466  1.00  0.00    -0.354 N 
ATOM     45  N   UNL A   1      42.642  31.349  32.125  1.00  0.00    -0.248 NA
ATOM     46  C   UNL A   1      43.892  32.572  33.672  1.00  0.00     0.031 C 
ATOM     47  C   UNL A   1      43.879  27.438  30.439  1.00  0.00     0.029 A 
ATOM     48  C   UNL A   1      43.517  28.660  30.983  1.00  0.00     0.049 A 
ATOM     49  H   UNL A   1      41.757  29.784  30.681  1.00  0.00     0.167 HD
ATOM     50  C   UNL A   1      43.824  30.671  32.395  1.00  0.00     0.074 A 
ATOM     51  C   UNL A   1      44.568  31.483  33.336  1.00  0.00     0.031 C 
ATOM     52  C   UNL A   1      44.252  29.481  31.908  1.00  0.00     0.037 A 
BRANCH  39  53
ATOM     53  C   UNL A   1      40.268  26.781  28.041  1.00  0.00     0.057 A 
ATOM     54  C   UNL A   1      40.798  26.629  26.754  1.00  0.00     0.134 A 
ATOM     55  C   UNL A   1      39.437  25.762  28.523  1.00  0.00     0.134 A 
ATOM     56  F   UNL A   1      41.591  27.576  26.228  1.00  0.00    -0.206 F 
ATOM     57  C   UNL A   1      40.492  25.519  25.965  1.00  0.00     0.040 A 
ATOM     58  C   UNL A   1      39.144  24.635  27.754  1.00  0.00     0.040 A 
ATOM     59  F   UNL A   1      38.902  25.843  29.751  1.00  0.00    -0.206 F 
ATOM     60  C   UNL A   1      39.667  24.515  26.468  1.00  0.00     0.006 A 
ENDBRANCH  39  53
BRANCH  40  61
ATOM     61  C   UNL A   1      41.937  34.736  33.799  1.00  0.00     0.057 A 
ATOM     62  C   UNL A   1      41.512  34.736  35.132  1.00  0.00     0.134 A 
ATOM     63  C   UNL A   1      42.595  35.878  33.328  1.00  0.00     0.134 A 
ATOM     64  F   UNL A   1      40.859  33.677  35.632  1.00  0.00    -0.206 F 
ATOM     65  C   UNL A   1      41.717  35.838  35.963  1.00  0.00     0.040 A 
ATOM     66  C   UNL A   1      42.825  36.979  34.154  1.00  0.00     0.040 A 
ATOM     67  F   UNL A   1      43.030  35.935  32.060  1.00  0.00    -0.206 F 
ATOM     68  C   UNL A   1      42.380  36.963  35.475  1.00  0.00     0.006 A 
ENDBRANCH  40  61
BRANCH  52  69
ATOM     69  C   UNL A   1      45.602  29.005  32.352  1.00  0.00     0.057 A 
ATOM     70  C   UNL A   1      45.764  28.188  33.478  1.00  0.00     0.134 A 
ATOM     71  C   UNL A   1      46.751  29.339  31.623  1.00  0.00     0.134 A 
ATOM     72  F   UNL A   1      44.705  27.844  34.226  1.00  0.00    -0.206 F 
ATOM     73  C   UNL A   1      47.024  27.734  33.873  1.00  0.00     0.040 A 
ATOM     74  C   UNL A   1      48.013  28.873  31.996  1.00  0.00     0.040 A 
ATOM     75  F   UNL A   1      46.662  30.112  30.531  1.00  0.00    -0.206 F 
ATOM     76  C   UNL A   1      48.151  28.072  33.128  1.00  0.00     0.006 A 
ENDBRANCH  52  69
ENDBRANCH  26  27
ENDBRANCH  18  21
ENDBRANCH  16  17
ENDBRANCH   1  16
TORSDOF 12
ENDMDL
