MODEL 1
REMARK VINA RESULT:     -11.9      0.000      0.000
REMARK SMILES Cc1ccc(C(N)=O)c(NCc2ccc(C(=O)NCCCNC(=O)c3ccc(-c4c5nc(c(-c6c(F)cccc6F)c6ccc([nH]6)c(-c6c(F)cccc6F)c6nc(c(-c7c(F)cccc7F)c7ccc4[nH]7)C=C6)C=C5)cc3)o2)n1
REMARK SMILES IDX 19 1 18 2 16 3 17 4 15 6 12 7 13 8 79 9 14 10 11 11 10 12
REMARK SMILES IDX 9 14 1 15 2 16 3 17 80 18 4 19 5 20 6 21 7 22 8 23 20 26
REMARK SMILES IDX 21 27 22 28 23 29 24 31 25 32 26 33 78 34 27 35 77 36 28 37
REMARK SMILES IDX 29 38 30 39 71 40 31 41 76 42 70 43 72 44 32 45 75 46 69 47
REMARK SMILES IDX 68 48 33 50 59 51 42 52 58 53 43 54 46 55 57 56 73 57 44 58
REMARK SMILES IDX 45 59 56 61 74 62 47 63 34 64 35 65 40 66 36 67 37 68 39 69
REMARK SMILES IDX 41 70 38 71 60 72 61 73 66 74 62 75 63 76 65 77 67 78 64 79
REMARK SMILES IDX 48 80 49 81 54 82 50 83 51 84 53 85 55 86 52 87
REMARK H PARENT 18 5 10 13 7 24 7 25 22 30 72 49 46 60
REMARK Flexibility Score: inf
ROOT
ATOM      1  C   UNL A   1      31.703  30.574  26.886  1.00  0.00     0.118 C 
ENDROOT
BRANCH   1   2
ATOM      2  N   UNL A   1      33.011  30.237  27.407  1.00  0.00    -0.349 N 
ATOM      3  C   UNL A   1      33.968  29.359  26.951  1.00  0.00     0.286 C 
ATOM      4  O   UNL A   1      35.043  29.383  27.555  1.00  0.00    -0.266 OA
ATOM      5  H   UNL A   1      33.258  30.717  28.231  1.00  0.00     0.163 HD
BRANCH   3   6
ATOM      6  C   UNL A   1      33.715  28.484  25.821  1.00  0.00     0.191 A 
ATOM      7  C   UNL A   1      32.993  28.102  23.758  1.00  0.00     0.124 A 
ATOM      8  C   UNL A   1      33.426  26.891  24.248  1.00  0.00     0.048 A 
ATOM      9  O   UNL A   1      33.166  29.068  24.703  1.00  0.00    -0.454 OA
ATOM     10  C   UNL A   1      33.923  27.142  25.550  1.00  0.00     0.056 A 
BRANCH   7  11
ATOM     11  C   UNL A   1      32.426  28.541  22.450  1.00  0.00     0.190 C 
BRANCH  11  12
ATOM     12  N   UNL A   1      31.146  27.920  22.140  1.00  0.00    -0.362 N 
ATOM     13  H   UNL A   1      31.122  26.993  21.810  1.00  0.00     0.162 HD
BRANCH  12  14
ATOM     14  C   UNL A   1      29.961  28.620  22.308  1.00  0.00     0.139 A 
ATOM     15  C   UNL A   1      28.602  31.770  20.957  1.00  0.00     0.067 C 
ATOM     16  C   UNL A   1      28.673  30.490  21.733  1.00  0.00     0.040 A 
ATOM     17  C   UNL A   1      27.597  30.049  22.486  1.00  0.00     0.024 A 
ATOM     18  N   UNL A   1      29.838  29.801  21.658  1.00  0.00    -0.236 NA
ATOM     19  C   UNL A   1      27.727  28.855  23.184  1.00  0.00     0.019 A 
ATOM     20  C   UNL A   1      28.922  28.128  23.109  1.00  0.00     0.081 A 
BRANCH  20  21
ATOM     21  C   UNL A   1      29.008  26.890  23.932  1.00  0.00     0.252 C 
ATOM     22  N   UNL A   1      27.929  26.053  23.947  1.00  0.00    -0.365 N 
ATOM     23  O   UNL A   1      30.028  26.599  24.546  1.00  0.00    -0.269 OA
ATOM     24  H   UNL A   1      27.113  26.294  23.451  1.00  0.00     0.159 HD
ATOM     25  H   UNL A   1      27.967  25.210  24.453  1.00  0.00     0.159 HD
ENDBRANCH  20  21
ENDBRANCH  12  14
ENDBRANCH  11  12
ENDBRANCH   7  11
ENDBRANCH   3   6
ENDBRANCH   1   2
BRANCH   1  26
ATOM     26  C   UNL A   1      31.466  32.083  26.883  1.00  0.00     0.042 C 
BRANCH  26  27
ATOM     27  C   UNL A   1      32.756  32.899  26.953  1.00  0.00     0.118 C 
BRANCH  27  28
ATOM     28  N   UNL A   1      32.553  34.191  27.595  1.00  0.00    -0.352 N 
ATOM     29  C   UNL A   1      33.135  34.734  28.712  1.00  0.00     0.251 C 
ATOM     30  H   UNL A   1      31.889  34.770  27.154  1.00  0.00     0.163 HD
ATOM     31  O   UNL A   1      32.655  35.751  29.206  1.00  0.00    -0.269 OA
BRANCH  29  32
ATOM     32  C   UNL A   1      34.325  34.113  29.332  1.00  0.00     0.039 A 
ATOM     33  C   UNL A   1      34.140  33.233  30.404  1.00  0.00     0.014 A 
ATOM     34  C   UNL A   1      35.618  34.437  28.914  1.00  0.00     0.014 A 
ATOM     35  C   UNL A   1      35.246  32.640  31.019  1.00  0.00     0.010 A 
ATOM     36  C   UNL A   1      36.716  33.798  29.486  1.00  0.00     0.010 A 
ATOM     37  C   UNL A   1      36.541  32.896  30.547  1.00  0.00    -0.014 A 
BRANCH  37  38
ATOM     38  C   UNL A   1      37.725  32.231  31.147  1.00  0.00     0.031 A 
ATOM     39  C   UNL A   1      38.441  31.138  30.405  1.00  0.00     0.074 A 
ATOM     40  C   UNL A   1      38.113  32.566  32.393  1.00  0.00     0.049 A 
ATOM     41  N   UNL A   1      39.435  30.383  30.800  1.00  0.00    -0.248 NA
ATOM     42  C   UNL A   1      37.958  30.833  29.048  1.00  0.00     0.031 C 
ATOM     43  C   UNL A   1      37.475  33.582  33.234  1.00  0.00     0.029 A 
ATOM     44  N   UNL A   1      39.129  32.078  33.175  1.00  0.00    -0.354 N 
ATOM     45  C   UNL A   1      39.682  29.503  29.753  1.00  0.00     0.074 A 
ATOM     46  C   UNL A   1      38.708  29.791  28.722  1.00  0.00     0.031 C 
ATOM     47  C   UNL A   1      38.122  33.650  34.407  1.00  0.00     0.029 A 
ATOM     48  C   UNL A   1      39.196  32.661  34.417  1.00  0.00     0.049 A 
ATOM     49  H   UNL A   1      39.750  31.376  32.875  1.00  0.00     0.167 HD
ATOM     50  C   UNL A   1      40.643  28.554  29.655  1.00  0.00     0.037 A 
ATOM     51  C   UNL A   1      40.023  32.419  35.451  1.00  0.00     0.037 A 
ATOM     52  C   UNL A   1      41.632  28.293  30.668  1.00  0.00     0.049 A 
ATOM     53  C   UNL A   1      41.087  31.368  35.312  1.00  0.00     0.074 A 
ATOM     54  C   UNL A   1      42.690  27.402  30.631  1.00  0.00     0.029 A 
ATOM     55  N   UNL A   1      41.684  28.924  31.901  1.00  0.00    -0.354 N 
ATOM     56  N   UNL A   1      41.350  30.588  34.291  1.00  0.00    -0.248 NA
ATOM     57  C   UNL A   1      41.973  31.164  36.467  1.00  0.00     0.031 C 
ATOM     58  C   UNL A   1      43.360  27.466  31.857  1.00  0.00     0.029 A 
ATOM     59  C   UNL A   1      42.744  28.428  32.641  1.00  0.00     0.049 A 
ATOM     60  H   UNL A   1      41.058  29.622  32.206  1.00  0.00     0.167 HD
ATOM     61  C   UNL A   1      42.444  29.822  34.670  1.00  0.00     0.074 A 
ATOM     62  C   UNL A   1      42.804  30.239  36.009  1.00  0.00     0.031 C 
ATOM     63  C   UNL A   1      43.093  28.860  33.970  1.00  0.00     0.037 A 
BRANCH  50  64
ATOM     64  C   UNL A   1      40.674  27.725  28.404  1.00  0.00     0.057 A 
ATOM     65  C   UNL A   1      41.403  28.120  27.275  1.00  0.00     0.134 A 
ATOM     66  C   UNL A   1      39.997  26.501  28.340  1.00  0.00     0.134 A 
ATOM     67  F   UNL A   1      42.065  29.288  27.265  1.00  0.00    -0.206 F 
ATOM     68  C   UNL A   1      41.439  27.338  26.118  1.00  0.00     0.040 A 
ATOM     69  C   UNL A   1      40.046  25.697  27.199  1.00  0.00     0.040 A 
ATOM     70  F   UNL A   1      39.286  26.060  29.389  1.00  0.00    -0.206 F 
ATOM     71  C   UNL A   1      40.764  26.119  26.081  1.00  0.00     0.006 A 
ENDBRANCH  50  64
BRANCH  51  72
ATOM     72  C   UNL A   1      39.892  33.202  36.705  1.00  0.00     0.057 A 
ATOM     73  C   UNL A   1      40.667  34.346  36.923  1.00  0.00     0.134 A 
ATOM     74  C   UNL A   1      38.996  32.826  37.712  1.00  0.00     0.134 A 
ATOM     75  F   UNL A   1      41.556  34.745  36.002  1.00  0.00    -0.206 F 
ATOM     76  C   UNL A   1      40.571  35.080  38.107  1.00  0.00     0.040 A 
ATOM     77  C   UNL A   1      38.871  33.564  38.890  1.00  0.00     0.040 A 
ATOM     78  F   UNL A   1      38.219  31.745  37.558  1.00  0.00    -0.206 F 
ATOM     79  C   UNL A   1      39.666  34.690  39.092  1.00  0.00     0.006 A 
ENDBRANCH  51  72
BRANCH  63  80
ATOM     80  C   UNL A   1      44.277  28.216  34.628  1.00  0.00     0.057 A 
ATOM     81  C   UNL A   1      44.154  27.044  35.384  1.00  0.00     0.134 A 
ATOM     82  C   UNL A   1      45.559  28.757  34.473  1.00  0.00     0.134 A 
ATOM     83  F   UNL A   1      42.951  26.486  35.583  1.00  0.00    -0.206 F 
ATOM     84  C   UNL A   1      45.264  26.443  35.980  1.00  0.00     0.040 A 
ATOM     85  C   UNL A   1      46.680  28.151  35.043  1.00  0.00     0.040 A 
ATOM     86  F   UNL A   1      45.744  29.875  33.754  1.00  0.00    -0.206 F 
ATOM     87  C   UNL A   1      46.532  26.994  35.804  1.00  0.00     0.006 A 
ENDBRANCH  63  80
ENDBRANCH  37  38
ENDBRANCH  29  32
ENDBRANCH  27  28
ENDBRANCH  26  27
ENDBRANCH   1  26
TORSDOF 14
ENDMDL
MODEL 2
REMARK VINA RESULT:     -11.9      0.387      6.212
REMARK SMILES Cc1ccc(C(N)=O)c(NCc2ccc(C(=O)NCCCNC(=O)c3ccc(-c4c5nc(c(-c6c(F)cccc6F)c6ccc([nH]6)c(-c6c(F)cccc6F)c6nc(c(-c7c(F)cccc7F)c7ccc4[nH]7)C=C6)C=C5)cc3)o2)n1
REMARK SMILES IDX 19 1 18 2 16 3 17 4 15 6 12 7 13 8 79 9 14 10 11 11 10 12
REMARK SMILES IDX 9 14 1 15 2 16 3 17 80 18 4 19 5 20 6 21 7 22 8 23 20 26
REMARK SMILES IDX 21 27 22 28 23 29 24 31 25 32 26 33 78 34 27 35 77 36 28 37
REMARK SMILES IDX 29 38 30 39 71 40 31 41 76 42 70 43 72 44 32 45 75 46 69 47
REMARK SMILES IDX 68 48 33 50 59 51 42 52 58 53 43 54 46 55 57 56 73 57 44 58
REMARK SMILES IDX 45 59 56 61 74 62 47 63 34 64 35 65 40 66 36 67 37 68 39 69
REMARK SMILES IDX 41 70 38 71 60 72 61 73 66 74 62 75 63 76 65 77 67 78 64 79
REMARK SMILES IDX 48 80 49 81 54 82 50 83 51 84 53 85 55 86 52 87
REMARK H PARENT 18 5 10 13 7 24 7 25 22 30 72 49 46 60
REMARK Flexibility Score: inf
ROOT
ATOM      1  C   UNL A   1      31.662  30.606  26.842  1.00  0.00     0.118 C 
ENDROOT
BRANCH   1   2
ATOM      2  N   UNL A   1      32.936  30.231  27.418  1.00  0.00    -0.349 N 
ATOM      3  C   UNL A   1      33.875  29.309  27.014  1.00  0.00     0.286 C 
ATOM      4  O   UNL A   1      34.928  29.304  27.658  1.00  0.00    -0.266 OA
ATOM      5  H   UNL A   1      33.171  30.717  28.241  1.00  0.00     0.163 HD
BRANCH   3   6
ATOM      6  C   UNL A   1      33.632  28.421  25.891  1.00  0.00     0.191 A 
ATOM      7  C   UNL A   1      32.935  28.020  23.824  1.00  0.00     0.124 A 
ATOM      8  C   UNL A   1      33.352  26.811  24.334  1.00  0.00     0.048 A 
ATOM      9  O   UNL A   1      33.101  28.996  24.759  1.00  0.00    -0.454 OA
ATOM     10  C   UNL A   1      33.833  27.075  25.639  1.00  0.00     0.056 A 
BRANCH   7  11
ATOM     11  C   UNL A   1      32.388  28.447  22.502  1.00  0.00     0.190 C 
BRANCH  11  12
ATOM     12  N   UNL A   1      31.105  27.837  22.187  1.00  0.00    -0.362 N 
ATOM     13  H   UNL A   1      31.073  26.908  21.862  1.00  0.00     0.162 HD
BRANCH  12  14
ATOM     14  C   UNL A   1      29.925  28.551  22.340  1.00  0.00     0.139 A 
ATOM     15  C   UNL A   1      28.682  31.792  21.098  1.00  0.00     0.067 C 
ATOM     16  C   UNL A   1      28.697  30.473  21.808  1.00  0.00     0.040 A 
ATOM     17  C   UNL A   1      27.581  30.016  22.490  1.00  0.00     0.024 A 
ATOM     18  N   UNL A   1      29.852  29.766  21.747  1.00  0.00    -0.236 NA
ATOM     19  C   UNL A   1      27.660  28.785  23.131  1.00  0.00     0.019 A 
ATOM     20  C   UNL A   1      28.844  28.039  23.069  1.00  0.00     0.081 A 
BRANCH  20  21
ATOM     21  C   UNL A   1      28.873  26.760  23.830  1.00  0.00     0.252 C 
ATOM     22  N   UNL A   1      27.687  26.122  24.057  1.00  0.00    -0.365 N 
ATOM     23  O   UNL A   1      29.928  26.262  24.206  1.00  0.00    -0.269 OA
ATOM     24  H   UNL A   1      26.843  26.528  23.752  1.00  0.00     0.159 HD
ATOM     25  H   UNL A   1      27.675  25.257  24.527  1.00  0.00     0.159 HD
ENDBRANCH  20  21
ENDBRANCH  12  14
ENDBRANCH  11  12
ENDBRANCH   7  11
ENDBRANCH   3   6
ENDBRANCH   1   2
BRANCH   1  26
ATOM     26  C   UNL A   1      31.438  32.116  26.897  1.00  0.00     0.042 C 
BRANCH  26  27
ATOM     27  C   UNL A   1      32.737  32.921  26.904  1.00  0.00     0.118 C 
BRANCH  27  28
ATOM     28  N   UNL A   1      32.592  34.187  27.610  1.00  0.00    -0.352 N 
ATOM     29  C   UNL A   1      33.202  34.649  28.749  1.00  0.00     0.251 C 
ATOM     30  H   UNL A   1      31.951  34.815  27.203  1.00  0.00     0.163 HD
ATOM     31  O   UNL A   1      32.768  35.660  29.295  1.00  0.00    -0.269 OA
BRANCH  29  32
ATOM     32  C   UNL A   1      34.368  33.948  29.329  1.00  0.00     0.039 A 
ATOM     33  C   UNL A   1      34.145  32.982  30.317  1.00  0.00     0.014 A 
ATOM     34  C   UNL A   1      35.674  34.277  28.960  1.00  0.00     0.014 A 
ATOM     35  C   UNL A   1      35.227  32.312  30.894  1.00  0.00     0.010 A 
ATOM     36  C   UNL A   1      36.748  33.564  29.490  1.00  0.00     0.010 A 
ATOM     37  C   UNL A   1      36.536  32.577  30.465  1.00  0.00    -0.014 A 
BRANCH  37  38
ATOM     38  C   UNL A   1      37.694  31.835  31.022  1.00  0.00     0.031 A 
ATOM     39  C   UNL A   1      38.239  32.182  32.380  1.00  0.00     0.074 A 
ATOM     40  C   UNL A   1      38.300  30.893  30.274  1.00  0.00     0.049 A 
ATOM     41  N   UNL A   1      39.293  31.709  32.995  1.00  0.00    -0.248 NA
ATOM     42  C   UNL A   1      37.519  33.220  33.135  1.00  0.00     0.031 C 
ATOM     43  C   UNL A   1      37.894  30.493  28.925  1.00  0.00     0.029 A 
ATOM     44  N   UNL A   1      39.396  30.110  30.536  1.00  0.00    -0.354 N 
ATOM     45  C   UNL A   1      39.374  32.402  34.195  1.00  0.00     0.074 A 
ATOM     46  C   UNL A   1      38.287  33.358  34.205  1.00  0.00     0.031 C 
ATOM     47  C   UNL A   1      38.720  29.533  28.484  1.00  0.00     0.029 A 
ATOM     48  C   UNL A   1      39.734  29.272  29.501  1.00  0.00     0.049 A 
ATOM     49  H   UNL A   1      39.893  30.146  31.384  1.00  0.00     0.167 HD
ATOM     50  C   UNL A   1      40.265  32.246  35.204  1.00  0.00     0.037 A 
ATOM     51  C   UNL A   1      40.752  28.400  29.382  1.00  0.00     0.037 A 
ATOM     52  C   UNL A   1      41.324  31.271  35.206  1.00  0.00     0.049 A 
ATOM     53  C   UNL A   1      41.720  28.239  30.519  1.00  0.00     0.074 A 
ATOM     54  C   UNL A   1      42.232  30.987  36.211  1.00  0.00     0.029 A 
ATOM     55  N   UNL A   1      41.617  30.421  34.150  1.00  0.00    -0.354 N 
ATOM     56  N   UNL A   1      41.747  28.855  31.676  1.00  0.00    -0.248 NA
ATOM     57  C   UNL A   1      42.798  27.255  30.339  1.00  0.00     0.031 C 
ATOM     58  C   UNL A   1      43.099  29.991  35.749  1.00  0.00     0.029 A 
ATOM     59  C   UNL A   1      42.704  29.626  34.472  1.00  0.00     0.049 A 
ATOM     60  H   UNL A   1      41.125  30.389  33.298  1.00  0.00     0.167 HD
ATOM     61  C   UNL A   1      42.823  28.319  32.369  1.00  0.00     0.074 A 
ATOM     62  C   UNL A   1      43.418  27.317  31.508  1.00  0.00     0.031 C 
ATOM     63  C   UNL A   1      43.279  28.628  33.607  1.00  0.00     0.037 A 
BRANCH  50  64
ATOM     64  C   UNL A   1      40.130  33.149  36.395  1.00  0.00     0.057 A 
ATOM     65  C   UNL A   1      40.886  34.321  36.522  1.00  0.00     0.134 A 
ATOM     66  C   UNL A   1      39.206  32.863  37.408  1.00  0.00     0.134 A 
ATOM     67  F   UNL A   1      41.797  34.648  35.593  1.00  0.00    -0.206 F 
ATOM     68  C   UNL A   1      40.746  35.165  37.627  1.00  0.00     0.040 A 
ATOM     69  C   UNL A   1      39.038  33.711  38.504  1.00  0.00     0.040 A 
ATOM     70  F   UNL A   1      38.445  31.760  37.344  1.00  0.00    -0.206 F 
ATOM     71  C   UNL A   1      39.814  34.863  38.618  1.00  0.00     0.006 A 
ENDBRANCH  50  64
BRANCH  51  72
ATOM     72  C   UNL A   1      40.898  27.596  28.143  1.00  0.00     0.057 A 
ATOM     73  C   UNL A   1      41.644  28.073  27.059  1.00  0.00     0.134 A 
ATOM     74  C   UNL A   1      40.297  26.340  28.011  1.00  0.00     0.134 A 
ATOM     75  F   UNL A   1      42.228  29.279  27.121  1.00  0.00    -0.206 F 
ATOM     76  C   UNL A   1      41.772  27.338  25.880  1.00  0.00     0.040 A 
ATOM     77  C   UNL A   1      40.436  25.583  26.847  1.00  0.00     0.040 A 
ATOM     78  F   UNL A   1      39.577  25.824  29.017  1.00  0.00    -0.206 F 
ATOM     79  C   UNL A   1      41.170  26.086  25.774  1.00  0.00     0.006 A 
ENDBRANCH  51  72
BRANCH  63  80
ATOM     80  C   UNL A   1      44.457  27.853  34.116  1.00  0.00     0.057 A 
ATOM     81  C   UNL A   1      45.769  28.314  33.957  1.00  0.00     0.134 A 
ATOM     82  C   UNL A   1      44.271  26.647  34.804  1.00  0.00     0.134 A 
ATOM     83  F   UNL A   1      46.013  29.455  33.294  1.00  0.00    -0.206 F 
ATOM     84  C   UNL A   1      46.858  27.594  34.448  1.00  0.00     0.040 A 
ATOM     85  C   UNL A   1      45.352  25.930  35.322  1.00  0.00     0.040 A 
ATOM     86  F   UNL A   1      43.039  26.154  34.996  1.00  0.00    -0.206 F 
ATOM     87  C   UNL A   1      46.650  26.401  35.139  1.00  0.00     0.006 A 
ENDBRANCH  63  80
ENDBRANCH  37  38
ENDBRANCH  29  32
ENDBRANCH  27  28
ENDBRANCH  26  27
ENDBRANCH   1  26
TORSDOF 14
ENDMDL
MODEL 3
REMARK VINA RESULT:     -11.8      5.520      9.697
REMARK SMILES Cc1ccc(C(N)=O)c(NCc2ccc(C(=O)NCCCNC(=O)c3ccc(-c4c5nc(c(-c6c(F)cccc6F)c6ccc([nH]6)c(-c6c(F)cccc6F)c6nc(c(-c7c(F)cccc7F)c7ccc4[nH]7)C=C6)C=C5)cc3)o2)n1
REMARK SMILES IDX 19 1 18 2 16 3 17 4 15 6 12 7 13 8 79 9 14 10 11 11 10 12
REMARK SMILES IDX 9 14 1 15 2 16 3 17 80 18 4 19 5 20 6 21 7 22 8 23 20 26
REMARK SMILES IDX 21 27 22 28 23 29 24 31 25 32 26 33 78 34 27 35 77 36 28 37
REMARK SMILES IDX 29 38 30 39 71 40 31 41 76 42 70 43 72 44 32 45 75 46 69 47
REMARK SMILES IDX 68 48 33 50 59 51 42 52 58 53 43 54 46 55 57 56 73 57 44 58
REMARK SMILES IDX 45 59 56 61 74 62 47 63 34 64 35 65 40 66 36 67 37 68 39 69
REMARK SMILES IDX 41 70 38 71 60 72 61 73 66 74 62 75 63 76 65 77 67 78 64 79
REMARK SMILES IDX 48 80 49 81 54 82 50 83 51 84 53 85 55 86 52 87
REMARK H PARENT 18 5 10 13 7 24 7 25 22 30 72 49 46 60
REMARK Flexibility Score: inf
ROOT
ATOM      1  C   UNL A   1      37.418  20.805  24.582  1.00  0.00     0.118 C 
ENDROOT
BRANCH   1   2
ATOM      2  N   UNL A   1      38.013  22.049  25.024  1.00  0.00    -0.349 N 
ATOM      3  C   UNL A   1      37.446  23.183  25.561  1.00  0.00     0.286 C 
ATOM      4  O   UNL A   1      38.240  24.041  25.954  1.00  0.00    -0.266 OA
ATOM      5  H   UNL A   1      38.991  22.092  24.923  1.00  0.00     0.163 HD
BRANCH   3   6
ATOM      6  C   UNL A   1      36.005  23.333  25.664  1.00  0.00     0.191 A 
ATOM      7  C   UNL A   1      33.980  22.553  26.122  1.00  0.00     0.124 A 
ATOM      8  C   UNL A   1      33.810  23.856  25.711  1.00  0.00     0.048 A 
ATOM      9  O   UNL A   1      35.303  22.232  26.097  1.00  0.00    -0.454 OA
ATOM     10  C   UNL A   1      35.106  24.365  25.456  1.00  0.00     0.056 A 
BRANCH   7  11
ATOM     11  C   UNL A   1      33.043  21.490  26.592  1.00  0.00     0.190 C 
BRANCH  11  12
ATOM     12  N   UNL A   1      32.113  21.048  25.563  1.00  0.00    -0.362 N 
ATOM     13  H   UNL A   1      31.304  21.578  25.377  1.00  0.00     0.162 HD
BRANCH  12  14
ATOM     14  C   UNL A   1      32.355  19.889  24.842  1.00  0.00     0.139 A 
ATOM     15  C   UNL A   1      33.086  16.388  25.737  1.00  0.00     0.067 C 
ATOM     16  C   UNL A   1      32.813  17.592  24.889  1.00  0.00     0.040 A 
ATOM     17  C   UNL A   1      32.749  17.495  23.508  1.00  0.00     0.024 A 
ATOM     18  N   UNL A   1      32.637  18.766  25.544  1.00  0.00    -0.236 NA
ATOM     19  C   UNL A   1      32.495  18.650  22.778  1.00  0.00     0.019 A 
ATOM     20  C   UNL A   1      32.303  19.869  23.442  1.00  0.00     0.081 A 
BRANCH  20  21
ATOM     21  C   UNL A   1      32.095  21.072  22.590  1.00  0.00     0.252 C 
ATOM     22  N   UNL A   1      31.632  20.886  21.319  1.00  0.00    -0.365 N 
ATOM     23  O   UNL A   1      32.288  22.203  23.021  1.00  0.00    -0.269 OA
ATOM     24  H   UNL A   1      31.480  19.974  20.979  1.00  0.00     0.159 HD
ATOM     25  H   UNL A   1      31.452  21.663  20.742  1.00  0.00     0.159 HD
ENDBRANCH  20  21
ENDBRANCH  12  14
ENDBRANCH  11  12
ENDBRANCH   7  11
ENDBRANCH   3   6
ENDBRANCH   1   2
BRANCH   1  26
ATOM     26  C   UNL A   1      38.314  19.607  24.890  1.00  0.00     0.042 C 
BRANCH  26  27
ATOM     27  C   UNL A   1      39.265  19.847  26.062  1.00  0.00     0.118 C 
BRANCH  27  28
ATOM     28  N   UNL A   1      40.530  19.146  25.893  1.00  0.00    -0.352 N 
ATOM     29  C   UNL A   1      41.821  19.604  25.967  1.00  0.00     0.251 C 
ATOM     30  H   UNL A   1      40.445  18.185  25.694  1.00  0.00     0.163 HD
ATOM     31  O   UNL A   1      42.736  18.886  25.572  1.00  0.00    -0.269 OA
BRANCH  29  32
ATOM     32  C   UNL A   1      42.126  20.945  26.509  1.00  0.00     0.039 A 
ATOM     33  C   UNL A   1      42.466  21.967  25.616  1.00  0.00     0.014 A 
ATOM     34  C   UNL A   1      42.145  21.188  27.884  1.00  0.00     0.014 A 
ATOM     35  C   UNL A   1      42.773  23.242  26.098  1.00  0.00     0.010 A 
ATOM     36  C   UNL A   1      42.389  22.475  28.361  1.00  0.00     0.010 A 
ATOM     37  C   UNL A   1      42.710  23.514  27.473  1.00  0.00    -0.014 A 
BRANCH  37  38
ATOM     38  C   UNL A   1      42.973  24.875  28.002  1.00  0.00     0.031 A 
ATOM     39  C   UNL A   1      44.364  25.278  28.407  1.00  0.00     0.074 A 
ATOM     40  C   UNL A   1      41.946  25.728  28.181  1.00  0.00     0.049 A 
ATOM     41  N   UNL A   1      44.774  26.386  28.969  1.00  0.00    -0.248 NA
ATOM     42  C   UNL A   1      45.431  24.292  28.176  1.00  0.00     0.031 C 
ATOM     43  C   UNL A   1      40.544  25.442  27.867  1.00  0.00     0.029 A 
ATOM     44  N   UNL A   1      41.919  27.003  28.687  1.00  0.00    -0.354 N 
ATOM     45  C   UNL A   1      46.138  26.224  29.177  1.00  0.00     0.074 A 
ATOM     46  C   UNL A   1      46.479  24.894  28.718  1.00  0.00     0.031 C 
ATOM     47  C   UNL A   1      39.798  26.514  28.174  1.00  0.00     0.029 A 
ATOM     48  C   UNL A   1      40.659  27.548  28.739  1.00  0.00     0.049 A 
ATOM     49  H   UNL A   1      42.726  27.481  28.986  1.00  0.00     0.167 HD
ATOM     50  C   UNL A   1      47.027  27.108  29.689  1.00  0.00     0.037 A 
ATOM     51  C   UNL A   1      40.244  28.743  29.198  1.00  0.00     0.037 A 
ATOM     52  C   UNL A   1      46.690  28.442  30.113  1.00  0.00     0.049 A 
ATOM     53  C   UNL A   1      41.252  29.709  29.752  1.00  0.00     0.074 A 
ATOM     54  C   UNL A   1      47.534  29.438  30.578  1.00  0.00     0.029 A 
ATOM     55  N   UNL A   1      45.408  28.968  30.124  1.00  0.00    -0.354 N 
ATOM     56  N   UNL A   1      42.549  29.567  29.882  1.00  0.00    -0.248 NA
ATOM     57  C   UNL A   1      40.741  31.007  30.218  1.00  0.00     0.031 C 
ATOM     58  C   UNL A   1      46.755  30.552  30.905  1.00  0.00     0.029 A 
ATOM     59  C   UNL A   1      45.433  30.266  30.605  1.00  0.00     0.049 A 
ATOM     60  H   UNL A   1      44.598  28.488  29.832  1.00  0.00     0.167 HD
ATOM     61  C   UNL A   1      43.010  30.761  30.420  1.00  0.00     0.074 A 
ATOM     62  C   UNL A   1      41.857  31.622  30.580  1.00  0.00     0.031 C 
ATOM     63  C   UNL A   1      44.277  31.112  30.751  1.00  0.00     0.037 A 
BRANCH  50  64
ATOM     64  C   UNL A   1      48.454  26.662  29.817  1.00  0.00     0.057 A 
ATOM     65  C   UNL A   1      48.922  26.002  30.960  1.00  0.00     0.134 A 
ATOM     66  C   UNL A   1      49.362  26.862  28.769  1.00  0.00     0.134 A 
ATOM     67  F   UNL A   1      48.107  25.789  32.005  1.00  0.00    -0.206 F 
ATOM     68  C   UNL A   1      50.248  25.576  31.067  1.00  0.00     0.040 A 
ATOM     69  C   UNL A   1      50.684  26.419  28.853  1.00  0.00     0.040 A 
ATOM     70  F   UNL A   1      48.977  27.482  27.643  1.00  0.00    -0.206 F 
ATOM     71  C   UNL A   1      51.131  25.780  30.008  1.00  0.00     0.006 A 
ENDBRANCH  50  64
BRANCH  51  72
ATOM     72  C   UNL A   1      38.805  29.102  29.137  1.00  0.00     0.057 A 
ATOM     73  C   UNL A   1      38.233  29.578  27.953  1.00  0.00     0.134 A 
ATOM     74  C   UNL A   1      37.973  28.982  30.255  1.00  0.00     0.134 A 
ATOM     75  F   UNL A   1      38.985  29.731  26.853  1.00  0.00    -0.206 F 
ATOM     76  C   UNL A   1      36.886  29.941  27.885  1.00  0.00     0.040 A 
ATOM     77  C   UNL A   1      36.619  29.318  30.196  1.00  0.00     0.040 A 
ATOM     78  F   UNL A   1      38.460  28.523  31.417  1.00  0.00    -0.206 F 
ATOM     79  C   UNL A   1      36.075  29.806  29.010  1.00  0.00     0.006 A 
ENDBRANCH  51  72
BRANCH  63  80
ATOM     80  C   UNL A   1      44.484  32.497  31.289  1.00  0.00     0.057 A 
ATOM     81  C   UNL A   1      44.465  32.766  32.662  1.00  0.00     0.134 A 
ATOM     82  C   UNL A   1      44.741  33.566  30.420  1.00  0.00     0.134 A 
ATOM     83  F   UNL A   1      44.210  31.787  33.543  1.00  0.00    -0.206 F 
ATOM     84  C   UNL A   1      44.675  34.055  33.154  1.00  0.00     0.040 A 
ATOM     85  C   UNL A   1      44.977  34.854  30.902  1.00  0.00     0.040 A 
ATOM     86  F   UNL A   1      44.779  33.373  29.094  1.00  0.00    -0.206 F 
ATOM     87  C   UNL A   1      44.939  35.102  32.273  1.00  0.00     0.006 A 
ENDBRANCH  63  80
ENDBRANCH  37  38
ENDBRANCH  29  32
ENDBRANCH  27  28
ENDBRANCH  26  27
ENDBRANCH   1  26
TORSDOF 14
ENDMDL
