MODEL 1
REMARK VINA RESULT:     -12.2      0.000      0.000
REMARK SMILES Cc1cc(C)n2nc(SCC(=O)N3CCC(C(=O)NCCCNC(=O)c4ccc(-c5c6nc(c(-c7c(F)cccc7F)c7ccc([nH]7)c(-c7c(F)cccc7F)c7nc(c(-c8c(F)cccc8F)c8ccc5[nH]8)C=C7)C=C6)cc4)CC3)nc2n1
REMARK SMILES IDX 20 1 19 2 17 3 18 4 16 6 11 7 12 8 13 9 14 10 81 11 15 12
REMARK SMILES IDX 80 13 10 14 9 15 8 16 1 17 2 18 3 19 84 20 4 21 83 22 5 23
REMARK SMILES IDX 6 24 82 25 7 26 21 27 22 28 23 29 24 30 25 32 26 33 27 34
REMARK SMILES IDX 79 35 28 36 78 37 29 38 30 39 31 40 72 41 32 42 77 43 71 44
REMARK SMILES IDX 73 45 33 46 76 47 70 48 69 49 34 51 60 52 43 53 59 54 44 55
REMARK SMILES IDX 47 56 58 57 74 58 45 59 46 60 57 62 75 63 48 64 35 65 36 66
REMARK SMILES IDX 41 67 37 68 38 69 40 70 42 71 39 72 61 73 62 74 67 75 63 76
REMARK SMILES IDX 64 77 66 78 68 79 65 80 49 81 50 82 55 83 51 84 52 85 54 86
REMARK SMILES IDX 56 87 53 88
REMARK H PARENT 19 5 23 31 73 50 47 61
REMARK Flexibility Score: inf
ROOT
ATOM      1  C   UNL A   1      37.570  22.932  25.756  1.00  0.00     0.117 C 
ENDROOT
BRANCH   1   2
ATOM      2  N   UNL A   1      36.299  22.619  26.411  1.00  0.00    -0.356 N 
ATOM      3  C   UNL A   1      35.039  22.498  25.899  1.00  0.00     0.223 C 
ATOM      4  O   UNL A   1      34.132  22.165  26.664  1.00  0.00    -0.275 OA
ATOM      5  H   UNL A   1      36.365  22.471  27.383  1.00  0.00     0.163 HD
BRANCH   3   6
ATOM      6  C   UNL A   1      34.746  22.782  24.430  1.00  0.00     0.082 C 
ATOM      7  C   UNL A   1      31.518  24.617  23.209  1.00  0.00     0.233 C 
ATOM      8  O   UNL A   1      30.684  23.970  23.853  1.00  0.00    -0.274 OA
ATOM      9  N   UNL A   1      32.725  24.030  22.836  1.00  0.00    -0.342 N 
ATOM     10  C   UNL A   1      32.808  22.580  22.771  1.00  0.00     0.120 C 
ATOM     11  C   UNL A   1      34.027  24.681  22.857  1.00  0.00     0.120 C 
ATOM     12  C   UNL A   1      33.489  22.010  23.998  1.00  0.00     0.035 C 
ATOM     13  C   UNL A   1      34.780  24.295  24.130  1.00  0.00     0.035 C 
BRANCH   7  14
ATOM     14  C   UNL A   1      31.123  25.942  22.570  1.00  0.00     0.178 C 
BRANCH  14  15
ATOM     15  S   UNL A   1      30.041  27.025  23.495  1.00  0.00    -0.074 SA
BRANCH  15  16
ATOM     16  C   UNL A   1      31.090  27.876  24.582  1.00  0.00     0.211 A 
ATOM     17  C   UNL A   1      35.745  29.319  27.619  1.00  0.00     0.067 C 
ATOM     18  C   UNL A   1      34.384  29.280  26.973  1.00  0.00     0.043 A 
ATOM     19  C   UNL A   1      33.535  30.508  27.116  1.00  0.00     0.047 A 
ATOM     20  N   UNL A   1      34.046  28.211  26.316  1.00  0.00    -0.216 NA
ATOM     21  C   UNL A   1      32.349  30.494  26.482  1.00  0.00     0.045 A 
ATOM     22  C   UNL A   1      32.830  28.234  25.703  1.00  0.00     0.253 A 
ATOM     23  C   UNL A   1      31.406  31.656  26.502  1.00  0.00     0.067 C 
ATOM     24  N   UNL A   1      31.983  29.350  25.762  1.00  0.00    -0.200 N 
ATOM     25  N   UNL A   1      32.258  27.304  24.975  1.00  0.00    -0.183 NA
ATOM     26  N   UNL A   1      30.855  29.098  25.051  1.00  0.00    -0.138 NA
ENDBRANCH  15  16
ENDBRANCH  14  15
ENDBRANCH   7  14
ENDBRANCH   3   6
ENDBRANCH   1   2
BRANCH   1  27
ATOM     27  C   UNL A   1      38.599  21.802  25.808  1.00  0.00     0.042 C 
BRANCH  27  28
ATOM     28  C   UNL A   1      39.786  22.133  26.679  1.00  0.00     0.118 C 
BRANCH  28  29
ATOM     29  N   UNL A   1      41.075  22.170  25.972  1.00  0.00    -0.352 N 
ATOM     30  C   UNL A   1      41.956  23.248  25.858  1.00  0.00     0.251 C 
ATOM     31  H   UNL A   1      41.350  21.337  25.525  1.00  0.00     0.163 HD
ATOM     32  O   UNL A   1      42.836  23.271  25.025  1.00  0.00    -0.269 OA
BRANCH  30  33
ATOM     33  C   UNL A   1      41.775  24.352  26.826  1.00  0.00     0.039 A 
ATOM     34  C   UNL A   1      42.444  24.457  28.046  1.00  0.00     0.014 A 
ATOM     35  C   UNL A   1      40.984  25.388  26.369  1.00  0.00     0.014 A 
ATOM     36  C   UNL A   1      42.352  25.666  28.743  1.00  0.00     0.010 A 
ATOM     37  C   UNL A   1      41.244  26.637  26.831  1.00  0.00     0.010 A 
ATOM     38  C   UNL A   1      41.747  26.762  28.109  1.00  0.00    -0.014 A 
BRANCH  38  39
ATOM     39  C   UNL A   1      41.570  28.073  28.716  1.00  0.00     0.031 A 
ATOM     40  C   UNL A   1      42.575  29.098  28.355  1.00  0.00     0.074 A 
ATOM     41  C   UNL A   1      40.438  28.399  29.387  1.00  0.00     0.049 A 
ATOM     42  N   UNL A   1      43.473  29.621  29.119  1.00  0.00    -0.248 NA
ATOM     43  C   UNL A   1      42.666  29.518  26.949  1.00  0.00     0.031 C 
ATOM     44  C   UNL A   1      39.195  27.627  29.579  1.00  0.00     0.029 A 
ATOM     45  N   UNL A   1      40.130  29.577  29.984  1.00  0.00    -0.354 N 
ATOM     46  C   UNL A   1      44.127  30.576  28.349  1.00  0.00     0.074 A 
ATOM     47  C   UNL A   1      43.702  30.359  26.989  1.00  0.00     0.031 C 
ATOM     48  C   UNL A   1      38.210  28.436  30.023  1.00  0.00     0.029 A 
ATOM     49  C   UNL A   1      38.798  29.715  30.353  1.00  0.00     0.049 A 
ATOM     50  H   UNL A   1      40.801  30.280  30.145  1.00  0.00     0.167 HD
ATOM     51  C   UNL A   1      44.807  31.607  28.923  1.00  0.00     0.037 A 
ATOM     52  C   UNL A   1      38.227  30.815  30.895  1.00  0.00     0.037 A 
ATOM     53  C   UNL A   1      45.022  31.381  30.329  1.00  0.00     0.049 A 
ATOM     54  C   UNL A   1      39.328  31.623  31.476  1.00  0.00     0.074 A 
ATOM     55  C   UNL A   1      45.694  30.423  31.064  1.00  0.00     0.029 A 
ATOM     56  N   UNL A   1      44.164  31.988  31.216  1.00  0.00    -0.354 N 
ATOM     57  N   UNL A   1      40.048  31.236  32.494  1.00  0.00    -0.248 NA
ATOM     58  C   UNL A   1      39.937  32.631  30.624  1.00  0.00     0.031 C 
ATOM     59  C   UNL A   1      44.851  30.164  32.187  1.00  0.00     0.029 A 
ATOM     60  C   UNL A   1      43.755  31.024  32.105  1.00  0.00     0.049 A 
ATOM     61  H   UNL A   1      43.895  32.934  31.214  1.00  0.00     0.167 HD
ATOM     62  C   UNL A   1      41.342  31.631  32.185  1.00  0.00     0.074 A 
ATOM     63  C   UNL A   1      41.199  32.550  31.056  1.00  0.00     0.031 C 
ATOM     64  C   UNL A   1      42.427  30.961  32.677  1.00  0.00     0.037 A 
BRANCH  51  65
ATOM     65  C   UNL A   1      44.993  32.956  28.290  1.00  0.00     0.057 A 
ATOM     66  C   UNL A   1      43.898  33.827  28.166  1.00  0.00     0.134 A 
ATOM     67  C   UNL A   1      46.144  33.326  27.564  1.00  0.00     0.134 A 
ATOM     68  F   UNL A   1      42.739  33.566  28.789  1.00  0.00    -0.206 F 
ATOM     69  C   UNL A   1      43.932  34.960  27.343  1.00  0.00     0.040 A 
ATOM     70  C   UNL A   1      46.206  34.481  26.781  1.00  0.00     0.040 A 
ATOM     71  F   UNL A   1      47.225  32.538  27.495  1.00  0.00    -0.206 F 
ATOM     72  C   UNL A   1      45.088  35.289  26.646  1.00  0.00     0.006 A 
ENDBRANCH  51  65
BRANCH  52  73
ATOM     73  C   UNL A   1      36.892  31.381  30.601  1.00  0.00     0.057 A 
ATOM     74  C   UNL A   1      35.947  31.550  31.622  1.00  0.00     0.134 A 
ATOM     75  C   UNL A   1      36.626  32.050  29.393  1.00  0.00     0.134 A 
ATOM     76  F   UNL A   1      36.132  30.972  32.818  1.00  0.00    -0.206 F 
ATOM     77  C   UNL A   1      34.827  32.376  31.470  1.00  0.00     0.040 A 
ATOM     78  C   UNL A   1      35.508  32.875  29.226  1.00  0.00     0.040 A 
ATOM     79  F   UNL A   1      37.490  32.003  28.369  1.00  0.00    -0.206 F 
ATOM     80  C   UNL A   1      34.615  33.057  30.274  1.00  0.00     0.006 A 
ENDBRANCH  52  73
BRANCH  64  81
ATOM     81  C   UNL A   1      42.188  29.904  33.725  1.00  0.00     0.057 A 
ATOM     82  C   UNL A   1      41.995  28.542  33.437  1.00  0.00     0.134 A 
ATOM     83  C   UNL A   1      42.316  30.243  35.074  1.00  0.00     0.134 A 
ATOM     84  F   UNL A   1      41.958  28.100  32.178  1.00  0.00    -0.206 F 
ATOM     85  C   UNL A   1      41.897  27.575  34.443  1.00  0.00     0.040 A 
ATOM     86  C   UNL A   1      42.252  29.283  36.089  1.00  0.00     0.040 A 
ATOM     87  F   UNL A   1      42.561  31.514  35.429  1.00  0.00    -0.206 F 
ATOM     88  C   UNL A   1      42.032  27.944  35.776  1.00  0.00     0.006 A 
ENDBRANCH  64  81
ENDBRANCH  38  39
ENDBRANCH  30  33
ENDBRANCH  28  29
ENDBRANCH  27  28
ENDBRANCH   1  27
TORSDOF 13
ENDMDL
MODEL 2
REMARK VINA RESULT:     -12.1      1.415      2.121
REMARK SMILES Cc1cc(C)n2nc(SCC(=O)N3CCC(C(=O)NCCCNC(=O)c4ccc(-c5c6nc(c(-c7c(F)cccc7F)c7ccc([nH]7)c(-c7c(F)cccc7F)c7nc(c(-c8c(F)cccc8F)c8ccc5[nH]8)C=C7)C=C6)cc4)CC3)nc2n1
REMARK SMILES IDX 20 1 19 2 17 3 18 4 16 6 11 7 12 8 13 9 14 10 81 11 15 12
REMARK SMILES IDX 80 13 10 14 9 15 8 16 1 17 2 18 3 19 84 20 4 21 83 22 5 23
REMARK SMILES IDX 6 24 82 25 7 26 21 27 22 28 23 29 24 30 25 32 26 33 27 34
REMARK SMILES IDX 79 35 28 36 78 37 29 38 30 39 31 40 72 41 32 42 77 43 71 44
REMARK SMILES IDX 73 45 33 46 76 47 70 48 69 49 34 51 60 52 43 53 59 54 44 55
REMARK SMILES IDX 47 56 58 57 74 58 45 59 46 60 57 62 75 63 48 64 35 65 36 66
REMARK SMILES IDX 41 67 37 68 38 69 40 70 42 71 39 72 61 73 62 74 67 75 63 76
REMARK SMILES IDX 64 77 66 78 68 79 65 80 49 81 50 82 55 83 51 84 52 85 54 86
REMARK SMILES IDX 56 87 53 88
REMARK H PARENT 19 5 23 31 73 50 47 61
REMARK Flexibility Score: inf
ROOT
ATOM      1  C   UNL A   1      39.355  22.145  26.517  1.00  0.00     0.117 C 
ENDROOT
BRANCH   1   2
ATOM      2  N   UNL A   1      38.666  21.844  25.262  1.00  0.00    -0.356 N 
ATOM      3  C   UNL A   1      37.401  22.147  24.846  1.00  0.00     0.223 C 
ATOM      4  O   UNL A   1      37.074  21.825  23.702  1.00  0.00    -0.275 OA
ATOM      5  H   UNL A   1      39.203  21.338  24.611  1.00  0.00     0.163 HD
BRANCH   3   6
ATOM      6  C   UNL A   1      36.407  22.848  25.765  1.00  0.00     0.082 C 
ATOM      7  C   UNL A   1      32.566  22.984  25.056  1.00  0.00     0.233 C 
ATOM      8  O   UNL A   1      32.610  23.335  23.871  1.00  0.00    -0.274 OA
ATOM      9  N   UNL A   1      33.593  23.333  25.930  1.00  0.00    -0.342 N 
ATOM     10  C   UNL A   1      34.435  24.471  25.601  1.00  0.00     0.120 C 
ATOM     11  C   UNL A   1      34.163  22.471  26.955  1.00  0.00     0.120 C 
ATOM     12  C   UNL A   1      35.761  24.028  25.020  1.00  0.00     0.035 C 
ATOM     13  C   UNL A   1      35.457  21.839  26.443  1.00  0.00     0.035 C 
BRANCH   7  14
ATOM     14  C   UNL A   1      31.271  22.428  25.635  1.00  0.00     0.178 C 
BRANCH  14  15
ATOM     15  S   UNL A   1      30.271  23.517  26.641  1.00  0.00    -0.074 SA
BRANCH  15  16
ATOM     16  C   UNL A   1      30.543  25.099  25.987  1.00  0.00     0.211 A 
ATOM     17  C   UNL A   1      30.088  29.741  22.637  1.00  0.00     0.067 C 
ATOM     18  C   UNL A   1      30.455  28.758  23.719  1.00  0.00     0.043 A 
ATOM     19  C   UNL A   1      31.262  29.289  24.866  1.00  0.00     0.047 A 
ATOM     20  N   UNL A   1      30.031  27.535  23.608  1.00  0.00    -0.216 NA
ATOM     21  C   UNL A   1      31.530  28.425  25.862  1.00  0.00     0.045 A 
ATOM     22  C   UNL A   1      30.340  26.690  24.630  1.00  0.00     0.253 A 
ATOM     23  C   UNL A   1      32.295  28.813  27.087  1.00  0.00     0.067 C 
ATOM     24  N   UNL A   1      31.066  27.108  25.753  1.00  0.00    -0.200 N 
ATOM     25  N   UNL A   1      30.027  25.423  24.773  1.00  0.00    -0.183 NA
ATOM     26  N   UNL A   1      31.208  26.067  26.612  1.00  0.00    -0.138 NA
ENDBRANCH  15  16
ENDBRANCH  14  15
ENDBRANCH   7  14
ENDBRANCH   3   6
ENDBRANCH   1   2
BRANCH   1  27
ATOM     27  C   UNL A   1      40.403  21.107  26.924  1.00  0.00     0.042 C 
BRANCH  27  28
ATOM     28  C   UNL A   1      41.720  21.731  27.317  1.00  0.00     0.118 C 
BRANCH  28  29
ATOM     29  N   UNL A   1      42.572  22.130  26.186  1.00  0.00    -0.352 N 
ATOM     30  C   UNL A   1      42.863  23.425  25.751  1.00  0.00     0.251 C 
ATOM     31  H   UNL A   1      42.986  21.398  25.674  1.00  0.00     0.163 HD
ATOM     32  O   UNL A   1      43.328  23.643  24.654  1.00  0.00    -0.269 OA
BRANCH  30  33
ATOM     33  C   UNL A   1      42.597  24.518  26.712  1.00  0.00     0.039 A 
ATOM     34  C   UNL A   1      43.392  24.811  27.822  1.00  0.00     0.014 A 
ATOM     35  C   UNL A   1      41.559  25.355  26.353  1.00  0.00     0.014 A 
ATOM     36  C   UNL A   1      43.153  26.012  28.499  1.00  0.00     0.010 A 
ATOM     37  C   UNL A   1      41.622  26.651  26.747  1.00  0.00     0.010 A 
ATOM     38  C   UNL A   1      42.260  26.935  27.936  1.00  0.00    -0.014 A 
BRANCH  38  39
ATOM     39  C   UNL A   1      41.906  28.213  28.536  1.00  0.00     0.031 A 
ATOM     40  C   UNL A   1      42.842  29.332  28.280  1.00  0.00     0.074 A 
ATOM     41  C   UNL A   1      40.692  28.423  29.100  1.00  0.00     0.049 A 
ATOM     42  N   UNL A   1      43.613  29.921  29.130  1.00  0.00    -0.248 NA
ATOM     43  C   UNL A   1      43.024  29.783  26.893  1.00  0.00     0.031 C 
ATOM     44  C   UNL A   1      39.513  27.538  29.168  1.00  0.00     0.029 A 
ATOM     45  N   UNL A   1      40.222  29.558  29.676  1.00  0.00    -0.354 N 
ATOM     46  C   UNL A   1      44.244  30.945  28.434  1.00  0.00     0.074 A 
ATOM     47  C   UNL A   1      43.969  30.714  27.038  1.00  0.00     0.031 C 
ATOM     48  C   UNL A   1      38.420  28.246  29.524  1.00  0.00     0.029 A 
ATOM     49  C   UNL A   1      38.855  29.567  29.919  1.00  0.00     0.049 A 
ATOM     50  H   UNL A   1      40.808  30.316  29.906  1.00  0.00     0.167 HD
ATOM     51  C   UNL A   1      44.770  32.023  29.078  1.00  0.00     0.037 A 
ATOM     52  C   UNL A   1      38.136  30.601  30.416  1.00  0.00     0.037 A 
ATOM     53  C   UNL A   1      44.874  31.794  30.497  1.00  0.00     0.049 A 
ATOM     54  C   UNL A   1      39.100  31.495  31.105  1.00  0.00     0.074 A 
ATOM     55  C   UNL A   1      45.559  30.888  31.283  1.00  0.00     0.029 A 
ATOM     56  N   UNL A   1      43.885  32.304  31.304  1.00  0.00    -0.354 N 
ATOM     57  N   UNL A   1      39.755  31.158  32.183  1.00  0.00    -0.248 NA
ATOM     58  C   UNL A   1      39.689  32.569  30.323  1.00  0.00     0.031 C 
ATOM     59  C   UNL A   1      44.643  30.533  32.319  1.00  0.00     0.029 A 
ATOM     60  C   UNL A   1      43.485  31.291  32.142  1.00  0.00     0.049 A 
ATOM     61  H   UNL A   1      43.530  33.221  31.285  1.00  0.00     0.167 HD
ATOM     62  C   UNL A   1      41.030  31.674  32.000  1.00  0.00     0.074 A 
ATOM     63  C   UNL A   1      40.908  32.596  30.871  1.00  0.00     0.031 C 
ATOM     64  C   UNL A   1      42.122  31.098  32.586  1.00  0.00     0.037 A 
BRANCH  51  65
ATOM     65  C   UNL A   1      44.889  33.395  28.478  1.00  0.00     0.057 A 
ATOM     66  C   UNL A   1      43.735  34.167  28.265  1.00  0.00     0.134 A 
ATOM     67  C   UNL A   1      46.061  33.878  27.861  1.00  0.00     0.134 A 
ATOM     68  F   UNL A   1      42.553  33.793  28.779  1.00  0.00    -0.206 F 
ATOM     69  C   UNL A   1      43.739  35.312  27.460  1.00  0.00     0.040 A 
ATOM     70  C   UNL A   1      46.088  35.048  27.099  1.00  0.00     0.040 A 
ATOM     71  F   UNL A   1      47.210  33.191  27.882  1.00  0.00    -0.206 F 
ATOM     72  C   UNL A   1      44.918  35.755  26.872  1.00  0.00     0.006 A 
ENDBRANCH  51  65
BRANCH  52  73
ATOM     73  C   UNL A   1      36.788  31.048  30.002  1.00  0.00     0.057 A 
ATOM     74  C   UNL A   1      35.907  31.612  30.933  1.00  0.00     0.134 A 
ATOM     75  C   UNL A   1      36.452  31.220  28.647  1.00  0.00     0.134 A 
ATOM     76  F   UNL A   1      36.160  31.522  32.247  1.00  0.00    -0.206 F 
ATOM     77  C   UNL A   1      34.782  32.348  30.542  1.00  0.00     0.040 A 
ATOM     78  C   UNL A   1      35.329  31.949  28.243  1.00  0.00     0.040 A 
ATOM     79  F   UNL A   1      37.254  30.769  27.672  1.00  0.00    -0.206 F 
ATOM     80  C   UNL A   1      34.501  32.535  29.191  1.00  0.00     0.006 A 
ENDBRANCH  52  73
BRANCH  64  81
ATOM     81  C   UNL A   1      41.885  30.005  33.597  1.00  0.00     0.057 A 
ATOM     82  C   UNL A   1      41.843  28.637  33.280  1.00  0.00     0.134 A 
ATOM     83  C   UNL A   1      41.858  30.330  34.955  1.00  0.00     0.134 A 
ATOM     84  F   UNL A   1      41.961  28.215  32.018  1.00  0.00    -0.206 F 
ATOM     85  C   UNL A   1      41.742  27.646  34.263  1.00  0.00     0.040 A 
ATOM     86  C   UNL A   1      41.789  29.350  35.950  1.00  0.00     0.040 A 
ATOM     87  F   UNL A   1      41.953  31.611  35.344  1.00  0.00    -0.206 F 
ATOM     88  C   UNL A   1      41.721  28.002  35.606  1.00  0.00     0.006 A 
ENDBRANCH  64  81
ENDBRANCH  38  39
ENDBRANCH  30  33
ENDBRANCH  28  29
ENDBRANCH  27  28
ENDBRANCH   1  27
TORSDOF 13
ENDMDL
MODEL 3
REMARK VINA RESULT:     -11.8      2.807      8.202
REMARK SMILES Cc1cc(C)n2nc(SCC(=O)N3CCC(C(=O)NCCCNC(=O)c4ccc(-c5c6nc(c(-c7c(F)cccc7F)c7ccc([nH]7)c(-c7c(F)cccc7F)c7nc(c(-c8c(F)cccc8F)c8ccc5[nH]8)C=C7)C=C6)cc4)CC3)nc2n1
REMARK SMILES IDX 20 1 19 2 17 3 18 4 16 6 11 7 12 8 13 9 14 10 81 11 15 12
REMARK SMILES IDX 80 13 10 14 9 15 8 16 1 17 2 18 3 19 84 20 4 21 83 22 5 23
REMARK SMILES IDX 6 24 82 25 7 26 21 27 22 28 23 29 24 30 25 32 26 33 27 34
REMARK SMILES IDX 79 35 28 36 78 37 29 38 30 39 31 40 72 41 32 42 77 43 71 44
REMARK SMILES IDX 73 45 33 46 76 47 70 48 69 49 34 51 60 52 43 53 59 54 44 55
REMARK SMILES IDX 47 56 58 57 74 58 45 59 46 60 57 62 75 63 48 64 35 65 36 66
REMARK SMILES IDX 41 67 37 68 38 69 40 70 42 71 39 72 61 73 62 74 67 75 63 76
REMARK SMILES IDX 64 77 66 78 68 79 65 80 49 81 50 82 55 83 51 84 52 85 54 86
REMARK SMILES IDX 56 87 53 88
REMARK H PARENT 19 5 23 31 73 50 47 61
REMARK Flexibility Score: inf
ROOT
ATOM      1  C   UNL A   1      34.950  31.181  27.945  1.00  0.00     0.117 C 
ENDROOT
BRANCH   1   2
ATOM      2  N   UNL A   1      33.522  30.997  27.684  1.00  0.00    -0.356 N 
ATOM      3  C   UNL A   1      32.870  30.100  26.886  1.00  0.00     0.223 C 
ATOM      4  O   UNL A   1      31.638  30.115  26.883  1.00  0.00    -0.275 OA
ATOM      5  H   UNL A   1      32.934  31.625  28.163  1.00  0.00     0.163 HD
BRANCH   3   6
ATOM      6  C   UNL A   1      33.633  29.116  26.006  1.00  0.00     0.082 C 
ATOM      7  C   UNL A   1      31.892  26.266  23.976  1.00  0.00     0.233 C 
ATOM      8  O   UNL A   1      31.180  25.808  24.876  1.00  0.00    -0.274 OA
ATOM      9  N   UNL A   1      33.096  26.895  24.286  1.00  0.00    -0.342 N 
ATOM     10  C   UNL A   1      33.734  26.599  25.557  1.00  0.00     0.120 C 
ATOM     11  C   UNL A   1      33.613  28.098  23.649  1.00  0.00     0.120 C 
ATOM     12  C   UNL A   1      33.481  27.695  26.571  1.00  0.00     0.035 C 
ATOM     13  C   UNL A   1      33.301  29.319  24.513  1.00  0.00     0.035 C 
BRANCH   7  14
ATOM     14  C   UNL A   1      31.615  25.895  22.526  1.00  0.00     0.178 C 
BRANCH  14  15
ATOM     15  S   UNL A   1      32.877  24.993  21.637  1.00  0.00    -0.074 SA
BRANCH  15  16
ATOM     16  C   UNL A   1      33.239  23.629  22.644  1.00  0.00     0.211 A 
ATOM     17  C   UNL A   1      32.930  18.425  25.054  1.00  0.00     0.067 C 
ATOM     18  C   UNL A   1      33.344  19.813  24.638  1.00  0.00     0.043 A 
ATOM     19  C   UNL A   1      34.700  20.273  25.081  1.00  0.00     0.047 A 
ATOM     20  N   UNL A   1      32.523  20.506  23.906  1.00  0.00    -0.216 NA
ATOM     21  C   UNL A   1      35.093  21.487  24.651  1.00  0.00     0.045 A 
ATOM     22  C   UNL A   1      32.954  21.735  23.507  1.00  0.00     0.253 A 
ATOM     23  C   UNL A   1      36.430  22.069  24.980  1.00  0.00     0.067 C 
ATOM     24  N   UNL A   1      34.217  22.233  23.853  1.00  0.00    -0.200 N 
ATOM     25  N   UNL A   1      32.336  22.621  22.762  1.00  0.00    -0.183 NA
ATOM     26  N   UNL A   1      34.381  23.465  23.306  1.00  0.00    -0.138 NA
ENDBRANCH  15  16
ENDBRANCH  14  15
ENDBRANCH   7  14
ENDBRANCH   3   6
ENDBRANCH   1   2
BRANCH   1  27
ATOM     27  C   UNL A   1      35.428  32.629  27.832  1.00  0.00     0.042 C 
BRANCH  27  28
ATOM     28  C   UNL A   1      36.440  32.994  28.891  1.00  0.00     0.118 C 
BRANCH  28  29
ATOM     29  N   UNL A   1      35.869  33.250  30.222  1.00  0.00    -0.352 N 
ATOM     30  C   UNL A   1      35.869  32.398  31.330  1.00  0.00     0.251 C 
ATOM     31  H   UNL A   1      35.434  34.125  30.349  1.00  0.00     0.163 HD
ATOM     32  O   UNL A   1      35.132  32.576  32.274  1.00  0.00    -0.269 OA
BRANCH  30  33
ATOM     33  C   UNL A   1      36.838  31.280  31.300  1.00  0.00     0.039 A 
ATOM     34  C   UNL A   1      36.544  29.986  30.867  1.00  0.00     0.014 A 
ATOM     35  C   UNL A   1      38.137  31.641  31.600  1.00  0.00     0.014 A 
ATOM     36  C   UNL A   1      37.611  29.104  30.670  1.00  0.00     0.010 A 
ATOM     37  C   UNL A   1      39.141  30.936  31.023  1.00  0.00     0.010 A 
ATOM     38  C   UNL A   1      38.920  29.604  30.745  1.00  0.00    -0.014 A 
BRANCH  38  39
ATOM     39  C   UNL A   1      40.122  28.801  30.578  1.00  0.00     0.031 A 
ATOM     40  C   UNL A   1      40.898  28.529  31.810  1.00  0.00     0.074 A 
ATOM     41  C   UNL A   1      40.392  28.157  29.417  1.00  0.00     0.049 A 
ATOM     42  N   UNL A   1      42.066  28.981  32.117  1.00  0.00    -0.248 NA
ATOM     43  C   UNL A   1      40.258  27.746  32.877  1.00  0.00     0.031 C 
ATOM     44  C   UNL A   1      39.585  28.044  28.186  1.00  0.00     0.029 A 
ATOM     45  N   UNL A   1      41.456  27.367  29.126  1.00  0.00    -0.354 N 
ATOM     46  C   UNL A   1      42.399  28.395  33.333  1.00  0.00     0.074 A 
ATOM     47  C   UNL A   1      41.194  27.777  33.828  1.00  0.00     0.031 C 
ATOM     48  C   UNL A   1      40.069  27.057  27.402  1.00  0.00     0.029 A 
ATOM     49  C   UNL A   1      41.331  26.623  27.960  1.00  0.00     0.049 A 
ATOM     50  H   UNL A   1      42.257  27.326  29.698  1.00  0.00     0.167 HD
ATOM     51  C   UNL A   1      43.695  28.285  33.737  1.00  0.00     0.037 A 
ATOM     52  C   UNL A   1      42.215  25.712  27.492  1.00  0.00     0.037 A 
ATOM     53  C   UNL A   1      44.569  29.111  32.944  1.00  0.00     0.049 A 
ATOM     54  C   UNL A   1      43.516  26.012  28.139  1.00  0.00     0.074 A 
ATOM     55  C   UNL A   1      44.672  30.469  32.714  1.00  0.00     0.029 A 
ATOM     56  N   UNL A   1      45.263  28.512  31.919  1.00  0.00    -0.354 N 
ATOM     57  N   UNL A   1      44.199  27.102  27.916  1.00  0.00    -0.248 NA
ATOM     58  C   UNL A   1      43.813  25.330  29.388  1.00  0.00     0.031 C 
ATOM     59  C   UNL A   1      44.964  30.585  31.321  1.00  0.00     0.029 A 
ATOM     60  C   UNL A   1      45.089  29.295  30.803  1.00  0.00     0.049 A 
ATOM     61  H   UNL A   1      45.785  27.680  31.974  1.00  0.00     0.167 HD
ATOM     62  C   UNL A   1      44.699  27.468  29.158  1.00  0.00     0.074 A 
ATOM     63  C   UNL A   1      44.490  26.299  30.011  1.00  0.00     0.031 C 
ATOM     64  C   UNL A   1      44.971  28.773  29.459  1.00  0.00     0.037 A 
BRANCH  51  65
ATOM     65  C   UNL A   1      44.215  27.194  34.631  1.00  0.00     0.057 A 
ATOM     66  C   UNL A   1      44.902  27.526  35.810  1.00  0.00     0.134 A 
ATOM     67  C   UNL A   1      44.295  25.841  34.245  1.00  0.00     0.134 A 
ATOM     68  F   UNL A   1      44.920  28.789  36.263  1.00  0.00    -0.206 F 
ATOM     69  C   UNL A   1      45.651  26.587  36.529  1.00  0.00     0.040 A 
ATOM     70  C   UNL A   1      44.996  24.885  34.983  1.00  0.00     0.040 A 
ATOM     71  F   UNL A   1      43.786  25.400  33.087  1.00  0.00    -0.206 F 
ATOM     72  C   UNL A   1      45.701  25.261  36.115  1.00  0.00     0.006 A 
ENDBRANCH  51  65
BRANCH  52  73
ATOM     73  C   UNL A   1      41.922  24.408  26.857  1.00  0.00     0.057 A 
ATOM     74  C   UNL A   1      42.699  23.945  25.788  1.00  0.00     0.134 A 
ATOM     75  C   UNL A   1      41.086  23.460  27.473  1.00  0.00     0.134 A 
ATOM     76  F   UNL A   1      43.546  24.771  25.158  1.00  0.00    -0.206 F 
ATOM     77  C   UNL A   1      42.686  22.604  25.385  1.00  0.00     0.040 A 
ATOM     78  C   UNL A   1      41.060  22.118  27.078  1.00  0.00     0.040 A 
ATOM     79  F   UNL A   1      40.340  23.782  28.540  1.00  0.00    -0.206 F 
ATOM     80  C   UNL A   1      41.878  21.681  26.044  1.00  0.00     0.006 A 
ENDBRANCH  52  73
BRANCH  64  81
ATOM     81  C   UNL A   1      44.903  29.783  28.342  1.00  0.00     0.057 A 
ATOM     82  C   UNL A   1      43.758  30.537  28.033  1.00  0.00     0.134 A 
ATOM     83  C   UNL A   1      46.074  30.123  27.660  1.00  0.00     0.134 A 
ATOM     84  F   UNL A   1      42.613  30.360  28.697  1.00  0.00    -0.206 F 
ATOM     85  C   UNL A   1      43.771  31.551  27.069  1.00  0.00     0.040 A 
ATOM     86  C   UNL A   1      46.110  31.154  26.716  1.00  0.00     0.040 A 
ATOM     87  F   UNL A   1      47.224  29.490  27.939  1.00  0.00    -0.206 F 
ATOM     88  C   UNL A   1      44.953  31.867  26.410  1.00  0.00     0.006 A 
ENDBRANCH  64  81
ENDBRANCH  38  39
ENDBRANCH  30  33
ENDBRANCH  28  29
ENDBRANCH  27  28
ENDBRANCH   1  27
TORSDOF 13
ENDMDL
