MODEL 1
REMARK VINA RESULT:     -10.5      0.000      0.000
REMARK SMILES Nc1nnc(S[C@H](F)C(=O)NCCCNC(=O)c2ccc(-c3c4nc(c(-c5c(F)cccc5F)c5ccc([nH]5)c(-c5c(F)cccc5F)c5nc(c(-c6c(F)cccc6F)c6ccc3[nH]6)C=C5)C=C4)cc2)s1
REMARK SMILES IDX 12 1 11 2 9 3 10 4 7 6 8 7 6 8 5 9 2 10 3 11 72 12 4 13 1 14
REMARK SMILES IDX 13 17 14 18 15 19 16 20 17 22 18 23 19 24 71 25 20 26 70 27
REMARK SMILES IDX 21 28 22 29 23 30 64 31 24 32 69 33 63 34 65 35 25 36 68 37
REMARK SMILES IDX 62 38 61 39 26 41 52 42 35 43 51 44 36 45 39 46 50 47 66 48
REMARK SMILES IDX 37 49 38 50 49 52 67 53 40 54 27 55 28 56 33 57 29 58 30 59
REMARK SMILES IDX 32 60 34 61 31 62 53 63 54 64 59 65 55 66 56 67 58 68 60 69
REMARK SMILES IDX 57 70 41 71 42 72 47 73 43 74 44 75 46 76 48 77 45 78
REMARK H PARENT 11 5 1 15 1 16 15 21 65 40 39 51
REMARK Flexibility Score: inf
ROOT
ATOM      1  C   UNL A   1      31.225  30.663  25.453  1.00  0.00     0.118 C 
ENDROOT
BRANCH   1   2
ATOM      2  N   UNL A   1      32.354  29.863  25.883  1.00  0.00    -0.353 N 
ATOM      3  C   UNL A   1      33.215  29.110  25.135  1.00  0.00     0.265 C 
ATOM      4  O   UNL A   1      34.056  28.439  25.744  1.00  0.00    -0.271 OA
ATOM      5  H   UNL A   1      32.526  29.861  26.852  1.00  0.00     0.163 HD
BRANCH   3   6
ATOM      6  C   UNL A   1      33.103  29.044  23.613  1.00  0.00     0.320 C 
ATOM      7  F   UNL A   1      34.350  29.055  23.043  1.00  0.00    -0.224 F 
BRANCH   6   8
ATOM      8  S   UNL A   1      32.194  27.645  22.909  1.00  0.00    -0.046 SA
BRANCH   8   9
ATOM      9  C   UNL A   1      30.562  28.200  22.676  1.00  0.00     0.179 A 
ATOM     10  C   UNL A   1      28.223  28.629  22.745  1.00  0.00     0.203 A 
ATOM     11  N   UNL A   1      28.870  29.483  21.983  1.00  0.00    -0.120 NA
ATOM     12  S   UNL A   1      29.237  27.448  23.466  1.00  0.00    -0.069 S 
ATOM     13  N   UNL A   1      30.223  29.215  21.919  1.00  0.00    -0.130 NA
BRANCH  10  14
ATOM     14  N   UNL A   1      26.902  28.652  22.966  1.00  0.00    -0.374 N 
ATOM     15  H   UNL A   1      26.373  27.827  22.871  1.00  0.00     0.159 HD
ATOM     16  H   UNL A   1      26.460  29.494  23.223  1.00  0.00     0.159 HD
ENDBRANCH  10  14
ENDBRANCH   8   9
ENDBRANCH   6   8
ENDBRANCH   3   6
ENDBRANCH   1   2
BRANCH   1  17
ATOM     17  C   UNL A   1      31.092  31.944  26.262  1.00  0.00     0.042 C 
BRANCH  17  18
ATOM     18  C   UNL A   1      32.384  32.415  26.916  1.00  0.00     0.118 C 
BRANCH  18  19
ATOM     19  N   UNL A   1      32.323  33.792  27.382  1.00  0.00    -0.352 N 
ATOM     20  C   UNL A   1      33.083  34.432  28.330  1.00  0.00     0.251 C 
ATOM     21  H   UNL A   1      31.634  34.350  26.952  1.00  0.00     0.163 HD
ATOM     22  O   UNL A   1      32.776  35.566  28.696  1.00  0.00    -0.269 OA
BRANCH  20  23
ATOM     23  C   UNL A   1      34.254  33.759  28.932  1.00  0.00     0.039 A 
ATOM     24  C   UNL A   1      35.533  34.247  28.653  1.00  0.00     0.014 A 
ATOM     25  C   UNL A   1      34.101  32.639  29.755  1.00  0.00     0.014 A 
ATOM     26  C   UNL A   1      36.649  33.648  29.241  1.00  0.00     0.010 A 
ATOM     27  C   UNL A   1      35.202  32.106  30.415  1.00  0.00     0.010 A 
ATOM     28  C   UNL A   1      36.491  32.590  30.149  1.00  0.00    -0.014 A 
BRANCH  28  29
ATOM     29  C   UNL A   1      37.663  31.952  30.802  1.00  0.00     0.031 A 
ATOM     30  C   UNL A   1      38.421  30.863  30.092  1.00  0.00     0.074 A 
ATOM     31  C   UNL A   1      38.008  32.301  32.055  1.00  0.00     0.049 A 
ATOM     32  N   UNL A   1      39.433  30.147  30.513  1.00  0.00    -0.248 NA
ATOM     33  C   UNL A   1      37.956  30.507  28.742  1.00  0.00     0.031 C 
ATOM     34  C   UNL A   1      37.316  33.296  32.878  1.00  0.00     0.029 A 
ATOM     35  N   UNL A   1      39.021  31.848  32.862  1.00  0.00    -0.354 N 
ATOM     36  C   UNL A   1      39.710  29.248  29.491  1.00  0.00     0.074 A 
ATOM     37  C   UNL A   1      38.716  29.461  28.461  1.00  0.00     0.031 C 
ATOM     38  C   UNL A   1      37.937  33.391  34.064  1.00  0.00     0.029 A 
ATOM     39  C   UNL A   1      39.049  32.445  34.098  1.00  0.00     0.049 A 
ATOM     40  H   UNL A   1      39.667  31.161  32.580  1.00  0.00     0.167 HD
ATOM     41  C   UNL A   1      40.716  28.345  29.401  1.00  0.00     0.037 A 
ATOM     42  C   UNL A   1      39.875  32.251  35.144  1.00  0.00     0.037 A 
ATOM     43  C   UNL A   1      41.715  28.148  30.417  1.00  0.00     0.049 A 
ATOM     44  C   UNL A   1      40.999  31.261  35.020  1.00  0.00     0.074 A 
ATOM     45  C   UNL A   1      42.812  27.306  30.400  1.00  0.00     0.029 A 
ATOM     46  N   UNL A   1      41.733  28.803  31.642  1.00  0.00    -0.354 N 
ATOM     47  N   UNL A   1      41.297  30.472  34.016  1.00  0.00    -0.248 NA
ATOM     48  C   UNL A   1      41.909  31.147  36.167  1.00  0.00     0.031 C 
ATOM     49  C   UNL A   1      43.467  27.415  31.632  1.00  0.00     0.029 A 
ATOM     50  C   UNL A   1      42.811  28.368  32.395  1.00  0.00     0.049 A 
ATOM     51  H   UNL A   1      41.077  29.476  31.932  1.00  0.00     0.167 HD
ATOM     52  C   UNL A   1      42.444  29.787  34.398  1.00  0.00     0.074 A 
ATOM     53  C   UNL A   1      42.792  30.264  35.721  1.00  0.00     0.031 C 
ATOM     54  C   UNL A   1      43.146  28.851  33.713  1.00  0.00     0.037 A 
BRANCH  41  55
ATOM     55  C   UNL A   1      40.770  27.505  28.156  1.00  0.00     0.057 A 
ATOM     56  C   UNL A   1      40.137  26.256  28.074  1.00  0.00     0.134 A 
ATOM     57  C   UNL A   1      41.478  27.940  27.028  1.00  0.00     0.134 A 
ATOM     58  F   UNL A   1      39.452  25.772  29.121  1.00  0.00    -0.206 F 
ATOM     59  C   UNL A   1      40.246  25.452  26.938  1.00  0.00     0.040 A 
ATOM     60  C   UNL A   1      41.566  27.159  25.874  1.00  0.00     0.040 A 
ATOM     61  F   UNL A   1      42.101  29.127  27.031  1.00  0.00    -0.206 F 
ATOM     62  C   UNL A   1      40.961  25.905  25.833  1.00  0.00     0.006 A 
ENDBRANCH  41  55
BRANCH  42  63
ATOM     63  C   UNL A   1      39.683  33.045  36.382  1.00  0.00     0.057 A 
ATOM     64  C   UNL A   1      40.370  34.247  36.584  1.00  0.00     0.134 A 
ATOM     65  C   UNL A   1      38.784  32.639  37.377  1.00  0.00     0.134 A 
ATOM     66  F   UNL A   1      41.255  34.680  35.675  1.00  0.00    -0.206 F 
ATOM     67  C   UNL A   1      40.178  35.014  37.735  1.00  0.00     0.040 A 
ATOM     68  C   UNL A   1      38.566  33.407  38.521  1.00  0.00     0.040 A 
ATOM     69  F   UNL A   1      38.089  31.502  37.236  1.00  0.00    -0.206 F 
ATOM     70  C   UNL A   1      39.266  34.597  38.704  1.00  0.00     0.006 A 
ENDBRANCH  42  63
BRANCH  54  71
ATOM     71  C   UNL A   1      44.383  28.305  34.366  1.00  0.00     0.057 A 
ATOM     72  C   UNL A   1      44.362  27.145  35.150  1.00  0.00     0.134 A 
ATOM     73  C   UNL A   1      45.621  28.933  34.178  1.00  0.00     0.134 A 
ATOM     74  F   UNL A   1      43.207  26.501  35.380  1.00  0.00    -0.206 F 
ATOM     75  C   UNL A   1      45.521  26.644  35.745  1.00  0.00     0.040 A 
ATOM     76  C   UNL A   1      46.792  28.427  34.743  1.00  0.00     0.040 A 
ATOM     77  F   UNL A   1      45.716  30.045  33.431  1.00  0.00    -0.206 F 
ATOM     78  C   UNL A   1      46.742  27.283  35.537  1.00  0.00     0.006 A 
ENDBRANCH  54  71
ENDBRANCH  28  29
ENDBRANCH  20  23
ENDBRANCH  18  19
ENDBRANCH  17  18
ENDBRANCH   1  17
TORSDOF 13
ENDMDL
MODEL 2
REMARK VINA RESULT:     -10.4      5.909     10.518
REMARK SMILES Nc1nnc(S[C@H](F)C(=O)NCCCNC(=O)c2ccc(-c3c4nc(c(-c5c(F)cccc5F)c5ccc([nH]5)c(-c5c(F)cccc5F)c5nc(c(-c6c(F)cccc6F)c6ccc3[nH]6)C=C5)C=C4)cc2)s1
REMARK SMILES IDX 12 1 11 2 9 3 10 4 7 6 8 7 6 8 5 9 2 10 3 11 72 12 4 13 1 14
REMARK SMILES IDX 13 17 14 18 15 19 16 20 17 22 18 23 19 24 71 25 20 26 70 27
REMARK SMILES IDX 21 28 22 29 23 30 64 31 24 32 69 33 63 34 65 35 25 36 68 37
REMARK SMILES IDX 62 38 61 39 26 41 52 42 35 43 51 44 36 45 39 46 50 47 66 48
REMARK SMILES IDX 37 49 38 50 49 52 67 53 40 54 27 55 28 56 33 57 29 58 30 59
REMARK SMILES IDX 32 60 34 61 31 62 53 63 54 64 59 65 55 66 56 67 58 68 60 69
REMARK SMILES IDX 57 70 41 71 42 72 47 73 43 74 44 75 46 76 48 77 45 78
REMARK H PARENT 11 5 1 15 1 16 15 21 65 40 39 51
REMARK Flexibility Score: inf
ROOT
ATOM      1  C   UNL A   1      36.777  20.548  24.829  1.00  0.00     0.118 C 
ENDROOT
BRANCH   1   2
ATOM      2  N   UNL A   1      35.460  19.976  25.029  1.00  0.00    -0.353 N 
ATOM      3  C   UNL A   1      34.238  20.584  24.980  1.00  0.00     0.265 C 
ATOM      4  O   UNL A   1      33.252  19.899  25.276  1.00  0.00    -0.271 OA
ATOM      5  H   UNL A   1      35.444  19.013  25.229  1.00  0.00     0.163 HD
BRANCH   3   6
ATOM      6  C   UNL A   1      34.096  22.067  24.641  1.00  0.00     0.320 C 
ATOM      7  F   UNL A   1      32.927  22.290  23.961  1.00  0.00    -0.224 F 
BRANCH   6   8
ATOM      8  S   UNL A   1      34.157  23.241  26.019  1.00  0.00    -0.046 SA
BRANCH   8   9
ATOM      9  C   UNL A   1      32.505  23.635  26.390  1.00  0.00     0.179 A 
ATOM     10  C   UNL A   1      30.297  24.514  26.505  1.00  0.00     0.203 A 
ATOM     11  N   UNL A   1      30.452  23.442  27.250  1.00  0.00    -0.120 NA
ATOM     12  S   UNL A   1      31.720  24.982  25.669  1.00  0.00    -0.069 S 
ATOM     13  N   UNL A   1      31.742  22.951  27.207  1.00  0.00    -0.130 NA
BRANCH  10  14
ATOM     14  N   UNL A   1      29.152  25.198  26.381  1.00  0.00    -0.374 N 
ATOM     15  H   UNL A   1      28.745  25.622  27.170  1.00  0.00     0.159 HD
ATOM     16  H   UNL A   1      28.718  25.276  25.500  1.00  0.00     0.159 HD
ENDBRANCH  10  14
ENDBRANCH   8   9
ENDBRANCH   6   8
ENDBRANCH   3   6
ENDBRANCH   1   2
BRANCH   1  17
ATOM     17  C   UNL A   1      37.880  19.515  25.002  1.00  0.00     0.042 C 
BRANCH  17  18
ATOM     18  C   UNL A   1      39.126  20.034  25.706  1.00  0.00     0.118 C 
BRANCH  18  19
ATOM     19  N   UNL A   1      40.175  19.033  25.830  1.00  0.00    -0.352 N 
ATOM     20  C   UNL A   1      41.517  19.194  26.073  1.00  0.00     0.251 C 
ATOM     21  H   UNL A   1      39.878  18.100  25.723  1.00  0.00     0.163 HD
ATOM     22  O   UNL A   1      42.273  18.226  25.989  1.00  0.00    -0.269 OA
BRANCH  20  23
ATOM     23  C   UNL A   1      42.064  20.525  26.412  1.00  0.00     0.039 A 
ATOM     24  C   UNL A   1      42.465  21.376  25.378  1.00  0.00     0.014 A 
ATOM     25  C   UNL A   1      42.201  20.933  27.742  1.00  0.00     0.014 A 
ATOM     26  C   UNL A   1      42.951  22.651  25.676  1.00  0.00     0.010 A 
ATOM     27  C   UNL A   1      42.592  22.236  28.032  1.00  0.00     0.010 A 
ATOM     28  C   UNL A   1      42.992  23.102  27.004  1.00  0.00    -0.014 A 
BRANCH  28  29
ATOM     29  C   UNL A   1      43.485  24.462  27.342  1.00  0.00     0.031 A 
ATOM     30  C   UNL A   1      42.516  25.528  27.779  1.00  0.00     0.074 A 
ATOM     31  C   UNL A   1      44.789  24.761  27.195  1.00  0.00     0.049 A 
ATOM     32  N   UNL A   1      42.740  26.786  28.064  1.00  0.00    -0.248 NA
ATOM     33  C   UNL A   1      41.101  25.135  27.873  1.00  0.00     0.031 C 
ATOM     34  C   UNL A   1      45.820  23.838  26.718  1.00  0.00     0.029 A 
ATOM     35  N   UNL A   1      45.468  25.932  27.421  1.00  0.00    -0.354 N 
ATOM     36  C   UNL A   1      41.496  27.335  28.350  1.00  0.00     0.074 A 
ATOM     37  C   UNL A   1      40.516  26.293  28.136  1.00  0.00     0.031 C 
ATOM     38  C   UNL A   1      47.003  24.472  26.705  1.00  0.00     0.029 A 
ATOM     39  C   UNL A   1      46.810  25.852  27.143  1.00  0.00     0.049 A 
ATOM     40  H   UNL A   1      45.033  26.751  27.752  1.00  0.00     0.167 HD
ATOM     41  C   UNL A   1      41.196  28.584  28.780  1.00  0.00     0.037 A 
ATOM     42  C   UNL A   1      47.776  26.785  27.227  1.00  0.00     0.037 A 
ATOM     43  C   UNL A   1      42.175  29.613  29.012  1.00  0.00     0.049 A 
ATOM     44  C   UNL A   1      47.431  28.160  27.727  1.00  0.00     0.074 A 
ATOM     45  C   UNL A   1      41.985  30.891  29.506  1.00  0.00     0.029 A 
ATOM     46  N   UNL A   1      43.533  29.481  28.757  1.00  0.00    -0.354 N 
ATOM     47  N   UNL A   1      46.261  28.644  28.070  1.00  0.00    -0.248 NA
ATOM     48  C   UNL A   1      48.541  29.112  27.865  1.00  0.00     0.031 C 
ATOM     49  C   UNL A   1      43.221  31.548  29.506  1.00  0.00     0.029 A 
ATOM     50  C   UNL A   1      44.190  30.661  29.065  1.00  0.00     0.049 A 
ATOM     51  H   UNL A   1      43.966  28.668  28.408  1.00  0.00     0.167 HD
ATOM     52  C   UNL A   1      46.497  29.947  28.490  1.00  0.00     0.074 A 
ATOM     53  C   UNL A   1      47.923  30.172  28.370  1.00  0.00     0.031 C 
ATOM     54  C   UNL A   1      45.612  30.871  28.939  1.00  0.00     0.037 A 
BRANCH  41  55
ATOM     55  C   UNL A   1      39.745  28.893  29.020  1.00  0.00     0.057 A 
ATOM     56  C   UNL A   1      39.153  28.749  30.283  1.00  0.00     0.134 A 
ATOM     57  C   UNL A   1      38.922  29.325  27.971  1.00  0.00     0.134 A 
ATOM     58  F   UNL A   1      39.880  28.327  31.330  1.00  0.00    -0.206 F 
ATOM     59  C   UNL A   1      37.791  28.975  30.484  1.00  0.00     0.040 A 
ATOM     60  C   UNL A   1      37.565  29.587  28.168  1.00  0.00     0.040 A 
ATOM     61  F   UNL A   1      39.421  29.494  26.739  1.00  0.00    -0.206 F 
ATOM     62  C   UNL A   1      36.993  29.398  29.425  1.00  0.00     0.006 A 
ENDBRANCH  41  55
BRANCH  42  63
ATOM     63  C   UNL A   1      49.169  26.428  26.863  1.00  0.00     0.057 A 
ATOM     64  C   UNL A   1      49.653  26.637  25.565  1.00  0.00     0.134 A 
ATOM     65  C   UNL A   1      50.060  25.903  27.807  1.00  0.00     0.134 A 
ATOM     66  F   UNL A   1      48.844  27.122  24.614  1.00  0.00    -0.206 F 
ATOM     67  C   UNL A   1      50.969  26.328  25.218  1.00  0.00     0.040 A 
ATOM     68  C   UNL A   1      51.384  25.612  27.479  1.00  0.00     0.040 A 
ATOM     69  F   UNL A   1      49.659  25.691  29.069  1.00  0.00    -0.206 F 
ATOM     70  C   UNL A   1      51.841  25.821  26.180  1.00  0.00     0.006 A 
ENDBRANCH  42  63
BRANCH  54  71
ATOM     71  C   UNL A   1      46.164  32.200  29.368  1.00  0.00     0.057 A 
ATOM     72  C   UNL A   1      46.604  32.435  30.677  1.00  0.00     0.134 A 
ATOM     73  C   UNL A   1      46.289  33.249  28.448  1.00  0.00     0.134 A 
ATOM     74  F   UNL A   1      46.501  31.477  31.611  1.00  0.00    -0.206 F 
ATOM     75  C   UNL A   1      47.123  33.672  31.062  1.00  0.00     0.040 A 
ATOM     76  C   UNL A   1      46.832  34.481  28.813  1.00  0.00     0.040 A 
ATOM     77  F   UNL A   1      45.895  33.089  27.175  1.00  0.00    -0.206 F 
ATOM     78  C   UNL A   1      47.244  34.698  30.126  1.00  0.00     0.006 A 
ENDBRANCH  54  71
ENDBRANCH  28  29
ENDBRANCH  20  23
ENDBRANCH  18  19
ENDBRANCH  17  18
ENDBRANCH   1  17
TORSDOF 13
ENDMDL
MODEL 3
REMARK VINA RESULT:     -10.4      5.610     10.247
REMARK SMILES Nc1nnc(S[C@H](F)C(=O)NCCCNC(=O)c2ccc(-c3c4nc(c(-c5c(F)cccc5F)c5ccc([nH]5)c(-c5c(F)cccc5F)c5nc(c(-c6c(F)cccc6F)c6ccc3[nH]6)C=C5)C=C4)cc2)s1
REMARK SMILES IDX 12 1 11 2 9 3 10 4 7 6 8 7 6 8 5 9 2 10 3 11 72 12 4 13 1 14
REMARK SMILES IDX 13 17 14 18 15 19 16 20 17 22 18 23 19 24 71 25 20 26 70 27
REMARK SMILES IDX 21 28 22 29 23 30 64 31 24 32 69 33 63 34 65 35 25 36 68 37
REMARK SMILES IDX 62 38 61 39 26 41 52 42 35 43 51 44 36 45 39 46 50 47 66 48
REMARK SMILES IDX 37 49 38 50 49 52 67 53 40 54 27 55 28 56 33 57 29 58 30 59
REMARK SMILES IDX 32 60 34 61 31 62 53 63 54 64 59 65 55 66 56 67 58 68 60 69
REMARK SMILES IDX 57 70 41 71 42 72 47 73 43 74 44 75 46 76 48 77 45 78
REMARK H PARENT 11 5 1 15 1 16 15 21 65 40 39 51
REMARK Flexibility Score: inf
ROOT
ATOM      1  C   UNL A   1      36.615  20.698  24.853  1.00  0.00     0.118 C 
ENDROOT
BRANCH   1   2
ATOM      2  N   UNL A   1      35.389  20.087  25.327  1.00  0.00    -0.353 N 
ATOM      3  C   UNL A   1      34.093  20.429  25.060  1.00  0.00     0.265 C 
ATOM      4  O   UNL A   1      33.209  19.806  25.659  1.00  0.00    -0.271 OA
ATOM      5  H   UNL A   1      35.507  19.315  25.927  1.00  0.00     0.163 HD
BRANCH   3   6
ATOM      6  C   UNL A   1      33.749  21.578  24.115  1.00  0.00     0.320 C 
ATOM      7  F   UNL A   1      32.550  21.339  23.493  1.00  0.00    -0.224 F 
BRANCH   6   8
ATOM      8  S   UNL A   1      33.673  23.241  24.827  1.00  0.00    -0.046 SA
BRANCH   8   9
ATOM      9  C   UNL A   1      33.315  24.315  23.506  1.00  0.00     0.179 A 
ATOM     10  C   UNL A   1      32.369  25.837  21.942  1.00  0.00     0.203 A 
ATOM     11  N   UNL A   1      33.653  25.642  21.741  1.00  0.00    -0.120 NA
ATOM     12  S   UNL A   1      31.736  24.940  23.261  1.00  0.00    -0.069 S 
ATOM     13  N   UNL A   1      34.195  24.735  22.630  1.00  0.00    -0.130 NA
BRANCH  10  14
ATOM     14  N   UNL A   1      31.597  26.653  21.212  1.00  0.00    -0.374 N 
ATOM     15  H   UNL A   1      31.139  27.411  21.640  1.00  0.00     0.159 HD
ATOM     16  H   UNL A   1      31.488  26.493  20.246  1.00  0.00     0.159 HD
ENDBRANCH  10  14
ENDBRANCH   8   9
ENDBRANCH   6   8
ENDBRANCH   3   6
ENDBRANCH   1   2
BRANCH   1  17
ATOM     17  C   UNL A   1      37.784  19.726  24.880  1.00  0.00     0.042 C 
BRANCH  17  18
ATOM     18  C   UNL A   1      38.933  20.145  25.787  1.00  0.00     0.118 C 
BRANCH  18  19
ATOM     19  N   UNL A   1      39.998  19.156  25.860  1.00  0.00    -0.352 N 
ATOM     20  C   UNL A   1      41.339  19.328  26.098  1.00  0.00     0.251 C 
ATOM     21  H   UNL A   1      39.715  18.224  25.716  1.00  0.00     0.163 HD
ATOM     22  O   UNL A   1      42.110  18.377  25.967  1.00  0.00    -0.269 OA
BRANCH  20  23
ATOM     23  C   UNL A   1      41.868  20.652  26.489  1.00  0.00     0.039 A 
ATOM     24  C   UNL A   1      42.256  21.549  25.488  1.00  0.00     0.014 A 
ATOM     25  C   UNL A   1      42.003  21.010  27.833  1.00  0.00     0.014 A 
ATOM     26  C   UNL A   1      42.724  22.817  25.836  1.00  0.00     0.010 A 
ATOM     27  C   UNL A   1      42.376  22.305  28.174  1.00  0.00     0.010 A 
ATOM     28  C   UNL A   1      42.762  23.217  27.181  1.00  0.00    -0.014 A 
BRANCH  28  29
ATOM     29  C   UNL A   1      43.237  24.569  27.572  1.00  0.00     0.031 A 
ATOM     30  C   UNL A   1      42.247  25.624  27.990  1.00  0.00     0.074 A 
ATOM     31  C   UNL A   1      44.545  24.873  27.490  1.00  0.00     0.049 A 
ATOM     32  N   UNL A   1      42.456  26.875  28.313  1.00  0.00    -0.248 NA
ATOM     33  C   UNL A   1      40.831  25.227  28.012  1.00  0.00     0.031 C 
ATOM     34  C   UNL A   1      45.599  23.962  27.037  1.00  0.00     0.029 A 
ATOM     35  N   UNL A   1      45.211  26.038  27.772  1.00  0.00    -0.354 N 
ATOM     36  C   UNL A   1      41.200  27.416  28.557  1.00  0.00     0.074 A 
ATOM     37  C   UNL A   1      40.232  26.378  28.276  1.00  0.00     0.031 C 
ATOM     38  C   UNL A   1      46.780  24.597  27.092  1.00  0.00     0.029 A 
ATOM     39  C   UNL A   1      46.565  25.966  27.552  1.00  0.00     0.049 A 
ATOM     40  H   UNL A   1      44.761  26.849  28.102  1.00  0.00     0.167 HD
ATOM     41  C   UNL A   1      40.879  28.654  29.002  1.00  0.00     0.037 A 
ATOM     42  C   UNL A   1      47.525  26.898  27.701  1.00  0.00     0.037 A 
ATOM     43  C   UNL A   1      41.844  29.679  29.300  1.00  0.00     0.049 A 
ATOM     44  C   UNL A   1      47.155  28.261  28.216  1.00  0.00     0.074 A 
ATOM     45  C   UNL A   1      41.630  30.945  29.814  1.00  0.00     0.029 A 
ATOM     46  N   UNL A   1      43.213  29.554  29.102  1.00  0.00    -0.354 N 
ATOM     47  N   UNL A   1      45.970  28.736  28.518  1.00  0.00    -0.248 NA
ATOM     48  C   UNL A   1      48.256  29.210  28.425  1.00  0.00     0.031 C 
ATOM     49  C   UNL A   1      42.864  31.603  29.884  1.00  0.00     0.029 A 
ATOM     50  C   UNL A   1      43.853  30.727  29.467  1.00  0.00     0.049 A 
ATOM     51  H   UNL A   1      43.662  28.750  28.754  1.00  0.00     0.167 HD
ATOM     52  C   UNL A   1      46.184  30.029  28.978  1.00  0.00     0.074 A 
ATOM     53  C   UNL A   1      47.614  30.258  28.927  1.00  0.00     0.031 C 
ATOM     54  C   UNL A   1      45.278  30.942  29.408  1.00  0.00     0.037 A 
BRANCH  41  55
ATOM     55  C   UNL A   1      39.418  28.957  29.184  1.00  0.00     0.057 A 
ATOM     56  C   UNL A   1      38.767  28.766  30.411  1.00  0.00     0.134 A 
ATOM     57  C   UNL A   1      38.646  29.430  28.114  1.00  0.00     0.134 A 
ATOM     58  F   UNL A   1      39.443  28.303  31.474  1.00  0.00    -0.206 F 
ATOM     59  C   UNL A   1      37.396  28.986  30.556  1.00  0.00     0.040 A 
ATOM     60  C   UNL A   1      37.281  29.686  28.256  1.00  0.00     0.040 A 
ATOM     61  F   UNL A   1      39.203  29.644  26.914  1.00  0.00    -0.206 F 
ATOM     62  C   UNL A   1      36.649  29.450  29.476  1.00  0.00     0.006 A 
ENDBRANCH  41  55
BRANCH  42  63
ATOM     63  C   UNL A   1      48.933  26.551  27.390  1.00  0.00     0.057 A 
ATOM     64  C   UNL A   1      49.763  25.964  28.353  1.00  0.00     0.134 A 
ATOM     65  C   UNL A   1      49.474  26.765  26.116  1.00  0.00     0.134 A 
ATOM     66  F   UNL A   1      49.307  25.749  29.595  1.00  0.00    -0.206 F 
ATOM     67  C   UNL A   1      51.082  25.611  28.064  1.00  0.00     0.040 A 
ATOM     68  C   UNL A   1      50.783  26.395  25.807  1.00  0.00     0.040 A 
ATOM     69  F   UNL A   1      48.726  27.313  25.148  1.00  0.00    -0.206 F 
ATOM     70  C   UNL A   1      51.592  25.819  26.784  1.00  0.00     0.006 A 
ENDBRANCH  42  63
BRANCH  54  71
ATOM     71  C   UNL A   1      45.809  32.261  29.892  1.00  0.00     0.057 A 
ATOM     72  C   UNL A   1      45.957  33.361  29.039  1.00  0.00     0.134 A 
ATOM     73  C   UNL A   1      46.143  32.440  31.241  1.00  0.00     0.134 A 
ATOM     74  F   UNL A   1      45.667  33.254  27.733  1.00  0.00    -0.206 F 
ATOM     75  C   UNL A   1      46.444  34.584  29.503  1.00  0.00     0.040 A 
ATOM     76  C   UNL A   1      46.604  33.665  31.724  1.00  0.00     0.040 A 
ATOM     77  F   UNL A   1      46.016  31.430  32.115  1.00  0.00    -0.206 F 
ATOM     78  C   UNL A   1      46.763  34.740  30.852  1.00  0.00     0.006 A 
ENDBRANCH  54  71
ENDBRANCH  28  29
ENDBRANCH  20  23
ENDBRANCH  18  19
ENDBRANCH  17  18
ENDBRANCH   1  17
TORSDOF 13
ENDMDL
