MODEL 1
REMARK VINA RESULT:     -14.0      0.000      0.000
REMARK SMILES O=C(CCN1C(=O)[C@@H]2[C@@H](C1=O)[C@H]1c3ccccc3[C@]2(Br)c2ccccc21)NCCCNC(=O)c1ccc(-c2c3nc(c(-c4c(F)cccc4F)c4ccc([nH]4)c(-c4c(F)cccc4F)c4nc(c(-c5c(F)cccc5F)c5ccc2[nH]5)C=C4)C=C3)cc1
REMARK SMILES IDX 29 1 28 2 27 3 1 4 2 5 3 7 4 8 5 9 6 10 10 11 7 12 8 13 9 14
REMARK SMILES IDX 11 15 19 16 12 17 21 18 20 19 18 20 26 21 13 22 22 23 17 24
REMARK SMILES IDX 25 25 14 26 23 27 16 28 24 29 15 30 30 31 31 32 32 33 33 35
REMARK SMILES IDX 34 36 35 37 87 38 36 39 86 40 37 41 38 42 39 43 80 44 40 45
REMARK SMILES IDX 85 46 79 47 81 48 41 49 84 50 78 51 77 52 42 54 68 55 51 56
REMARK SMILES IDX 67 57 52 58 55 59 66 60 82 61 53 62 54 63 65 65 83 66 56 67
REMARK SMILES IDX 43 68 44 69 49 70 45 71 46 72 48 73 50 74 47 75 69 76 70 77
REMARK SMILES IDX 75 78 71 79 72 80 74 81 76 82 73 83 57 84 58 85 63 86 59 87
REMARK SMILES IDX 60 88 62 89 64 90 61 91
REMARK H PARENT 27 6 31 34 81 53 55 64
REMARK Flexibility Score: inf
ROOT
ATOM      1  C   UNL A   1      37.790  20.698  24.617  1.00  0.00     0.042 C 
ENDROOT
BRANCH   1   2
ATOM      2  C   UNL A   1      36.652  19.702  24.856  1.00  0.00     0.117 C 
BRANCH   2   3
ATOM      3  N   UNL A   1      35.416  20.282  25.363  1.00  0.00    -0.356 N 
ATOM      4  O   UNL A   1      34.065  18.825  24.214  1.00  0.00    -0.275 OA
ATOM      5  C   UNL A   1      34.191  19.747  25.017  1.00  0.00     0.221 C 
ATOM      6  H   UNL A   1      35.454  21.064  25.960  1.00  0.00     0.163 HD
BRANCH   5   7
ATOM      7  C   UNL A   1      32.980  20.341  25.711  1.00  0.00     0.122 C 
BRANCH   7   8
ATOM      8  C   UNL A   1      33.379  21.287  26.849  1.00  0.00     0.138 C 
BRANCH   8   9
ATOM      9  N   UNL A   1      33.264  22.723  26.602  1.00  0.00    -0.281 N 
ATOM     10  C   UNL A   1      32.141  23.502  26.846  1.00  0.00     0.235 C 
ATOM     11  C   UNL A   1      34.274  23.481  25.987  1.00  0.00     0.234 C 
ATOM     12  O   UNL A   1      31.160  23.254  27.534  1.00  0.00    -0.274 OA
ATOM     13  C   UNL A   1      32.303  24.606  25.870  1.00  0.00     0.118 C 
ATOM     14  C   UNL A   1      33.790  24.907  26.075  1.00  0.00     0.105 C 
ATOM     15  O   UNL A   1      35.348  23.105  25.562  1.00  0.00    -0.274 OA
ATOM     16  C   UNL A   1      31.541  25.894  25.591  1.00  0.00     0.088 C 
ATOM     17  C   UNL A   1      34.154  26.141  25.220  1.00  0.00     0.063 C 
ATOM     18  C   UNL A   1      31.925  26.052  24.091  1.00  0.00    -0.022 A 
ATOM     19  Br  UNL A   1      29.701  25.663  25.957  1.00  0.00    -0.074 Br
ATOM     20  C   UNL A   1      32.125  27.122  26.293  1.00  0.00    -0.022 A 
ATOM     21  C   UNL A   1      33.350  26.132  23.908  1.00  0.00    -0.035 A 
ATOM     22  C   UNL A   1      33.522  27.292  26.050  1.00  0.00    -0.035 A 
ATOM     23  C   UNL A   1      31.091  25.974  22.984  1.00  0.00     0.006 A 
ATOM     24  C   UNL A   1      31.407  28.125  26.949  1.00  0.00     0.006 A 
ATOM     25  C   UNL A   1      33.897  26.190  22.635  1.00  0.00     0.005 A 
ATOM     26  C   UNL A   1      34.168  28.449  26.469  1.00  0.00     0.005 A 
ATOM     27  C   UNL A   1      31.654  26.000  21.707  1.00  0.00     0.000 A 
ATOM     28  C   UNL A   1      32.061  29.281  27.365  1.00  0.00     0.000 A 
ATOM     29  C   UNL A   1      33.040  26.121  21.535  1.00  0.00     0.000 A 
ATOM     30  C   UNL A   1      33.430  29.440  27.126  1.00  0.00     0.000 A 
ENDBRANCH   8   9
ENDBRANCH   7   8
ENDBRANCH   5   7
ENDBRANCH   2   3
ENDBRANCH   1   2
BRANCH   1  31
ATOM     31  C   UNL A   1      38.813  20.791  25.743  1.00  0.00     0.118 C 
BRANCH  31  32
ATOM     32  N   UNL A   1      39.741  19.669  25.778  1.00  0.00    -0.352 N 
ATOM     33  C   UNL A   1      41.081  19.592  26.081  1.00  0.00     0.251 C 
ATOM     34  H   UNL A   1      39.334  18.804  25.541  1.00  0.00     0.163 HD
ATOM     35  O   UNL A   1      41.634  18.501  25.931  1.00  0.00    -0.269 OA
BRANCH  33  36
ATOM     36  C   UNL A   1      41.889  20.746  26.562  1.00  0.00     0.039 A 
ATOM     37  C   UNL A   1      42.081  21.054  27.911  1.00  0.00     0.014 A 
ATOM     38  C   UNL A   1      42.508  21.555  25.593  1.00  0.00     0.014 A 
ATOM     39  C   UNL A   1      42.770  22.193  28.294  1.00  0.00     0.010 A 
ATOM     40  C   UNL A   1      43.189  22.716  25.967  1.00  0.00     0.010 A 
ATOM     41  C   UNL A   1      43.252  23.065  27.320  1.00  0.00    -0.014 A 
BRANCH  41  42
ATOM     42  C   UNL A   1      43.509  24.451  27.750  1.00  0.00     0.031 A 
ATOM     43  C   UNL A   1      44.932  24.935  27.675  1.00  0.00     0.074 A 
ATOM     44  C   UNL A   1      42.489  25.282  28.006  1.00  0.00     0.049 A 
ATOM     45  N   UNL A   1      45.422  26.120  27.924  1.00  0.00    -0.248 NA
ATOM     46  C   UNL A   1      45.939  23.949  27.242  1.00  0.00     0.031 C 
ATOM     47  C   UNL A   1      41.073  24.912  27.982  1.00  0.00     0.029 A 
ATOM     48  N   UNL A   1      42.487  26.618  28.298  1.00  0.00    -0.354 N 
ATOM     49  C   UNL A   1      46.787  26.014  27.690  1.00  0.00     0.074 A 
ATOM     50  C   UNL A   1      47.058  24.649  27.306  1.00  0.00     0.031 C 
ATOM     51  C   UNL A   1      40.335  26.006  28.236  1.00  0.00     0.029 A 
ATOM     52  C   UNL A   1      41.229  27.135  28.481  1.00  0.00     0.049 A 
ATOM     53  H   UNL A   1      43.307  27.156  28.372  1.00  0.00     0.167 HD
ATOM     54  C   UNL A   1      47.732  26.978  27.780  1.00  0.00     0.037 A 
ATOM     55  C   UNL A   1      40.860  28.381  28.826  1.00  0.00     0.037 A 
ATOM     56  C   UNL A   1      47.435  28.330  28.166  1.00  0.00     0.049 A 
ATOM     57  C   UNL A   1      41.940  29.410  29.029  1.00  0.00     0.074 A 
ATOM     58  C   UNL A   1      48.300  29.394  28.340  1.00  0.00     0.029 A 
ATOM     59  N   UNL A   1      46.157  28.798  28.445  1.00  0.00    -0.354 N 
ATOM     60  N   UNL A   1      43.237  29.297  28.849  1.00  0.00    -0.248 NA
ATOM     61  C   UNL A   1      41.510  30.734  29.492  1.00  0.00     0.031 C 
ATOM     62  C   UNL A   1      47.549  30.493  28.770  1.00  0.00     0.029 A 
ATOM     63  C   UNL A   1      46.210  30.130  28.811  1.00  0.00     0.049 A 
ATOM     64  H   UNL A   1      45.334  28.260  28.389  1.00  0.00     0.167 HD
ATOM     65  C   UNL A   1      43.775  30.538  29.159  1.00  0.00     0.074 A 
ATOM     66  C   UNL A   1      42.659  31.394  29.514  1.00  0.00     0.031 C 
ATOM     67  C   UNL A   1      45.070  30.941  29.160  1.00  0.00     0.037 A 
BRANCH  54  68
ATOM     68  C   UNL A   1      49.153  26.574  27.516  1.00  0.00     0.057 A 
ATOM     69  C   UNL A   1      49.983  26.173  28.570  1.00  0.00     0.134 A 
ATOM     70  C   UNL A   1      49.695  26.544  26.223  1.00  0.00     0.134 A 
ATOM     71  F   UNL A   1      49.528  26.171  29.832  1.00  0.00    -0.206 F 
ATOM     72  C   UNL A   1      51.296  25.754  28.350  1.00  0.00     0.040 A 
ATOM     73  C   UNL A   1      50.999  26.100  25.986  1.00  0.00     0.040 A 
ATOM     74  F   UNL A   1      48.947  26.886  25.163  1.00  0.00    -0.206 F 
ATOM     75  C   UNL A   1      51.804  25.707  27.053  1.00  0.00     0.006 A 
ENDBRANCH  54  68
BRANCH  55  76
ATOM     76  C   UNL A   1      39.427  28.711  29.039  1.00  0.00     0.057 A 
ATOM     77  C   UNL A   1      38.825  28.553  30.294  1.00  0.00     0.134 A 
ATOM     78  C   UNL A   1      38.630  29.216  28.006  1.00  0.00     0.134 A 
ATOM     79  F   UNL A   1      39.531  28.074  31.330  1.00  0.00    -0.206 F 
ATOM     80  C   UNL A   1      37.485  28.875  30.513  1.00  0.00     0.040 A 
ATOM     81  C   UNL A   1      37.295  29.569  28.216  1.00  0.00     0.040 A 
ATOM     82  F   UNL A   1      39.149  29.409  26.784  1.00  0.00    -0.206 F 
ATOM     83  C   UNL A   1      36.718  29.394  29.473  1.00  0.00     0.006 A 
ENDBRANCH  55  76
BRANCH  67  84
ATOM     84  C   UNL A   1      45.327  32.371  29.530  1.00  0.00     0.057 A 
ATOM     85  C   UNL A   1      45.586  32.725  30.860  1.00  0.00     0.134 A 
ATOM     86  C   UNL A   1      45.299  33.397  28.577  1.00  0.00     0.134 A 
ATOM     87  F   UNL A   1      45.615  31.790  31.822  1.00  0.00    -0.206 F 
ATOM     88  C   UNL A   1      45.812  34.050  31.228  1.00  0.00     0.040 A 
ATOM     89  C   UNL A   1      45.554  34.722  28.928  1.00  0.00     0.040 A 
ATOM     90  F   UNL A   1      45.068  33.118  27.284  1.00  0.00    -0.206 F 
ATOM     91  C   UNL A   1      45.808  35.052  30.259  1.00  0.00     0.006 A 
ENDBRANCH  67  84
ENDBRANCH  41  42
ENDBRANCH  33  36
ENDBRANCH  31  32
ENDBRANCH   1  31
TORSDOF 12
ENDMDL
MODEL 2
REMARK VINA RESULT:     -13.9      4.691      9.551
REMARK SMILES O=C(CCN1C(=O)[C@@H]2[C@@H](C1=O)[C@H]1c3ccccc3[C@]2(Br)c2ccccc21)NCCCNC(=O)c1ccc(-c2c3nc(c(-c4c(F)cccc4F)c4ccc([nH]4)c(-c4c(F)cccc4F)c4nc(c(-c5c(F)cccc5F)c5ccc2[nH]5)C=C4)C=C3)cc1
REMARK SMILES IDX 29 1 28 2 27 3 1 4 2 5 3 7 4 8 5 9 6 10 10 11 7 12 8 13 9 14
REMARK SMILES IDX 11 15 19 16 12 17 21 18 20 19 18 20 26 21 13 22 22 23 17 24
REMARK SMILES IDX 25 25 14 26 23 27 16 28 24 29 15 30 30 31 31 32 32 33 33 35
REMARK SMILES IDX 34 36 35 37 87 38 36 39 86 40 37 41 38 42 39 43 80 44 40 45
REMARK SMILES IDX 85 46 79 47 81 48 41 49 84 50 78 51 77 52 42 54 68 55 51 56
REMARK SMILES IDX 67 57 52 58 55 59 66 60 82 61 53 62 54 63 65 65 83 66 56 67
REMARK SMILES IDX 43 68 44 69 49 70 45 71 46 72 48 73 50 74 47 75 69 76 70 77
REMARK SMILES IDX 75 78 71 79 72 80 74 81 76 82 73 83 57 84 58 85 63 86 59 87
REMARK SMILES IDX 60 88 62 89 64 90 61 91
REMARK H PARENT 27 6 31 34 81 53 55 64
REMARK Flexibility Score: inf
ROOT
ATOM      1  C   UNL A   1      31.436  31.769  26.733  1.00  0.00     0.042 C 
ENDROOT
BRANCH   1   2
ATOM      2  C   UNL A   1      30.546  31.472  25.524  1.00  0.00     0.117 C 
BRANCH   2   3
ATOM      3  N   UNL A   1      31.020  30.408  24.650  1.00  0.00    -0.356 N 
ATOM      4  O   UNL A   1      29.040  30.243  23.501  1.00  0.00    -0.275 OA
ATOM      5  C   UNL A   1      30.210  29.898  23.655  1.00  0.00     0.221 C 
ATOM      6  H   UNL A   1      31.928  30.048  24.770  1.00  0.00     0.163 HD
BRANCH   5   7
ATOM      7  C   UNL A   1      30.852  28.893  22.718  1.00  0.00     0.122 C 
BRANCH   7   8
ATOM      8  C   UNL A   1      32.380  28.882  22.849  1.00  0.00     0.138 C 
BRANCH   8   9
ATOM      9  N   UNL A   1      33.003  27.660  23.352  1.00  0.00    -0.281 N 
ATOM     10  C   UNL A   1      33.363  26.557  22.590  1.00  0.00     0.235 C 
ATOM     11  C   UNL A   1      33.232  27.420  24.717  1.00  0.00     0.234 C 
ATOM     12  O   UNL A   1      33.497  26.464  21.377  1.00  0.00    -0.274 OA
ATOM     13  C   UNL A   1      33.302  25.455  23.579  1.00  0.00     0.118 C 
ATOM     14  C   UNL A   1      34.013  26.130  24.753  1.00  0.00     0.105 C 
ATOM     15  O   UNL A   1      32.956  28.128  25.665  1.00  0.00    -0.274 OA
ATOM     16  C   UNL A   1      33.650  23.974  23.537  1.00  0.00     0.088 C 
ATOM     17  C   UNL A   1      34.173  25.089  25.884  1.00  0.00     0.063 C 
ATOM     18  C   UNL A   1      32.687  23.493  24.661  1.00  0.00    -0.022 A 
ATOM     19  Br  UNL A   1      33.329  23.269  21.812  1.00  0.00    -0.074 Br
ATOM     20  C   UNL A   1      35.059  23.655  24.043  1.00  0.00    -0.022 A 
ATOM     21  C   UNL A   1      32.955  24.149  25.913  1.00  0.00    -0.035 A 
ATOM     22  C   UNL A   1      35.327  24.206  25.332  1.00  0.00    -0.035 A 
ATOM     23  C   UNL A   1      31.578  22.665  24.539  1.00  0.00     0.006 A 
ATOM     24  C   UNL A   1      35.970  22.768  23.464  1.00  0.00     0.006 A 
ATOM     25  C   UNL A   1      32.149  23.920  27.018  1.00  0.00     0.005 A 
ATOM     26  C   UNL A   1      36.492  23.867  26.009  1.00  0.00     0.005 A 
ATOM     27  C   UNL A   1      30.756  22.467  25.648  1.00  0.00     0.000 A 
ATOM     28  C   UNL A   1      37.134  22.432  24.149  1.00  0.00     0.000 A 
ATOM     29  C   UNL A   1      31.045  23.076  26.877  1.00  0.00     0.000 A 
ATOM     30  C   UNL A   1      37.392  22.977  25.410  1.00  0.00     0.000 A 
ENDBRANCH   8   9
ENDBRANCH   7   8
ENDBRANCH   5   7
ENDBRANCH   2   3
ENDBRANCH   1   2
BRANCH   1  31
ATOM     31  C   UNL A   1      32.410  32.927  26.549  1.00  0.00     0.118 C 
BRANCH  31  32
ATOM     32  N   UNL A   1      32.483  33.813  27.702  1.00  0.00    -0.352 N 
ATOM     33  C   UNL A   1      33.387  33.907  28.735  1.00  0.00     0.251 C 
ATOM     34  H   UNL A   1      31.750  34.468  27.752  1.00  0.00     0.163 HD
ATOM     35  O   UNL A   1      33.136  34.707  29.637  1.00  0.00    -0.269 OA
BRANCH  33  36
ATOM     36  C   UNL A   1      34.630  33.092  28.825  1.00  0.00     0.039 A 
ATOM     37  C   UNL A   1      34.645  31.725  29.115  1.00  0.00     0.014 A 
ATOM     38  C   UNL A   1      35.853  33.742  28.582  1.00  0.00     0.014 A 
ATOM     39  C   UNL A   1      35.839  31.041  29.274  1.00  0.00     0.010 A 
ATOM     40  C   UNL A   1      37.063  33.066  28.757  1.00  0.00     0.010 A 
ATOM     41  C   UNL A   1      37.045  31.731  29.175  1.00  0.00    -0.014 A 
BRANCH  41  42
ATOM     42  C   UNL A   1      38.212  31.110  29.827  1.00  0.00     0.031 A 
ATOM     43  C   UNL A   1      38.408  31.395  31.291  1.00  0.00     0.074 A 
ATOM     44  C   UNL A   1      38.939  30.188  29.180  1.00  0.00     0.049 A 
ATOM     45  N   UNL A   1      39.305  30.928  32.117  1.00  0.00    -0.248 NA
ATOM     46  C   UNL A   1      37.447  32.325  31.912  1.00  0.00     0.031 C 
ATOM     47  C   UNL A   1      38.733  29.773  27.791  1.00  0.00     0.029 A 
ATOM     48  N   UNL A   1      39.973  29.407  29.618  1.00  0.00    -0.354 N 
ATOM     49  C   UNL A   1      39.021  31.514  33.345  1.00  0.00     0.074 A 
ATOM     50  C   UNL A   1      37.890  32.392  33.156  1.00  0.00     0.031 C 
ATOM     51  C   UNL A   1      39.609  28.797  27.496  1.00  0.00     0.029 A 
ATOM     52  C   UNL A   1      40.458  28.555  28.659  1.00  0.00     0.049 A 
ATOM     53  H   UNL A   1      40.334  29.453  30.532  1.00  0.00     0.167 HD
ATOM     54  C   UNL A   1      39.647  31.328  34.529  1.00  0.00     0.037 A 
ATOM     55  C   UNL A   1      41.490  27.694  28.725  1.00  0.00     0.037 A 
ATOM     56  C   UNL A   1      40.773  30.449  34.689  1.00  0.00     0.049 A 
ATOM     57  C   UNL A   1      42.242  27.587  30.025  1.00  0.00     0.074 A 
ATOM     58  C   UNL A   1      41.527  30.201  35.820  1.00  0.00     0.029 A 
ATOM     59  N   UNL A   1      41.306  29.673  33.667  1.00  0.00    -0.354 N 
ATOM     60  N   UNL A   1      41.999  28.176  31.174  1.00  0.00    -0.248 NA
ATOM     61  C   UNL A   1      43.415  26.706  30.036  1.00  0.00     0.031 C 
ATOM     62  C   UNL A   1      42.548  29.311  35.468  1.00  0.00     0.029 A 
ATOM     63  C   UNL A   1      42.395  28.961  34.134  1.00  0.00     0.049 A 
ATOM     64  H   UNL A   1      40.959  29.635  32.747  1.00  0.00     0.167 HD
ATOM     65  C   UNL A   1      42.977  27.724  32.048  1.00  0.00     0.074 A 
ATOM     66  C   UNL A   1      43.800  26.793  31.301  1.00  0.00     0.031 C 
ATOM     67  C   UNL A   1      43.187  28.047  33.349  1.00  0.00     0.037 A 
BRANCH  54  68
ATOM     68  C   UNL A   1      39.160  32.134  35.698  1.00  0.00     0.057 A 
ATOM     69  C   UNL A   1      39.573  33.461  35.865  1.00  0.00     0.134 A 
ATOM     70  C   UNL A   1      38.255  31.619  36.637  1.00  0.00     0.134 A 
ATOM     71  F   UNL A   1      40.431  34.021  34.999  1.00  0.00    -0.206 F 
ATOM     72  C   UNL A   1      39.105  34.247  36.919  1.00  0.00     0.040 A 
ATOM     73  C   UNL A   1      37.758  32.404  37.681  1.00  0.00     0.040 A 
ATOM     74  F   UNL A   1      37.793  30.364  36.521  1.00  0.00    -0.206 F 
ATOM     75  C   UNL A   1      38.187  33.721  37.826  1.00  0.00     0.006 A 
ENDBRANCH  54  68
BRANCH  55  76
ATOM     76  C   UNL A   1      41.892  26.908  27.531  1.00  0.00     0.057 A 
ATOM     77  C   UNL A   1      41.454  25.589  27.349  1.00  0.00     0.134 A 
ATOM     78  C   UNL A   1      42.701  27.456  26.530  1.00  0.00     0.134 A 
ATOM     79  F   UNL A   1      40.675  25.000  28.269  1.00  0.00    -0.206 F 
ATOM     80  C   UNL A   1      41.811  24.844  26.224  1.00  0.00     0.040 A 
ATOM     81  C   UNL A   1      43.043  26.733  25.385  1.00  0.00     0.040 A 
ATOM     82  F   UNL A   1      43.140  28.720  26.633  1.00  0.00    -0.206 F 
ATOM     83  C   UNL A   1      42.601  25.420  25.233  1.00  0.00     0.006 A 
ENDBRANCH  55  76
BRANCH  67  84
ATOM     84  C   UNL A   1      44.334  27.364  34.033  1.00  0.00     0.057 A 
ATOM     85  C   UNL A   1      44.158  26.111  34.633  1.00  0.00     0.134 A 
ATOM     86  C   UNL A   1      45.602  27.952  34.113  1.00  0.00     0.134 A 
ATOM     87  F   UNL A   1      42.964  25.500  34.600  1.00  0.00    -0.206 F 
ATOM     88  C   UNL A   1      45.206  25.465  35.286  1.00  0.00     0.040 A 
ATOM     89  C   UNL A   1      46.666  27.302  34.737  1.00  0.00     0.040 A 
ATOM     90  F   UNL A   1      45.835  29.147  33.547  1.00  0.00    -0.206 F 
ATOM     91  C   UNL A   1      46.467  26.056  35.330  1.00  0.00     0.006 A 
ENDBRANCH  67  84
ENDBRANCH  41  42
ENDBRANCH  33  36
ENDBRANCH  31  32
ENDBRANCH   1  31
TORSDOF 12
ENDMDL
MODEL 3
REMARK VINA RESULT:     -13.9      4.950      9.766
REMARK SMILES O=C(CCN1C(=O)[C@@H]2[C@@H](C1=O)[C@H]1c3ccccc3[C@]2(Br)c2ccccc21)NCCCNC(=O)c1ccc(-c2c3nc(c(-c4c(F)cccc4F)c4ccc([nH]4)c(-c4c(F)cccc4F)c4nc(c(-c5c(F)cccc5F)c5ccc2[nH]5)C=C4)C=C3)cc1
REMARK SMILES IDX 29 1 28 2 27 3 1 4 2 5 3 7 4 8 5 9 6 10 10 11 7 12 8 13 9 14
REMARK SMILES IDX 11 15 19 16 12 17 21 18 20 19 18 20 26 21 13 22 22 23 17 24
REMARK SMILES IDX 25 25 14 26 23 27 16 28 24 29 15 30 30 31 31 32 32 33 33 35
REMARK SMILES IDX 34 36 35 37 87 38 36 39 86 40 37 41 38 42 39 43 80 44 40 45
REMARK SMILES IDX 85 46 79 47 81 48 41 49 84 50 78 51 77 52 42 54 68 55 51 56
REMARK SMILES IDX 67 57 52 58 55 59 66 60 82 61 53 62 54 63 65 65 83 66 56 67
REMARK SMILES IDX 43 68 44 69 49 70 45 71 46 72 48 73 50 74 47 75 69 76 70 77
REMARK SMILES IDX 75 78 71 79 72 80 74 81 76 82 73 83 57 84 58 85 63 86 59 87
REMARK SMILES IDX 60 88 62 89 64 90 61 91
REMARK H PARENT 27 6 31 34 81 53 55 64
REMARK Flexibility Score: inf
ROOT
ATOM      1  C   UNL A   1      31.781  30.989  27.024  1.00  0.00     0.042 C 
ENDROOT
BRANCH   1   2
ATOM      2  C   UNL A   1      31.013  31.125  25.706  1.00  0.00     0.117 C 
BRANCH   2   3
ATOM      3  N   UNL A   1      31.387  30.173  24.670  1.00  0.00    -0.356 N 
ATOM      4  O   UNL A   1      29.290  30.112  23.738  1.00  0.00    -0.275 OA
ATOM      5  C   UNL A   1      30.470  29.769  23.720  1.00  0.00     0.221 C 
ATOM      6  H   UNL A   1      32.303  29.814  24.645  1.00  0.00     0.163 HD
BRANCH   5   7
ATOM      7  C   UNL A   1      31.003  28.885  22.608  1.00  0.00     0.122 C 
BRANCH   7   8
ATOM      8  C   UNL A   1      32.533  28.793  22.632  1.00  0.00     0.138 C 
BRANCH   8   9
ATOM      9  N   UNL A   1      33.125  27.572  23.174  1.00  0.00    -0.281 N 
ATOM     10  C   UNL A   1      33.433  26.428  22.451  1.00  0.00     0.235 C 
ATOM     11  C   UNL A   1      33.373  27.379  24.543  1.00  0.00     0.234 C 
ATOM     12  O   UNL A   1      33.540  26.282  21.241  1.00  0.00    -0.274 OA
ATOM     13  C   UNL A   1      33.355  25.369  23.485  1.00  0.00     0.118 C 
ATOM     14  C   UNL A   1      34.112  26.067  24.617  1.00  0.00     0.105 C 
ATOM     15  O   UNL A   1      33.140  28.134  25.466  1.00  0.00    -0.274 OA
ATOM     16  C   UNL A   1      33.653  23.876  23.497  1.00  0.00     0.088 C 
ATOM     17  C   UNL A   1      34.259  25.067  25.787  1.00  0.00     0.063 C 
ATOM     18  C   UNL A   1      32.698  23.474  24.658  1.00  0.00    -0.022 A 
ATOM     19  Br  UNL A   1      33.274  23.114  21.809  1.00  0.00    -0.074 Br
ATOM     20  C   UNL A   1      35.061  23.530  23.990  1.00  0.00    -0.022 A 
ATOM     21  C   UNL A   1      33.012  24.171  25.877  1.00  0.00    -0.035 A 
ATOM     22  C   UNL A   1      35.372  24.124  25.250  1.00  0.00    -0.035 A 
ATOM     23  C   UNL A   1      31.560  22.681  24.591  1.00  0.00     0.006 A 
ATOM     24  C   UNL A   1      35.930  22.590  23.431  1.00  0.00     0.006 A 
ATOM     25  C   UNL A   1      32.221  24.014  27.006  1.00  0.00     0.005 A 
ATOM     26  C   UNL A   1      36.538  23.773  25.919  1.00  0.00     0.005 A 
ATOM     27  C   UNL A   1      30.753  22.556  25.722  1.00  0.00     0.000 A 
ATOM     28  C   UNL A   1      37.095  22.243  24.107  1.00  0.00     0.000 A 
ATOM     29  C   UNL A   1      31.087  23.203  26.920  1.00  0.00     0.000 A 
ATOM     30  C   UNL A   1      37.396  22.829  25.340  1.00  0.00     0.000 A 
ENDBRANCH   8   9
ENDBRANCH   7   8
ENDBRANCH   5   7
ENDBRANCH   2   3
ENDBRANCH   1   2
BRANCH   1  31
ATOM     31  C   UNL A   1      32.971  31.930  27.178  1.00  0.00     0.118 C 
BRANCH  31  32
ATOM     32  N   UNL A   1      32.590  33.304  27.475  1.00  0.00    -0.352 N 
ATOM     33  C   UNL A   1      33.135  34.250  28.312  1.00  0.00     0.251 C 
ATOM     34  H   UNL A   1      31.794  33.615  26.985  1.00  0.00     0.163 HD
ATOM     35  O   UNL A   1      32.530  35.317  28.431  1.00  0.00    -0.269 OA
BRANCH  33  36
ATOM     36  C   UNL A   1      34.394  34.049  29.080  1.00  0.00     0.039 A 
ATOM     37  C   UNL A   1      35.663  34.374  28.594  1.00  0.00     0.014 A 
ATOM     38  C   UNL A   1      34.286  33.520  30.378  1.00  0.00     0.014 A 
ATOM     39  C   UNL A   1      36.804  34.080  29.321  1.00  0.00     0.010 A 
ATOM     40  C   UNL A   1      35.431  33.203  31.113  1.00  0.00     0.010 A 
ATOM     41  C   UNL A   1      36.690  33.421  30.544  1.00  0.00    -0.014 A 
BRANCH  41  42
ATOM     42  C   UNL A   1      37.886  32.702  31.016  1.00  0.00     0.031 A 
ATOM     43  C   UNL A   1      38.468  33.136  32.334  1.00  0.00     0.074 A 
ATOM     44  C   UNL A   1      38.305  31.595  30.387  1.00  0.00     0.049 A 
ATOM     45  N   UNL A   1      39.467  32.635  33.009  1.00  0.00    -0.248 NA
ATOM     46  C   UNL A   1      37.819  34.287  32.990  1.00  0.00     0.031 C 
ATOM     47  C   UNL A   1      37.715  31.045  29.165  1.00  0.00     0.029 A 
ATOM     48  N   UNL A   1      39.301  30.714  30.710  1.00  0.00    -0.354 N 
ATOM     49  C   UNL A   1      39.570  33.414  34.156  1.00  0.00     0.074 A 
ATOM     50  C   UNL A   1      38.555  34.437  34.077  1.00  0.00     0.031 C 
ATOM     51  C   UNL A   1      38.355  29.906  28.850  1.00  0.00     0.029 A 
ATOM     52  C   UNL A   1      39.421  29.676  29.821  1.00  0.00     0.049 A 
ATOM     53  H   UNL A   1      39.875  30.816  31.502  1.00  0.00     0.167 HD
ATOM     54  C   UNL A   1      40.434  33.279  35.187  1.00  0.00     0.037 A 
ATOM     55  C   UNL A   1      40.313  28.670  29.800  1.00  0.00     0.037 A 
ATOM     56  C   UNL A   1      41.437  32.251  35.239  1.00  0.00     0.049 A 
ATOM     57  C   UNL A   1      41.336  28.606  30.902  1.00  0.00     0.074 A 
ATOM     58  C   UNL A   1      42.402  32.028  36.202  1.00  0.00     0.029 A 
ATOM     59  N   UNL A   1      41.598  31.271  34.267  1.00  0.00    -0.354 N 
ATOM     60  N   UNL A   1      41.460  29.370  31.964  1.00  0.00    -0.248 NA
ATOM     61  C   UNL A   1      42.349  27.549  30.801  1.00  0.00     0.031 C 
ATOM     62  C   UNL A   1      43.179  30.940  35.786  1.00  0.00     0.029 A 
ATOM     63  C   UNL A   1      42.663  30.452  34.594  1.00  0.00     0.049 A 
ATOM     64  H   UNL A   1      41.037  31.174  33.464  1.00  0.00     0.167 HD
ATOM     65  C   UNL A   1      42.551  28.877  32.665  1.00  0.00     0.074 A 
ATOM     66  C   UNL A   1      43.037  27.732  31.918  1.00  0.00     0.031 C 
ATOM     67  C   UNL A   1      43.112  29.325  33.816  1.00  0.00     0.037 A 
BRANCH  54  68
ATOM     68  C   UNL A   1      40.356  34.299  36.286  1.00  0.00     0.057 A 
ATOM     69  C   UNL A   1      41.072  35.499  36.190  1.00  0.00     0.134 A 
ATOM     70  C   UNL A   1      39.549  34.120  37.418  1.00  0.00     0.134 A 
ATOM     71  F   UNL A   1      41.858  35.740  35.130  1.00  0.00    -0.206 F 
ATOM     72  C   UNL A   1      40.988  36.483  37.176  1.00  0.00     0.040 A 
ATOM     73  C   UNL A   1      39.434  35.109  38.399  1.00  0.00     0.040 A 
ATOM     74  F   UNL A   1      38.811  33.008  37.560  1.00  0.00    -0.206 F 
ATOM     75  C   UNL A   1      40.159  36.293  38.281  1.00  0.00     0.006 A 
ENDBRANCH  54  68
BRANCH  55  76
ATOM     76  C   UNL A   1      40.305  27.679  28.693  1.00  0.00     0.057 A 
ATOM     77  C   UNL A   1      39.584  26.482  28.795  1.00  0.00     0.134 A 
ATOM     78  C   UNL A   1      40.994  27.911  27.497  1.00  0.00     0.134 A 
ATOM     79  F   UNL A   1      38.901  26.196  29.914  1.00  0.00    -0.206 F 
ATOM     80  C   UNL A   1      39.555  25.550  27.757  1.00  0.00     0.040 A 
ATOM     81  C   UNL A   1      40.951  27.001  26.438  1.00  0.00     0.040 A 
ATOM     82  F   UNL A   1      41.689  29.046  27.327  1.00  0.00    -0.206 F 
ATOM     83  C   UNL A   1      40.233  25.813  26.570  1.00  0.00     0.006 A 
ENDBRANCH  55  76
BRANCH  67  84
ATOM     84  C   UNL A   1      44.287  28.551  34.334  1.00  0.00     0.057 A 
ATOM     85  C   UNL A   1      44.097  27.454  35.183  1.00  0.00     0.134 A 
ATOM     86  C   UNL A   1      45.603  28.905  34.010  1.00  0.00     0.134 A 
ATOM     87  F   UNL A   1      42.862  27.073  35.540  1.00  0.00    -0.206 F 
ATOM     88  C   UNL A   1      45.177  26.731  35.688  1.00  0.00     0.040 A 
ATOM     89  C   UNL A   1      46.690  28.170  34.484  1.00  0.00     0.040 A 
ATOM     90  F   UNL A   1      45.848  29.940  33.192  1.00  0.00    -0.206 F 
ATOM     91  C   UNL A   1      46.477  27.082  35.330  1.00  0.00     0.006 A 
ENDBRANCH  67  84
ENDBRANCH  41  42
ENDBRANCH  33  36
ENDBRANCH  31  32
ENDBRANCH   1  31
TORSDOF 12
ENDMDL
