MODEL 1
REMARK VINA RESULT:     -12.8      0.000      0.000
REMARK SMILES Cc1cc(C(=O)NCCCNC(=O)c2ccc(-c3c4nc(c(-c5c(F)cccc5F)c5ccc([nH]5)c(-c5c(F)cccc5F)c5nc(c(-c6c(F)cccc6F)c6ccc3[nH]6)C=C5)C=C4)cc2)ccc1N[C@H](C)c1cc(F)cc(F)c1
REMARK SMILES IDX 8 1 7 2 5 3 6 4 4 6 1 7 2 8 3 9 70 10 69 11 68 12 71 13
REMARK SMILES IDX 72 15 73 16 74 17 75 18 81 19 76 20 79 21 77 22 78 23 80 24
REMARK SMILES IDX 9 25 10 26 11 27 12 28 13 30 14 31 15 32 67 33 16 34 66 35
REMARK SMILES IDX 17 36 18 37 19 38 60 39 20 40 65 41 59 42 61 43 21 44 64 45
REMARK SMILES IDX 58 46 57 47 22 49 48 50 31 51 47 52 32 53 35 54 46 55 62 56
REMARK SMILES IDX 33 57 34 58 45 60 63 61 36 62 23 63 24 64 29 65 25 66 26 67
REMARK SMILES IDX 28 68 30 69 27 70 49 71 50 72 55 73 51 74 52 75 54 76 56 77
REMARK SMILES IDX 53 78 37 79 38 80 43 81 39 82 40 83 42 84 44 85 41 86
REMARK H PARENT 7 5 71 14 11 29 61 48 35 59
REMARK Flexibility Score: inf
ROOT
ATOM      1  C   UNL A   1      37.577  21.413  24.736  1.00  0.00     0.118 C 
ENDROOT
BRANCH   1   2
ATOM      2  N   UNL A   1      36.318  20.950  25.314  1.00  0.00    -0.352 N 
ATOM      3  C   UNL A   1      35.046  21.476  25.407  1.00  0.00     0.251 C 
ATOM      4  O   UNL A   1      34.195  20.768  25.949  1.00  0.00    -0.269 OA
ATOM      5  H   UNL A   1      36.394  20.060  25.729  1.00  0.00     0.163 HD
BRANCH   3   6
ATOM      6  C   UNL A   1      34.643  22.833  24.928  1.00  0.00     0.040 A 
ATOM      7  C   UNL A   1      32.992  24.244  21.783  1.00  0.00     0.046 C 
ATOM      8  C   UNL A   1      33.554  24.223  23.180  1.00  0.00    -0.027 A 
ATOM      9  C   UNL A   1      34.008  22.966  23.678  1.00  0.00     0.019 A 
ATOM     10  C   UNL A   1      33.739  25.386  23.951  1.00  0.00     0.037 A 
ATOM     11  C   UNL A   1      34.477  25.228  25.121  1.00  0.00     0.027 A 
ATOM     12  C   UNL A   1      34.893  23.998  25.617  1.00  0.00     0.016 A 
BRANCH  10  13
ATOM     13  N   UNL A   1      33.221  26.632  23.611  1.00  0.00    -0.378 N 
ATOM     14  H   UNL A   1      33.753  27.209  23.016  1.00  0.00     0.161 HD
BRANCH  13  15
ATOM     15  C   UNL A   1      31.914  27.143  24.093  1.00  0.00     0.106 C 
ATOM     16  C   UNL A   1      31.122  27.685  22.896  1.00  0.00     0.036 C 
BRANCH  15  17
ATOM     17  C   UNL A   1      32.031  28.206  25.180  1.00  0.00    -0.020 A 
ATOM     18  C   UNL A   1      32.925  28.006  26.254  1.00  0.00     0.045 A 
ATOM     19  C   UNL A   1      31.400  29.458  25.066  1.00  0.00     0.045 A 
ATOM     20  C   UNL A   1      33.238  29.059  27.113  1.00  0.00     0.126 A 
ATOM     21  C   UNL A   1      31.712  30.484  25.957  1.00  0.00     0.126 A 
ATOM     22  F   UNL A   1      34.186  28.886  28.046  1.00  0.00    -0.207 F 
ATOM     23  C   UNL A   1      32.644  30.303  26.970  1.00  0.00     0.078 A 
ATOM     24  F   UNL A   1      31.145  31.687  25.796  1.00  0.00    -0.207 F 
ENDBRANCH  15  17
ENDBRANCH  13  15
ENDBRANCH  10  13
ENDBRANCH   3   6
ENDBRANCH   1   2
BRANCH   1  25
ATOM     25  C   UNL A   1      38.721  21.494  25.760  1.00  0.00     0.042 C 
BRANCH  25  26
ATOM     26  C   UNL A   1      39.088  22.929  26.119  1.00  0.00     0.118 C 
BRANCH  26  27
ATOM     27  N   UNL A   1      40.495  23.133  26.468  1.00  0.00    -0.352 N 
ATOM     28  C   UNL A   1      41.144  24.322  26.794  1.00  0.00     0.251 C 
ATOM     29  H   UNL A   1      41.056  22.324  26.472  1.00  0.00     0.163 HD
ATOM     30  O   UNL A   1      42.324  24.346  27.054  1.00  0.00    -0.269 OA
BRANCH  28  31
ATOM     31  C   UNL A   1      40.307  25.539  26.947  1.00  0.00     0.039 A 
ATOM     32  C   UNL A   1      40.779  26.711  26.351  1.00  0.00     0.014 A 
ATOM     33  C   UNL A   1      39.311  25.580  27.919  1.00  0.00     0.014 A 
ATOM     34  C   UNL A   1      40.477  27.932  26.945  1.00  0.00     0.010 A 
ATOM     35  C   UNL A   1      39.072  26.784  28.557  1.00  0.00     0.010 A 
ATOM     36  C   UNL A   1      39.730  27.942  28.124  1.00  0.00    -0.014 A 
BRANCH  36  37
ATOM     37  C   UNL A   1      39.721  29.088  29.027  1.00  0.00     0.031 A 
ATOM     38  C   UNL A   1      38.676  30.121  28.926  1.00  0.00     0.074 A 
ATOM     39  C   UNL A   1      40.677  29.228  29.975  1.00  0.00     0.049 A 
ATOM     40  N   UNL A   1      38.859  31.361  29.234  1.00  0.00    -0.248 NA
ATOM     41  C   UNL A   1      37.337  29.830  28.437  1.00  0.00     0.031 C 
ATOM     42  C   UNL A   1      40.711  30.206  31.058  1.00  0.00     0.029 A 
ATOM     43  N   UNL A   1      41.946  28.639  30.000  1.00  0.00    -0.354 N 
ATOM     44  C   UNL A   1      37.626  31.966  29.257  1.00  0.00     0.074 A 
ATOM     45  C   UNL A   1      36.721  30.990  28.689  1.00  0.00     0.031 C 
ATOM     46  C   UNL A   1      41.983  30.382  31.441  1.00  0.00     0.029 A 
ATOM     47  C   UNL A   1      42.822  29.601  30.555  1.00  0.00     0.049 A 
ATOM     48  H   UNL A   1      42.183  27.734  29.694  1.00  0.00     0.167 HD
ATOM     49  C   UNL A   1      37.476  33.174  29.874  1.00  0.00     0.037 A 
ATOM     50  C   UNL A   1      43.885  30.070  29.841  1.00  0.00     0.037 A 
ATOM     51  C   UNL A   1      38.736  33.682  30.416  1.00  0.00     0.049 A 
ATOM     52  C   UNL A   1      43.817  31.545  29.510  1.00  0.00     0.074 A 
ATOM     53  C   UNL A   1      39.300  33.720  31.683  1.00  0.00     0.029 A 
ATOM     54  N   UNL A   1      39.758  34.015  29.544  1.00  0.00    -0.354 N 
ATOM     55  N   UNL A   1      42.878  32.354  29.917  1.00  0.00    -0.248 NA
ATOM     56  C   UNL A   1      44.755  32.202  28.596  1.00  0.00     0.031 C 
ATOM     57  C   UNL A   1      40.667  34.097  31.558  1.00  0.00     0.029 A 
ATOM     58  C   UNL A   1      40.937  34.281  30.216  1.00  0.00     0.049 A 
ATOM     59  H   UNL A   1      39.658  34.058  28.566  1.00  0.00     0.167 HD
ATOM     60  C   UNL A   1      43.023  33.567  29.294  1.00  0.00     0.074 A 
ATOM     61  C   UNL A   1      44.217  33.425  28.483  1.00  0.00     0.031 C 
ATOM     62  C   UNL A   1      42.129  34.588  29.443  1.00  0.00     0.037 A 
BRANCH  49  63
ATOM     63  C   UNL A   1      36.121  33.751  30.210  1.00  0.00     0.057 A 
ATOM     64  C   UNL A   1      35.258  34.224  29.203  1.00  0.00     0.134 A 
ATOM     65  C   UNL A   1      35.630  33.912  31.516  1.00  0.00     0.134 A 
ATOM     66  F   UNL A   1      35.512  34.027  27.903  1.00  0.00    -0.206 F 
ATOM     67  C   UNL A   1      34.081  34.932  29.480  1.00  0.00     0.040 A 
ATOM     68  C   UNL A   1      34.488  34.671  31.813  1.00  0.00     0.040 A 
ATOM     69  F   UNL A   1      36.209  33.303  32.559  1.00  0.00    -0.206 F 
ATOM     70  C   UNL A   1      33.717  35.202  30.789  1.00  0.00     0.006 A 
ENDBRANCH  49  63
BRANCH  50  71
ATOM     71  C   UNL A   1      44.488  29.015  28.985  1.00  0.00     0.057 A 
ATOM     72  C   UNL A   1      45.264  28.022  29.611  1.00  0.00     0.134 A 
ATOM     73  C   UNL A   1      43.989  28.731  27.713  1.00  0.00     0.134 A 
ATOM     74  F   UNL A   1      45.780  28.239  30.831  1.00  0.00    -0.206 F 
ATOM     75  C   UNL A   1      45.406  26.747  29.062  1.00  0.00     0.040 A 
ATOM     76  C   UNL A   1      44.146  27.463  27.144  1.00  0.00     0.040 A 
ATOM     77  F   UNL A   1      43.235  29.625  27.058  1.00  0.00    -0.206 F 
ATOM     78  C   UNL A   1      44.808  26.452  27.842  1.00  0.00     0.006 A 
ENDBRANCH  50  71
BRANCH  62  79
ATOM     79  C   UNL A   1      42.313  35.955  28.842  1.00  0.00     0.057 A 
ATOM     80  C   UNL A   1      41.878  36.277  27.547  1.00  0.00     0.134 A 
ATOM     81  C   UNL A   1      43.047  36.963  29.498  1.00  0.00     0.134 A 
ATOM     82  F   UNL A   1      41.255  35.370  26.780  1.00  0.00    -0.206 F 
ATOM     83  C   UNL A   1      42.094  37.537  26.974  1.00  0.00     0.040 A 
ATOM     84  C   UNL A   1      43.311  38.208  28.918  1.00  0.00     0.040 A 
ATOM     85  F   UNL A   1      43.528  36.793  30.738  1.00  0.00    -0.206 F 
ATOM     86  C   UNL A   1      42.817  38.506  27.657  1.00  0.00     0.006 A 
ENDBRANCH  62  79
ENDBRANCH  36  37
ENDBRANCH  28  31
ENDBRANCH  26  27
ENDBRANCH  25  26
ENDBRANCH   1  25
TORSDOF 13
ENDMDL
MODEL 2
REMARK VINA RESULT:     -12.7      4.143      9.565
REMARK SMILES Cc1cc(C(=O)NCCCNC(=O)c2ccc(-c3c4nc(c(-c5c(F)cccc5F)c5ccc([nH]5)c(-c5c(F)cccc5F)c5nc(c(-c6c(F)cccc6F)c6ccc3[nH]6)C=C5)C=C4)cc2)ccc1N[C@H](C)c1cc(F)cc(F)c1
REMARK SMILES IDX 8 1 7 2 5 3 6 4 4 6 1 7 2 8 3 9 70 10 69 11 68 12 71 13
REMARK SMILES IDX 72 15 73 16 74 17 75 18 81 19 76 20 79 21 77 22 78 23 80 24
REMARK SMILES IDX 9 25 10 26 11 27 12 28 13 30 14 31 15 32 67 33 16 34 66 35
REMARK SMILES IDX 17 36 18 37 19 38 60 39 20 40 65 41 59 42 61 43 21 44 64 45
REMARK SMILES IDX 58 46 57 47 22 49 48 50 31 51 47 52 32 53 35 54 46 55 62 56
REMARK SMILES IDX 33 57 34 58 45 60 63 61 36 62 23 63 24 64 29 65 25 66 26 67
REMARK SMILES IDX 28 68 30 69 27 70 49 71 50 72 55 73 51 74 52 75 54 76 56 77
REMARK SMILES IDX 53 78 37 79 38 80 43 81 39 82 40 83 42 84 44 85 41 86
REMARK H PARENT 7 5 71 14 11 29 61 48 35 59
REMARK Flexibility Score: inf
ROOT
ATOM      1  C   UNL A   1      32.170  30.472  26.763  1.00  0.00     0.118 C 
ENDROOT
BRANCH   1   2
ATOM      2  N   UNL A   1      31.584  30.230  25.447  1.00  0.00    -0.352 N 
ATOM      3  C   UNL A   1      31.415  29.113  24.655  1.00  0.00     0.251 C 
ATOM      4  O   UNL A   1      30.828  29.280  23.584  1.00  0.00    -0.269 OA
ATOM      5  H   UNL A   1      31.230  31.049  25.031  1.00  0.00     0.163 HD
BRANCH   3   6
ATOM      6  C   UNL A   1      31.908  27.742  24.990  1.00  0.00     0.040 A 
ATOM      7  C   UNL A   1      30.343  24.522  26.326  1.00  0.00     0.046 C 
ATOM      8  C   UNL A   1      31.391  25.431  25.739  1.00  0.00    -0.027 A 
ATOM      9  C   UNL A   1      30.998  26.771  25.447  1.00  0.00     0.019 A 
ATOM     10  C   UNL A   1      32.734  25.047  25.573  1.00  0.00     0.037 A 
ATOM     11  C   UNL A   1      33.620  26.066  25.237  1.00  0.00     0.027 A 
ATOM     12  C   UNL A   1      33.230  27.364  24.925  1.00  0.00     0.016 A 
BRANCH  10  13
ATOM     13  N   UNL A   1      33.188  23.738  25.708  1.00  0.00    -0.378 N 
ATOM     14  H   UNL A   1      32.969  23.255  26.538  1.00  0.00     0.161 HD
BRANCH  13  15
ATOM     15  C   UNL A   1      33.984  23.029  24.677  1.00  0.00     0.106 C 
ATOM     16  C   UNL A   1      33.225  21.768  24.245  1.00  0.00     0.036 C 
BRANCH  15  17
ATOM     17  C   UNL A   1      35.398  22.672  25.127  1.00  0.00    -0.020 A 
ATOM     18  C   UNL A   1      35.914  21.388  24.847  1.00  0.00     0.045 A 
ATOM     19  C   UNL A   1      36.269  23.634  25.669  1.00  0.00     0.045 A 
ATOM     20  C   UNL A   1      37.273  21.125  25.016  1.00  0.00     0.126 A 
ATOM     21  C   UNL A   1      37.619  23.332  25.854  1.00  0.00     0.126 A 
ATOM     22  F   UNL A   1      37.766  19.942  24.621  1.00  0.00    -0.207 F 
ATOM     23  C   UNL A   1      38.135  22.090  25.512  1.00  0.00     0.078 A 
ATOM     24  F   UNL A   1      38.444  24.280  26.316  1.00  0.00    -0.207 F 
ENDBRANCH  15  17
ENDBRANCH  13  15
ENDBRANCH  10  13
ENDBRANCH   3   6
ENDBRANCH   1   2
BRANCH   1  25
ATOM     25  C   UNL A   1      33.707  30.512  26.746  1.00  0.00     0.042 C 
BRANCH  25  26
ATOM     26  C   UNL A   1      34.324  29.951  28.023  1.00  0.00     0.118 C 
BRANCH  26  27
ATOM     27  N   UNL A   1      35.040  30.933  28.839  1.00  0.00    -0.352 N 
ATOM     28  C   UNL A   1      36.334  30.856  29.348  1.00  0.00     0.251 C 
ATOM     29  H   UNL A   1      34.543  31.754  29.056  1.00  0.00     0.163 HD
ATOM     30  O   UNL A   1      36.801  31.745  30.022  1.00  0.00    -0.269 OA
BRANCH  28  31
ATOM     31  C   UNL A   1      37.172  29.707  28.921  1.00  0.00     0.039 A 
ATOM     32  C   UNL A   1      37.440  28.728  29.881  1.00  0.00     0.014 A 
ATOM     33  C   UNL A   1      37.926  29.792  27.754  1.00  0.00     0.014 A 
ATOM     34  C   UNL A   1      38.647  28.039  29.816  1.00  0.00     0.010 A 
ATOM     35  C   UNL A   1      39.160  29.167  27.729  1.00  0.00     0.010 A 
ATOM     36  C   UNL A   1      39.555  28.364  28.806  1.00  0.00    -0.014 A 
BRANCH  36  37
ATOM     37  C   UNL A   1      40.971  28.023  28.897  1.00  0.00     0.031 A 
ATOM     38  C   UNL A   1      41.488  26.786  28.286  1.00  0.00     0.074 A 
ATOM     39  C   UNL A   1      41.837  28.833  29.548  1.00  0.00     0.049 A 
ATOM     40  N   UNL A   1      42.500  26.127  28.745  1.00  0.00    -0.248 NA
ATOM     41  C   UNL A   1      40.878  26.181  27.113  1.00  0.00     0.031 C 
ATOM     42  C   UNL A   1      43.293  28.729  29.576  1.00  0.00     0.029 A 
ATOM     43  N   UNL A   1      41.539  29.796  30.518  1.00  0.00    -0.354 N 
ATOM     44  C   UNL A   1      42.846  25.194  27.799  1.00  0.00     0.074 A 
ATOM     45  C   UNL A   1      41.768  25.221  26.835  1.00  0.00     0.031 C 
ATOM     46  C   UNL A   1      43.747  29.333  30.683  1.00  0.00     0.029 A 
ATOM     47  C   UNL A   1      42.598  29.760  31.455  1.00  0.00     0.049 A 
ATOM     48  H   UNL A   1      40.750  30.384  30.543  1.00  0.00     0.167 HD
ATOM     49  C   UNL A   1      44.070  24.591  27.858  1.00  0.00     0.037 A 
ATOM     50  C   UNL A   1      42.360  29.462  32.765  1.00  0.00     0.037 A 
ATOM     51  C   UNL A   1      44.853  25.036  29.011  1.00  0.00     0.049 A 
ATOM     52  C   UNL A   1      43.003  28.177  33.244  1.00  0.00     0.074 A 
ATOM     53  C   UNL A   1      45.894  25.935  29.185  1.00  0.00     0.029 A 
ATOM     54  N   UNL A   1      44.405  24.733  30.285  1.00  0.00    -0.354 N 
ATOM     55  N   UNL A   1      43.788  27.427  32.521  1.00  0.00    -0.248 NA
ATOM     56  C   UNL A   1      42.718  27.582  34.551  1.00  0.00     0.031 C 
ATOM     57  C   UNL A   1      46.075  26.152  30.581  1.00  0.00     0.029 A 
ATOM     58  C   UNL A   1      45.140  25.392  31.255  1.00  0.00     0.049 A 
ATOM     59  H   UNL A   1      43.657  24.124  30.478  1.00  0.00     0.167 HD
ATOM     60  C   UNL A   1      44.046  26.261  33.194  1.00  0.00     0.074 A 
ATOM     61  C   UNL A   1      43.361  26.408  34.464  1.00  0.00     0.031 C 
ATOM     62  C   UNL A   1      44.760  25.233  32.649  1.00  0.00     0.037 A 
BRANCH  49  63
ATOM     63  C   UNL A   1      44.641  23.800  26.706  1.00  0.00     0.057 A 
ATOM     64  C   UNL A   1      44.205  22.490  26.430  1.00  0.00     0.134 A 
ATOM     65  C   UNL A   1      45.664  24.260  25.859  1.00  0.00     0.134 A 
ATOM     66  F   UNL A   1      43.150  21.950  27.054  1.00  0.00    -0.206 F 
ATOM     67  C   UNL A   1      44.835  21.659  25.496  1.00  0.00     0.040 A 
ATOM     68  C   UNL A   1      46.345  23.423  24.962  1.00  0.00     0.040 A 
ATOM     69  F   UNL A   1      46.016  25.552  25.829  1.00  0.00    -0.206 F 
ATOM     70  C   UNL A   1      45.942  22.107  24.793  1.00  0.00     0.006 A 
ENDBRANCH  49  63
BRANCH  50  71
ATOM     71  C   UNL A   1      41.058  30.007  33.230  1.00  0.00     0.057 A 
ATOM     72  C   UNL A   1      40.957  31.397  33.423  1.00  0.00     0.134 A 
ATOM     73  C   UNL A   1      39.869  29.293  33.077  1.00  0.00     0.134 A 
ATOM     74  F   UNL A   1      42.065  32.138  33.586  1.00  0.00    -0.206 F 
ATOM     75  C   UNL A   1      39.738  32.067  33.311  1.00  0.00     0.040 A 
ATOM     76  C   UNL A   1      38.639  29.953  32.988  1.00  0.00     0.040 A 
ATOM     77  F   UNL A   1      39.886  27.967  32.883  1.00  0.00    -0.206 F 
ATOM     78  C   UNL A   1      38.578  31.345  33.050  1.00  0.00     0.006 A 
ENDBRANCH  50  71
BRANCH  62  79
ATOM     79  C   UNL A   1      45.132  23.982  33.399  1.00  0.00     0.057 A 
ATOM     80  C   UNL A   1      44.214  22.953  33.656  1.00  0.00     0.134 A 
ATOM     81  C   UNL A   1      46.397  23.824  33.999  1.00  0.00     0.134 A 
ATOM     82  F   UNL A   1      42.947  23.031  33.224  1.00  0.00    -0.206 F 
ATOM     83  C   UNL A   1      44.552  21.812  34.396  1.00  0.00     0.040 A 
ATOM     84  C   UNL A   1      46.732  22.713  34.779  1.00  0.00     0.040 A 
ATOM     85  F   UNL A   1      47.372  24.732  33.843  1.00  0.00    -0.206 F 
ATOM     86  C   UNL A   1      45.813  21.692  34.965  1.00  0.00     0.006 A 
ENDBRANCH  62  79
ENDBRANCH  36  37
ENDBRANCH  28  31
ENDBRANCH  26  27
ENDBRANCH  25  26
ENDBRANCH   1  25
TORSDOF 13
ENDMDL
MODEL 3
REMARK VINA RESULT:     -12.6      3.861      9.536
REMARK SMILES Cc1cc(C(=O)NCCCNC(=O)c2ccc(-c3c4nc(c(-c5c(F)cccc5F)c5ccc([nH]5)c(-c5c(F)cccc5F)c5nc(c(-c6c(F)cccc6F)c6ccc3[nH]6)C=C5)C=C4)cc2)ccc1N[C@H](C)c1cc(F)cc(F)c1
REMARK SMILES IDX 8 1 7 2 5 3 6 4 4 6 1 7 2 8 3 9 70 10 69 11 68 12 71 13
REMARK SMILES IDX 72 15 73 16 74 17 75 18 81 19 76 20 79 21 77 22 78 23 80 24
REMARK SMILES IDX 9 25 10 26 11 27 12 28 13 30 14 31 15 32 67 33 16 34 66 35
REMARK SMILES IDX 17 36 18 37 19 38 60 39 20 40 65 41 59 42 61 43 21 44 64 45
REMARK SMILES IDX 58 46 57 47 22 49 48 50 31 51 47 52 32 53 35 54 46 55 62 56
REMARK SMILES IDX 33 57 34 58 45 60 63 61 36 62 23 63 24 64 29 65 25 66 26 67
REMARK SMILES IDX 28 68 30 69 27 70 49 71 50 72 55 73 51 74 52 75 54 76 56 77
REMARK SMILES IDX 53 78 37 79 38 80 43 81 39 82 40 83 42 84 44 85 41 86
REMARK H PARENT 7 5 71 14 11 29 61 48 35 59
REMARK Flexibility Score: inf
ROOT
ATOM      1  C   UNL A   1      32.531  30.719  26.478  1.00  0.00     0.118 C 
ENDROOT
BRANCH   1   2
ATOM      2  N   UNL A   1      31.839  29.735  27.306  1.00  0.00    -0.352 N 
ATOM      3  C   UNL A   1      31.634  28.373  27.222  1.00  0.00     0.251 C 
ATOM      4  O   UNL A   1      31.013  27.851  28.149  1.00  0.00    -0.269 OA
ATOM      5  H   UNL A   1      31.426  30.134  28.106  1.00  0.00     0.163 HD
BRANCH   3   6
ATOM      6  C   UNL A   1      32.086  27.507  26.090  1.00  0.00     0.040 A 
ATOM      7  C   UNL A   1      34.788  24.853  25.585  1.00  0.00     0.046 C 
ATOM      8  C   UNL A   1      33.585  25.703  25.272  1.00  0.00    -0.027 A 
ATOM      9  C   UNL A   1      33.136  26.593  26.293  1.00  0.00     0.019 A 
ATOM     10  C   UNL A   1      32.969  25.726  24.008  1.00  0.00     0.037 A 
ATOM     11  C   UNL A   1      32.020  26.726  23.812  1.00  0.00     0.027 A 
ATOM     12  C   UNL A   1      31.565  27.572  24.817  1.00  0.00     0.016 A 
BRANCH  10  13
ATOM     13  N   UNL A   1      33.248  24.816  22.993  1.00  0.00    -0.378 N 
ATOM     14  H   UNL A   1      33.997  25.015  22.385  1.00  0.00     0.161 HD
BRANCH  13  15
ATOM     15  C   UNL A   1      32.483  23.564  22.772  1.00  0.00     0.106 C 
ATOM     16  C   UNL A   1      31.060  23.751  23.312  1.00  0.00     0.036 C 
BRANCH  15  17
ATOM     17  C   UNL A   1      33.131  22.329  23.392  1.00  0.00    -0.020 A 
ATOM     18  C   UNL A   1      34.514  22.336  23.672  1.00  0.00     0.045 A 
ATOM     19  C   UNL A   1      32.366  21.240  23.847  1.00  0.00     0.045 A 
ATOM     20  C   UNL A   1      35.076  21.334  24.462  1.00  0.00     0.126 A 
ATOM     21  C   UNL A   1      32.962  20.237  24.612  1.00  0.00     0.126 A 
ATOM     22  F   UNL A   1      36.364  21.429  24.824  1.00  0.00    -0.207 F 
ATOM     23  C   UNL A   1      34.309  20.284  24.943  1.00  0.00     0.078 A 
ATOM     24  F   UNL A   1      32.205  19.239  25.087  1.00  0.00    -0.207 F 
ENDBRANCH  15  17
ENDBRANCH  13  15
ENDBRANCH  10  13
ENDBRANCH   3   6
ENDBRANCH   1   2
BRANCH   1  25
ATOM     25  C   UNL A   1      33.506  31.604  27.272  1.00  0.00     0.042 C 
BRANCH  25  26
ATOM     26  C   UNL A   1      34.505  30.791  28.089  1.00  0.00     0.118 C 
BRANCH  26  27
ATOM     27  N   UNL A   1      35.415  31.589  28.912  1.00  0.00    -0.352 N 
ATOM     28  C   UNL A   1      36.627  31.205  29.483  1.00  0.00     0.251 C 
ATOM     29  H   UNL A   1      35.135  32.516  29.085  1.00  0.00     0.163 HD
ATOM     30  O   UNL A   1      37.278  31.971  30.155  1.00  0.00    -0.269 OA
BRANCH  28  31
ATOM     31  C   UNL A   1      37.161  29.867  29.125  1.00  0.00     0.039 A 
ATOM     32  C   UNL A   1      37.451  28.998  30.179  1.00  0.00     0.014 A 
ATOM     33  C   UNL A   1      37.668  29.640  27.848  1.00  0.00     0.014 A 
ATOM     34  C   UNL A   1      38.491  28.086  30.028  1.00  0.00     0.010 A 
ATOM     35  C   UNL A   1      38.752  28.790  27.720  1.00  0.00     0.010 A 
ATOM     36  C   UNL A   1      39.218  28.084  28.836  1.00  0.00    -0.014 A 
BRANCH  36  37
ATOM     37  C   UNL A   1      40.547  27.490  28.739  1.00  0.00     0.031 A 
ATOM     38  C   UNL A   1      40.713  26.064  28.407  1.00  0.00     0.074 A 
ATOM     39  C   UNL A   1      41.655  28.235  28.957  1.00  0.00     0.049 A 
ATOM     40  N   UNL A   1      41.697  25.339  28.823  1.00  0.00    -0.248 NA
ATOM     41  C   UNL A   1      39.754  25.337  27.591  1.00  0.00     0.031 C 
ATOM     42  C   UNL A   1      43.042  27.843  28.728  1.00  0.00     0.029 A 
ATOM     43  N   UNL A   1      41.747  29.441  29.661  1.00  0.00    -0.354 N 
ATOM     44  C   UNL A   1      41.663  24.157  28.125  1.00  0.00     0.074 A 
ATOM     45  C   UNL A   1      40.398  24.177  27.421  1.00  0.00     0.031 C 
ATOM     46  C   UNL A   1      43.836  28.586  29.513  1.00  0.00     0.029 A 
ATOM     47  C   UNL A   1      42.984  29.411  30.345  1.00  0.00     0.049 A 
ATOM     48  H   UNL A   1      41.083  30.168  29.676  1.00  0.00     0.167 HD
ATOM     49  C   UNL A   1      42.761  23.348  28.109  1.00  0.00     0.037 A 
ATOM     50  C   UNL A   1      43.030  29.488  31.707  1.00  0.00     0.037 A 
ATOM     51  C   UNL A   1      43.857  23.882  28.917  1.00  0.00     0.049 A 
ATOM     52  C   UNL A   1      43.573  28.250  32.388  1.00  0.00     0.074 A 
ATOM     53  C   UNL A   1      45.030  24.563  28.628  1.00  0.00     0.029 A 
ATOM     54  N   UNL A   1      43.693  23.989  30.287  1.00  0.00    -0.354 N 
ATOM     55  N   UNL A   1      44.040  27.204  31.763  1.00  0.00    -0.248 NA
ATOM     56  C   UNL A   1      43.530  28.054  33.838  1.00  0.00     0.031 C 
ATOM     57  C   UNL A   1      45.575  25.063  29.845  1.00  0.00     0.029 A 
ATOM     58  C   UNL A   1      44.729  24.694  30.872  1.00  0.00     0.049 A 
ATOM     59  H   UNL A   1      42.932  23.611  30.784  1.00  0.00     0.167 HD
ATOM     60  C   UNL A   1      44.280  26.204  32.669  1.00  0.00     0.074 A 
ATOM     61  C   UNL A   1      43.953  26.786  33.957  1.00  0.00     0.031 C 
ATOM     62  C   UNL A   1      44.680  24.951  32.302  1.00  0.00     0.037 A 
BRANCH  49  63
ATOM     63  C   UNL A   1      42.913  22.205  27.133  1.00  0.00     0.057 A 
ATOM     64  C   UNL A   1      42.147  21.030  27.257  1.00  0.00     0.134 A 
ATOM     65  C   UNL A   1      43.836  22.185  26.074  1.00  0.00     0.134 A 
ATOM     66  F   UNL A   1      41.133  20.935  28.126  1.00  0.00    -0.206 F 
ATOM     67  C   UNL A   1      42.387  19.881  26.493  1.00  0.00     0.040 A 
ATOM     68  C   UNL A   1      44.131  21.025  25.341  1.00  0.00     0.040 A 
ATOM     69  F   UNL A   1      44.461  23.300  25.672  1.00  0.00    -0.206 F 
ATOM     70  C   UNL A   1      43.415  19.859  25.564  1.00  0.00     0.006 A 
ENDBRANCH  49  63
BRANCH  50  71
ATOM     71  C   UNL A   1      41.975  30.384  32.247  1.00  0.00     0.057 A 
ATOM     72  C   UNL A   1      42.163  31.773  32.123  1.00  0.00     0.134 A 
ATOM     73  C   UNL A   1      40.674  29.931  32.473  1.00  0.00     0.134 A 
ATOM     74  F   UNL A   1      43.392  32.272  31.915  1.00  0.00    -0.206 F 
ATOM     75  C   UNL A   1      41.085  32.658  32.069  1.00  0.00     0.040 A 
ATOM     76  C   UNL A   1      39.590  30.813  32.443  1.00  0.00     0.040 A 
ATOM     77  F   UNL A   1      40.417  28.621  32.594  1.00  0.00    -0.206 F 
ATOM     78  C   UNL A   1      39.788  32.170  32.187  1.00  0.00     0.006 A 
ENDBRANCH  50  71
BRANCH  62  79
ATOM     79  C   UNL A   1      45.035  23.866  33.282  1.00  0.00     0.057 A 
ATOM     80  C   UNL A   1      44.098  22.930  33.746  1.00  0.00     0.134 A 
ATOM     81  C   UNL A   1      46.304  23.799  33.890  1.00  0.00     0.134 A 
ATOM     82  F   UNL A   1      42.827  22.952  33.318  1.00  0.00    -0.206 F 
ATOM     83  C   UNL A   1      44.421  21.950  34.694  1.00  0.00     0.040 A 
ATOM     84  C   UNL A   1      46.625  22.858  34.873  1.00  0.00     0.040 A 
ATOM     85  F   UNL A   1      47.296  24.634  33.549  1.00  0.00    -0.206 F 
ATOM     86  C   UNL A   1      45.686  21.915  35.266  1.00  0.00     0.006 A 
ENDBRANCH  62  79
ENDBRANCH  36  37
ENDBRANCH  28  31
ENDBRANCH  26  27
ENDBRANCH  25  26
ENDBRANCH   1  25
TORSDOF 13
ENDMDL
