MODEL 1
REMARK VINA RESULT:     -11.3      0.000      0.000
REMARK SMILES CC(C)CS(=O)(=O)Cc1c(C(=O)NCCCNC(=O)c2ccc(-c3c4nc(c(-c5c(F)cccc5F)c5ccc([nH]5)c(-c5c(F)cccc5F)c5nc(c(-c6c(F)cccc6F)c6ccc3[nH]6)C=C5)C=C4)cc2)oc2ccccc12
REMARK SMILES IDX 14 1 13 2 11 3 12 4 10 6 9 7 80 8 74 9 75 10 79 11 76 12
REMARK SMILES IDX 78 13 77 14 8 15 5 16 6 17 7 18 4 19 2 20 1 21 3 22 15 23
REMARK SMILES IDX 16 24 17 25 18 26 19 28 20 29 21 30 73 31 22 32 72 33 23 34
REMARK SMILES IDX 24 35 25 36 66 37 26 38 71 39 65 40 67 41 27 42 70 43 64 44
REMARK SMILES IDX 63 45 28 47 54 48 37 49 53 50 38 51 41 52 52 53 68 54 39 55
REMARK SMILES IDX 40 56 51 58 69 59 42 60 29 61 30 62 35 63 31 64 32 65 34 66
REMARK SMILES IDX 36 67 33 68 55 69 56 70 61 71 57 72 58 73 60 74 62 75 59 76
REMARK SMILES IDX 43 77 44 78 49 79 45 80 46 81 48 82 50 83 47 84
REMARK H PARENT 13 5 17 27 67 46 41 57
REMARK Flexibility Score: inf
ROOT
ATOM      1  C   UNL A   1      33.643  28.878  24.922  1.00  0.00     0.118 C 
ENDROOT
BRANCH   1   2
ATOM      2  N   UNL A   1      33.918  28.163  23.688  1.00  0.00    -0.349 N 
ATOM      3  C   UNL A   1      33.094  27.677  22.705  1.00  0.00     0.287 C 
ATOM      4  O   UNL A   1      33.661  27.035  21.811  1.00  0.00    -0.266 OA
ATOM      5  H   UNL A   1      34.875  27.995  23.527  1.00  0.00     0.163 HD
BRANCH   3   6
ATOM      6  C   UNL A   1      31.653  27.883  22.721  1.00  0.00     0.196 A 
ATOM      7  C   UNL A   1      30.603  27.005  23.048  1.00  0.00     0.027 A 
ATOM      8  C   UNL A   1      29.415  27.827  23.037  1.00  0.00     0.025 A 
ATOM      9  O   UNL A   1      31.154  29.104  22.412  1.00  0.00    -0.451 OA
ATOM     10  C   UNL A   1      29.819  29.074  22.577  1.00  0.00     0.135 A 
ATOM     11  C   UNL A   1      28.051  27.726  23.372  1.00  0.00     0.012 A 
ATOM     12  C   UNL A   1      28.984  30.169  22.346  1.00  0.00     0.048 A 
ATOM     13  C   UNL A   1      27.171  28.798  23.150  1.00  0.00     0.001 A 
ATOM     14  C   UNL A   1      27.631  29.999  22.628  1.00  0.00     0.004 A 
BRANCH   7  15
ATOM     15  C   UNL A   1      30.873  25.565  23.408  1.00  0.00     0.177 C 
BRANCH  15  16
ATOM     16  S   UNL A   1      30.905  24.934  25.074  1.00  0.00     0.154 S 
ATOM     17  O   UNL A   1      30.701  23.496  24.975  1.00  0.00    -0.228 OA
ATOM     18  O   UNL A   1      29.971  25.725  25.856  1.00  0.00    -0.228 OA
BRANCH  16  19
ATOM     19  C   UNL A   1      32.488  25.133  25.845  1.00  0.00     0.140 C 
BRANCH  19  20
ATOM     20  C   UNL A   1      33.610  24.112  25.620  1.00  0.00    -0.002 C 
ATOM     21  C   UNL A   1      35.016  24.641  25.364  1.00  0.00     0.008 C 
ATOM     22  C   UNL A   1      33.666  23.172  26.834  1.00  0.00     0.008 C 
ENDBRANCH  19  20
ENDBRANCH  16  19
ENDBRANCH  15  16
ENDBRANCH   7  15
ENDBRANCH   3   6
ENDBRANCH   1   2
BRANCH   1  23
ATOM     23  C   UNL A   1      34.333  28.220  26.113  1.00  0.00     0.042 C 
BRANCH  23  24
ATOM     24  C   UNL A   1      33.666  28.548  27.448  1.00  0.00     0.118 C 
BRANCH  24  25
ATOM     25  N   UNL A   1      33.709  29.975  27.751  1.00  0.00    -0.352 N 
ATOM     26  C   UNL A   1      34.687  30.731  28.343  1.00  0.00     0.251 C 
ATOM     27  H   UNL A   1      32.904  30.476  27.487  1.00  0.00     0.163 HD
ATOM     28  O   UNL A   1      34.427  31.870  28.723  1.00  0.00    -0.269 OA
BRANCH  26  29
ATOM     29  C   UNL A   1      36.046  30.187  28.529  1.00  0.00     0.039 A 
ATOM     30  C   UNL A   1      36.961  30.276  27.478  1.00  0.00     0.014 A 
ATOM     31  C   UNL A   1      36.409  29.562  29.724  1.00  0.00     0.014 A 
ATOM     32  C   UNL A   1      38.261  29.799  27.649  1.00  0.00     0.010 A 
ATOM     33  C   UNL A   1      37.727  29.162  29.923  1.00  0.00     0.010 A 
ATOM     34  C   UNL A   1      38.665  29.275  28.887  1.00  0.00    -0.014 A 
BRANCH  34  35
ATOM     35  C   UNL A   1      40.068  28.852  29.126  1.00  0.00     0.031 A 
ATOM     36  C   UNL A   1      41.048  29.798  29.760  1.00  0.00     0.074 A 
ATOM     37  C   UNL A   1      40.474  27.641  28.699  1.00  0.00     0.049 A 
ATOM     38  N   UNL A   1      42.328  29.634  29.983  1.00  0.00    -0.248 NA
ATOM     39  C   UNL A   1      40.529  31.110  30.174  1.00  0.00     0.031 C 
ATOM     40  C   UNL A   1      39.627  26.650  28.032  1.00  0.00     0.029 A 
ATOM     41  N   UNL A   1      41.706  27.040  28.753  1.00  0.00    -0.354 N 
ATOM     42  C   UNL A   1      42.769  30.828  30.541  1.00  0.00     0.074 A 
ATOM     43  C   UNL A   1      41.632  31.722  30.577  1.00  0.00     0.031 C 
ATOM     44  C   UNL A   1      40.356  25.554  27.771  1.00  0.00     0.029 A 
ATOM     45  C   UNL A   1      41.729  25.781  28.208  1.00  0.00     0.049 A 
ATOM     46  H   UNL A   1      42.499  27.472  29.147  1.00  0.00     0.167 HD
ATOM     47  C   UNL A   1      44.005  31.142  30.998  1.00  0.00     0.037 A 
ATOM     48  C   UNL A   1      42.745  24.909  28.068  1.00  0.00     0.037 A 
ATOM     49  C   UNL A   1      45.126  30.238  30.980  1.00  0.00     0.049 A 
ATOM     50  C   UNL A   1      44.113  25.292  28.560  1.00  0.00     0.074 A 
ATOM     51  C   UNL A   1      46.398  30.433  31.489  1.00  0.00     0.029 A 
ATOM     52  N   UNL A   1      45.111  28.973  30.412  1.00  0.00    -0.354 N 
ATOM     53  N   UNL A   1      44.499  26.392  29.159  1.00  0.00    -0.248 NA
ATOM     54  C   UNL A   1      45.187  24.310  28.357  1.00  0.00     0.031 C 
ATOM     55  C   UNL A   1      47.170  29.310  31.177  1.00  0.00     0.029 A 
ATOM     56  C   UNL A   1      46.364  28.390  30.526  1.00  0.00     0.049 A 
ATOM     57  H   UNL A   1      44.328  28.551  29.991  1.00  0.00     0.167 HD
ATOM     58  C   UNL A   1      45.850  26.224  29.433  1.00  0.00     0.074 A 
ATOM     59  C   UNL A   1      46.213  24.909  28.944  1.00  0.00     0.031 C 
ATOM     60  C   UNL A   1      46.710  27.078  30.038  1.00  0.00     0.037 A 
BRANCH  47  61
ATOM     61  C   UNL A   1      44.210  32.526  31.545  1.00  0.00     0.057 A 
ATOM     62  C   UNL A   1      44.627  33.593  30.737  1.00  0.00     0.134 A 
ATOM     63  C   UNL A   1      43.964  32.802  32.897  1.00  0.00     0.134 A 
ATOM     64  F   UNL A   1      44.890  33.397  29.436  1.00  0.00    -0.206 F 
ATOM     65  C   UNL A   1      44.826  34.872  31.260  1.00  0.00     0.040 A 
ATOM     66  C   UNL A   1      44.130  34.083  33.424  1.00  0.00     0.040 A 
ATOM     67  F   UNL A   1      43.555  31.831  33.727  1.00  0.00    -0.206 F 
ATOM     68  C   UNL A   1      44.571  35.122  32.606  1.00  0.00     0.006 A 
ENDBRANCH  47  61
BRANCH  48  69
ATOM     69  C   UNL A   1      42.503  23.575  27.464  1.00  0.00     0.057 A 
ATOM     70  C   UNL A   1      42.551  23.398  26.076  1.00  0.00     0.134 A 
ATOM     71  C   UNL A   1      42.218  22.450  28.247  1.00  0.00     0.134 A 
ATOM     72  F   UNL A   1      42.802  24.441  25.271  1.00  0.00    -0.206 F 
ATOM     73  C   UNL A   1      42.306  22.157  25.487  1.00  0.00     0.040 A 
ATOM     74  C   UNL A   1      41.997  21.196  27.674  1.00  0.00     0.040 A 
ATOM     75  F   UNL A   1      42.166  22.550  29.584  1.00  0.00    -0.206 F 
ATOM     76  C   UNL A   1      42.034  21.050  26.288  1.00  0.00     0.006 A 
ENDBRANCH  48  69
BRANCH  60  77
ATOM     77  C   UNL A   1      48.121  26.605  30.240  1.00  0.00     0.057 A 
ATOM     78  C   UNL A   1      48.504  25.874  31.372  1.00  0.00     0.134 A 
ATOM     79  C   UNL A   1      49.100  26.852  29.269  1.00  0.00     0.134 A 
ATOM     80  F   UNL A   1      47.618  25.618  32.347  1.00  0.00    -0.206 F 
ATOM     81  C   UNL A   1      49.815  25.426  31.541  1.00  0.00     0.040 A 
ATOM     82  C   UNL A   1      50.406  26.382  29.412  1.00  0.00     0.040 A 
ATOM     83  F   UNL A   1      48.799  27.538  28.156  1.00  0.00    -0.206 F 
ATOM     84  C   UNL A   1      50.768  25.672  30.555  1.00  0.00     0.006 A 
ENDBRANCH  60  77
ENDBRANCH  34  35
ENDBRANCH  26  29
ENDBRANCH  24  25
ENDBRANCH  23  24
ENDBRANCH   1  23
TORSDOF 14
ENDMDL
MODEL 2
REMARK VINA RESULT:     -11.2      2.826      7.755
REMARK SMILES CC(C)CS(=O)(=O)Cc1c(C(=O)NCCCNC(=O)c2ccc(-c3c4nc(c(-c5c(F)cccc5F)c5ccc([nH]5)c(-c5c(F)cccc5F)c5nc(c(-c6c(F)cccc6F)c6ccc3[nH]6)C=C5)C=C4)cc2)oc2ccccc12
REMARK SMILES IDX 14 1 13 2 11 3 12 4 10 6 9 7 80 8 74 9 75 10 79 11 76 12
REMARK SMILES IDX 78 13 77 14 8 15 5 16 6 17 7 18 4 19 2 20 1 21 3 22 15 23
REMARK SMILES IDX 16 24 17 25 18 26 19 28 20 29 21 30 73 31 22 32 72 33 23 34
REMARK SMILES IDX 24 35 25 36 66 37 26 38 71 39 65 40 67 41 27 42 70 43 64 44
REMARK SMILES IDX 63 45 28 47 54 48 37 49 53 50 38 51 41 52 52 53 68 54 39 55
REMARK SMILES IDX 40 56 51 58 69 59 42 60 29 61 30 62 35 63 31 64 32 65 34 66
REMARK SMILES IDX 36 67 33 68 55 69 56 70 61 71 57 72 58 73 60 74 62 75 59 76
REMARK SMILES IDX 43 77 44 78 49 79 45 80 46 81 48 82 50 83 47 84
REMARK H PARENT 13 5 17 27 67 46 41 57
REMARK Flexibility Score: inf
ROOT
ATOM      1  C   UNL A   1      33.972  24.189  26.103  1.00  0.00     0.118 C 
ENDROOT
BRANCH   1   2
ATOM      2  N   UNL A   1      33.635  24.463  24.717  1.00  0.00    -0.349 N 
ATOM      3  C   UNL A   1      33.209  25.602  24.083  1.00  0.00     0.287 C 
ATOM      4  O   UNL A   1      32.932  25.467  22.884  1.00  0.00    -0.266 OA
ATOM      5  H   UNL A   1      33.731  23.685  24.120  1.00  0.00     0.163 HD
BRANCH   3   6
ATOM      6  C   UNL A   1      33.071  26.876  24.775  1.00  0.00     0.196 A 
ATOM      7  C   UNL A   1      31.932  27.658  25.041  1.00  0.00     0.027 A 
ATOM      8  C   UNL A   1      32.404  28.720  25.900  1.00  0.00     0.025 A 
ATOM      9  O   UNL A   1      34.169  27.462  25.311  1.00  0.00    -0.451 OA
ATOM     10  C   UNL A   1      33.785  28.572  25.965  1.00  0.00     0.135 A 
ATOM     11  C   UNL A   1      31.879  29.779  26.665  1.00  0.00     0.012 A 
ATOM     12  C   UNL A   1      34.665  29.421  26.638  1.00  0.00     0.048 A 
ATOM     13  C   UNL A   1      32.727  30.663  27.352  1.00  0.00     0.001 A 
ATOM     14  C   UNL A   1      34.105  30.494  27.325  1.00  0.00     0.004 A 
BRANCH   7  15
ATOM     15  C   UNL A   1      30.571  27.253  24.534  1.00  0.00     0.177 C 
BRANCH  15  16
ATOM     16  S   UNL A   1      29.712  28.066  23.200  1.00  0.00     0.154 S 
ATOM     17  O   UNL A   1      28.320  27.651  23.292  1.00  0.00    -0.228 OA
ATOM     18  O   UNL A   1      30.449  27.793  21.978  1.00  0.00    -0.228 OA
BRANCH  16  19
ATOM     19  C   UNL A   1      29.691  29.829  23.382  1.00  0.00     0.140 C 
BRANCH  19  20
ATOM     20  C   UNL A   1      28.469  30.653  22.956  1.00  0.00    -0.002 C 
ATOM     21  C   UNL A   1      28.453  32.137  23.302  1.00  0.00     0.008 C 
ATOM     22  C   UNL A   1      28.292  30.513  21.436  1.00  0.00     0.008 C 
ENDBRANCH  19  20
ENDBRANCH  16  19
ENDBRANCH  15  16
ENDBRANCH   7  15
ENDBRANCH   3   6
ENDBRANCH   1   2
BRANCH   1  23
ATOM     23  C   UNL A   1      35.061  23.125  26.213  1.00  0.00     0.042 C 
BRANCH  23  24
ATOM     24  C   UNL A   1      36.453  23.655  25.874  1.00  0.00     0.118 C 
BRANCH  24  25
ATOM     25  N   UNL A   1      37.484  22.633  26.024  1.00  0.00    -0.352 N 
ATOM     26  C   UNL A   1      38.820  22.749  26.306  1.00  0.00     0.251 C 
ATOM     27  H   UNL A   1      37.168  21.709  25.903  1.00  0.00     0.163 HD
ATOM     28  O   UNL A   1      39.561  21.781  26.150  1.00  0.00    -0.269 OA
BRANCH  26  29
ATOM     29  C   UNL A   1      39.376  24.028  26.790  1.00  0.00     0.039 A 
ATOM     30  C   UNL A   1      39.992  24.887  25.877  1.00  0.00     0.014 A 
ATOM     31  C   UNL A   1      39.321  24.366  28.144  1.00  0.00     0.014 A 
ATOM     32  C   UNL A   1      40.492  26.116  26.310  1.00  0.00     0.010 A 
ATOM     33  C   UNL A   1      39.745  25.624  28.561  1.00  0.00     0.010 A 
ATOM     34  C   UNL A   1      40.335  26.510  27.649  1.00  0.00    -0.014 A 
BRANCH  34  35
ATOM     35  C   UNL A   1      40.769  27.852  28.114  1.00  0.00     0.031 A 
ATOM     36  C   UNL A   1      42.230  28.198  28.177  1.00  0.00     0.074 A 
ATOM     37  C   UNL A   1      39.845  28.729  28.551  1.00  0.00     0.049 A 
ATOM     38  N   UNL A   1      42.802  29.288  28.622  1.00  0.00    -0.248 NA
ATOM     39  C   UNL A   1      43.173  27.174  27.705  1.00  0.00     0.031 C 
ATOM     40  C   UNL A   1      38.400  28.495  28.578  1.00  0.00     0.029 A 
ATOM     41  N   UNL A   1      39.985  29.993  29.066  1.00  0.00    -0.354 N 
ATOM     42  C   UNL A   1      44.169  29.072  28.502  1.00  0.00     0.074 A 
ATOM     43  C   UNL A   1      44.341  27.730  27.991  1.00  0.00     0.031 C 
ATOM     44  C   UNL A   1      37.786  29.590  29.052  1.00  0.00     0.029 A 
ATOM     45  C   UNL A   1      38.793  30.585  29.404  1.00  0.00     0.049 A 
ATOM     46  H   UNL A   1      40.859  30.433  29.182  1.00  0.00     0.167 HD
ATOM     47  C   UNL A   1      45.187  29.923  28.777  1.00  0.00     0.037 A 
ATOM     48  C   UNL A   1      38.541  31.791  29.945  1.00  0.00     0.037 A 
ATOM     49  C   UNL A   1      45.007  31.266  29.264  1.00  0.00     0.049 A 
ATOM     50  C   UNL A   1      39.691  32.707  30.265  1.00  0.00     0.074 A 
ATOM     51  C   UNL A   1      45.969  32.233  29.499  1.00  0.00     0.029 A 
ATOM     52  N   UNL A   1      43.784  31.827  29.601  1.00  0.00    -0.354 N 
ATOM     53  N   UNL A   1      40.974  32.522  30.073  1.00  0.00    -0.248 NA
ATOM     54  C   UNL A   1      39.354  33.999  30.877  1.00  0.00     0.031 C 
ATOM     55  C   UNL A   1      45.334  33.359  30.035  1.00  0.00     0.029 A 
ATOM     56  C   UNL A   1      43.971  33.115  30.078  1.00  0.00     0.049 A 
ATOM     57  H   UNL A   1      42.913  31.378  29.514  1.00  0.00     0.167 HD
ATOM     58  C   UNL A   1      41.596  33.684  30.508  1.00  0.00     0.074 A 
ATOM     59  C   UNL A   1      40.546  34.573  30.965  1.00  0.00     0.031 C 
ATOM     60  C   UNL A   1      42.916  33.990  30.526  1.00  0.00     0.037 A 
BRANCH  47  61
ATOM     61  C   UNL A   1      46.587  29.419  28.568  1.00  0.00     0.057 A 
ATOM     62  C   UNL A   1      47.244  29.533  27.335  1.00  0.00     0.134 A 
ATOM     63  C   UNL A   1      47.297  28.831  29.622  1.00  0.00     0.134 A 
ATOM     64  F   UNL A   1      46.619  30.076  26.279  1.00  0.00    -0.206 F 
ATOM     65  C   UNL A   1      48.541  29.049  27.149  1.00  0.00     0.040 A 
ATOM     66  C   UNL A   1      48.605  28.372  29.458  1.00  0.00     0.040 A 
ATOM     67  F   UNL A   1      46.734  28.697  30.832  1.00  0.00    -0.206 F 
ATOM     68  C   UNL A   1      49.227  28.472  28.215  1.00  0.00     0.006 A 
ENDBRANCH  47  61
BRANCH  48  69
ATOM     69  C   UNL A   1      37.141  32.219  30.190  1.00  0.00     0.057 A 
ATOM     70  C   UNL A   1      36.504  31.928  31.402  1.00  0.00     0.134 A 
ATOM     71  C   UNL A   1      36.404  32.922  29.228  1.00  0.00     0.134 A 
ATOM     72  F   UNL A   1      37.152  31.242  32.356  1.00  0.00    -0.206 F 
ATOM     73  C   UNL A   1      35.183  32.303  31.643  1.00  0.00     0.040 A 
ATOM     74  C   UNL A   1      35.090  33.327  29.466  1.00  0.00     0.040 A 
ATOM     75  F   UNL A   1      36.959  33.240  28.049  1.00  0.00    -0.206 F 
ATOM     76  C   UNL A   1      34.474  33.010  30.675  1.00  0.00     0.006 A 
ENDBRANCH  48  69
BRANCH  60  77
ATOM     77  C   UNL A   1      43.300  35.354  31.020  1.00  0.00     0.057 A 
ATOM     78  C   UNL A   1      43.489  35.626  32.381  1.00  0.00     0.134 A 
ATOM     79  C   UNL A   1      43.521  36.402  30.116  1.00  0.00     0.134 A 
ATOM     80  F   UNL A   1      43.278  34.671  33.300  1.00  0.00    -0.206 F 
ATOM     81  C   UNL A   1      43.861  36.895  32.827  1.00  0.00     0.040 A 
ATOM     82  C   UNL A   1      43.924  37.666  30.547  1.00  0.00     0.040 A 
ATOM     83  F   UNL A   1      43.367  36.208  28.797  1.00  0.00    -0.206 F 
ATOM     84  C   UNL A   1      44.089  37.918  31.907  1.00  0.00     0.006 A 
ENDBRANCH  60  77
ENDBRANCH  34  35
ENDBRANCH  26  29
ENDBRANCH  24  25
ENDBRANCH  23  24
ENDBRANCH   1  23
TORSDOF 14
ENDMDL
MODEL 3
REMARK VINA RESULT:     -11.2      3.107      8.048
REMARK SMILES CC(C)CS(=O)(=O)Cc1c(C(=O)NCCCNC(=O)c2ccc(-c3c4nc(c(-c5c(F)cccc5F)c5ccc([nH]5)c(-c5c(F)cccc5F)c5nc(c(-c6c(F)cccc6F)c6ccc3[nH]6)C=C5)C=C4)cc2)oc2ccccc12
REMARK SMILES IDX 14 1 13 2 11 3 12 4 10 6 9 7 80 8 74 9 75 10 79 11 76 12
REMARK SMILES IDX 78 13 77 14 8 15 5 16 6 17 7 18 4 19 2 20 1 21 3 22 15 23
REMARK SMILES IDX 16 24 17 25 18 26 19 28 20 29 21 30 73 31 22 32 72 33 23 34
REMARK SMILES IDX 24 35 25 36 66 37 26 38 71 39 65 40 67 41 27 42 70 43 64 44
REMARK SMILES IDX 63 45 28 47 54 48 37 49 53 50 38 51 41 52 52 53 68 54 39 55
REMARK SMILES IDX 40 56 51 58 69 59 42 60 29 61 30 62 35 63 31 64 32 65 34 66
REMARK SMILES IDX 36 67 33 68 55 69 56 70 61 71 57 72 58 73 60 74 62 75 59 76
REMARK SMILES IDX 43 77 44 78 49 79 45 80 46 81 48 82 50 83 47 84
REMARK H PARENT 13 5 17 27 67 46 41 57
REMARK Flexibility Score: inf
ROOT
ATOM      1  C   UNL A   1      37.577  21.516  24.513  1.00  0.00     0.118 C 
ENDROOT
BRANCH   1   2
ATOM      2  N   UNL A   1      36.765  21.978  25.626  1.00  0.00    -0.349 N 
ATOM      3  C   UNL A   1      35.458  21.745  25.970  1.00  0.00     0.287 C 
ATOM      4  O   UNL A   1      35.053  22.370  26.958  1.00  0.00    -0.266 OA
ATOM      5  H   UNL A   1      37.244  22.571  26.251  1.00  0.00     0.163 HD
BRANCH   3   6
ATOM      6  C   UNL A   1      34.602  20.842  25.214  1.00  0.00     0.196 A 
ATOM      7  C   UNL A   1      33.434  21.092  24.470  1.00  0.00     0.027 A 
ATOM      8  C   UNL A   1      33.134  19.837  23.819  1.00  0.00     0.025 A 
ATOM      9  O   UNL A   1      34.927  19.529  25.136  1.00  0.00    -0.451 OA
ATOM     10  C   UNL A   1      34.045  18.918  24.324  1.00  0.00     0.135 A 
ATOM     11  C   UNL A   1      32.245  19.329  22.852  1.00  0.00     0.012 A 
ATOM     12  C   UNL A   1      34.085  17.556  24.020  1.00  0.00     0.048 A 
ATOM     13  C   UNL A   1      32.244  17.964  22.519  1.00  0.00     0.001 A 
ATOM     14  C   UNL A   1      33.143  17.087  23.109  1.00  0.00     0.004 A 
BRANCH   7  15
ATOM     15  C   UNL A   1      32.829  22.472  24.406  1.00  0.00     0.177 C 
BRANCH  15  16
ATOM     16  S   UNL A   1      33.452  23.796  23.388  1.00  0.00     0.154 S 
ATOM     17  O   UNL A   1      32.293  24.422  22.770  1.00  0.00    -0.228 OA
ATOM     18  O   UNL A   1      34.489  23.238  22.537  1.00  0.00    -0.228 OA
BRANCH  16  19
ATOM     19  C   UNL A   1      34.227  25.074  24.339  1.00  0.00     0.140 C 
BRANCH  19  20
ATOM     20  C   UNL A   1      33.480  26.371  24.678  1.00  0.00    -0.002 C 
ATOM     21  C   UNL A   1      33.733  27.005  26.040  1.00  0.00     0.008 C 
ATOM     22  C   UNL A   1      33.798  27.415  23.596  1.00  0.00     0.008 C 
ENDBRANCH  19  20
ENDBRANCH  16  19
ENDBRANCH  15  16
ENDBRANCH   7  15
ENDBRANCH   3   6
ENDBRANCH   1   2
BRANCH   1  23
ATOM     23  C   UNL A   1      38.183  20.145  24.797  1.00  0.00     0.042 C 
BRANCH  23  24
ATOM     24  C   UNL A   1      39.012  20.110  26.079  1.00  0.00     0.118 C 
BRANCH  24  25
ATOM     25  N   UNL A   1      40.213  19.292  25.938  1.00  0.00    -0.352 N 
ATOM     26  C   UNL A   1      41.538  19.637  26.000  1.00  0.00     0.251 C 
ATOM     27  H   UNL A   1      40.044  18.337  25.772  1.00  0.00     0.163 HD
ATOM     28  O   UNL A   1      42.392  18.842  25.616  1.00  0.00    -0.269 OA
BRANCH  26  29
ATOM     29  C   UNL A   1      41.947  20.957  26.521  1.00  0.00     0.039 A 
ATOM     30  C   UNL A   1      42.355  21.943  25.620  1.00  0.00     0.014 A 
ATOM     31  C   UNL A   1      41.959  21.212  27.894  1.00  0.00     0.014 A 
ATOM     32  C   UNL A   1      42.711  23.207  26.092  1.00  0.00     0.010 A 
ATOM     33  C   UNL A   1      42.235  22.495  28.357  1.00  0.00     0.010 A 
ATOM     34  C   UNL A   1      42.614  23.504  27.461  1.00  0.00    -0.014 A 
BRANCH  34  35
ATOM     35  C   UNL A   1      42.892  24.868  27.976  1.00  0.00     0.031 A 
ATOM     36  C   UNL A   1      44.288  25.265  28.362  1.00  0.00     0.074 A 
ATOM     37  C   UNL A   1      41.868  25.723  28.166  1.00  0.00     0.049 A 
ATOM     38  N   UNL A   1      44.712  26.383  28.896  1.00  0.00    -0.248 NA
ATOM     39  C   UNL A   1      45.344  24.264  28.147  1.00  0.00     0.031 C 
ATOM     40  C   UNL A   1      40.462  25.441  27.867  1.00  0.00     0.029 A 
ATOM     41  N   UNL A   1      41.850  27.001  28.664  1.00  0.00    -0.354 N 
ATOM     42  C   UNL A   1      46.076  26.210  29.099  1.00  0.00     0.074 A 
ATOM     43  C   UNL A   1      46.399  24.864  28.678  1.00  0.00     0.031 C 
ATOM     44  C   UNL A   1      39.726  26.524  28.157  1.00  0.00     0.029 A 
ATOM     45  C   UNL A   1      40.596  27.559  28.704  1.00  0.00     0.049 A 
ATOM     46  H   UNL A   1      42.661  27.473  28.965  1.00  0.00     0.167 HD
ATOM     47  C   UNL A   1      46.979  27.100  29.576  1.00  0.00     0.037 A 
ATOM     48  C   UNL A   1      40.193  28.767  29.139  1.00  0.00     0.037 A 
ATOM     49  C   UNL A   1      46.655  28.446  29.972  1.00  0.00     0.049 A 
ATOM     50  C   UNL A   1      41.212  29.727  29.689  1.00  0.00     0.074 A 
ATOM     51  C   UNL A   1      47.509  29.449  30.396  1.00  0.00     0.029 A 
ATOM     52  N   UNL A   1      45.371  28.972  30.005  1.00  0.00    -0.354 N 
ATOM     53  N   UNL A   1      42.509  29.581  29.801  1.00  0.00    -0.248 NA
ATOM     54  C   UNL A   1      40.708  31.020  30.173  1.00  0.00     0.031 C 
ATOM     55  C   UNL A   1      46.737  30.563  30.741  1.00  0.00     0.029 A 
ATOM     56  C   UNL A   1      45.407  30.275  30.477  1.00  0.00     0.049 A 
ATOM     57  H   UNL A   1      44.557  28.492  29.734  1.00  0.00     0.167 HD
ATOM     58  C   UNL A   1      42.982  30.773  30.336  1.00  0.00     0.074 A 
ATOM     59  C   UNL A   1      41.831  31.634  30.516  1.00  0.00     0.031 C 
ATOM     60  C   UNL A   1      44.254  31.123  30.647  1.00  0.00     0.037 A 
BRANCH  47  61
ATOM     61  C   UNL A   1      48.403  26.639  29.708  1.00  0.00     0.057 A 
ATOM     62  C   UNL A   1      49.334  26.791  28.671  1.00  0.00     0.134 A 
ATOM     63  C   UNL A   1      48.856  26.054  30.898  1.00  0.00     0.134 A 
ATOM     64  F   UNL A   1      48.966  27.334  27.501  1.00  0.00    -0.206 F 
ATOM     65  C   UNL A   1      50.652  26.347  28.801  1.00  0.00     0.040 A 
ATOM     66  C   UNL A   1      50.178  25.635  31.050  1.00  0.00     0.040 A 
ATOM     67  F   UNL A   1      48.021  25.885  31.934  1.00  0.00    -0.206 F 
ATOM     68  C   UNL A   1      51.079  25.773  29.996  1.00  0.00     0.006 A 
ENDBRANCH  47  61
BRANCH  48  69
ATOM     69  C   UNL A   1      38.763  29.153  29.045  1.00  0.00     0.057 A 
ATOM     70  C   UNL A   1      37.915  29.039  30.153  1.00  0.00     0.134 A 
ATOM     71  C   UNL A   1      38.205  29.639  27.856  1.00  0.00     0.134 A 
ATOM     72  F   UNL A   1      38.386  28.562  31.316  1.00  0.00    -0.206 F 
ATOM     73  C   UNL A   1      36.564  29.375  30.079  1.00  0.00     0.040 A 
ATOM     74  C   UNL A   1      36.861  30.005  27.774  1.00  0.00     0.040 A 
ATOM     75  F   UNL A   1      38.965  29.780  26.760  1.00  0.00    -0.206 F 
ATOM     76  C   UNL A   1      36.035  29.866  28.888  1.00  0.00     0.006 A 
ENDBRANCH  48  69
BRANCH  60  77
ATOM     77  C   UNL A   1      44.475  32.509  31.178  1.00  0.00     0.057 A 
ATOM     78  C   UNL A   1      44.497  32.784  32.552  1.00  0.00     0.134 A 
ATOM     79  C   UNL A   1      44.708  33.578  30.302  1.00  0.00     0.134 A 
ATOM     80  F   UNL A   1      44.266  31.808  33.443  1.00  0.00    -0.206 F 
ATOM     81  C   UNL A   1      44.720  34.074  33.033  1.00  0.00     0.040 A 
ATOM     82  C   UNL A   1      44.964  34.866  30.773  1.00  0.00     0.040 A 
ATOM     83  F   UNL A   1      44.710  33.383  28.974  1.00  0.00    -0.206 F 
ATOM     84  C   UNL A   1      44.963  35.119  32.143  1.00  0.00     0.006 A 
ENDBRANCH  60  77
ENDBRANCH  34  35
ENDBRANCH  26  29
ENDBRANCH  24  25
ENDBRANCH  23  24
ENDBRANCH   1  23
TORSDOF 14
ENDMDL
