MODEL 1
REMARK VINA RESULT:     -12.6      0.000      0.000
REMARK SMILES O=C(NCCCNC(=O)c1ccc(N2C(=O)/C(=C/c3ccco3)SC2=S)cc1)c1ccc(-c2c3nc(c(-c4c(F)cccc4F)c4ccc([nH]4)c(-c4c(F)cccc4F)c4nc(c(-c5c(F)cccc5F)c5ccc2[nH]5)C=C4)C=C3)cc1
REMARK SMILES IDX 5 1 4 2 3 3 1 4 2 5 29 7 30 8 82 9 31 10 81 11 32 12 33 13
REMARK SMILES IDX 34 14 75 15 35 16 80 17 74 18 76 19 36 20 79 21 73 22 72 23
REMARK SMILES IDX 37 25 63 26 46 27 62 28 47 29 50 30 61 31 77 32 48 33 49 34
REMARK SMILES IDX 60 36 78 37 51 38 38 39 39 40 44 41 40 42 41 43 43 44 45 45
REMARK SMILES IDX 42 46 64 47 65 48 70 49 66 50 67 51 69 52 71 53 68 54 52 55
REMARK SMILES IDX 53 56 58 57 54 58 55 59 57 60 59 61 56 62 6 63 7 64 8 65
REMARK SMILES IDX 9 67 10 68 11 69 28 70 12 71 27 72 13 73 14 74 15 75 25 76
REMARK SMILES IDX 16 77 17 78 24 79 26 80 18 81 19 82 20 83 23 84 21 85 22 86
REMARK H PARENT 3 6 76 24 50 35 7 66
REMARK Flexibility Score: inf
ROOT
ATOM      1  C   UNL A   1      37.339  19.617  24.791  1.00  0.00     0.042 C 
ENDROOT
BRANCH   1   2
ATOM      2  C   UNL A   1      38.515  20.240  25.530  1.00  0.00     0.118 C 
BRANCH   2   3
ATOM      3  N   UNL A   1      39.643  19.329  25.665  1.00  0.00    -0.352 N 
ATOM      4  O   UNL A   1      41.789  18.695  25.903  1.00  0.00    -0.269 OA
ATOM      5  C   UNL A   1      40.943  19.576  26.030  1.00  0.00     0.251 C 
ATOM      6  H   UNL A   1      39.441  18.387  25.464  1.00  0.00     0.163 HD
BRANCH   5   7
ATOM      7  C   UNL A   1      41.336  20.902  26.555  1.00  0.00     0.039 A 
ATOM      8  C   UNL A   1      41.805  21.904  25.704  1.00  0.00     0.014 A 
ATOM      9  C   UNL A   1      41.198  21.156  27.924  1.00  0.00     0.014 A 
ATOM     10  C   UNL A   1      42.274  23.101  26.232  1.00  0.00     0.010 A 
ATOM     11  C   UNL A   1      41.581  22.396  28.442  1.00  0.00     0.010 A 
ATOM     12  C   UNL A   1      42.149  23.367  27.603  1.00  0.00    -0.014 A 
BRANCH  12  13
ATOM     13  C   UNL A   1      42.549  24.695  28.129  1.00  0.00     0.031 A 
ATOM     14  C   UNL A   1      41.535  25.775  28.368  1.00  0.00     0.074 A 
ATOM     15  C   UNL A   1      43.851  24.921  28.385  1.00  0.00     0.049 A 
ATOM     16  N   UNL A   1      41.720  26.999  28.794  1.00  0.00    -0.248 NA
ATOM     17  C   UNL A   1      40.131  25.444  28.082  1.00  0.00     0.031 C 
ATOM     18  C   UNL A   1      44.931  23.953  28.172  1.00  0.00     0.029 A 
ATOM     19  N   UNL A   1      44.491  26.028  28.878  1.00  0.00    -0.354 N 
ATOM     20  C   UNL A   1      40.465  27.592  28.806  1.00  0.00     0.074 A 
ATOM     21  C   UNL A   1      39.526  26.600  28.322  1.00  0.00     0.031 C 
ATOM     22  C   UNL A   1      46.093  24.501  28.550  1.00  0.00     0.029 A 
ATOM     23  C   UNL A   1      45.851  25.875  28.975  1.00  0.00     0.049 A 
ATOM     24  H   UNL A   1      44.020  26.854  29.135  1.00  0.00     0.167 HD
ATOM     25  C   UNL A   1      40.128  28.846  29.190  1.00  0.00     0.037 A 
ATOM     26  C   UNL A   1      46.807  26.750  29.337  1.00  0.00     0.037 A 
ATOM     27  C   UNL A   1      41.066  29.822  29.684  1.00  0.00     0.049 A 
ATOM     28  C   UNL A   1      46.411  28.137  29.743  1.00  0.00     0.074 A 
ATOM     29  C   UNL A   1      40.815  31.099  30.154  1.00  0.00     0.029 A 
ATOM     30  N   UNL A   1      42.438  29.631  29.763  1.00  0.00    -0.354 N 
ATOM     31  N   UNL A   1      45.215  28.668  29.797  1.00  0.00    -0.248 NA
ATOM     32  C   UNL A   1      47.495  29.047  30.135  1.00  0.00     0.031 C 
ATOM     33  C   UNL A   1      42.039  31.698  30.472  1.00  0.00     0.029 A 
ATOM     34  C   UNL A   1      43.050  30.777  30.244  1.00  0.00     0.049 A 
ATOM     35  H   UNL A   1      42.907  28.803  29.513  1.00  0.00     0.167 HD
ATOM     36  C   UNL A   1      45.396  29.971  30.239  1.00  0.00     0.074 A 
ATOM     37  C   UNL A   1      46.819  30.144  30.454  1.00  0.00     0.031 C 
ATOM     38  C   UNL A   1      44.468  30.936  30.446  1.00  0.00     0.037 A 
BRANCH  25  39
ATOM     39  C   UNL A   1      38.686  29.245  29.066  1.00  0.00     0.057 A 
ATOM     40  C   UNL A   1      38.135  29.679  27.853  1.00  0.00     0.134 A 
ATOM     41  C   UNL A   1      37.829  29.168  30.173  1.00  0.00     0.134 A 
ATOM     42  F   UNL A   1      38.902  29.786  26.758  1.00  0.00    -0.206 F 
ATOM     43  C   UNL A   1      36.791  30.048  27.751  1.00  0.00     0.040 A 
ATOM     44  C   UNL A   1      36.479  29.511  30.077  1.00  0.00     0.040 A 
ATOM     45  F   UNL A   1      38.288  28.753  31.363  1.00  0.00    -0.206 F 
ATOM     46  C   UNL A   1      35.958  29.959  28.866  1.00  0.00     0.006 A 
ENDBRANCH  25  39
BRANCH  26  47
ATOM     47  C   UNL A   1      48.226  26.324  29.306  1.00  0.00     0.057 A 
ATOM     48  C   UNL A   1      49.016  26.511  28.167  1.00  0.00     0.134 A 
ATOM     49  C   UNL A   1      48.839  25.769  30.437  1.00  0.00     0.134 A 
ATOM     50  F   UNL A   1      48.481  27.026  27.051  1.00  0.00    -0.206 F 
ATOM     51  C   UNL A   1      50.366  26.159  28.153  1.00  0.00     0.040 A 
ATOM     52  C   UNL A   1      50.193  25.435  30.445  1.00  0.00     0.040 A 
ATOM     53  F   UNL A   1      48.135  25.577  31.563  1.00  0.00    -0.206 F 
ATOM     54  C   UNL A   1      50.961  25.628  29.298  1.00  0.00     0.006 A 
ENDBRANCH  26  47
BRANCH  38  55
ATOM     55  C   UNL A   1      44.961  32.260  30.946  1.00  0.00     0.057 A 
ATOM     56  C   UNL A   1      45.283  33.303  30.070  1.00  0.00     0.134 A 
ATOM     57  C   UNL A   1      45.072  32.507  32.320  1.00  0.00     0.134 A 
ATOM     58  F   UNL A   1      45.212  33.124  28.743  1.00  0.00    -0.206 F 
ATOM     59  C   UNL A   1      45.714  34.543  30.544  1.00  0.00     0.040 A 
ATOM     60  C   UNL A   1      45.480  33.750  32.806  1.00  0.00     0.040 A 
ATOM     61  F   UNL A   1      44.773  31.550  33.211  1.00  0.00    -0.206 F 
ATOM     62  C   UNL A   1      45.805  34.771  31.915  1.00  0.00     0.006 A 
ENDBRANCH  38  55
ENDBRANCH  12  13
ENDBRANCH   5   7
ENDBRANCH   2   3
ENDBRANCH   1   2
BRANCH   1  63
ATOM     63  C   UNL A   1      36.020  20.348  24.995  1.00  0.00     0.118 C 
BRANCH  63  64
ATOM     64  N   UNL A   1      34.882  19.441  24.980  1.00  0.00    -0.352 N 
ATOM     65  C   UNL A   1      33.542  19.721  25.042  1.00  0.00     0.251 C 
ATOM     66  H   UNL A   1      35.109  18.485  24.915  1.00  0.00     0.163 HD
ATOM     67  O   UNL A   1      32.732  18.823  25.243  1.00  0.00    -0.269 OA
BRANCH  65  68
ATOM     68  C   UNL A   1      33.072  21.109  24.868  1.00  0.00     0.039 A 
ATOM     69  C   UNL A   1      32.304  21.697  25.871  1.00  0.00     0.016 A 
ATOM     70  C   UNL A   1      33.358  21.815  23.696  1.00  0.00     0.016 A 
ATOM     71  C   UNL A   1      31.866  23.018  25.724  1.00  0.00     0.027 A 
ATOM     72  C   UNL A   1      32.924  23.133  23.557  1.00  0.00     0.027 A 
ATOM     73  C   UNL A   1      32.165  23.749  24.563  1.00  0.00     0.051 A 
BRANCH  73  74
ATOM     74  N   UNL A   1      31.728  25.101  24.420  1.00  0.00    -0.261 N 
ATOM     75  C   UNL A   1      30.583  25.377  23.670  1.00  0.00     0.270 C 
ATOM     76  C   UNL A   1      32.368  26.193  24.993  1.00  0.00     0.152 C 
ATOM     77  O   UNL A   1      29.877  24.586  23.063  1.00  0.00    -0.268 OA
ATOM     78  C   UNL A   1      30.268  26.831  23.737  1.00  0.00     0.084 C 
ATOM     79  S   UNL A   1      31.452  27.659  24.661  1.00  0.00    -0.054 SA
ATOM     80  S   UNL A   1      33.833  26.290  25.797  1.00  0.00    -0.051 S 
ATOM     81  C   UNL A   1      29.154  27.326  23.180  1.00  0.00     0.068 C 
BRANCH  81  82
ATOM     82  C   UNL A   1      28.795  28.698  23.245  1.00  0.00     0.127 A 
ATOM     83  C   UNL A   1      27.552  29.308  23.108  1.00  0.00     0.050 A 
ATOM     84  O   UNL A   1      29.716  29.689  23.496  1.00  0.00    -0.465 OA
ATOM     85  C   UNL A   1      27.737  30.705  23.233  1.00  0.00     0.042 A 
ATOM     86  C   UNL A   1      29.077  30.883  23.463  1.00  0.00     0.195 A 
ENDBRANCH  81  82
ENDBRANCH  73  74
ENDBRANCH  65  68
ENDBRANCH  63  64
ENDBRANCH   1  63
TORSDOF 12
ENDMDL
MODEL 2
REMARK VINA RESULT:     -12.6      3.059      8.382
REMARK SMILES O=C(NCCCNC(=O)c1ccc(N2C(=O)/C(=C/c3ccco3)SC2=S)cc1)c1ccc(-c2c3nc(c(-c4c(F)cccc4F)c4ccc([nH]4)c(-c4c(F)cccc4F)c4nc(c(-c5c(F)cccc5F)c5ccc2[nH]5)C=C4)C=C3)cc1
REMARK SMILES IDX 5 1 4 2 3 3 1 4 2 5 29 7 30 8 82 9 31 10 81 11 32 12 33 13
REMARK SMILES IDX 34 14 75 15 35 16 80 17 74 18 76 19 36 20 79 21 73 22 72 23
REMARK SMILES IDX 37 25 63 26 46 27 62 28 47 29 50 30 61 31 77 32 48 33 49 34
REMARK SMILES IDX 60 36 78 37 51 38 38 39 39 40 44 41 40 42 41 43 43 44 45 45
REMARK SMILES IDX 42 46 64 47 65 48 70 49 66 50 67 51 69 52 71 53 68 54 52 55
REMARK SMILES IDX 53 56 58 57 54 58 55 59 57 60 59 61 56 62 6 63 7 64 8 65
REMARK SMILES IDX 9 67 10 68 11 69 28 70 12 71 27 72 13 73 14 74 15 75 25 76
REMARK SMILES IDX 16 77 17 78 24 79 26 80 18 81 19 82 20 83 23 84 21 85 22 86
REMARK H PARENT 3 6 76 24 50 35 7 66
REMARK Flexibility Score: inf
ROOT
ATOM      1  C   UNL A   1      34.085  30.340  27.287  1.00  0.00     0.042 C 
ENDROOT
BRANCH   1   2
ATOM      2  C   UNL A   1      35.406  30.764  27.912  1.00  0.00     0.118 C 
BRANCH   2   3
ATOM      3  N   UNL A   1      35.368  30.760  29.368  1.00  0.00    -0.352 N 
ATOM      4  O   UNL A   1      35.982  30.222  31.465  1.00  0.00    -0.269 OA
ATOM      5  C   UNL A   1      36.287  30.301  30.278  1.00  0.00     0.251 C 
ATOM      6  H   UNL A   1      34.553  31.150  29.762  1.00  0.00     0.163 HD
BRANCH   5   7
ATOM      7  C   UNL A   1      37.635  29.882  29.837  1.00  0.00     0.039 A 
ATOM      8  C   UNL A   1      37.992  29.910  28.487  1.00  0.00     0.014 A 
ATOM      9  C   UNL A   1      38.571  29.489  30.798  1.00  0.00     0.014 A 
ATOM     10  C   UNL A   1      39.223  29.407  28.083  1.00  0.00     0.010 A 
ATOM     11  C   UNL A   1      39.844  29.072  30.399  1.00  0.00     0.010 A 
ATOM     12  C   UNL A   1      40.169  29.001  29.036  1.00  0.00    -0.014 A 
BRANCH  12  13
ATOM     13  C   UNL A   1      41.518  28.575  28.591  1.00  0.00     0.031 A 
ATOM     14  C   UNL A   1      41.790  27.156  28.183  1.00  0.00     0.074 A 
ATOM     15  C   UNL A   1      42.506  29.489  28.565  1.00  0.00     0.049 A 
ATOM     16  N   UNL A   1      42.917  26.611  27.800  1.00  0.00    -0.248 NA
ATOM     17  C   UNL A   1      40.654  26.224  28.221  1.00  0.00     0.031 C 
ATOM     18  C   UNL A   1      42.364  30.893  28.959  1.00  0.00     0.029 A 
ATOM     19  N   UNL A   1      43.821  29.379  28.194  1.00  0.00    -0.354 N 
ATOM     20  C   UNL A   1      42.635  25.272  27.572  1.00  0.00     0.074 A 
ATOM     21  C   UNL A   1      41.233  25.079  27.883  1.00  0.00     0.031 C 
ATOM     22  C   UNL A   1      43.538  31.517  28.789  1.00  0.00     0.029 A 
ATOM     23  C   UNL A   1      44.527  30.547  28.333  1.00  0.00     0.049 A 
ATOM     24  H   UNL A   1      44.220  28.542  27.861  1.00  0.00     0.167 HD
ATOM     25  C   UNL A   1      43.468  24.295  27.140  1.00  0.00     0.037 A 
ATOM     26  C   UNL A   1      45.833  30.808  28.145  1.00  0.00     0.037 A 
ATOM     27  C   UNL A   1      44.858  24.499  26.819  1.00  0.00     0.049 A 
ATOM     28  C   UNL A   1      46.739  29.709  27.680  1.00  0.00     0.074 A 
ATOM     29  C   UNL A   1      45.770  23.588  26.316  1.00  0.00     0.029 A 
ATOM     30  N   UNL A   1      45.538  25.698  26.977  1.00  0.00    -0.354 N 
ATOM     31  N   UNL A   1      46.446  28.458  27.422  1.00  0.00    -0.248 NA
ATOM     32  C   UNL A   1      48.153  30.053  27.485  1.00  0.00     0.031 C 
ATOM     33  C   UNL A   1      47.014  24.221  26.217  1.00  0.00     0.029 A 
ATOM     34  C   UNL A   1      46.866  25.541  26.613  1.00  0.00     0.049 A 
ATOM     35  H   UNL A   1      45.137  26.536  27.303  1.00  0.00     0.167 HD
ATOM     36  C   UNL A   1      47.636  27.865  27.022  1.00  0.00     0.074 A 
ATOM     37  C   UNL A   1      48.650  28.900  27.057  1.00  0.00     0.031 C 
ATOM     38  C   UNL A   1      47.865  26.579  26.660  1.00  0.00     0.037 A 
BRANCH  25  39
ATOM     39  C   UNL A   1      42.905  22.909  27.013  1.00  0.00     0.057 A 
ATOM     40  C   UNL A   1      42.661  22.100  28.131  1.00  0.00     0.134 A 
ATOM     41  C   UNL A   1      42.576  22.387  25.755  1.00  0.00     0.134 A 
ATOM     42  F   UNL A   1      42.963  22.535  29.363  1.00  0.00    -0.206 F 
ATOM     43  C   UNL A   1      42.138  20.812  28.000  1.00  0.00     0.040 A 
ATOM     44  C   UNL A   1      42.030  21.110  25.614  1.00  0.00     0.040 A 
ATOM     45  F   UNL A   1      42.776  23.111  24.644  1.00  0.00    -0.206 F 
ATOM     46  C   UNL A   1      41.815  20.316  26.737  1.00  0.00     0.006 A 
ENDBRANCH  25  39
BRANCH  26  47
ATOM     47  C   UNL A   1      46.345  32.173  28.419  1.00  0.00     0.057 A 
ATOM     48  C   UNL A   1      46.839  32.523  29.680  1.00  0.00     0.134 A 
ATOM     49  C   UNL A   1      46.399  33.141  27.408  1.00  0.00     0.134 A 
ATOM     50  F   UNL A   1      46.801  31.641  30.689  1.00  0.00    -0.206 F 
ATOM     51  C   UNL A   1      47.370  33.790  29.927  1.00  0.00     0.040 A 
ATOM     52  C   UNL A   1      46.948  34.403  27.635  1.00  0.00     0.040 A 
ATOM     53  F   UNL A   1      45.950  32.860  26.176  1.00  0.00    -0.206 F 
ATOM     54  C   UNL A   1      47.434  34.731  28.899  1.00  0.00     0.006 A 
ENDBRANCH  26  47
BRANCH  38  55
ATOM     55  C   UNL A   1      49.265  26.224  26.257  1.00  0.00     0.057 A 
ATOM     56  C   UNL A   1      49.766  26.535  24.988  1.00  0.00     0.134 A 
ATOM     57  C   UNL A   1      50.132  25.604  27.164  1.00  0.00     0.134 A 
ATOM     58  F   UNL A   1      48.979  27.115  24.069  1.00  0.00    -0.206 F 
ATOM     59  C   UNL A   1      51.079  26.227  24.629  1.00  0.00     0.040 A 
ATOM     60  C   UNL A   1      51.454  25.312  26.825  1.00  0.00     0.040 A 
ATOM     61  F   UNL A   1      49.714  25.284  28.398  1.00  0.00    -0.206 F 
ATOM     62  C   UNL A   1      51.929  25.622  25.552  1.00  0.00     0.006 A 
ENDBRANCH  38  55
ENDBRANCH  12  13
ENDBRANCH   5   7
ENDBRANCH   2   3
ENDBRANCH   1   2
BRANCH   1  63
ATOM     63  C   UNL A   1      34.211  29.206  26.279  1.00  0.00     0.118 C 
BRANCH  63  64
ATOM     64  N   UNL A   1      33.429  29.452  25.077  1.00  0.00    -0.352 N 
ATOM     65  C   UNL A   1      33.083  28.589  24.070  1.00  0.00     0.251 C 
ATOM     66  H   UNL A   1      33.099  30.374  24.972  1.00  0.00     0.163 HD
ATOM     67  O   UNL A   1      32.610  29.019  23.023  1.00  0.00    -0.269 OA
BRANCH  65  68
ATOM     68  C   UNL A   1      33.280  27.137  24.245  1.00  0.00     0.039 A 
ATOM     69  C   UNL A   1      33.652  26.365  23.145  1.00  0.00     0.016 A 
ATOM     70  C   UNL A   1      33.060  26.534  25.485  1.00  0.00     0.016 A 
ATOM     71  C   UNL A   1      33.859  24.991  23.302  1.00  0.00     0.027 A 
ATOM     72  C   UNL A   1      33.272  25.164  25.638  1.00  0.00     0.027 A 
ATOM     73  C   UNL A   1      33.664  24.372  24.548  1.00  0.00     0.051 A 
BRANCH  73  74
ATOM     74  N   UNL A   1      33.887  22.971  24.710  1.00  0.00    -0.261 N 
ATOM     75  C   UNL A   1      32.857  22.075  24.421  1.00  0.00     0.270 C 
ATOM     76  C   UNL A   1      35.087  22.415  25.135  1.00  0.00     0.152 C 
ATOM     77  O   UNL A   1      31.720  22.332  24.055  1.00  0.00    -0.268 OA
ATOM     78  C   UNL A   1      33.342  20.674  24.571  1.00  0.00     0.084 C 
ATOM     79  S   UNL A   1      34.973  20.659  25.098  1.00  0.00    -0.054 SA
ATOM     80  S   UNL A   1      36.469  23.149  25.732  1.00  0.00    -0.051 S 
ATOM     81  C   UNL A   1      32.564  19.632  24.248  1.00  0.00     0.068 C 
BRANCH  81  82
ATOM     82  C   UNL A   1      32.993  18.282  24.343  1.00  0.00     0.127 A 
ATOM     83  C   UNL A   1      33.712  17.502  23.442  1.00  0.00     0.050 A 
ATOM     84  O   UNL A   1      32.744  17.506  25.452  1.00  0.00    -0.465 OA
ATOM     85  C   UNL A   1      33.860  16.213  24.004  1.00  0.00     0.042 A 
ATOM     86  C   UNL A   1      33.245  16.268  25.228  1.00  0.00     0.195 A 
ENDBRANCH  81  82
ENDBRANCH  73  74
ENDBRANCH  65  68
ENDBRANCH  63  64
ENDBRANCH   1  63
TORSDOF 12
ENDMDL
MODEL 3
REMARK VINA RESULT:     -12.5      4.406      6.016
REMARK SMILES O=C(NCCCNC(=O)c1ccc(N2C(=O)/C(=C/c3ccco3)SC2=S)cc1)c1ccc(-c2c3nc(c(-c4c(F)cccc4F)c4ccc([nH]4)c(-c4c(F)cccc4F)c4nc(c(-c5c(F)cccc5F)c5ccc2[nH]5)C=C4)C=C3)cc1
REMARK SMILES IDX 5 1 4 2 3 3 1 4 2 5 29 7 30 8 82 9 31 10 81 11 32 12 33 13
REMARK SMILES IDX 34 14 75 15 35 16 80 17 74 18 76 19 36 20 79 21 73 22 72 23
REMARK SMILES IDX 37 25 63 26 46 27 62 28 47 29 50 30 61 31 77 32 48 33 49 34
REMARK SMILES IDX 60 36 78 37 51 38 38 39 39 40 44 41 40 42 41 43 43 44 45 45
REMARK SMILES IDX 42 46 64 47 65 48 70 49 66 50 67 51 69 52 71 53 68 54 52 55
REMARK SMILES IDX 53 56 58 57 54 58 55 59 57 60 59 61 56 62 6 63 7 64 8 65
REMARK SMILES IDX 9 67 10 68 11 69 28 70 12 71 27 72 13 73 14 74 15 75 25 76
REMARK SMILES IDX 16 77 17 78 24 79 26 80 18 81 19 82 20 83 23 84 21 85 22 86
REMARK H PARENT 3 6 76 24 50 35 7 66
REMARK Flexibility Score: inf
ROOT
ATOM      1  C   UNL A   1      38.707  22.635  26.184  1.00  0.00     0.042 C 
ENDROOT
BRANCH   1   2
ATOM      2  C   UNL A   1      39.659  23.584  26.897  1.00  0.00     0.118 C 
BRANCH   2   3
ATOM      3  N   UNL A   1      40.644  24.172  26.001  1.00  0.00    -0.352 N 
ATOM      4  O   UNL A   1      41.884  25.787  25.042  1.00  0.00    -0.269 OA
ATOM      5  C   UNL A   1      41.206  25.425  25.999  1.00  0.00     0.251 C 
ATOM      6  H   UNL A   1      40.958  23.577  25.282  1.00  0.00     0.163 HD
BRANCH   5   7
ATOM      7  C   UNL A   1      40.983  26.348  27.133  1.00  0.00     0.039 A 
ATOM      8  C   UNL A   1      41.662  27.565  27.215  1.00  0.00     0.014 A 
ATOM      9  C   UNL A   1      40.049  26.002  28.115  1.00  0.00     0.014 A 
ATOM     10  C   UNL A   1      41.522  28.364  28.344  1.00  0.00     0.010 A 
ATOM     11  C   UNL A   1      39.838  26.852  29.203  1.00  0.00     0.010 A 
ATOM     12  C   UNL A   1      40.595  28.026  29.340  1.00  0.00    -0.014 A 
BRANCH  12  13
ATOM     13  C   UNL A   1      40.377  28.950  30.480  1.00  0.00     0.031 A 
ATOM     14  C   UNL A   1      39.303  29.997  30.438  1.00  0.00     0.074 A 
ATOM     15  C   UNL A   1      41.172  28.837  31.561  1.00  0.00     0.049 A 
ATOM     16  N   UNL A   1      39.001  30.903  31.334  1.00  0.00    -0.248 NA
ATOM     17  C   UNL A   1      38.465  30.043  29.231  1.00  0.00     0.031 C 
ATOM     18  C   UNL A   1      42.263  27.870  31.706  1.00  0.00     0.029 A 
ATOM     19  N   UNL A   1      41.188  29.537  32.740  1.00  0.00    -0.354 N 
ATOM     20  C   UNL A   1      37.956  31.639  30.793  1.00  0.00     0.074 A 
ATOM     21  C   UNL A   1      37.691  31.091  29.479  1.00  0.00     0.031 C 
ATOM     22  C   UNL A   1      42.829  28.024  32.911  1.00  0.00     0.029 A 
ATOM     23  C   UNL A   1      42.181  29.136  33.599  1.00  0.00     0.049 A 
ATOM     24  H   UNL A   1      40.551  30.257  32.949  1.00  0.00     0.167 HD
ATOM     25  C   UNL A   1      37.280  32.675  31.345  1.00  0.00     0.037 A 
ATOM     26  C   UNL A   1      42.553  29.624  34.795  1.00  0.00     0.037 A 
ATOM     27  C   UNL A   1      37.540  33.205  32.659  1.00  0.00     0.049 A 
ATOM     28  C   UNL A   1      41.800  30.780  35.379  1.00  0.00     0.074 A 
ATOM     29  C   UNL A   1      36.871  34.213  33.331  1.00  0.00     0.029 A 
ATOM     30  N   UNL A   1      38.559  32.775  33.497  1.00  0.00    -0.354 N 
ATOM     31  N   UNL A   1      40.782  31.435  34.876  1.00  0.00    -0.248 NA
ATOM     32  C   UNL A   1      42.245  31.268  36.691  1.00  0.00     0.031 C 
ATOM     33  C   UNL A   1      37.515  34.426  34.555  1.00  0.00     0.029 A 
ATOM     34  C   UNL A   1      38.556  33.518  34.667  1.00  0.00     0.049 A 
ATOM     35  H   UNL A   1      39.191  32.049  33.291  1.00  0.00     0.167 HD
ATOM     36  C   UNL A   1      40.455  32.406  35.813  1.00  0.00     0.074 A 
ATOM     37  C   UNL A   1      41.375  32.242  36.922  1.00  0.00     0.031 C 
ATOM     38  C   UNL A   1      39.482  33.348  35.758  1.00  0.00     0.037 A 
BRANCH  25  39
ATOM     39  C   UNL A   1      36.207  33.322  30.517  1.00  0.00     0.057 A 
ATOM     40  C   UNL A   1      36.506  34.161  29.435  1.00  0.00     0.134 A 
ATOM     41  C   UNL A   1      34.854  33.080  30.791  1.00  0.00     0.134 A 
ATOM     42  F   UNL A   1      37.780  34.443  29.126  1.00  0.00    -0.206 F 
ATOM     43  C   UNL A   1      35.499  34.757  28.673  1.00  0.00     0.040 A 
ATOM     44  C   UNL A   1      33.839  33.651  30.021  1.00  0.00     0.040 A 
ATOM     45  F   UNL A   1      34.497  32.280  31.807  1.00  0.00    -0.206 F 
ATOM     46  C   UNL A   1      34.160  34.498  28.963  1.00  0.00     0.006 A 
ENDBRANCH  25  39
BRANCH  26  47
ATOM     47  C   UNL A   1      43.711  29.018  35.496  1.00  0.00     0.057 A 
ATOM     48  C   UNL A   1      45.012  29.487  35.289  1.00  0.00     0.134 A 
ATOM     49  C   UNL A   1      43.533  27.989  36.430  1.00  0.00     0.134 A 
ATOM     50  F   UNL A   1      45.245  30.461  34.397  1.00  0.00    -0.206 F 
ATOM     51  C   UNL A   1      46.097  28.953  35.985  1.00  0.00     0.040 A 
ATOM     52  C   UNL A   1      44.604  27.464  37.151  1.00  0.00     0.040 A 
ATOM     53  F   UNL A   1      42.306  27.506  36.680  1.00  0.00    -0.206 F 
ATOM     54  C   UNL A   1      45.893  27.945  36.927  1.00  0.00     0.006 A 
ENDBRANCH  26  47
BRANCH  38  55
ATOM     55  C   UNL A   1      39.353  34.264  36.938  1.00  0.00     0.057 A 
ATOM     56  C   UNL A   1      38.691  33.868  38.106  1.00  0.00     0.134 A 
ATOM     57  C   UNL A   1      39.934  35.537  36.919  1.00  0.00     0.134 A 
ATOM     58  F   UNL A   1      38.099  32.667  38.180  1.00  0.00    -0.206 F 
ATOM     59  C   UNL A   1      38.598  34.715  39.211  1.00  0.00     0.040 A 
ATOM     60  C   UNL A   1      39.869  36.384  38.026  1.00  0.00     0.040 A 
ATOM     61  F   UNL A   1      40.587  35.972  35.831  1.00  0.00    -0.206 F 
ATOM     62  C   UNL A   1      39.196  35.974  39.176  1.00  0.00     0.006 A 
ENDBRANCH  38  55
ENDBRANCH  12  13
ENDBRANCH   5   7
ENDBRANCH   2   3
ENDBRANCH   1   2
BRANCH   1  63
ATOM     63  C   UNL A   1      37.275  23.144  26.093  1.00  0.00     0.118 C 
BRANCH  63  64
ATOM     64  N   UNL A   1      36.304  22.061  26.117  1.00  0.00    -0.352 N 
ATOM     65  C   UNL A   1      34.936  22.113  26.056  1.00  0.00     0.251 C 
ATOM     66  H   UNL A   1      36.688  21.156  26.186  1.00  0.00     0.163 HD
ATOM     67  O   UNL A   1      34.268  21.118  26.314  1.00  0.00    -0.269 OA
BRANCH  65  68
ATOM     68  C   UNL A   1      34.264  23.372  25.681  1.00  0.00     0.039 A 
ATOM     69  C   UNL A   1      33.205  23.835  26.459  1.00  0.00     0.016 A 
ATOM     70  C   UNL A   1      34.656  24.074  24.538  1.00  0.00     0.016 A 
ATOM     71  C   UNL A   1      32.571  25.036  26.122  1.00  0.00     0.027 A 
ATOM     72  C   UNL A   1      34.025  25.273  24.209  1.00  0.00     0.027 A 
ATOM     73  C   UNL A   1      32.968  25.765  24.990  1.00  0.00     0.051 A 
BRANCH  73  74
ATOM     74  N   UNL A   1      32.328  26.996  24.654  1.00  0.00    -0.261 N 
ATOM     75  C   UNL A   1      31.305  27.002  23.705  1.00  0.00     0.270 C 
ATOM     76  C   UNL A   1      32.648  28.223  25.223  1.00  0.00     0.152 C 
ATOM     77  O   UNL A   1      30.872  26.056  23.064  1.00  0.00    -0.268 OA
ATOM     78  C   UNL A   1      30.727  28.370  23.586  1.00  0.00     0.084 C 
ATOM     79  S   UNL A   1      31.558  29.463  24.612  1.00  0.00    -0.054 SA
ATOM     80  S   UNL A   1      33.905  28.648  26.245  1.00  0.00    -0.051 S 
ATOM     81  C   UNL A   1      29.660  28.607  22.811  1.00  0.00     0.068 C 
BRANCH  81  82
ATOM     82  C   UNL A   1      29.054  29.886  22.690  1.00  0.00     0.127 A 
ATOM     83  C   UNL A   1      28.119  30.517  23.504  1.00  0.00     0.050 A 
ATOM     84  O   UNL A   1      29.360  30.752  21.666  1.00  0.00    -0.465 OA
ATOM     85  C   UNL A   1      27.821  31.774  22.930  1.00  0.00     0.042 A 
ATOM     86  C   UNL A   1      28.601  31.865  21.806  1.00  0.00     0.195 A 
ENDBRANCH  81  82
ENDBRANCH  73  74
ENDBRANCH  65  68
ENDBRANCH  63  64
ENDBRANCH   1  63
TORSDOF 12
ENDMDL
