MODEL 1
REMARK VINA RESULT:     -12.5      0.000      0.000
REMARK SMILES C/C=C(\C)[C@@H]1C(C)=C[C@@H]2[C@H]([C@@H]1/C=C/C=C/C(=O)NCCCNC(=O)c1ccc(-c3c4nc(c(-c5c(F)cccc5F)c5ccc([nH]5)c(-c5c(F)cccc5F)c5nc(c(-c6c(F)cccc6F)c6ccc3[nH]6)C=C5)C=C4)cc1)[C@@H](C)CC[C@@H]2O
REMARK SMILES IDX 19 1 18 2 16 3 17 4 15 6 14 7 13 8 12 9 11 10 5 11 6 12 7 13
REMARK SMILES IDX 8 14 10 15 9 16 79 17 83 18 80 19 81 20 82 21 3 22 1 23 2 24
REMARK SMILES IDX 4 25 84 26 20 28 21 29 22 30 23 31 24 33 25 34 26 35 78 36
REMARK SMILES IDX 27 37 77 38 28 39 29 40 30 41 71 42 31 43 76 44 70 45 72 46
REMARK SMILES IDX 32 47 75 48 69 49 68 50 33 52 59 53 42 54 58 55 43 56 46 57
REMARK SMILES IDX 57 58 73 59 44 60 45 61 56 63 74 64 47 65 34 66 35 67 40 68
REMARK SMILES IDX 36 69 37 70 39 71 41 72 38 73 60 74 61 75 66 76 62 77 63 78
REMARK SMILES IDX 65 79 67 80 64 81 48 82 49 83 54 84 50 85 51 86 53 87 55 88
REMARK SMILES IDX 52 89
REMARK H PARENT 18 5 84 27 22 32 72 51 46 62
REMARK Flexibility Score: inf
ROOT
ATOM      1  C   UNL A   1      39.463  22.576  26.568  1.00  0.00     0.118 C 
ENDROOT
BRANCH   1   2
ATOM      2  N   UNL A   1      38.917  21.489  25.770  1.00  0.00    -0.352 N 
ATOM      3  C   UNL A   1      37.691  21.316  25.201  1.00  0.00     0.243 C 
ATOM      4  O   UNL A   1      37.491  20.337  24.485  1.00  0.00    -0.270 OA
ATOM      5  H   UNL A   1      39.543  20.746  25.613  1.00  0.00     0.163 HD
BRANCH   3   6
ATOM      6  C   UNL A   1      36.633  22.341  25.339  1.00  0.00     0.071 C 
ATOM      7  C   UNL A   1      36.461  23.357  24.484  1.00  0.00     0.005 C 
BRANCH   7   8
ATOM      8  C   UNL A   1      35.338  24.261  24.531  1.00  0.00    -0.004 C 
ATOM      9  C   UNL A   1      34.743  24.519  25.706  1.00  0.00    -0.022 C 
BRANCH   9  10
ATOM     10  C   UNL A   1      33.639  25.536  25.935  1.00  0.00     0.027 C 
ATOM     11  C   UNL A   1      32.223  24.871  26.231  1.00  0.00     0.047 C 
ATOM     12  C   UNL A   1      31.075  25.486  25.440  1.00  0.00    -0.069 C 
ATOM     13  C   UNL A   1      29.701  25.433  26.047  1.00  0.00     0.040 C 
ATOM     14  C   UNL A   1      31.284  26.034  24.231  1.00  0.00    -0.021 C 
ATOM     15  C   UNL A   1      33.674  26.533  24.728  1.00  0.00     0.009 C 
ATOM     16  C   UNL A   1      32.674  26.086  23.632  1.00  0.00     0.044 C 
ATOM     17  C   UNL A   1      33.452  28.033  25.106  1.00  0.00    -0.010 C 
ATOM     18  C   UNL A   1      32.804  26.997  22.398  1.00  0.00     0.121 C 
ATOM     19  C   UNL A   1      34.511  28.558  26.084  1.00  0.00     0.008 C 
ATOM     20  C   UNL A   1      33.486  28.926  23.844  1.00  0.00     0.006 C 
ATOM     21  C   UNL A   1      32.546  28.458  22.738  1.00  0.00     0.033 C 
BRANCH  11  22
ATOM     22  C   UNL A   1      32.197  23.323  26.149  1.00  0.00    -0.070 C 
ATOM     23  C   UNL A   1      32.056  21.199  24.698  1.00  0.00     0.035 C 
ATOM     24  C   UNL A   1      32.026  22.667  24.979  1.00  0.00    -0.031 C 
ATOM     25  C   UNL A   1      32.406  22.632  27.473  1.00  0.00     0.040 C 
ENDBRANCH  11  22
BRANCH  18  26
ATOM     26  O   UNL A   1      31.960  26.569  21.332  1.00  0.00    -0.393 OA
ATOM     27  H   UNL A   1      31.074  26.378  21.679  1.00  0.00     0.210 HD
ENDBRANCH  18  26
ENDBRANCH   9  10
ENDBRANCH   7   8
ENDBRANCH   3   6
ENDBRANCH   1   2
BRANCH   1  28
ATOM     28  C   UNL A   1      40.724  22.139  27.315  1.00  0.00     0.042 C 
BRANCH  28  29
ATOM     29  C   UNL A   1      41.798  23.220  27.371  1.00  0.00     0.118 C 
BRANCH  29  30
ATOM     30  N   UNL A   1      41.768  24.088  26.201  1.00  0.00    -0.352 N 
ATOM     31  C   UNL A   1      41.434  25.416  26.097  1.00  0.00     0.251 C 
ATOM     32  H   UNL A   1      42.026  23.655  25.355  1.00  0.00     0.163 HD
ATOM     33  O   UNL A   1      41.265  25.918  24.992  1.00  0.00    -0.269 OA
BRANCH  31  34
ATOM     34  C   UNL A   1      41.267  26.238  27.314  1.00  0.00     0.039 A 
ATOM     35  C   UNL A   1      42.164  27.282  27.556  1.00  0.00     0.014 A 
ATOM     36  C   UNL A   1      40.243  25.967  28.225  1.00  0.00     0.014 A 
ATOM     37  C   UNL A   1      41.992  28.099  28.677  1.00  0.00     0.010 A 
ATOM     38  C   UNL A   1      40.028  26.826  29.298  1.00  0.00     0.010 A 
ATOM     39  C   UNL A   1      40.900  27.900  29.535  1.00  0.00    -0.014 A 
BRANCH  39  40
ATOM     40  C   UNL A   1      40.636  28.799  30.687  1.00  0.00     0.031 A 
ATOM     41  C   UNL A   1      39.561  29.845  30.593  1.00  0.00     0.074 A 
ATOM     42  C   UNL A   1      41.426  28.735  31.777  1.00  0.00     0.049 A 
ATOM     43  N   UNL A   1      39.269  30.811  31.426  1.00  0.00    -0.248 NA
ATOM     44  C   UNL A   1      38.718  29.818  29.387  1.00  0.00     0.031 C 
ATOM     45  C   UNL A   1      42.521  27.786  31.975  1.00  0.00     0.029 A 
ATOM     46  N   UNL A   1      41.441  29.501  32.917  1.00  0.00    -0.354 N 
ATOM     47  C   UNL A   1      38.229  31.517  30.837  1.00  0.00     0.074 A 
ATOM     48  C   UNL A   1      37.972  30.899  29.554  1.00  0.00     0.031 C 
ATOM     49  C   UNL A   1      43.095  28.017  33.166  1.00  0.00     0.029 A 
ATOM     50  C   UNL A   1      42.442  29.161  33.795  1.00  0.00     0.049 A 
ATOM     51  H   UNL A   1      40.796  30.225  33.088  1.00  0.00     0.167 HD
ATOM     52  C   UNL A   1      37.539  32.573  31.328  1.00  0.00     0.037 A 
ATOM     53  C   UNL A   1      42.807  29.722  34.964  1.00  0.00     0.037 A 
ATOM     54  C   UNL A   1      37.789  33.171  32.614  1.00  0.00     0.049 A 
ATOM     55  C   UNL A   1      42.043  30.912  35.476  1.00  0.00     0.074 A 
ATOM     56  C   UNL A   1      37.112  34.211  33.225  1.00  0.00     0.029 A 
ATOM     57  N   UNL A   1      38.798  32.783  33.482  1.00  0.00    -0.354 N 
ATOM     58  N   UNL A   1      41.024  31.536  34.934  1.00  0.00    -0.248 NA
ATOM     59  C   UNL A   1      42.475  31.477  36.762  1.00  0.00     0.031 C 
ATOM     60  C   UNL A   1      37.745  34.489  34.441  1.00  0.00     0.029 A 
ATOM     61  C   UNL A   1      38.776  33.580  34.614  1.00  0.00     0.049 A 
ATOM     62  H   UNL A   1      39.434  32.050  33.318  1.00  0.00     0.167 HD
ATOM     63  C   UNL A   1      40.670  32.537  35.830  1.00  0.00     0.074 A 
ATOM     64  C   UNL A   1      41.581  32.437  36.951  1.00  0.00     0.031 C 
ATOM     65  C   UNL A   1      39.675  33.452  35.733  1.00  0.00     0.037 A 
BRANCH  52  66
ATOM     66  C   UNL A   1      36.448  33.153  30.472  1.00  0.00     0.057 A 
ATOM     67  C   UNL A   1      36.725  34.029  29.413  1.00  0.00     0.134 A 
ATOM     68  C   UNL A   1      35.109  32.801  30.684  1.00  0.00     0.134 A 
ATOM     69  F   UNL A   1      37.984  34.414  29.160  1.00  0.00    -0.206 F 
ATOM     70  C   UNL A   1      35.707  34.555  28.616  1.00  0.00     0.040 A 
ATOM     71  C   UNL A   1      34.086  33.297  29.874  1.00  0.00     0.040 A 
ATOM     72  F   UNL A   1      34.773  31.961  31.674  1.00  0.00    -0.206 F 
ATOM     73  C   UNL A   1      34.383  34.184  28.841  1.00  0.00     0.006 A 
ENDBRANCH  52  66
BRANCH  53  74
ATOM     74  C   UNL A   1      43.943  29.158  35.738  1.00  0.00     0.057 A 
ATOM     75  C   UNL A   1      45.238  29.665  35.592  1.00  0.00     0.134 A 
ATOM     76  C   UNL A   1      43.764  28.098  36.635  1.00  0.00     0.134 A 
ATOM     77  F   UNL A   1      45.476  30.670  34.734  1.00  0.00    -0.206 F 
ATOM     78  C   UNL A   1      46.320  29.127  36.290  1.00  0.00     0.040 A 
ATOM     79  C   UNL A   1      44.832  27.567  37.362  1.00  0.00     0.040 A 
ATOM     80  F   UNL A   1      42.546  27.571  36.829  1.00  0.00    -0.206 F 
ATOM     81  C   UNL A   1      46.116  28.077  37.184  1.00  0.00     0.006 A 
ENDBRANCH  53  74
BRANCH  65  82
ATOM     82  C   UNL A   1      39.470  34.381  36.894  1.00  0.00     0.057 A 
ATOM     83  C   UNL A   1      38.795  33.986  38.056  1.00  0.00     0.134 A 
ATOM     84  C   UNL A   1      40.023  35.669  36.873  1.00  0.00     0.134 A 
ATOM     85  F   UNL A   1      38.232  32.771  38.135  1.00  0.00    -0.206 F 
ATOM     86  C   UNL A   1      38.667  34.844  39.150  1.00  0.00     0.040 A 
ATOM     87  C   UNL A   1      39.925  36.524  37.971  1.00  0.00     0.040 A 
ATOM     88  F   UNL A   1      40.690  36.107  35.794  1.00  0.00    -0.206 F 
ATOM     89  C   UNL A   1      39.243  36.112  39.113  1.00  0.00     0.006 A 
ENDBRANCH  65  82
ENDBRANCH  39  40
ENDBRANCH  31  34
ENDBRANCH  29  30
ENDBRANCH  28  29
ENDBRANCH   1  28
TORSDOF 14
ENDMDL
MODEL 2
REMARK VINA RESULT:     -12.1      5.139     10.394
REMARK SMILES C/C=C(\C)[C@@H]1C(C)=C[C@@H]2[C@H]([C@@H]1/C=C/C=C/C(=O)NCCCNC(=O)c1ccc(-c3c4nc(c(-c5c(F)cccc5F)c5ccc([nH]5)c(-c5c(F)cccc5F)c5nc(c(-c6c(F)cccc6F)c6ccc3[nH]6)C=C5)C=C4)cc1)[C@@H](C)CC[C@@H]2O
REMARK SMILES IDX 19 1 18 2 16 3 17 4 15 6 14 7 13 8 12 9 11 10 5 11 6 12 7 13
REMARK SMILES IDX 8 14 10 15 9 16 79 17 83 18 80 19 81 20 82 21 3 22 1 23 2 24
REMARK SMILES IDX 4 25 84 26 20 28 21 29 22 30 23 31 24 33 25 34 26 35 78 36
REMARK SMILES IDX 27 37 77 38 28 39 29 40 30 41 71 42 31 43 76 44 70 45 72 46
REMARK SMILES IDX 32 47 75 48 69 49 68 50 33 52 59 53 42 54 58 55 43 56 46 57
REMARK SMILES IDX 57 58 73 59 44 60 45 61 56 63 74 64 47 65 34 66 35 67 40 68
REMARK SMILES IDX 36 69 37 70 39 71 41 72 38 73 60 74 61 75 66 76 62 77 63 78
REMARK SMILES IDX 65 79 67 80 64 81 48 82 49 83 54 84 50 85 51 86 53 87 55 88
REMARK SMILES IDX 52 89
REMARK H PARENT 18 5 84 27 22 32 72 51 46 62
REMARK Flexibility Score: inf
ROOT
ATOM      1  C   UNL A   1      34.874  31.264  27.849  1.00  0.00     0.118 C 
ENDROOT
BRANCH   1   2
ATOM      2  N   UNL A   1      33.478  31.483  27.498  1.00  0.00    -0.352 N 
ATOM      3  C   UNL A   1      32.586  30.705  26.823  1.00  0.00     0.243 C 
ATOM      4  O   UNL A   1      31.417  31.074  26.727  1.00  0.00    -0.270 OA
ATOM      5  H   UNL A   1      33.114  32.345  27.801  1.00  0.00     0.163 HD
BRANCH   3   6
ATOM      6  C   UNL A   1      32.972  29.376  26.302  1.00  0.00     0.071 C 
ATOM      7  C   UNL A   1      32.870  28.240  27.002  1.00  0.00     0.005 C 
BRANCH   7   8
ATOM      8  C   UNL A   1      33.098  26.930  26.442  1.00  0.00    -0.004 C 
ATOM      9  C   UNL A   1      33.899  26.796  25.374  1.00  0.00    -0.022 C 
BRANCH   9  10
ATOM     10  C   UNL A   1      34.332  25.480  24.751  1.00  0.00     0.027 C 
ATOM     11  C   UNL A   1      33.731  25.245  23.297  1.00  0.00     0.047 C 
ATOM     12  C   UNL A   1      33.150  23.852  23.087  1.00  0.00    -0.069 C 
ATOM     13  C   UNL A   1      33.154  23.296  21.690  1.00  0.00     0.040 C 
ATOM     14  C   UNL A   1      32.630  23.158  24.113  1.00  0.00    -0.021 C 
ATOM     15  C   UNL A   1      34.025  24.355  25.795  1.00  0.00     0.009 C 
ATOM     16  C   UNL A   1      32.636  23.726  25.517  1.00  0.00     0.044 C 
ATOM     17  C   UNL A   1      35.124  23.249  25.913  1.00  0.00    -0.010 C 
ATOM     18  C   UNL A   1      32.288  22.710  26.619  1.00  0.00     0.121 C 
ATOM     19  C   UNL A   1      36.488  23.814  26.329  1.00  0.00     0.008 C 
ATOM     20  C   UNL A   1      34.715  22.180  26.953  1.00  0.00     0.006 C 
ATOM     21  C   UNL A   1      33.325  21.599  26.718  1.00  0.00     0.033 C 
BRANCH  11  22
ATOM     22  C   UNL A   1      32.750  26.342  22.808  1.00  0.00    -0.070 C 
ATOM     23  C   UNL A   1      30.359  27.302  22.777  1.00  0.00     0.035 C 
ATOM     24  C   UNL A   1      31.428  26.304  23.089  1.00  0.00    -0.031 C 
ATOM     25  C   UNL A   1      33.408  27.453  22.027  1.00  0.00     0.040 C 
ENDBRANCH  11  22
BRANCH  18  26
ATOM     26  O   UNL A   1      30.981  22.169  26.447  1.00  0.00    -0.393 OA
ATOM     27  H   UNL A   1      30.978  21.567  25.685  1.00  0.00     0.210 HD
ENDBRANCH  18  26
ENDBRANCH   9  10
ENDBRANCH   7   8
ENDBRANCH   3   6
ENDBRANCH   1   2
BRANCH   1  28
ATOM     28  C   UNL A   1      35.616  32.588  28.028  1.00  0.00     0.042 C 
BRANCH  28  29
ATOM     29  C   UNL A   1      36.603  32.574  29.191  1.00  0.00     0.118 C 
BRANCH  29  30
ATOM     30  N   UNL A   1      36.157  31.720  30.283  1.00  0.00    -0.352 N 
ATOM     31  C   UNL A   1      36.635  30.502  30.702  1.00  0.00     0.251 C 
ATOM     32  H   UNL A   1      35.395  32.068  30.800  1.00  0.00     0.163 HD
ATOM     33  O   UNL A   1      35.992  29.838  31.505  1.00  0.00    -0.269 OA
BRANCH  31  34
ATOM     34  C   UNL A   1      37.916  29.986  30.174  1.00  0.00     0.039 A 
ATOM     35  C   UNL A   1      38.077  29.855  28.792  1.00  0.00     0.014 A 
ATOM     36  C   UNL A   1      38.947  29.611  31.039  1.00  0.00     0.014 A 
ATOM     37  C   UNL A   1      39.296  29.413  28.274  1.00  0.00     0.010 A 
ATOM     38  C   UNL A   1      40.184  29.245  30.521  1.00  0.00     0.010 A 
ATOM     39  C   UNL A   1      40.373  29.142  29.133  1.00  0.00    -0.014 A 
BRANCH  39  40
ATOM     40  C   UNL A   1      41.709  28.753  28.616  1.00  0.00     0.031 A 
ATOM     41  C   UNL A   1      41.970  27.332  28.204  1.00  0.00     0.074 A 
ATOM     42  C   UNL A   1      42.709  29.656  28.606  1.00  0.00     0.049 A 
ATOM     43  N   UNL A   1      43.098  26.762  27.862  1.00  0.00    -0.248 NA
ATOM     44  C   UNL A   1      40.814  26.421  28.205  1.00  0.00     0.031 C 
ATOM     45  C   UNL A   1      42.589  31.058  29.011  1.00  0.00     0.029 A 
ATOM     46  N   UNL A   1      44.032  29.522  28.263  1.00  0.00    -0.354 N 
ATOM     47  C   UNL A   1      42.791  25.428  27.628  1.00  0.00     0.074 A 
ATOM     48  C   UNL A   1      41.383  25.261  27.915  1.00  0.00     0.031 C 
ATOM     49  C   UNL A   1      43.784  31.656  28.883  1.00  0.00     0.029 A 
ATOM     50  C   UNL A   1      44.764  30.672  28.436  1.00  0.00     0.049 A 
ATOM     51  H   UNL A   1      44.419  28.682  27.926  1.00  0.00     0.167 HD
ATOM     52  C   UNL A   1      43.606  24.436  27.197  1.00  0.00     0.037 A 
ATOM     53  C   UNL A   1      46.081  30.902  28.274  1.00  0.00     0.037 A 
ATOM     54  C   UNL A   1      45.002  24.614  26.897  1.00  0.00     0.049 A 
ATOM     55  C   UNL A   1      46.972  29.777  27.821  1.00  0.00     0.074 A 
ATOM     56  C   UNL A   1      45.902  23.686  26.405  1.00  0.00     0.029 A 
ATOM     57  N   UNL A   1      45.701  25.800  27.064  1.00  0.00    -0.354 N 
ATOM     58  N   UNL A   1      46.658  28.533  27.551  1.00  0.00    -0.248 NA
ATOM     59  C   UNL A   1      48.398  30.086  27.649  1.00  0.00     0.031 C 
ATOM     60  C   UNL A   1      47.158  24.295  26.326  1.00  0.00     0.029 A 
ATOM     61  C   UNL A   1      47.026  25.620  26.707  1.00  0.00     0.049 A 
ATOM     62  H   UNL A   1      45.312  26.645  27.388  1.00  0.00     0.167 HD
ATOM     63  C   UNL A   1      47.837  27.925  27.138  1.00  0.00     0.074 A 
ATOM     64  C   UNL A   1      48.871  28.936  27.192  1.00  0.00     0.031 C 
ATOM     65  C   UNL A   1      48.040  26.644  26.744  1.00  0.00     0.037 A 
BRANCH  52  66
ATOM     66  C   UNL A   1      43.008  23.068  27.027  1.00  0.00     0.057 A 
ATOM     67  C   UNL A   1      42.714  22.540  25.762  1.00  0.00     0.134 A 
ATOM     68  C   UNL A   1      42.759  22.253  28.139  1.00  0.00     0.134 A 
ATOM     69  F   UNL A   1      42.919  23.269  24.655  1.00  0.00    -0.206 F 
ATOM     70  C   UNL A   1      42.168  21.264  25.613  1.00  0.00     0.040 A 
ATOM     71  C   UNL A   1      42.242  20.964  27.999  1.00  0.00     0.040 A 
ATOM     72  F   UNL A   1      43.025  22.692  29.378  1.00  0.00    -0.206 F 
ATOM     73  C   UNL A   1      41.937  20.469  26.733  1.00  0.00     0.006 A 
ENDBRANCH  52  66
BRANCH  53  74
ATOM     74  C   UNL A   1      46.638  32.256  28.529  1.00  0.00     0.057 A 
ATOM     75  C   UNL A   1      46.674  33.223  27.519  1.00  0.00     0.134 A 
ATOM     76  C   UNL A   1      47.153  32.614  29.781  1.00  0.00     0.134 A 
ATOM     77  F   UNL A   1      46.211  32.935  26.292  1.00  0.00    -0.206 F 
ATOM     78  C   UNL A   1      47.219  34.489  27.734  1.00  0.00     0.040 A 
ATOM     79  C   UNL A   1      47.676  33.886  30.020  1.00  0.00     0.040 A 
ATOM     80  F   UNL A   1      47.141  31.737  30.795  1.00  0.00    -0.206 F 
ATOM     81  C   UNL A   1      47.718  34.825  28.992  1.00  0.00     0.006 A 
ENDBRANCH  53  74
BRANCH  65  82
ATOM     82  C   UNL A   1      49.417  26.270  26.277  1.00  0.00     0.057 A 
ATOM     83  C   UNL A   1      49.899  26.630  25.012  1.00  0.00     0.134 A 
ATOM     84  C   UNL A   1      50.297  25.603  27.139  1.00  0.00     0.134 A 
ATOM     85  F   UNL A   1      49.102  27.259  24.135  1.00  0.00    -0.206 F 
ATOM     86  C   UNL A   1      51.203  26.327  24.618  1.00  0.00     0.040 A 
ATOM     87  C   UNL A   1      51.612  25.320  26.767  1.00  0.00     0.040 A 
ATOM     88  F   UNL A   1      49.902  25.238  28.369  1.00  0.00    -0.206 F 
ATOM     89  C   UNL A   1      52.066  25.680  25.501  1.00  0.00     0.006 A 
ENDBRANCH  65  82
ENDBRANCH  39  40
ENDBRANCH  31  34
ENDBRANCH  29  30
ENDBRANCH  28  29
ENDBRANCH   1  28
TORSDOF 14
ENDMDL
MODEL 3
REMARK VINA RESULT:     -12.1      2.718      7.675
REMARK SMILES C/C=C(\C)[C@@H]1C(C)=C[C@@H]2[C@H]([C@@H]1/C=C/C=C/C(=O)NCCCNC(=O)c1ccc(-c3c4nc(c(-c5c(F)cccc5F)c5ccc([nH]5)c(-c5c(F)cccc5F)c5nc(c(-c6c(F)cccc6F)c6ccc3[nH]6)C=C5)C=C4)cc1)[C@@H](C)CC[C@@H]2O
REMARK SMILES IDX 19 1 18 2 16 3 17 4 15 6 14 7 13 8 12 9 11 10 5 11 6 12 7 13
REMARK SMILES IDX 8 14 10 15 9 16 79 17 83 18 80 19 81 20 82 21 3 22 1 23 2 24
REMARK SMILES IDX 4 25 84 26 20 28 21 29 22 30 23 31 24 33 25 34 26 35 78 36
REMARK SMILES IDX 27 37 77 38 28 39 29 40 30 41 71 42 31 43 76 44 70 45 72 46
REMARK SMILES IDX 32 47 75 48 69 49 68 50 33 52 59 53 42 54 58 55 43 56 46 57
REMARK SMILES IDX 57 58 73 59 44 60 45 61 56 63 74 64 47 65 34 66 35 67 40 68
REMARK SMILES IDX 36 69 37 70 39 71 41 72 38 73 60 74 61 75 66 76 62 77 63 78
REMARK SMILES IDX 65 79 67 80 64 81 48 82 49 83 54 84 50 85 51 86 53 87 55 88
REMARK SMILES IDX 52 89
REMARK H PARENT 18 5 84 27 22 32 72 51 46 62
REMARK Flexibility Score: inf
ROOT
ATOM      1  C   UNL A   1      31.897  30.567  26.997  1.00  0.00     0.118 C 
ENDROOT
BRANCH   1   2
ATOM      2  N   UNL A   1      33.260  30.460  27.495  1.00  0.00    -0.352 N 
ATOM      3  C   UNL A   1      34.122  29.406  27.544  1.00  0.00     0.243 C 
ATOM      4  O   UNL A   1      35.273  29.586  27.936  1.00  0.00    -0.270 OA
ATOM      5  H   UNL A   1      33.624  31.297  27.863  1.00  0.00     0.163 HD
BRANCH   3   6
ATOM      6  C   UNL A   1      33.732  28.075  27.028  1.00  0.00     0.071 C 
ATOM      7  C   UNL A   1      34.018  27.638  25.796  1.00  0.00     0.005 C 
BRANCH   7   8
ATOM      8  C   UNL A   1      33.776  26.287  25.350  1.00  0.00    -0.004 C 
ATOM      9  C   UNL A   1      34.112  25.931  24.101  1.00  0.00    -0.022 C 
BRANCH   9  10
ATOM     10  C   UNL A   1      34.036  24.526  23.529  1.00  0.00     0.027 C 
ATOM     11  C   UNL A   1      32.592  24.150  22.975  1.00  0.00     0.047 C 
ATOM     12  C   UNL A   1      32.099  22.779  23.419  1.00  0.00    -0.069 C 
ATOM     13  C   UNL A   1      31.137  22.056  22.517  1.00  0.00     0.040 C 
ATOM     14  C   UNL A   1      32.494  22.246  24.587  1.00  0.00    -0.021 C 
ATOM     15  C   UNL A   1      34.613  23.556  24.614  1.00  0.00     0.009 C 
ATOM     16  C   UNL A   1      33.467  22.980  25.485  1.00  0.00     0.044 C 
ATOM     17  C   UNL A   1      35.520  22.411  24.059  1.00  0.00    -0.010 C 
ATOM     18  C   UNL A   1      34.052  22.129  26.626  1.00  0.00     0.121 C 
ATOM     19  C   UNL A   1      36.749  22.943  23.309  1.00  0.00     0.008 C 
ATOM     20  C   UNL A   1      36.020  21.503  25.206  1.00  0.00     0.006 C 
ATOM     21  C   UNL A   1      34.903  20.980  26.102  1.00  0.00     0.033 C 
BRANCH  11  22
ATOM     22  C   UNL A   1      31.505  25.234  23.191  1.00  0.00    -0.070 C 
ATOM     23  C   UNL A   1      29.646  26.221  24.677  1.00  0.00     0.035 C 
ATOM     24  C   UNL A   1      30.683  25.227  24.265  1.00  0.00    -0.031 C 
ATOM     25  C   UNL A   1      31.473  26.297  22.121  1.00  0.00     0.040 C 
ENDBRANCH  11  22
BRANCH  18  26
ATOM     26  O   UNL A   1      33.035  21.648  27.502  1.00  0.00    -0.393 OA
ATOM     27  H   UNL A   1      33.317  20.805  27.892  1.00  0.00     0.210 HD
ENDBRANCH  18  26
ENDBRANCH   9  10
ENDBRANCH   7   8
ENDBRANCH   3   6
ENDBRANCH   1   2
BRANCH   1  28
ATOM     28  C   UNL A   1      31.473  32.028  26.846  1.00  0.00     0.042 C 
BRANCH  28  29
ATOM     29  C   UNL A   1      32.651  32.993  26.769  1.00  0.00     0.118 C 
BRANCH  29  30
ATOM     30  N   UNL A   1      32.421  34.208  27.541  1.00  0.00    -0.352 N 
ATOM     31  C   UNL A   1      33.023  34.648  28.693  1.00  0.00     0.251 C 
ATOM     32  H   UNL A   1      31.725  34.804  27.180  1.00  0.00     0.163 HD
ATOM     33  O   UNL A   1      32.546  35.592  29.310  1.00  0.00    -0.269 OA
BRANCH  31  34
ATOM     34  C   UNL A   1      34.239  33.976  29.199  1.00  0.00     0.039 A 
ATOM     35  C   UNL A   1      35.492  34.481  28.839  1.00  0.00     0.014 A 
ATOM     36  C   UNL A   1      34.147  32.841  30.007  1.00  0.00     0.014 A 
ATOM     37  C   UNL A   1      36.651  33.888  29.345  1.00  0.00     0.010 A 
ATOM     38  C   UNL A   1      35.297  32.298  30.571  1.00  0.00     0.010 A 
ATOM     39  C   UNL A   1      36.561  32.816  30.247  1.00  0.00    -0.014 A 
BRANCH  39  40
ATOM     40  C   UNL A   1      37.766  32.215  30.872  1.00  0.00     0.031 A 
ATOM     41  C   UNL A   1      38.517  31.126  30.159  1.00  0.00     0.074 A 
ATOM     42  C   UNL A   1      38.125  32.583  32.117  1.00  0.00     0.049 A 
ATOM     43  N   UNL A   1      39.503  30.380  30.591  1.00  0.00    -0.248 NA
ATOM     44  C   UNL A   1      38.085  30.814  28.788  1.00  0.00     0.031 C 
ATOM     45  C   UNL A   1      37.457  33.605  32.924  1.00  0.00     0.029 A 
ATOM     46  N   UNL A   1      39.129  32.121  32.932  1.00  0.00    -0.354 N 
ATOM     47  C   UNL A   1      39.792  29.500  29.556  1.00  0.00     0.074 A 
ATOM     48  C   UNL A   1      38.847  29.771  28.494  1.00  0.00     0.031 C 
ATOM     49  C   UNL A   1      38.075  33.701  34.112  1.00  0.00     0.029 A 
ATOM     50  C   UNL A   1      39.149  32.716  34.171  1.00  0.00     0.049 A 
ATOM     51  H   UNL A   1      39.773  31.431  32.655  1.00  0.00     0.167 HD
ATOM     52  C   UNL A   1      40.768  28.564  29.490  1.00  0.00     0.037 A 
ATOM     53  C   UNL A   1      39.931  32.477  35.242  1.00  0.00     0.037 A 
ATOM     54  C   UNL A   1      41.715  28.313  30.544  1.00  0.00     0.049 A 
ATOM     55  C   UNL A   1      40.990  31.412  35.154  1.00  0.00     0.074 A 
ATOM     56  C   UNL A   1      42.773  27.422  30.556  1.00  0.00     0.029 A 
ATOM     57  N   UNL A   1      41.715  28.951  31.775  1.00  0.00    -0.354 N 
ATOM     58  N   UNL A   1      41.288  30.625  34.149  1.00  0.00    -0.248 NA
ATOM     59  C   UNL A   1      41.821  31.202  36.348  1.00  0.00     0.031 C 
ATOM     60  C   UNL A   1      43.381  27.482  31.813  1.00  0.00     0.029 A 
ATOM     61  C   UNL A   1      42.741  28.456  32.562  1.00  0.00     0.049 A 
ATOM     62  H   UNL A   1      41.080  29.652  32.048  1.00  0.00     0.167 HD
ATOM     63  C   UNL A   1      42.366  29.858  34.574  1.00  0.00     0.074 A 
ATOM     64  C   UNL A   1      42.670  30.275  35.926  1.00  0.00     0.031 C 
ATOM     65  C   UNL A   1      43.046  28.899  33.899  1.00  0.00     0.037 A 
BRANCH  52  66
ATOM     66  C   UNL A   1      40.858  27.739  28.237  1.00  0.00     0.057 A 
ATOM     67  C   UNL A   1      40.178  26.521  28.103  1.00  0.00     0.134 A 
ATOM     68  C   UNL A   1      41.603  28.186  27.139  1.00  0.00     0.134 A 
ATOM     69  F   UNL A   1      39.454  26.029  29.119  1.00  0.00    -0.206 F 
ATOM     70  C   UNL A   1      40.260  25.764  26.932  1.00  0.00     0.040 A 
ATOM     71  C   UNL A   1      41.667  27.453  25.952  1.00  0.00     0.040 A 
ATOM     72  F   UNL A   1      42.272  29.347  27.195  1.00  0.00    -0.206 F 
ATOM     73  C   UNL A   1      41.000  26.234  25.849  1.00  0.00     0.006 A 
ENDBRANCH  52  66
BRANCH  53  74
ATOM     74  C   UNL A   1      39.751  33.270  36.486  1.00  0.00     0.057 A 
ATOM     75  C   UNL A   1      38.834  32.875  37.467  1.00  0.00     0.134 A 
ATOM     76  C   UNL A   1      40.483  34.440  36.723  1.00  0.00     0.134 A 
ATOM     77  F   UNL A   1      38.090  31.772  37.290  1.00  0.00    -0.206 F 
ATOM     78  C   UNL A   1      38.633  33.624  38.627  1.00  0.00     0.040 A 
ATOM     79  C   UNL A   1      40.314  35.184  37.891  1.00  0.00     0.040 A 
ATOM     80  F   UNL A   1      41.385  34.868  35.827  1.00  0.00    -0.206 F 
ATOM     81  C   UNL A   1      39.380  34.781  38.844  1.00  0.00     0.006 A 
ENDBRANCH  53  74
BRANCH  65  82
ATOM     82  C   UNL A   1      44.227  28.274  34.582  1.00  0.00     0.057 A 
ATOM     83  C   UNL A   1      44.121  27.088  35.320  1.00  0.00     0.134 A 
ATOM     84  C   UNL A   1      45.504  28.831  34.434  1.00  0.00     0.134 A 
ATOM     85  F   UNL A   1      42.924  26.510  35.509  1.00  0.00    -0.206 F 
ATOM     86  C   UNL A   1      45.241  26.488  35.897  1.00  0.00     0.040 A 
ATOM     87  C   UNL A   1      46.635  28.225  34.982  1.00  0.00     0.040 A 
ATOM     88  F   UNL A   1      45.677  29.962  33.732  1.00  0.00    -0.206 F 
ATOM     89  C   UNL A   1      46.503  27.050  35.719  1.00  0.00     0.006 A 
ENDBRANCH  65  82
ENDBRANCH  39  40
ENDBRANCH  31  34
ENDBRANCH  29  30
ENDBRANCH  28  29
ENDBRANCH   1  28
TORSDOF 14
ENDMDL
