MODEL 1
REMARK VINA RESULT:     -12.5      0.000      0.000
REMARK SMILES CC(C)Cc1cc2c(cc1Cl)C=C(C(=O)NCCCNC(=O)c1ccc(-c3c4nc(c(-c5c(F)cccc5F)c5ccc([nH]5)c(-c5c(F)cccc5F)c5nc(c(-c6c(F)cccc6F)c6ccc3[nH]6)C=C5)C=C4)cc1)[C@@H](C(F)(F)F)O2
REMARK SMILES IDX 18 1 17 2 16 3 14 4 15 5 13 7 5 8 6 9 10 10 7 11 9 12 11 13
REMARK SMILES IDX 8 14 82 15 12 16 77 17 4 18 2 19 1 20 3 21 78 22 79 23 80 24
REMARK SMILES IDX 81 25 19 26 20 27 21 28 22 30 23 31 24 32 76 33 25 34 75 35
REMARK SMILES IDX 26 36 27 37 28 38 69 39 29 40 74 41 68 42 70 43 30 44 73 45
REMARK SMILES IDX 67 46 66 47 31 49 57 50 40 51 56 52 41 53 44 54 55 55 71 56
REMARK SMILES IDX 42 57 43 58 54 60 72 61 45 62 32 63 33 64 38 65 34 66 35 67
REMARK SMILES IDX 37 68 39 69 36 70 58 71 59 72 64 73 60 74 61 75 63 76 65 77
REMARK SMILES IDX 62 78 46 79 47 80 52 81 48 82 49 83 51 84 53 85 50 86
REMARK H PARENT 16 6 20 29 70 48 44 59
REMARK Flexibility Score: inf
ROOT
ATOM      1  C   UNL A   1      37.790  19.881  24.807  1.00  0.00     0.042 C 
ENDROOT
BRANCH   1   2
ATOM      2  C   UNL A   1      36.468  20.580  25.079  1.00  0.00     0.118 C 
BRANCH   2   3
ATOM      3  N   UNL A   1      35.337  19.675  24.938  1.00  0.00    -0.352 N 
ATOM      4  C   UNL A   1      33.989  19.772  24.861  1.00  0.00     0.251 C 
ATOM      5  O   UNL A   1      33.393  18.695  24.754  1.00  0.00    -0.270 OA
ATOM      6  H   UNL A   1      35.632  18.738  24.886  1.00  0.00     0.163 HD
BRANCH   4   7
ATOM      7  C   UNL A   1      33.215  21.045  24.901  1.00  0.00     0.067 C 
ATOM      8  C   UNL A   1      30.854  25.339  23.688  1.00  0.00    -0.025 A 
ATOM      9  C   UNL A   1      30.823  24.467  24.787  1.00  0.00     0.052 A 
ATOM     10  C   UNL A   1      31.699  25.027  22.611  1.00  0.00     0.045 A 
ATOM     11  C   UNL A   1      31.592  23.311  24.797  1.00  0.00     0.128 A 
ATOM     12  C   UNL A   1      32.480  23.863  22.630  1.00  0.00     0.032 A 
ATOM     13  Cl  UNL A   1      31.805  26.037  21.214  1.00  0.00    -0.084 Cl
ATOM     14  C   UNL A   1      32.422  22.995  23.723  1.00  0.00     0.019 A 
ATOM     15  O   UNL A   1      31.436  22.491  25.875  1.00  0.00    -0.475 OA
ATOM     16  C   UNL A   1      33.165  21.740  23.750  1.00  0.00     0.025 C 
ATOM     17  C   UNL A   1      32.532  21.575  26.131  1.00  0.00     0.314 C 
BRANCH   8  18
ATOM     18  C   UNL A   1      29.924  26.530  23.706  1.00  0.00     0.040 C 
BRANCH  18  19
ATOM     19  C   UNL A   1      30.662  27.883  23.773  1.00  0.00    -0.013 C 
ATOM     20  C   UNL A   1      29.769  29.069  23.391  1.00  0.00     0.008 C 
ATOM     21  C   UNL A   1      31.207  28.098  25.187  1.00  0.00     0.008 C 
ENDBRANCH  18  19
ENDBRANCH   8  18
BRANCH  17  22
ATOM     22  C   UNL A   1      33.513  22.229  27.125  1.00  0.00     0.429 C 
ATOM     23  F   UNL A   1      32.829  22.859  28.112  1.00  0.00    -0.167 F 
ATOM     24  F   UNL A   1      34.318  21.325  27.732  1.00  0.00    -0.167 F 
ATOM     25  F   UNL A   1      34.319  23.143  26.541  1.00  0.00    -0.167 F 
ENDBRANCH  17  22
ENDBRANCH   4   7
ENDBRANCH   2   3
ENDBRANCH   1   2
BRANCH   1  26
ATOM     26  C   UNL A   1      38.886  20.330  25.765  1.00  0.00     0.118 C 
BRANCH  26  27
ATOM     27  N   UNL A   1      39.985  19.368  25.829  1.00  0.00    -0.352 N 
ATOM     28  C   UNL A   1      41.320  19.553  26.092  1.00  0.00     0.251 C 
ATOM     29  H   UNL A   1      39.725  18.434  25.656  1.00  0.00     0.163 HD
ATOM     30  O   UNL A   1      42.118  18.648  25.859  1.00  0.00    -0.269 OA
BRANCH  28  31
ATOM     31  C   UNL A   1      41.800  20.838  26.637  1.00  0.00     0.039 A 
ATOM     32  C   UNL A   1      41.802  21.060  28.013  1.00  0.00     0.014 A 
ATOM     33  C   UNL A   1      42.264  21.830  25.767  1.00  0.00     0.014 A 
ATOM     34  C   UNL A   1      42.067  22.330  28.504  1.00  0.00     0.010 A 
ATOM     35  C   UNL A   1      42.644  23.075  26.277  1.00  0.00     0.010 A 
ATOM     36  C   UNL A   1      42.500  23.352  27.645  1.00  0.00    -0.014 A 
BRANCH  36  37
ATOM     37  C   UNL A   1      42.789  24.693  28.216  1.00  0.00     0.031 A 
ATOM     38  C   UNL A   1      44.202  25.112  28.519  1.00  0.00     0.074 A 
ATOM     39  C   UNL A   1      41.774  25.564  28.380  1.00  0.00     0.049 A 
ATOM     40  N   UNL A   1      44.639  26.251  28.998  1.00  0.00    -0.248 NA
ATOM     41  C   UNL A   1      45.265  24.128  28.258  1.00  0.00     0.031 C 
ATOM     42  C   UNL A   1      40.363  25.276  28.109  1.00  0.00     0.029 A 
ATOM     43  N   UNL A   1      41.772  26.875  28.779  1.00  0.00    -0.354 N 
ATOM     44  C   UNL A   1      46.018  26.114  29.109  1.00  0.00     0.074 A 
ATOM     45  C   UNL A   1      46.346  24.772  28.678  1.00  0.00     0.031 C 
ATOM     46  C   UNL A   1      39.643  26.393  28.287  1.00  0.00     0.029 A 
ATOM     47  C   UNL A   1      40.527  27.453  28.755  1.00  0.00     0.049 A 
ATOM     48  H   UNL A   1      42.586  27.356  29.054  1.00  0.00     0.167 HD
ATOM     49  C   UNL A   1      46.930  27.030  29.516  1.00  0.00     0.037 A 
ATOM     50  C   UNL A   1      40.134  28.694  29.094  1.00  0.00     0.037 A 
ATOM     51  C   UNL A   1      46.603  28.371  29.929  1.00  0.00     0.049 A 
ATOM     52  C   UNL A   1      41.162  29.670  29.586  1.00  0.00     0.074 A 
ATOM     53  C   UNL A   1      47.453  29.371  30.368  1.00  0.00     0.029 A 
ATOM     54  N   UNL A   1      45.322  28.901  29.943  1.00  0.00    -0.354 N 
ATOM     55  N   UNL A   1      42.459  29.520  29.697  1.00  0.00    -0.248 NA
ATOM     56  C   UNL A   1      40.667  30.986  30.015  1.00  0.00     0.031 C 
ATOM     57  C   UNL A   1      46.682  30.497  30.677  1.00  0.00     0.029 A 
ATOM     58  C   UNL A   1      45.356  30.210  30.394  1.00  0.00     0.049 A 
ATOM     59  H   UNL A   1      44.507  28.418  29.672  1.00  0.00     0.167 HD
ATOM     60  C   UNL A   1      42.937  30.722  30.198  1.00  0.00     0.074 A 
ATOM     61  C   UNL A   1      41.795  31.601  30.339  1.00  0.00     0.031 C 
ATOM     62  C   UNL A   1      44.206  31.066  30.525  1.00  0.00     0.037 A 
BRANCH  49  63
ATOM     63  C   UNL A   1      48.370  26.608  29.547  1.00  0.00     0.057 A 
ATOM     64  C   UNL A   1      49.214  26.858  28.458  1.00  0.00     0.134 A 
ATOM     65  C   UNL A   1      48.913  25.918  30.639  1.00  0.00     0.134 A 
ATOM     66  F   UNL A   1      48.758  27.511  27.379  1.00  0.00    -0.206 F 
ATOM     67  C   UNL A   1      50.544  26.432  28.450  1.00  0.00     0.040 A 
ATOM     68  C   UNL A   1      50.247  25.506  30.653  1.00  0.00     0.040 A 
ATOM     69  F   UNL A   1      48.162  25.660  31.721  1.00  0.00    -0.206 F 
ATOM     70  C   UNL A   1      51.065  25.757  29.553  1.00  0.00     0.006 A 
ENDBRANCH  49  63
BRANCH  50  71
ATOM     71  C   UNL A   1      38.702  29.076  29.014  1.00  0.00     0.057 A 
ATOM     72  C   UNL A   1      37.863  28.989  30.132  1.00  0.00     0.134 A 
ATOM     73  C   UNL A   1      38.146  29.568  27.828  1.00  0.00     0.134 A 
ATOM     74  F   UNL A   1      38.334  28.519  31.297  1.00  0.00    -0.206 F 
ATOM     75  C   UNL A   1      36.523  29.371  30.073  1.00  0.00     0.040 A 
ATOM     76  C   UNL A   1      36.815  29.983  27.762  1.00  0.00     0.040 A 
ATOM     77  F   UNL A   1      38.904  29.694  26.728  1.00  0.00    -0.206 F 
ATOM     78  C   UNL A   1      35.999  29.881  28.888  1.00  0.00     0.006 A 
ENDBRANCH  50  71
BRANCH  62  79
ATOM     79  C   UNL A   1      44.412  32.458  31.042  1.00  0.00     0.057 A 
ATOM     80  C   UNL A   1      44.652  33.519  30.161  1.00  0.00     0.134 A 
ATOM     81  C   UNL A   1      44.365  32.748  32.412  1.00  0.00     0.134 A 
ATOM     82  F   UNL A   1      44.714  33.305  28.838  1.00  0.00    -0.206 F 
ATOM     83  C   UNL A   1      44.832  34.822  30.624  1.00  0.00     0.040 A 
ATOM     84  C   UNL A   1      44.517  34.052  32.884  1.00  0.00     0.040 A 
ATOM     85  F   UNL A   1      44.119  31.777  33.304  1.00  0.00    -0.206 F 
ATOM     86  C   UNL A   1      44.755  35.093  31.989  1.00  0.00     0.006 A 
ENDBRANCH  62  79
ENDBRANCH  36  37
ENDBRANCH  28  31
ENDBRANCH  26  27
ENDBRANCH   1  26
TORSDOF 13
ENDMDL
MODEL 2
REMARK VINA RESULT:     -12.3      1.903      2.645
REMARK SMILES CC(C)Cc1cc2c(cc1Cl)C=C(C(=O)NCCCNC(=O)c1ccc(-c3c4nc(c(-c5c(F)cccc5F)c5ccc([nH]5)c(-c5c(F)cccc5F)c5nc(c(-c6c(F)cccc6F)c6ccc3[nH]6)C=C5)C=C4)cc1)[C@@H](C(F)(F)F)O2
REMARK SMILES IDX 18 1 17 2 16 3 14 4 15 5 13 7 5 8 6 9 10 10 7 11 9 12 11 13
REMARK SMILES IDX 8 14 82 15 12 16 77 17 4 18 2 19 1 20 3 21 78 22 79 23 80 24
REMARK SMILES IDX 81 25 19 26 20 27 21 28 22 30 23 31 24 32 76 33 25 34 75 35
REMARK SMILES IDX 26 36 27 37 28 38 69 39 29 40 74 41 68 42 70 43 30 44 73 45
REMARK SMILES IDX 67 46 66 47 31 49 57 50 40 51 56 52 41 53 44 54 55 55 71 56
REMARK SMILES IDX 42 57 43 58 54 60 72 61 45 62 32 63 33 64 38 65 34 66 35 67
REMARK SMILES IDX 37 68 39 69 36 70 58 71 59 72 64 73 60 74 61 75 63 76 65 77
REMARK SMILES IDX 62 78 46 79 47 80 52 81 48 82 49 83 51 84 53 85 50 86
REMARK H PARENT 16 6 20 29 70 48 44 59
REMARK Flexibility Score: inf
ROOT
ATOM      1  C   UNL A   1      37.852  19.778  24.849  1.00  0.00     0.042 C 
ENDROOT
BRANCH   1   2
ATOM      2  C   UNL A   1      36.823  20.883  24.675  1.00  0.00     0.118 C 
BRANCH   2   3
ATOM      3  N   UNL A   1      35.922  20.970  25.814  1.00  0.00    -0.352 N 
ATOM      4  C   UNL A   1      34.877  21.738  26.199  1.00  0.00     0.251 C 
ATOM      5  O   UNL A   1      34.395  21.453  27.301  1.00  0.00    -0.270 OA
ATOM      6  H   UNL A   1      36.129  20.284  26.488  1.00  0.00     0.163 HD
BRANCH   4   7
ATOM      7  C   UNL A   1      34.300  22.864  25.410  1.00  0.00     0.067 C 
ATOM      8  C   UNL A   1      32.448  27.326  23.945  1.00  0.00    -0.025 A 
ATOM      9  C   UNL A   1      32.970  26.204  23.284  1.00  0.00     0.052 A 
ATOM     10  C   UNL A   1      32.398  27.310  25.349  1.00  0.00     0.045 A 
ATOM     11  C   UNL A   1      33.447  25.115  24.003  1.00  0.00     0.128 A 
ATOM     12  C   UNL A   1      32.873  26.206  26.069  1.00  0.00     0.032 A 
ATOM     13  Cl  UNL A   1      31.776  28.645  26.252  1.00  0.00    -0.084 Cl
ATOM     14  C   UNL A   1      33.408  25.105  25.395  1.00  0.00     0.019 A 
ATOM     15  O   UNL A   1      34.002  24.106  23.272  1.00  0.00    -0.475 OA
ATOM     16  C   UNL A   1      33.976  23.968  26.109  1.00  0.00     0.025 C 
ATOM     17  C   UNL A   1      34.056  22.813  23.928  1.00  0.00     0.314 C 
BRANCH   8  18
ATOM     18  C   UNL A   1      32.031  28.510  23.105  1.00  0.00     0.040 C 
BRANCH  18  19
ATOM     19  C   UNL A   1      30.647  28.337  22.445  1.00  0.00    -0.013 C 
ATOM     20  C   UNL A   1      29.627  27.663  23.369  1.00  0.00     0.008 C 
ATOM     21  C   UNL A   1      30.111  29.704  22.015  1.00  0.00     0.008 C 
ENDBRANCH  18  19
ENDBRANCH   8  18
BRANCH  17  22
ATOM     22  C   UNL A   1      32.796  22.008  23.557  1.00  0.00     0.429 C 
ATOM     23  F   UNL A   1      32.465  22.227  22.259  1.00  0.00    -0.167 F 
ATOM     24  F   UNL A   1      32.974  20.672  23.687  1.00  0.00    -0.167 F 
ATOM     25  F   UNL A   1      31.723  22.335  24.311  1.00  0.00    -0.167 F 
ENDBRANCH  17  22
ENDBRANCH   4   7
ENDBRANCH   2   3
ENDBRANCH   1   2
BRANCH   1  26
ATOM     26  C   UNL A   1      38.989  20.190  25.774  1.00  0.00     0.118 C 
BRANCH  26  27
ATOM     27  N   UNL A   1      40.023  19.161  25.864  1.00  0.00    -0.352 N 
ATOM     28  C   UNL A   1      41.385  19.273  26.005  1.00  0.00     0.251 C 
ATOM     29  H   UNL A   1      39.689  18.236  25.815  1.00  0.00     0.163 HD
ATOM     30  O   UNL A   1      42.100  18.291  25.815  1.00  0.00    -0.269 OA
BRANCH  28  31
ATOM     31  C   UNL A   1      41.992  20.568  26.368  1.00  0.00     0.039 A 
ATOM     32  C   UNL A   1      42.198  20.897  27.706  1.00  0.00     0.014 A 
ATOM     33  C   UNL A   1      42.369  21.463  25.361  1.00  0.00     0.014 A 
ATOM     34  C   UNL A   1      42.584  22.185  28.046  1.00  0.00     0.010 A 
ATOM     35  C   UNL A   1      42.871  22.722  25.706  1.00  0.00     0.010 A 
ATOM     36  C   UNL A   1      42.934  23.113  27.052  1.00  0.00    -0.014 A 
BRANCH  36  37
ATOM     37  C   UNL A   1      43.358  24.476  27.462  1.00  0.00     0.031 A 
ATOM     38  C   UNL A   1      44.796  24.904  27.343  1.00  0.00     0.074 A 
ATOM     39  C   UNL A   1      42.420  25.357  27.863  1.00  0.00     0.049 A 
ATOM     40  N   UNL A   1      45.338  26.061  27.632  1.00  0.00    -0.248 NA
ATOM     41  C   UNL A   1      45.754  23.906  26.841  1.00  0.00     0.031 C 
ATOM     42  C   UNL A   1      40.991  25.063  28.006  1.00  0.00     0.029 A 
ATOM     43  N   UNL A   1      42.517  26.684  28.189  1.00  0.00    -0.354 N 
ATOM     44  C   UNL A   1      46.695  25.925  27.362  1.00  0.00     0.074 A 
ATOM     45  C   UNL A   1      46.902  24.564  26.917  1.00  0.00     0.031 C 
ATOM     46  C   UNL A   1      40.339  26.189  28.327  1.00  0.00     0.029 A 
ATOM     47  C   UNL A   1      41.309  27.266  28.486  1.00  0.00     0.049 A 
ATOM     48  H   UNL A   1      43.371  27.175  28.207  1.00  0.00     0.167 HD
ATOM     49  C   UNL A   1      47.675  26.854  27.461  1.00  0.00     0.037 A 
ATOM     50  C   UNL A   1      41.014  28.521  28.867  1.00  0.00     0.037 A 
ATOM     51  C   UNL A   1      47.463  28.213  27.889  1.00  0.00     0.049 A 
ATOM     52  C   UNL A   1      42.129  29.515  29.012  1.00  0.00     0.074 A 
ATOM     53  C   UNL A   1      48.393  29.229  28.032  1.00  0.00     0.029 A 
ATOM     54  N   UNL A   1      46.231  28.748  28.235  1.00  0.00    -0.354 N 
ATOM     55  N   UNL A   1      43.408  29.365  28.765  1.00  0.00    -0.248 NA
ATOM     56  C   UNL A   1      41.760  30.849  29.503  1.00  0.00     0.031 C 
ATOM     57  C   UNL A   1      47.728  30.371  28.494  1.00  0.00     0.029 A 
ATOM     58  C   UNL A   1      46.378  30.076  28.601  1.00  0.00     0.049 A 
ATOM     59  H   UNL A   1      45.378  28.257  28.221  1.00  0.00     0.167 HD
ATOM     60  C   UNL A   1      43.995  30.586  29.062  1.00  0.00     0.074 A 
ATOM     61  C   UNL A   1      42.928  31.475  29.475  1.00  0.00     0.031 C 
ATOM     62  C   UNL A   1      45.302  30.941  29.009  1.00  0.00     0.037 A 
BRANCH  49  63
ATOM     63  C   UNL A   1      49.071  26.430  27.110  1.00  0.00     0.057 A 
ATOM     64  C   UNL A   1      49.941  25.942  28.093  1.00  0.00     0.134 A 
ATOM     65  C   UNL A   1      49.570  26.542  25.805  1.00  0.00     0.134 A 
ATOM     66  F   UNL A   1      49.530  25.813  29.363  1.00  0.00    -0.206 F 
ATOM     67  C   UNL A   1      51.258  25.586  27.793  1.00  0.00     0.040 A 
ATOM     68  C   UNL A   1      50.877  26.168  25.488  1.00  0.00     0.040 A 
ATOM     69  F   UNL A   1      48.783  26.987  24.813  1.00  0.00    -0.206 F 
ATOM     70  C   UNL A   1      51.728  25.695  26.485  1.00  0.00     0.006 A 
ENDBRANCH  49  63
BRANCH  50  71
ATOM     71  C   UNL A   1      39.612  28.904  29.170  1.00  0.00     0.057 A 
ATOM     72  C   UNL A   1      38.758  29.386  28.169  1.00  0.00     0.134 A 
ATOM     73  C   UNL A   1      39.084  28.768  30.458  1.00  0.00     0.134 A 
ATOM     74  F   UNL A   1      39.207  29.545  26.915  1.00  0.00    -0.206 F 
ATOM     75  C   UNL A   1      37.432  29.722  28.438  1.00  0.00     0.040 A 
ATOM     76  C   UNL A   1      37.749  29.072  30.735  1.00  0.00     0.040 A 
ATOM     77  F   UNL A   1      39.846  28.294  31.454  1.00  0.00    -0.206 F 
ATOM     78  C   UNL A   1      36.921  29.554  29.724  1.00  0.00     0.006 A 
ENDBRANCH  50  71
BRANCH  62  79
ATOM     79  C   UNL A   1      45.630  32.353  29.388  1.00  0.00     0.057 A 
ATOM     80  C   UNL A   1      45.610  33.373  28.429  1.00  0.00     0.134 A 
ATOM     81  C   UNL A   1      45.958  32.704  30.704  1.00  0.00     0.134 A 
ATOM     82  F   UNL A   1      45.308  33.100  27.150  1.00  0.00    -0.206 F 
ATOM     83  C   UNL A   1      45.900  34.695  28.766  1.00  0.00     0.040 A 
ATOM     84  C   UNL A   1      46.224  34.027  31.058  1.00  0.00     0.040 A 
ATOM     85  F   UNL A   1      45.975  31.775  31.671  1.00  0.00    -0.206 F 
ATOM     86  C   UNL A   1      46.198  35.026  30.087  1.00  0.00     0.006 A 
ENDBRANCH  62  79
ENDBRANCH  36  37
ENDBRANCH  28  31
ENDBRANCH  26  27
ENDBRANCH   1  26
TORSDOF 13
ENDMDL
MODEL 3
REMARK VINA RESULT:     -12.3      4.666      9.414
REMARK SMILES CC(C)Cc1cc2c(cc1Cl)C=C(C(=O)NCCCNC(=O)c1ccc(-c3c4nc(c(-c5c(F)cccc5F)c5ccc([nH]5)c(-c5c(F)cccc5F)c5nc(c(-c6c(F)cccc6F)c6ccc3[nH]6)C=C5)C=C4)cc1)[C@@H](C(F)(F)F)O2
REMARK SMILES IDX 18 1 17 2 16 3 14 4 15 5 13 7 5 8 6 9 10 10 7 11 9 12 11 13
REMARK SMILES IDX 8 14 82 15 12 16 77 17 4 18 2 19 1 20 3 21 78 22 79 23 80 24
REMARK SMILES IDX 81 25 19 26 20 27 21 28 22 30 23 31 24 32 76 33 25 34 75 35
REMARK SMILES IDX 26 36 27 37 28 38 69 39 29 40 74 41 68 42 70 43 30 44 73 45
REMARK SMILES IDX 67 46 66 47 31 49 57 50 40 51 56 52 41 53 44 54 55 55 71 56
REMARK SMILES IDX 42 57 43 58 54 60 72 61 45 62 32 63 33 64 38 65 34 66 35 67
REMARK SMILES IDX 37 68 39 69 36 70 58 71 59 72 64 73 60 74 61 75 63 76 65 77
REMARK SMILES IDX 62 78 46 79 47 80 52 81 48 82 49 83 51 84 53 85 50 86
REMARK H PARENT 16 6 20 29 70 48 44 59
REMARK Flexibility Score: inf
ROOT
ATOM      1  C   UNL A   1      31.320  31.786  26.497  1.00  0.00     0.042 C 
ENDROOT
BRANCH   1   2
ATOM      2  C   UNL A   1      31.533  30.520  25.683  1.00  0.00     0.118 C 
BRANCH   2   3
ATOM      3  N   UNL A   1      30.644  30.458  24.532  1.00  0.00    -0.352 N 
ATOM      4  C   UNL A   1      30.322  29.562  23.571  1.00  0.00     0.251 C 
ATOM      5  O   UNL A   1      29.487  29.955  22.748  1.00  0.00    -0.270 OA
ATOM      6  H   UNL A   1      30.140  31.297  24.424  1.00  0.00     0.163 HD
BRANCH   4   7
ATOM      7  C   UNL A   1      30.895  28.192  23.446  1.00  0.00     0.067 C 
ATOM      8  C   UNL A   1      31.823  23.251  23.908  1.00  0.00    -0.025 A 
ATOM      9  C   UNL A   1      32.185  24.246  22.987  1.00  0.00     0.052 A 
ATOM     10  C   UNL A   1      30.998  23.608  24.986  1.00  0.00     0.045 A 
ATOM     11  C   UNL A   1      31.716  25.546  23.127  1.00  0.00     0.128 A 
ATOM     12  C   UNL A   1      30.535  24.924  25.128  1.00  0.00     0.032 A 
ATOM     13  Cl  UNL A   1      30.497  22.454  26.171  1.00  0.00    -0.084 Cl
ATOM     14  C   UNL A   1      30.888  25.898  24.190  1.00  0.00     0.019 A 
ATOM     15  O   UNL A   1      32.062  26.422  22.140  1.00  0.00    -0.475 OA
ATOM     16  C   UNL A   1      30.372  27.259  24.264  1.00  0.00     0.025 C 
ATOM     17  C   UNL A   1      32.002  27.826  22.499  1.00  0.00     0.314 C 
BRANCH   8  18
ATOM     18  C   UNL A   1      32.294  21.840  23.644  1.00  0.00     0.040 C 
BRANCH  18  19
ATOM     19  C   UNL A   1      33.333  21.339  24.668  1.00  0.00    -0.013 C 
ATOM     20  C   UNL A   1      33.436  19.810  24.713  1.00  0.00     0.008 C 
ATOM     21  C   UNL A   1      34.706  21.926  24.333  1.00  0.00     0.008 C 
ENDBRANCH  18  19
ENDBRANCH   8  18
BRANCH  17  22
ATOM     22  C   UNL A   1      33.389  28.278  22.997  1.00  0.00     0.429 C 
ATOM     23  F   UNL A   1      33.434  29.631  23.094  1.00  0.00    -0.167 F 
ATOM     24  F   UNL A   1      33.684  27.795  24.226  1.00  0.00    -0.167 F 
ATOM     25  F   UNL A   1      34.391  27.897  22.175  1.00  0.00    -0.167 F 
ENDBRANCH  17  22
ENDBRANCH   4   7
ENDBRANCH   2   3
ENDBRANCH   1   2
BRANCH   1  26
ATOM     26  C   UNL A   1      32.621  32.326  27.074  1.00  0.00     0.118 C 
BRANCH  26  27
ATOM     27  N   UNL A   1      32.514  33.735  27.444  1.00  0.00    -0.352 N 
ATOM     28  C   UNL A   1      33.149  34.452  28.428  1.00  0.00     0.251 C 
ATOM     29  H   UNL A   1      31.882  34.257  26.898  1.00  0.00     0.163 HD
ATOM     30  O   UNL A   1      32.738  35.570  28.731  1.00  0.00    -0.269 OA
BRANCH  28  31
ATOM     31  C   UNL A   1      34.312  33.879  29.133  1.00  0.00     0.039 A 
ATOM     32  C   UNL A   1      35.593  34.376  28.894  1.00  0.00     0.014 A 
ATOM     33  C   UNL A   1      34.125  32.840  30.050  1.00  0.00     0.014 A 
ATOM     34  C   UNL A   1      36.695  33.708  29.407  1.00  0.00     0.010 A 
ATOM     35  C   UNL A   1      35.234  32.244  30.659  1.00  0.00     0.010 A 
ATOM     36  C   UNL A   1      36.532  32.639  30.302  1.00  0.00    -0.014 A 
BRANCH  36  37
ATOM     37  C   UNL A   1      37.741  31.965  30.840  1.00  0.00     0.031 A 
ATOM     38  C   UNL A   1      38.212  32.232  32.244  1.00  0.00     0.074 A 
ATOM     39  C   UNL A   1      38.364  31.042  30.081  1.00  0.00     0.049 A 
ATOM     40  N   UNL A   1      39.231  31.715  32.884  1.00  0.00    -0.248 NA
ATOM     41  C   UNL A   1      37.445  33.208  33.035  1.00  0.00     0.031 C 
ATOM     42  C   UNL A   1      37.992  30.687  28.708  1.00  0.00     0.029 A 
ATOM     43  N   UNL A   1      39.415  30.209  30.363  1.00  0.00    -0.354 N 
ATOM     44  C   UNL A   1      39.237  32.312  34.139  1.00  0.00     0.074 A 
ATOM     45  C   UNL A   1      38.140  33.254  34.163  1.00  0.00     0.031 C 
ATOM     46  C   UNL A   1      38.759  29.669  28.293  1.00  0.00     0.029 A 
ATOM     47  C   UNL A   1      39.723  29.349  29.338  1.00  0.00     0.049 A 
ATOM     48  H   UNL A   1      39.902  30.225  31.219  1.00  0.00     0.167 HD
ATOM     49  C   UNL A   1      40.071  32.083  35.182  1.00  0.00     0.037 A 
ATOM     50  C   UNL A   1      40.689  28.418  29.240  1.00  0.00     0.037 A 
ATOM     51  C   UNL A   1      41.153  31.133  35.161  1.00  0.00     0.049 A 
ATOM     52  C   UNL A   1      41.627  28.222  30.395  1.00  0.00     0.074 A 
ATOM     53  C   UNL A   1      42.061  30.834  36.163  1.00  0.00     0.029 A 
ATOM     54  N   UNL A   1      41.467  30.319  34.083  1.00  0.00    -0.354 N 
ATOM     55  N   UNL A   1      41.625  28.805  31.569  1.00  0.00    -0.248 NA
ATOM     56  C   UNL A   1      42.709  27.247  30.205  1.00  0.00     0.031 C 
ATOM     57  C   UNL A   1      42.943  29.861  35.680  1.00  0.00     0.029 A 
ATOM     58  C   UNL A   1      42.560  29.526  34.390  1.00  0.00     0.049 A 
ATOM     59  H   UNL A   1      40.983  30.306  33.225  1.00  0.00     0.167 HD
ATOM     60  C   UNL A   1      42.698  28.262  32.261  1.00  0.00     0.074 A 
ATOM     61  C   UNL A   1      43.307  27.281  31.387  1.00  0.00     0.031 C 
ATOM     62  C   UNL A   1      43.149  28.556  33.504  1.00  0.00     0.037 A 
BRANCH  49  63
ATOM     63  C   UNL A   1      39.854  32.884  36.433  1.00  0.00     0.057 A 
ATOM     64  C   UNL A   1      38.872  32.514  37.360  1.00  0.00     0.134 A 
ATOM     65  C   UNL A   1      40.589  34.047  36.701  1.00  0.00     0.134 A 
ATOM     66  F   UNL A   1      38.129  31.414  37.163  1.00  0.00    -0.206 F 
ATOM     67  C   UNL A   1      38.624  33.273  38.505  1.00  0.00     0.040 A 
ATOM     68  C   UNL A   1      40.366  34.802  37.854  1.00  0.00     0.040 A 
ATOM     69  F   UNL A   1      41.555  34.449  35.861  1.00  0.00    -0.206 F 
ATOM     70  C   UNL A   1      39.375  34.420  38.757  1.00  0.00     0.006 A 
ENDBRANCH  49  63
BRANCH  50  71
ATOM     71  C   UNL A   1      40.844  27.625  27.994  1.00  0.00     0.057 A 
ATOM     72  C   UNL A   1      41.637  28.085  26.935  1.00  0.00     0.134 A 
ATOM     73  C   UNL A   1      40.230  26.377  27.846  1.00  0.00     0.134 A 
ATOM     74  F   UNL A   1      42.246  29.277  27.012  1.00  0.00    -0.206 F 
ATOM     75  C   UNL A   1      41.810  27.335  25.772  1.00  0.00     0.040 A 
ATOM     76  C   UNL A   1      40.420  25.601  26.701  1.00  0.00     0.040 A 
ATOM     77  F   UNL A   1      39.475  25.874  28.834  1.00  0.00    -0.206 F 
ATOM     78  C   UNL A   1      41.209  26.083  25.658  1.00  0.00     0.006 A 
ENDBRANCH  50  71
BRANCH  62  79
ATOM     79  C   UNL A   1      44.342  27.786  33.985  1.00  0.00     0.057 A 
ATOM     80  C   UNL A   1      45.636  28.288  33.804  1.00  0.00     0.134 A 
ATOM     81  C   UNL A   1      44.207  26.552  34.634  1.00  0.00     0.134 A 
ATOM     82  F   UNL A   1      45.831  29.463  33.185  1.00  0.00    -0.206 F 
ATOM     83  C   UNL A   1      46.756  27.591  34.257  1.00  0.00     0.040 A 
ATOM     84  C   UNL A   1      45.319  25.859  35.115  1.00  0.00     0.040 A 
ATOM     85  F   UNL A   1      42.992  26.029  34.854  1.00  0.00    -0.206 F 
ATOM     86  C   UNL A   1      46.598  26.377  34.923  1.00  0.00     0.006 A 
ENDBRANCH  62  79
ENDBRANCH  36  37
ENDBRANCH  28  31
ENDBRANCH  26  27
ENDBRANCH   1  26
TORSDOF 13
ENDMDL
