MODEL 1
REMARK VINA RESULT:     -11.1      0.000      0.000
REMARK SMILES CC[NH2+][C@]1(C(=O)NCCCNC(=O)c2ccc(-c3c4nc(c(-c5c(F)cccc5F)c5ccc([nH]5)c(-c5c(F)cccc5F)c5nc(c(-c6c(F)cccc6F)c6ccc3[nH]6)C=C5)C=C4)cc2)CCC[C@@H]1CCSc1ccccc1F
REMARK SMILES IDX 8 1 7 2 5 3 6 4 4 6 68 7 71 8 69 9 70 10 3 11 2 14 1 15
REMARK SMILES IDX 72 16 73 17 74 18 75 19 76 20 80 21 77 22 79 23 81 24 78 25
REMARK SMILES IDX 9 26 10 27 11 28 12 29 13 31 14 32 15 33 67 34 16 35 66 36
REMARK SMILES IDX 17 37 18 38 19 39 60 40 20 41 65 42 59 43 61 44 21 45 64 46
REMARK SMILES IDX 58 47 57 48 22 50 48 51 31 52 47 53 32 54 35 55 46 56 62 57
REMARK SMILES IDX 33 58 34 59 45 61 63 62 36 63 23 64 24 65 29 66 25 67 26 68
REMARK SMILES IDX 28 69 30 70 27 71 49 72 50 73 55 74 51 75 52 76 54 77 56 78
REMARK SMILES IDX 53 79 37 80 38 81 43 82 39 83 40 84 42 85 44 86 41 87
REMARK H PARENT 7 5 3 12 3 13 11 30 61 49 35 60
REMARK Flexibility Score: inf
ROOT
ATOM      1  C   UNL A   1      31.473  31.065  26.051  1.00  0.00     0.118 C 
ENDROOT
BRANCH   1   2
ATOM      2  N   UNL A   1      31.389  29.890  26.894  1.00  0.00    -0.351 N 
ATOM      3  C   UNL A   1      31.827  28.612  26.836  1.00  0.00     0.281 C 
ATOM      4  O   UNL A   1      31.306  27.887  27.700  1.00  0.00    -0.268 OA
ATOM      5  H   UNL A   1      30.885  30.067  27.721  1.00  0.00     0.163 HD
BRANCH   3   6
ATOM      6  C   UNL A   1      32.893  28.025  25.845  1.00  0.00     0.178 C 
ATOM      7  C   UNL A   1      33.424  26.614  26.179  1.00  0.00     0.079 C 
ATOM      8  C   UNL A   1      32.231  27.641  24.472  1.00  0.00     0.061 C 
ATOM      9  C   UNL A   1      34.026  26.048  24.894  1.00  0.00     0.008 C 
ATOM     10  C   UNL A   1      33.294  26.772  23.767  1.00  0.00     0.011 C 
BRANCH   6  11
ATOM     11  N   UNL A   1      34.100  28.905  25.768  1.00  0.00    -0.334 N 
ATOM     12  H   UNL A   1      34.672  28.581  24.988  1.00  0.00     0.347 HD
ATOM     13  H   UNL A   1      33.738  29.853  25.661  1.00  0.00     0.347 HD
BRANCH  11  14
ATOM     14  C   UNL A   1      34.952  28.946  26.958  1.00  0.00     0.257 C 
ATOM     15  C   UNL A   1      34.909  30.322  27.606  1.00  0.00     0.071 C 
ENDBRANCH  11  14
ENDBRANCH   6  11
BRANCH   8  16
ATOM     16  C   UNL A   1      31.653  28.732  23.557  1.00  0.00     0.022 C 
BRANCH  16  17
ATOM     17  C   UNL A   1      30.635  28.168  22.536  1.00  0.00     0.075 C 
BRANCH  17  18
ATOM     18  S   UNL A   1      28.844  28.500  22.864  1.00  0.00    -0.123 SA
BRANCH  18  19
ATOM     19  C   UNL A   1      28.699  30.266  22.626  1.00  0.00     0.043 A 
ATOM     20  C   UNL A   1      28.976  31.162  23.661  1.00  0.00     0.018 A 
ATOM     21  C   UNL A   1      28.202  30.796  21.440  1.00  0.00     0.136 A 
ATOM     22  C   UNL A   1      28.843  32.546  23.459  1.00  0.00     0.001 A 
ATOM     23  C   UNL A   1      28.124  32.164  21.201  1.00  0.00     0.040 A 
ATOM     24  F   UNL A   1      27.747  29.972  20.499  1.00  0.00    -0.206 F 
ATOM     25  C   UNL A   1      28.453  33.049  22.217  1.00  0.00     0.003 A 
ENDBRANCH  18  19
ENDBRANCH  17  18
ENDBRANCH  16  17
ENDBRANCH   8  16
ENDBRANCH   3   6
ENDBRANCH   1   2
BRANCH   1  26
ATOM     26  C   UNL A   1      31.425  32.340  26.873  1.00  0.00     0.042 C 
BRANCH  26  27
ATOM     27  C   UNL A   1      32.810  32.877  27.207  1.00  0.00     0.118 C 
BRANCH  27  28
ATOM     28  N   UNL A   1      32.760  34.229  27.758  1.00  0.00    -0.352 N 
ATOM     29  C   UNL A   1      33.425  34.775  28.826  1.00  0.00     0.251 C 
ATOM     30  H   UNL A   1      32.153  34.845  27.288  1.00  0.00     0.163 HD
ATOM     31  O   UNL A   1      33.064  35.853  29.287  1.00  0.00    -0.269 OA
BRANCH  29  32
ATOM     32  C   UNL A   1      34.570  34.062  29.427  1.00  0.00     0.039 A 
ATOM     33  C   UNL A   1      34.336  33.060  30.371  1.00  0.00     0.014 A 
ATOM     34  C   UNL A   1      35.878  34.397  29.071  1.00  0.00     0.014 A 
ATOM     35  C   UNL A   1      35.413  32.353  30.910  1.00  0.00     0.010 A 
ATOM     36  C   UNL A   1      36.939  33.622  29.522  1.00  0.00     0.010 A 
ATOM     37  C   UNL A   1      36.719  32.605  30.462  1.00  0.00    -0.014 A 
BRANCH  37  38
ATOM     38  C   UNL A   1      37.882  31.846  30.983  1.00  0.00     0.031 A 
ATOM     39  C   UNL A   1      38.433  32.166  32.347  1.00  0.00     0.074 A 
ATOM     40  C   UNL A   1      38.481  30.924  30.208  1.00  0.00     0.049 A 
ATOM     41  N   UNL A   1      39.485  31.673  32.950  1.00  0.00    -0.248 NA
ATOM     42  C   UNL A   1      37.729  33.202  33.118  1.00  0.00     0.031 C 
ATOM     43  C   UNL A   1      38.071  30.561  28.849  1.00  0.00     0.029 A 
ATOM     44  N   UNL A   1      39.570  30.126  30.449  1.00  0.00    -0.354 N 
ATOM     45  C   UNL A   1      39.575  32.352  34.159  1.00  0.00     0.074 A 
ATOM     46  C   UNL A   1      38.518  33.339  34.172  1.00  0.00     0.031 C 
ATOM     47  C   UNL A   1      38.874  29.587  28.393  1.00  0.00     0.029 A 
ATOM     48  C   UNL A   1      39.879  29.287  29.408  1.00  0.00     0.049 A 
ATOM     49  H   UNL A   1      40.083  30.154  31.290  1.00  0.00     0.167 HD
ATOM     50  C   UNL A   1      40.441  32.152  35.182  1.00  0.00     0.037 A 
ATOM     51  C   UNL A   1      40.862  28.376  29.287  1.00  0.00     0.037 A 
ATOM     52  C   UNL A   1      41.477  31.155  35.172  1.00  0.00     0.049 A 
ATOM     53  C   UNL A   1      41.820  28.179  30.429  1.00  0.00     0.074 A 
ATOM     54  C   UNL A   1      42.378  30.835  36.173  1.00  0.00     0.029 A 
ATOM     55  N   UNL A   1      41.751  30.314  34.104  1.00  0.00    -0.354 N 
ATOM     56  N   UNL A   1      41.858  28.784  31.593  1.00  0.00    -0.248 NA
ATOM     57  C   UNL A   1      42.867  27.165  30.245  1.00  0.00     0.031 C 
ATOM     58  C   UNL A   1      43.225  29.830  35.692  1.00  0.00     0.029 A 
ATOM     59  C   UNL A   1      42.817  29.487  34.413  1.00  0.00     0.049 A 
ATOM     60  H   UNL A   1      41.259  30.306  33.251  1.00  0.00     0.167 HD
ATOM     61  C   UNL A   1      42.908  28.202  32.290  1.00  0.00     0.074 A 
ATOM     62  C   UNL A   1      43.474  27.189  31.423  1.00  0.00     0.031 C 
ATOM     63  C   UNL A   1      43.361  28.477  33.539  1.00  0.00     0.037 A 
BRANCH  50  64
ATOM     64  C   UNL A   1      40.291  33.034  36.390  1.00  0.00     0.057 A 
ATOM     65  C   UNL A   1      39.341  32.767  37.387  1.00  0.00     0.134 A 
ATOM     66  C   UNL A   1      41.101  34.164  36.559  1.00  0.00     0.134 A 
ATOM     67  F   UNL A   1      38.523  31.708  37.281  1.00  0.00    -0.206 F 
ATOM     68  C   UNL A   1      39.174  33.614  38.484  1.00  0.00     0.040 A 
ATOM     69  C   UNL A   1      40.964  35.000  37.669  1.00  0.00     0.040 A 
ATOM     70  F   UNL A   1      42.034  34.477  35.649  1.00  0.00    -0.206 F 
ATOM     71  C   UNL A   1      39.991  34.732  38.629  1.00  0.00     0.006 A 
ENDBRANCH  50  64
BRANCH  51  72
ATOM     72  C   UNL A   1      40.962  27.550  28.058  1.00  0.00     0.057 A 
ATOM     73  C   UNL A   1      41.735  27.975  26.971  1.00  0.00     0.134 A 
ATOM     74  C   UNL A   1      40.303  26.321  27.939  1.00  0.00     0.134 A 
ATOM     75  F   UNL A   1      42.378  29.151  27.019  1.00  0.00    -0.206 F 
ATOM     76  C   UNL A   1      41.833  27.219  25.802  1.00  0.00     0.040 A 
ATOM     77  C   UNL A   1      40.413  25.542  26.786  1.00  0.00     0.040 A 
ATOM     78  F   UNL A   1      39.556  25.853  28.949  1.00  0.00    -0.206 F 
ATOM     79  C   UNL A   1      41.174  25.994  25.710  1.00  0.00     0.006 A 
ENDBRANCH  51  72
BRANCH  63  80
ATOM     80  C   UNL A   1      44.493  27.640  34.056  1.00  0.00     0.057 A 
ATOM     81  C   UNL A   1      45.829  28.045  33.946  1.00  0.00     0.134 A 
ATOM     82  C   UNL A   1      44.238  26.425  34.705  1.00  0.00     0.134 A 
ATOM     83  F   UNL A   1      46.143  29.191  33.324  1.00  0.00    -0.206 F 
ATOM     84  C   UNL A   1      46.872  27.257  34.438  1.00  0.00     0.040 A 
ATOM     85  C   UNL A   1      45.269  25.643  35.227  1.00  0.00     0.040 A 
ATOM     86  F   UNL A   1      42.979  25.982  34.853  1.00  0.00    -0.206 F 
ATOM     87  C   UNL A   1      46.592  26.057  35.087  1.00  0.00     0.006 A 
ENDBRANCH  63  80
ENDBRANCH  37  38
ENDBRANCH  29  32
ENDBRANCH  27  28
ENDBRANCH  26  27
ENDBRANCH   1  26
TORSDOF 16
ENDMDL
MODEL 2
REMARK VINA RESULT:     -11.0      1.743      6.772
REMARK SMILES CC[NH2+][C@]1(C(=O)NCCCNC(=O)c2ccc(-c3c4nc(c(-c5c(F)cccc5F)c5ccc([nH]5)c(-c5c(F)cccc5F)c5nc(c(-c6c(F)cccc6F)c6ccc3[nH]6)C=C5)C=C4)cc2)CCC[C@@H]1CCSc1ccccc1F
REMARK SMILES IDX 8 1 7 2 5 3 6 4 4 6 68 7 71 8 69 9 70 10 3 11 2 14 1 15
REMARK SMILES IDX 72 16 73 17 74 18 75 19 76 20 80 21 77 22 79 23 81 24 78 25
REMARK SMILES IDX 9 26 10 27 11 28 12 29 13 31 14 32 15 33 67 34 16 35 66 36
REMARK SMILES IDX 17 37 18 38 19 39 60 40 20 41 65 42 59 43 61 44 21 45 64 46
REMARK SMILES IDX 58 47 57 48 22 50 48 51 31 52 47 53 32 54 35 55 46 56 62 57
REMARK SMILES IDX 33 58 34 59 45 61 63 62 36 63 23 64 24 65 29 66 25 67 26 68
REMARK SMILES IDX 28 69 30 70 27 71 49 72 50 73 55 74 51 75 52 76 54 77 56 78
REMARK SMILES IDX 53 79 37 80 38 81 43 82 39 83 40 84 42 85 44 86 41 87
REMARK H PARENT 7 5 3 12 3 13 11 30 61 49 35 60
REMARK Flexibility Score: inf
ROOT
ATOM      1  C   UNL A   1      31.529  30.940  26.002  1.00  0.00     0.118 C 
ENDROOT
BRANCH   1   2
ATOM      2  N   UNL A   1      31.476  29.778  26.866  1.00  0.00    -0.351 N 
ATOM      3  C   UNL A   1      31.956  28.514  26.834  1.00  0.00     0.281 C 
ATOM      4  O   UNL A   1      31.451  27.788  27.707  1.00  0.00    -0.268 OA
ATOM      5  H   UNL A   1      30.959  29.953  27.685  1.00  0.00     0.163 HD
BRANCH   3   6
ATOM      6  C   UNL A   1      33.049  27.945  25.863  1.00  0.00     0.178 C 
ATOM      7  C   UNL A   1      33.637  26.567  26.237  1.00  0.00     0.079 C 
ATOM      8  C   UNL A   1      32.410  27.497  24.499  1.00  0.00     0.061 C 
ATOM      9  C   UNL A   1      34.267  25.992  24.970  1.00  0.00     0.008 C 
ATOM     10  C   UNL A   1      33.511  26.654  23.822  1.00  0.00     0.011 C 
BRANCH   6  11
ATOM     11  N   UNL A   1      34.220  28.872  25.766  1.00  0.00    -0.334 N 
ATOM     12  H   UNL A   1      34.824  28.533  25.017  1.00  0.00     0.347 HD
ATOM     13  H   UNL A   1      33.820  29.796  25.600  1.00  0.00     0.347 HD
BRANCH  11  14
ATOM     14  C   UNL A   1      35.039  29.013  26.971  1.00  0.00     0.257 C 
ATOM     15  C   UNL A   1      34.967  30.436  27.509  1.00  0.00     0.071 C 
ENDBRANCH  11  14
ENDBRANCH   6  11
BRANCH   8  16
ATOM     16  C   UNL A   1      31.791  28.537  23.553  1.00  0.00     0.022 C 
BRANCH  16  17
ATOM     17  C   UNL A   1      30.634  27.953  22.707  1.00  0.00     0.075 C 
BRANCH  17  18
ATOM     18  S   UNL A   1      29.298  27.054  23.618  1.00  0.00    -0.123 SA
BRANCH  18  19
ATOM     19  C   UNL A   1      30.081  25.521  24.098  1.00  0.00     0.043 A 
ATOM     20  C   UNL A   1      30.530  24.607  23.142  1.00  0.00     0.018 A 
ATOM     21  C   UNL A   1      30.169  25.142  25.433  1.00  0.00     0.136 A 
ATOM     22  C   UNL A   1      31.132  23.400  23.539  1.00  0.00     0.001 A 
ATOM     23  C   UNL A   1      30.818  23.983  25.846  1.00  0.00     0.040 A 
ATOM     24  F   UNL A   1      29.584  25.894  26.363  1.00  0.00    -0.206 F 
ATOM     25  C   UNL A   1      31.309  23.105  24.891  1.00  0.00     0.003 A 
ENDBRANCH  18  19
ENDBRANCH  17  18
ENDBRANCH  16  17
ENDBRANCH   8  16
ENDBRANCH   3   6
ENDBRANCH   1   2
BRANCH   1  26
ATOM     26  C   UNL A   1      31.308  32.221  26.786  1.00  0.00     0.042 C 
BRANCH  26  27
ATOM     27  C   UNL A   1      32.610  32.868  27.237  1.00  0.00     0.118 C 
BRANCH  27  28
ATOM     28  N   UNL A   1      32.433  34.270  27.603  1.00  0.00    -0.352 N 
ATOM     29  C   UNL A   1      33.009  35.002  28.611  1.00  0.00     0.251 C 
ATOM     30  H   UNL A   1      31.800  34.769  27.038  1.00  0.00     0.163 HD
ATOM     31  O   UNL A   1      32.546  36.097  28.914  1.00  0.00    -0.269 OA
BRANCH  29  32
ATOM     32  C   UNL A   1      34.180  34.469  29.335  1.00  0.00     0.039 A 
ATOM     33  C   UNL A   1      33.997  33.850  30.575  1.00  0.00     0.014 A 
ATOM     34  C   UNL A   1      35.463  34.596  28.799  1.00  0.00     0.014 A 
ATOM     35  C   UNL A   1      35.095  33.306  31.243  1.00  0.00     0.010 A 
ATOM     36  C   UNL A   1      36.535  33.960  29.410  1.00  0.00     0.010 A 
ATOM     37  C   UNL A   1      36.367  33.326  30.648  1.00  0.00    -0.014 A 
BRANCH  37  38
ATOM     38  C   UNL A   1      37.547  32.721  31.313  1.00  0.00     0.031 A 
ATOM     39  C   UNL A   1      38.237  31.542  30.682  1.00  0.00     0.074 A 
ATOM     40  C   UNL A   1      37.951  33.184  32.510  1.00  0.00     0.049 A 
ATOM     41  N   UNL A   1      39.232  30.825  31.138  1.00  0.00    -0.248 NA
ATOM     42  C   UNL A   1      37.716  31.087  29.384  1.00  0.00     0.031 C 
ATOM     43  C   UNL A   1      37.331  34.289  33.245  1.00  0.00     0.029 A 
ATOM     44  N   UNL A   1      38.978  32.779  33.323  1.00  0.00    -0.354 N 
ATOM     45  C   UNL A   1      39.441  29.828  30.192  1.00  0.00     0.074 A 
ATOM     46  C   UNL A   1      38.425  29.989  29.176  1.00  0.00     0.031 C 
ATOM     47  C   UNL A   1      38.015  34.497  34.382  1.00  0.00     0.029 A 
ATOM     48  C   UNL A   1      39.091  33.516  34.476  1.00  0.00     0.049 A 
ATOM     49  H   UNL A   1      39.577  32.029  33.101  1.00  0.00     0.167 HD
ATOM     50  C   UNL A   1      40.410  28.883  30.156  1.00  0.00     0.037 A 
ATOM     51  C   UNL A   1      39.967  33.411  35.492  1.00  0.00     0.037 A 
ATOM     52  C   UNL A   1      41.431  28.741  31.159  1.00  0.00     0.049 A 
ATOM     53  C   UNL A   1      41.027  32.347  35.437  1.00  0.00     0.074 A 
ATOM     54  C   UNL A   1      42.488  27.849  31.196  1.00  0.00     0.029 A 
ATOM     55  N   UNL A   1      41.520  29.515  32.306  1.00  0.00    -0.354 N 
ATOM     56  N   UNL A   1      41.252  31.449  34.508  1.00  0.00    -0.248 NA
ATOM     57  C   UNL A   1      41.960  32.286  36.570  1.00  0.00     0.031 C 
ATOM     58  C   UNL A   1      43.191  28.056  32.388  1.00  0.00     0.029 A 
ATOM     59  C   UNL A   1      42.604  29.112  33.067  1.00  0.00     0.049 A 
ATOM     60  H   UNL A   1      40.903  30.245  32.545  1.00  0.00     0.167 HD
ATOM     61  C   UNL A   1      42.371  30.741  34.926  1.00  0.00     0.074 A 
ATOM     62  C   UNL A   1      42.784  31.321  36.188  1.00  0.00     0.031 C 
ATOM     63  C   UNL A   1      43.004  29.707  34.318  1.00  0.00     0.037 A 
BRANCH  50  64
ATOM     64  C   UNL A   1      40.402  27.937  28.988  1.00  0.00     0.057 A 
ATOM     65  C   UNL A   1      39.641  26.759  28.995  1.00  0.00     0.134 A 
ATOM     66  C   UNL A   1      41.164  28.202  27.843  1.00  0.00     0.134 A 
ATOM     67  F   UNL A   1      38.898  26.435  30.066  1.00  0.00    -0.206 F 
ATOM     68  C   UNL A   1      39.672  25.860  27.927  1.00  0.00     0.040 A 
ATOM     69  C   UNL A   1      41.177  27.327  26.755  1.00  0.00     0.040 A 
ATOM     70  F   UNL A   1      41.911  29.313  27.764  1.00  0.00    -0.206 F 
ATOM     71  C   UNL A   1      40.439  26.147  26.801  1.00  0.00     0.006 A 
ENDBRANCH  50  64
BRANCH  51  72
ATOM     72  C   UNL A   1      39.907  34.369  36.625  1.00  0.00     0.057 A 
ATOM     73  C   UNL A   1      39.200  34.055  37.791  1.00  0.00     0.134 A 
ATOM     74  C   UNL A   1      40.555  35.609  36.577  1.00  0.00     0.134 A 
ATOM     75  F   UNL A   1      38.546  32.889  37.890  1.00  0.00    -0.206 F 
ATOM     76  C   UNL A   1      39.122  34.946  38.863  1.00  0.00     0.040 A 
ATOM     77  C   UNL A   1      40.507  36.500  37.651  1.00  0.00     0.040 A 
ATOM     78  F   UNL A   1      41.257  35.965  35.492  1.00  0.00    -0.206 F 
ATOM     79  C   UNL A   1      39.783  36.171  38.796  1.00  0.00     0.006 A 
ENDBRANCH  51  72
BRANCH  63  80
ATOM     80  C   UNL A   1      44.235  29.170  34.987  1.00  0.00     0.057 A 
ATOM     81  C   UNL A   1      44.180  28.117  35.910  1.00  0.00     0.134 A 
ATOM     82  C   UNL A   1      45.497  29.692  34.676  1.00  0.00     0.134 A 
ATOM     83  F   UNL A   1      43.002  27.580  36.260  1.00  0.00    -0.206 F 
ATOM     84  C   UNL A   1      45.335  27.623  36.519  1.00  0.00     0.040 A 
ATOM     85  C   UNL A   1      46.661  29.187  35.257  1.00  0.00     0.040 A 
ATOM     86  F   UNL A   1      45.621  30.696  33.793  1.00  0.00    -0.206 F 
ATOM     87  C   UNL A   1      46.579  28.153  36.187  1.00  0.00     0.006 A 
ENDBRANCH  63  80
ENDBRANCH  37  38
ENDBRANCH  29  32
ENDBRANCH  27  28
ENDBRANCH  26  27
ENDBRANCH   1  26
TORSDOF 16
ENDMDL
MODEL 3
REMARK VINA RESULT:     -11.0      5.700     10.411
REMARK SMILES CC[NH2+][C@]1(C(=O)NCCCNC(=O)c2ccc(-c3c4nc(c(-c5c(F)cccc5F)c5ccc([nH]5)c(-c5c(F)cccc5F)c5nc(c(-c6c(F)cccc6F)c6ccc3[nH]6)C=C5)C=C4)cc2)CCC[C@@H]1CCSc1ccccc1F
REMARK SMILES IDX 8 1 7 2 5 3 6 4 4 6 68 7 71 8 69 9 70 10 3 11 2 14 1 15
REMARK SMILES IDX 72 16 73 17 74 18 75 19 76 20 80 21 77 22 79 23 81 24 78 25
REMARK SMILES IDX 9 26 10 27 11 28 12 29 13 31 14 32 15 33 67 34 16 35 66 36
REMARK SMILES IDX 17 37 18 38 19 39 60 40 20 41 65 42 59 43 61 44 21 45 64 46
REMARK SMILES IDX 58 47 57 48 22 50 48 51 31 52 47 53 32 54 35 55 46 56 62 57
REMARK SMILES IDX 33 58 34 59 45 61 63 62 36 63 23 64 24 65 29 66 25 67 26 68
REMARK SMILES IDX 28 69 30 70 27 71 49 72 50 73 55 74 51 75 52 76 54 77 56 78
REMARK SMILES IDX 53 79 37 80 38 81 43 82 39 83 40 84 42 85 44 86 41 87
REMARK H PARENT 7 5 3 12 3 13 11 30 61 49 35 60
REMARK Flexibility Score: inf
ROOT
ATOM      1  C   UNL A   1      36.585  20.332  25.014  1.00  0.00     0.118 C 
ENDROOT
BRANCH   1   2
ATOM      2  N   UNL A   1      36.436  21.379  24.024  1.00  0.00    -0.351 N 
ATOM      3  C   UNL A   1      35.819  22.580  23.958  1.00  0.00     0.281 C 
ATOM      4  O   UNL A   1      35.770  23.030  22.801  1.00  0.00    -0.268 OA
ATOM      5  H   UNL A   1      36.904  21.160  23.186  1.00  0.00     0.163 HD
BRANCH   3   6
ATOM      6  C   UNL A   1      35.226  23.403  25.155  1.00  0.00     0.178 C 
ATOM      7  C   UNL A   1      34.947  24.896  24.878  1.00  0.00     0.079 C 
ATOM      8  C   UNL A   1      33.734  22.995  25.433  1.00  0.00     0.061 C 
ATOM      9  C   UNL A   1      33.954  25.369  25.939  1.00  0.00     0.008 C 
ATOM     10  C   UNL A   1      33.202  24.109  26.359  1.00  0.00     0.011 C 
BRANCH   6  11
ATOM     11  N   UNL A   1      36.145  23.375  26.336  1.00  0.00    -0.334 N 
ATOM     12  H   UNL A   1      35.636  23.753  27.135  1.00  0.00     0.347 HD
ATOM     13  H   UNL A   1      36.426  22.399  26.437  1.00  0.00     0.347 HD
BRANCH  11  14
ATOM     14  C   UNL A   1      37.394  24.128  26.206  1.00  0.00     0.257 C 
ATOM     15  C   UNL A   1      38.597  23.219  26.415  1.00  0.00     0.071 C 
ENDBRANCH  11  14
ENDBRANCH   6  11
BRANCH   8  16
ATOM     16  C   UNL A   1      33.397  21.586  25.943  1.00  0.00     0.022 C 
BRANCH  16  17
ATOM     17  C   UNL A   1      32.142  20.993  25.257  1.00  0.00     0.075 C 
BRANCH  17  18
ATOM     18  S   UNL A   1      32.407  20.062  23.680  1.00  0.00    -0.123 SA
BRANCH  18  19
ATOM     19  C   UNL A   1      32.744  18.396  24.233  1.00  0.00     0.043 A 
ATOM     20  C   UNL A   1      32.624  18.041  25.579  1.00  0.00     0.018 A 
ATOM     21  C   UNL A   1      33.239  17.433  23.361  1.00  0.00     0.136 A 
ATOM     22  C   UNL A   1      32.906  16.730  25.996  1.00  0.00     0.001 A 
ATOM     23  C   UNL A   1      33.463  16.114  23.744  1.00  0.00     0.040 A 
ATOM     24  F   UNL A   1      33.549  17.781  22.114  1.00  0.00    -0.206 F 
ATOM     25  C   UNL A   1      33.290  15.756  25.073  1.00  0.00     0.003 A 
ENDBRANCH  18  19
ENDBRANCH  17  18
ENDBRANCH  16  17
ENDBRANCH   8  16
ENDBRANCH   3   6
ENDBRANCH   1   2
BRANCH   1  26
ATOM     26  C   UNL A   1      37.917  19.619  24.868  1.00  0.00     0.042 C 
BRANCH  26  27
ATOM     27  C   UNL A   1      38.960  20.108  25.865  1.00  0.00     0.118 C 
BRANCH  27  28
ATOM     28  N   UNL A   1      40.109  19.210  25.946  1.00  0.00    -0.352 N 
ATOM     29  C   UNL A   1      41.440  19.491  26.126  1.00  0.00     0.251 C 
ATOM     30  H   UNL A   1      39.895  18.254  25.859  1.00  0.00     0.163 HD
ATOM     31  O   UNL A   1      42.282  18.624  25.917  1.00  0.00    -0.269 OA
BRANCH  29  32
ATOM     32  C   UNL A   1      41.859  20.838  26.563  1.00  0.00     0.039 A 
ATOM     33  C   UNL A   1      42.250  21.779  25.607  1.00  0.00     0.014 A 
ATOM     34  C   UNL A   1      41.885  21.166  27.920  1.00  0.00     0.014 A 
ATOM     35  C   UNL A   1      42.606  23.067  26.011  1.00  0.00     0.010 A 
ATOM     36  C   UNL A   1      42.132  22.476  28.311  1.00  0.00     0.010 A 
ATOM     37  C   UNL A   1      42.515  23.434  27.363  1.00  0.00    -0.014 A 
BRANCH  37  38
ATOM     38  C   UNL A   1      42.846  24.806  27.821  1.00  0.00     0.031 A 
ATOM     39  C   UNL A   1      44.286  25.209  27.991  1.00  0.00     0.074 A 
ATOM     40  C   UNL A   1      41.859  25.658  28.151  1.00  0.00     0.049 A 
ATOM     41  N   UNL A   1      44.783  26.329  28.452  1.00  0.00    -0.248 NA
ATOM     42  C   UNL A   1      45.301  24.207  27.628  1.00  0.00     0.031 C 
ATOM     43  C   UNL A   1      40.426  25.366  28.078  1.00  0.00     0.029 A 
ATOM     44  N   UNL A   1      41.911  26.946  28.620  1.00  0.00    -0.354 N 
ATOM     45  C   UNL A   1      46.162  26.156  28.449  1.00  0.00     0.074 A 
ATOM     46  C   UNL A   1      46.419  24.802  28.011  1.00  0.00     0.031 C 
ATOM     47  C   UNL A   1      39.736  26.455  28.451  1.00  0.00     0.029 A 
ATOM     48  C   UNL A   1      40.675  27.506  28.829  1.00  0.00     0.049 A 
ATOM     49  H   UNL A   1      42.756  27.423  28.791  1.00  0.00     0.167 HD
ATOM     50  C   UNL A   1      47.129  27.054  28.754  1.00  0.00     0.037 A 
ATOM     51  C   UNL A   1      40.340  28.730  29.275  1.00  0.00     0.037 A 
ATOM     52  C   UNL A   1      46.868  28.406  29.169  1.00  0.00     0.049 A 
ATOM     53  C   UNL A   1      41.429  29.707  29.619  1.00  0.00     0.074 A 
ATOM     54  C   UNL A   1      47.773  29.412  29.456  1.00  0.00     0.029 A 
ATOM     55  N   UNL A   1      45.602  28.941  29.357  1.00  0.00    -0.354 N 
ATOM     56  N   UNL A   1      42.731  29.553  29.554  1.00  0.00    -0.248 NA
ATOM     57  C   UNL A   1      41.004  31.031  30.091  1.00  0.00     0.031 C 
ATOM     58  C   UNL A   1      47.055  30.543  29.859  1.00  0.00     0.029 A 
ATOM     59  C   UNL A   1      45.701  30.258  29.772  1.00  0.00     0.049 A 
ATOM     60  H   UNL A   1      44.757  28.456  29.215  1.00  0.00     0.167 HD
ATOM     61  C   UNL A   1      43.277  30.769  29.943  1.00  0.00     0.074 A 
ATOM     62  C   UNL A   1      42.167  31.652  30.232  1.00  0.00     0.031 C 
ATOM     63  C   UNL A   1      44.582  31.125  30.047  1.00  0.00     0.037 A 
BRANCH  50  64
ATOM     64  C   UNL A   1      48.555  26.590  28.643  1.00  0.00     0.057 A 
ATOM     65  C   UNL A   1      49.233  26.019  29.730  1.00  0.00     0.134 A 
ATOM     66  C   UNL A   1      49.260  26.716  27.440  1.00  0.00     0.134 A 
ATOM     67  F   UNL A   1      48.622  25.881  30.917  1.00  0.00    -0.206 F 
ATOM     68  C   UNL A   1      50.571  25.632  29.636  1.00  0.00     0.040 A 
ATOM     69  C   UNL A   1      50.588  26.302  27.325  1.00  0.00     0.040 A 
ATOM     70  F   UNL A   1      48.673  27.247  26.358  1.00  0.00    -0.206 F 
ATOM     71  C   UNL A   1      51.251  25.769  28.429  1.00  0.00     0.006 A 
ENDBRANCH  50  64
BRANCH  51  72
ATOM     72  C   UNL A   1      38.910  29.118  29.376  1.00  0.00     0.057 A 
ATOM     73  C   UNL A   1      38.214  28.975  30.582  1.00  0.00     0.134 A 
ATOM     74  C   UNL A   1      38.209  29.643  28.285  1.00  0.00     0.134 A 
ATOM     75  F   UNL A   1      38.827  28.462  31.658  1.00  0.00    -0.206 F 
ATOM     76  C   UNL A   1      36.866  29.322  30.695  1.00  0.00     0.040 A 
ATOM     77  C   UNL A   1      36.869  30.019  28.390  1.00  0.00     0.040 A 
ATOM     78  F   UNL A   1      38.823  29.815  27.105  1.00  0.00    -0.206 F 
ATOM     79  C   UNL A   1      36.192  29.852  29.597  1.00  0.00     0.006 A 
ENDBRANCH  51  72
BRANCH  63  80
ATOM     80  C   UNL A   1      44.876  32.541  30.446  1.00  0.00     0.057 A 
ATOM     81  C   UNL A   1      45.073  32.912  31.782  1.00  0.00     0.134 A 
ATOM     82  C   UNL A   1      44.995  33.542  29.473  1.00  0.00     0.134 A 
ATOM     83  F   UNL A   1      44.961  32.004  32.763  1.00  0.00    -0.206 F 
ATOM     84  C   UNL A   1      45.353  34.233  32.138  1.00  0.00     0.040 A 
ATOM     85  C   UNL A   1      45.303  34.859  29.813  1.00  0.00     0.040 A 
ATOM     86  F   UNL A   1      44.827  33.253  28.173  1.00  0.00    -0.206 F 
ATOM     87  C   UNL A   1      45.475  35.208  31.151  1.00  0.00     0.006 A 
ENDBRANCH  63  80
ENDBRANCH  37  38
ENDBRANCH  29  32
ENDBRANCH  27  28
ENDBRANCH  26  27
ENDBRANCH   1  26
TORSDOF 16
ENDMDL
