MODEL 1
REMARK VINA RESULT:     -10.0      0.000      0.000
REMARK SMILES C[C@@]([NH2+]CCCO)(C(=O)NCCCNC(=O)c1ccc(-c2c3nc(c(-c4c(F)cccc4F)c4ccc([nH]4)c(-c4c(F)cccc4F)c4nc(c(-c5c(F)cccc5F)c5ccc2[nH]5)C=C4)C=C3)cc1)C(F)(F)F
REMARK SMILES IDX 8 1 9 2 10 3 2 5 1 6 3 7 4 10 5 11 6 12 7 13 71 15 72 16
REMARK SMILES IDX 73 17 74 18 11 19 12 20 13 21 14 22 15 23 16 25 17 26 18 27
REMARK SMILES IDX 70 28 19 29 69 30 20 31 21 32 22 33 63 34 23 35 68 36 62 37
REMARK SMILES IDX 64 38 24 39 67 40 61 41 60 42 25 44 51 45 34 46 50 47 35 48
REMARK SMILES IDX 38 49 49 50 65 51 36 52 37 53 48 55 66 56 39 57 26 58 27 59
REMARK SMILES IDX 32 60 28 61 29 62 31 63 33 64 30 65 52 66 53 67 58 68 54 69
REMARK SMILES IDX 55 70 57 71 59 72 56 73 40 74 41 75 46 76 42 77 43 78 45 79
REMARK SMILES IDX 47 80 44 81
REMARK H PARENT 10 4 3 8 3 9 7 14 14 24 64 43 38 54
REMARK Flexibility Score: inf
ROOT
ATOM      1  C   UNL A   1      31.721  28.457  26.856  1.00  0.00     0.290 C 
ATOM      2  O   UNL A   1      31.604  27.850  27.925  1.00  0.00    -0.267 OA
ATOM      3  N   UNL A   1      31.501  29.803  26.925  1.00  0.00    -0.350 N 
ATOM      4  H   UNL A   1      31.339  30.139  27.836  1.00  0.00     0.163 HD
ENDROOT
BRANCH   1   5
ATOM      5  C   UNL A   1      32.100  27.747  25.541  1.00  0.00     0.268 C 
ATOM      6  C   UNL A   1      31.571  26.295  25.551  1.00  0.00     0.101 C 
BRANCH   5   7
ATOM      7  N   UNL A   1      31.447  28.404  24.345  1.00  0.00    -0.326 N 
ATOM      8  H   UNL A   1      32.092  28.316  23.559  1.00  0.00     0.347 HD
ATOM      9  H   UNL A   1      31.254  29.359  24.646  1.00  0.00     0.347 HD
BRANCH   7  10
ATOM     10  C   UNL A   1      30.151  27.878  23.912  1.00  0.00     0.264 C 
BRANCH  10  11
ATOM     11  C   UNL A   1      29.579  28.377  22.579  1.00  0.00     0.089 C 
BRANCH  11  12
ATOM     12  C   UNL A   1      29.789  29.857  22.286  1.00  0.00     0.162 C 
BRANCH  12  13
ATOM     13  O   UNL A   1      31.026  30.078  21.626  1.00  0.00    -0.396 OA
ATOM     14  H   UNL A   1      31.139  31.027  21.459  1.00  0.00     0.210 HD
ENDBRANCH  12  13
ENDBRANCH  11  12
ENDBRANCH  10  11
ENDBRANCH   7  10
ENDBRANCH   5   7
BRANCH   5  15
ATOM     15  C   UNL A   1      33.651  27.627  25.514  1.00  0.00     0.453 C 
ATOM     16  F   UNL A   1      34.087  26.444  26.005  1.00  0.00    -0.164 F 
ATOM     17  F   UNL A   1      34.081  27.686  24.221  1.00  0.00    -0.164 F 
ATOM     18  F   UNL A   1      34.295  28.611  26.171  1.00  0.00    -0.164 F 
ENDBRANCH   5  15
ENDBRANCH   1   5
BRANCH   3  19
ATOM     19  C   UNL A   1      31.462  30.826  25.896  1.00  0.00     0.118 C 
BRANCH  19  20
ATOM     20  C   UNL A   1      31.346  32.217  26.510  1.00  0.00     0.042 C 
BRANCH  20  21
ATOM     21  C   UNL A   1      32.663  32.749  27.065  1.00  0.00     0.118 C 
BRANCH  21  22
ATOM     22  N   UNL A   1      32.529  34.086  27.625  1.00  0.00    -0.352 N 
ATOM     23  C   UNL A   1      33.176  34.665  28.688  1.00  0.00     0.251 C 
ATOM     24  H   UNL A   1      31.875  34.665  27.171  1.00  0.00     0.163 HD
ATOM     25  O   UNL A   1      32.780  35.737  29.132  1.00  0.00    -0.269 OA
BRANCH  23  26
ATOM     26  C   UNL A   1      34.336  33.992  29.311  1.00  0.00     0.039 A 
ATOM     27  C   UNL A   1      34.109  33.075  30.341  1.00  0.00     0.014 A 
ATOM     28  C   UNL A   1      35.641  34.276  28.903  1.00  0.00     0.014 A 
ATOM     29  C   UNL A   1      35.185  32.400  30.918  1.00  0.00     0.010 A 
ATOM     30  C   UNL A   1      36.705  33.542  29.418  1.00  0.00     0.010 A 
ATOM     31  C   UNL A   1      36.489  32.602  30.437  1.00  0.00    -0.014 A 
BRANCH  31  32
ATOM     32  C   UNL A   1      37.640  31.845  30.994  1.00  0.00     0.031 A 
ATOM     33  C   UNL A   1      38.159  32.161  32.370  1.00  0.00     0.074 A 
ATOM     34  C   UNL A   1      38.253  30.915  30.238  1.00  0.00     0.049 A 
ATOM     35  N   UNL A   1      39.187  31.654  33.002  1.00  0.00    -0.248 NA
ATOM     36  C   UNL A   1      37.443  33.202  33.126  1.00  0.00     0.031 C 
ATOM     37  C   UNL A   1      37.874  30.549  28.872  1.00  0.00     0.029 A 
ATOM     38  N   UNL A   1      39.334  30.112  30.508  1.00  0.00    -0.354 N 
ATOM     39  C   UNL A   1      39.249  32.322  34.219  1.00  0.00     0.074 A 
ATOM     40  C   UNL A   1      38.192  33.310  34.213  1.00  0.00     0.031 C 
ATOM     41  C   UNL A   1      38.691  29.577  28.434  1.00  0.00     0.029 A 
ATOM     42  C   UNL A   1      39.677  29.282  29.468  1.00  0.00     0.049 A 
ATOM     43  H   UNL A   1      39.817  30.130  31.366  1.00  0.00     0.167 HD
ATOM     44  C   UNL A   1      40.093  32.115  35.257  1.00  0.00     0.037 A 
ATOM     45  C   UNL A   1      40.680  28.390  29.358  1.00  0.00     0.037 A 
ATOM     46  C   UNL A   1      41.132  31.117  35.267  1.00  0.00     0.049 A 
ATOM     47  C   UNL A   1      41.618  28.193  30.518  1.00  0.00     0.074 A 
ATOM     48  C   UNL A   1      42.002  30.790  36.292  1.00  0.00     0.029 A 
ATOM     49  N   UNL A   1      41.444  30.291  34.198  1.00  0.00    -0.354 N 
ATOM     50  N   UNL A   1      41.619  28.781  31.689  1.00  0.00    -0.248 NA
ATOM     51  C   UNL A   1      42.690  27.204  30.341  1.00  0.00     0.031 C 
ATOM     52  C   UNL A   1      42.875  29.803  35.824  1.00  0.00     0.029 A 
ATOM     53  C   UNL A   1      42.512  29.474  34.528  1.00  0.00     0.049 A 
ATOM     54  H   UNL A   1      40.975  30.287  33.332  1.00  0.00     0.167 HD
ATOM     55  C   UNL A   1      42.670  28.214  32.399  1.00  0.00     0.074 A 
ATOM     56  C   UNL A   1      43.273  27.224  31.530  1.00  0.00     0.031 C 
ATOM     57  C   UNL A   1      43.098  28.487  33.656  1.00  0.00     0.037 A 
BRANCH  44  58
ATOM     58  C   UNL A   1      39.928  32.985  36.471  1.00  0.00     0.057 A 
ATOM     59  C   UNL A   1      40.698  34.140  36.663  1.00  0.00     0.134 A 
ATOM     60  C   UNL A   1      38.967  32.682  37.443  1.00  0.00     0.134 A 
ATOM     61  F   UNL A   1      41.645  34.482  35.776  1.00  0.00    -0.206 F 
ATOM     62  C   UNL A   1      40.537  34.947  37.791  1.00  0.00     0.040 A 
ATOM     63  C   UNL A   1      38.775  33.497  38.560  1.00  0.00     0.040 A 
ATOM     64  F   UNL A   1      38.190  31.596  37.319  1.00  0.00    -0.206 F 
ATOM     65  C   UNL A   1      39.568  34.630  38.741  1.00  0.00     0.006 A 
ENDBRANCH  44  58
BRANCH  45  66
ATOM     66  C   UNL A   1      40.843  27.602  28.109  1.00  0.00     0.057 A 
ATOM     67  C   UNL A   1      40.232  26.352  27.959  1.00  0.00     0.134 A 
ATOM     68  C   UNL A   1      41.620  28.071  27.044  1.00  0.00     0.134 A 
ATOM     69  F   UNL A   1      39.489  25.841  28.952  1.00  0.00    -0.206 F 
ATOM     70  C   UNL A   1      40.406  25.586  26.806  1.00  0.00     0.040 A 
ATOM     71  C   UNL A   1      41.780  27.328  25.872  1.00  0.00     0.040 A 
ATOM     72  F   UNL A   1      42.225  29.266  27.119  1.00  0.00    -0.206 F 
ATOM     73  C   UNL A   1      41.179  26.076  25.756  1.00  0.00     0.006 A 
ENDBRANCH  45  66
BRANCH  57  74
ATOM     74  C   UNL A   1      44.249  27.681  34.182  1.00  0.00     0.057 A 
ATOM     75  C   UNL A   1      45.569  28.147  34.127  1.00  0.00     0.134 A 
ATOM     76  C   UNL A   1      44.029  26.439  34.793  1.00  0.00     0.134 A 
ATOM     77  F   UNL A   1      45.851  29.323  33.544  1.00  0.00    -0.206 F 
ATOM     78  C   UNL A   1      46.630  27.397  34.637  1.00  0.00     0.040 A 
ATOM     79  C   UNL A   1      45.076  25.694  35.333  1.00  0.00     0.040 A 
ATOM     80  F   UNL A   1      42.787  25.938  34.889  1.00  0.00    -0.206 F 
ATOM     81  C   UNL A   1      46.383  26.169  35.250  1.00  0.00     0.006 A 
ENDBRANCH  57  74
ENDBRANCH  31  32
ENDBRANCH  23  26
ENDBRANCH  21  22
ENDBRANCH  20  21
ENDBRANCH  19  20
ENDBRANCH   3  19
TORSDOF 16
ENDMDL
MODEL 2
REMARK VINA RESULT:     -10.0      0.912      6.450
REMARK SMILES C[C@@]([NH2+]CCCO)(C(=O)NCCCNC(=O)c1ccc(-c2c3nc(c(-c4c(F)cccc4F)c4ccc([nH]4)c(-c4c(F)cccc4F)c4nc(c(-c5c(F)cccc5F)c5ccc2[nH]5)C=C4)C=C3)cc1)C(F)(F)F
REMARK SMILES IDX 8 1 9 2 10 3 2 5 1 6 3 7 4 10 5 11 6 12 7 13 71 15 72 16
REMARK SMILES IDX 73 17 74 18 11 19 12 20 13 21 14 22 15 23 16 25 17 26 18 27
REMARK SMILES IDX 70 28 19 29 69 30 20 31 21 32 22 33 63 34 23 35 68 36 62 37
REMARK SMILES IDX 64 38 24 39 67 40 61 41 60 42 25 44 51 45 34 46 50 47 35 48
REMARK SMILES IDX 38 49 49 50 65 51 36 52 37 53 48 55 66 56 39 57 26 58 27 59
REMARK SMILES IDX 32 60 28 61 29 62 31 63 33 64 30 65 52 66 53 67 58 68 54 69
REMARK SMILES IDX 55 70 57 71 59 72 56 73 40 74 41 75 46 76 42 77 43 78 45 79
REMARK SMILES IDX 47 80 44 81
REMARK H PARENT 10 4 3 8 3 9 7 14 14 24 64 43 38 54
REMARK Flexibility Score: inf
ROOT
ATOM      1  C   UNL A   1      31.783  28.392  27.185  1.00  0.00     0.290 C 
ATOM      2  O   UNL A   1      31.703  27.845  28.289  1.00  0.00    -0.267 OA
ATOM      3  N   UNL A   1      31.681  29.754  27.203  1.00  0.00    -0.350 N 
ATOM      4  H   UNL A   1      31.622  30.142  28.105  1.00  0.00     0.163 HD
ENDROOT
BRANCH   1   5
ATOM      5  C   UNL A   1      31.995  27.595  25.883  1.00  0.00     0.268 C 
ATOM      6  C   UNL A   1      31.309  26.214  25.989  1.00  0.00     0.101 C 
BRANCH   5   7
ATOM      7  N   UNL A   1      31.343  28.277  24.701  1.00  0.00    -0.326 N 
ATOM      8  H   UNL A   1      32.086  28.700  24.144  1.00  0.00     0.347 HD
ATOM      9  H   UNL A   1      30.679  28.934  25.111  1.00  0.00     0.347 HD
BRANCH   7  10
ATOM     10  C   UNL A   1      30.539  27.446  23.801  1.00  0.00     0.264 C 
BRANCH  10  11
ATOM     11  C   UNL A   1      30.280  27.961  22.381  1.00  0.00     0.089 C 
BRANCH  11  12
ATOM     12  C   UNL A   1      29.908  29.434  22.273  1.00  0.00     0.162 C 
BRANCH  12  13
ATOM     13  O   UNL A   1      30.654  30.078  21.251  1.00  0.00    -0.396 OA
ATOM     14  H   UNL A   1      31.299  30.681  21.652  1.00  0.00     0.210 HD
ENDBRANCH  12  13
ENDBRANCH  11  12
ENDBRANCH  10  11
ENDBRANCH   7  10
ENDBRANCH   5   7
BRANCH   5  15
ATOM     15  C   UNL A   1      33.518  27.298  25.768  1.00  0.00     0.453 C 
ATOM     16  F   UNL A   1      34.258  28.061  26.605  1.00  0.00    -0.164 F 
ATOM     17  F   UNL A   1      33.748  26.002  26.127  1.00  0.00    -0.164 F 
ATOM     18  F   UNL A   1      34.019  27.440  24.526  1.00  0.00    -0.164 F 
ENDBRANCH   5  15
ENDBRANCH   1   5
BRANCH   3  19
ATOM     19  C   UNL A   1      31.644  30.730  26.129  1.00  0.00     0.118 C 
BRANCH  19  20
ATOM     20  C   UNL A   1      31.419  32.136  26.674  1.00  0.00     0.042 C 
BRANCH  20  21
ATOM     21  C   UNL A   1      32.686  32.790  27.215  1.00  0.00     0.118 C 
BRANCH  21  22
ATOM     22  N   UNL A   1      32.465  34.167  27.633  1.00  0.00    -0.352 N 
ATOM     23  C   UNL A   1      33.051  34.884  28.646  1.00  0.00     0.251 C 
ATOM     24  H   UNL A   1      31.794  34.660  27.108  1.00  0.00     0.163 HD
ATOM     25  O   UNL A   1      32.586  35.972  28.970  1.00  0.00    -0.269 OA
BRANCH  23  26
ATOM     26  C   UNL A   1      34.227  34.342  29.360  1.00  0.00     0.039 A 
ATOM     27  C   UNL A   1      34.027  33.634  30.548  1.00  0.00     0.014 A 
ATOM     28  C   UNL A   1      35.522  34.549  28.879  1.00  0.00     0.014 A 
ATOM     29  C   UNL A   1      35.119  33.082  31.218  1.00  0.00     0.010 A 
ATOM     30  C   UNL A   1      36.601  33.927  29.501  1.00  0.00     0.010 A 
ATOM     31  C   UNL A   1      36.412  33.194  30.682  1.00  0.00    -0.014 A 
BRANCH  31  32
ATOM     32  C   UNL A   1      37.578  32.558  31.345  1.00  0.00     0.031 A 
ATOM     33  C   UNL A   1      38.266  31.383  30.705  1.00  0.00     0.074 A 
ATOM     34  C   UNL A   1      37.982  33.000  32.551  1.00  0.00     0.049 A 
ATOM     35  N   UNL A   1      39.257  30.658  31.156  1.00  0.00    -0.248 NA
ATOM     36  C   UNL A   1      37.755  30.950  29.394  1.00  0.00     0.031 C 
ATOM     37  C   UNL A   1      37.370  34.102  33.298  1.00  0.00     0.029 A 
ATOM     38  N   UNL A   1      38.998  32.572  33.368  1.00  0.00    -0.354 N 
ATOM     39  C   UNL A   1      39.478  29.679  30.195  1.00  0.00     0.074 A 
ATOM     40  C   UNL A   1      38.481  29.865  29.165  1.00  0.00     0.031 C 
ATOM     41  C   UNL A   1      38.039  34.278  34.449  1.00  0.00     0.029 A 
ATOM     42  C   UNL A   1      39.097  33.278  34.543  1.00  0.00     0.049 A 
ATOM     43  H   UNL A   1      39.600  31.828  33.134  1.00  0.00     0.167 HD
ATOM     44  C   UNL A   1      40.440  28.726  30.162  1.00  0.00     0.037 A 
ATOM     45  C   UNL A   1      39.939  33.129  35.583  1.00  0.00     0.037 A 
ATOM     46  C   UNL A   1      41.443  28.555  31.182  1.00  0.00     0.049 A 
ATOM     47  C   UNL A   1      40.986  32.050  35.531  1.00  0.00     0.074 A 
ATOM     48  C   UNL A   1      42.495  27.657  31.212  1.00  0.00     0.029 A 
ATOM     49  N   UNL A   1      41.514  29.295  32.352  1.00  0.00    -0.354 N 
ATOM     50  N   UNL A   1      41.228  31.178  34.583  1.00  0.00    -0.248 NA
ATOM     51  C   UNL A   1      41.878  31.938  36.693  1.00  0.00     0.031 C 
ATOM     52  C   UNL A   1      43.171  27.817  32.426  1.00  0.00     0.029 A 
ATOM     53  C   UNL A   1      42.575  28.855  33.126  1.00  0.00     0.049 A 
ATOM     54  H   UNL A   1      40.900  30.025  32.597  1.00  0.00     0.167 HD
ATOM     55  C   UNL A   1      42.317  30.434  35.019  1.00  0.00     0.074 A 
ATOM     56  C   UNL A   1      42.698  30.969  36.310  1.00  0.00     0.031 C 
ATOM     57  C   UNL A   1      42.947  29.401  34.406  1.00  0.00     0.037 A 
BRANCH  44  58
ATOM     58  C   UNL A   1      40.453  27.793  28.985  1.00  0.00     0.057 A 
ATOM     59  C   UNL A   1      41.250  28.037  27.857  1.00  0.00     0.134 A 
ATOM     60  C   UNL A   1      39.685  26.623  28.990  1.00  0.00     0.134 A 
ATOM     61  F   UNL A   1      42.001  29.145  27.782  1.00  0.00    -0.206 F 
ATOM     62  C   UNL A   1      41.261  27.164  26.768  1.00  0.00     0.040 A 
ATOM     63  C   UNL A   1      39.710  25.726  27.920  1.00  0.00     0.040 A 
ATOM     64  F   UNL A   1      38.905  26.324  30.040  1.00  0.00    -0.206 F 
ATOM     65  C   UNL A   1      40.494  26.001  26.800  1.00  0.00     0.006 A 
ENDBRANCH  44  58
BRANCH  45  66
ATOM     66  C   UNL A   1      39.841  34.035  36.757  1.00  0.00     0.057 A 
ATOM     67  C   UNL A   1      39.029  33.713  37.851  1.00  0.00     0.134 A 
ATOM     68  C   UNL A   1      40.542  35.244  36.809  1.00  0.00     0.134 A 
ATOM     69  F   UNL A   1      38.318  32.576  37.852  1.00  0.00    -0.206 F 
ATOM     70  C   UNL A   1      38.900  34.571  38.943  1.00  0.00     0.040 A 
ATOM     71  C   UNL A   1      40.445  36.101  37.907  1.00  0.00     0.040 A 
ATOM     72  F   UNL A   1      41.344  35.607  35.797  1.00  0.00    -0.206 F 
ATOM     73  C   UNL A   1      39.613  35.768  38.976  1.00  0.00     0.006 A 
ENDBRANCH  45  66
BRANCH  57  74
ATOM     74  C   UNL A   1      44.133  28.806  35.105  1.00  0.00     0.057 A 
ATOM     75  C   UNL A   1      45.432  29.294  34.910  1.00  0.00     0.134 A 
ATOM     76  C   UNL A   1      43.969  27.757  36.020  1.00  0.00     0.134 A 
ATOM     77  F   UNL A   1      45.662  30.288  34.039  1.00  0.00    -0.206 F 
ATOM     78  C   UNL A   1      46.526  28.744  35.581  1.00  0.00     0.040 A 
ATOM     79  C   UNL A   1      45.049  27.220  36.719  1.00  0.00     0.040 A 
ATOM     80  F   UNL A   1      42.750  27.249  36.262  1.00  0.00    -0.206 F 
ATOM     81  C   UNL A   1      46.335  27.709  36.495  1.00  0.00     0.006 A 
ENDBRANCH  57  74
ENDBRANCH  31  32
ENDBRANCH  23  26
ENDBRANCH  21  22
ENDBRANCH  20  21
ENDBRANCH  19  20
ENDBRANCH   3  19
TORSDOF 16
ENDMDL
MODEL 3
REMARK VINA RESULT:      -9.8      4.201      6.801
REMARK SMILES C[C@@]([NH2+]CCCO)(C(=O)NCCCNC(=O)c1ccc(-c2c3nc(c(-c4c(F)cccc4F)c4ccc([nH]4)c(-c4c(F)cccc4F)c4nc(c(-c5c(F)cccc5F)c5ccc2[nH]5)C=C4)C=C3)cc1)C(F)(F)F
REMARK SMILES IDX 8 1 9 2 10 3 2 5 1 6 3 7 4 10 5 11 6 12 7 13 71 15 72 16
REMARK SMILES IDX 73 17 74 18 11 19 12 20 13 21 14 22 15 23 16 25 17 26 18 27
REMARK SMILES IDX 70 28 19 29 69 30 20 31 21 32 22 33 63 34 23 35 68 36 62 37
REMARK SMILES IDX 64 38 24 39 67 40 61 41 60 42 25 44 51 45 34 46 50 47 35 48
REMARK SMILES IDX 38 49 49 50 65 51 36 52 37 53 48 55 66 56 39 57 26 58 27 59
REMARK SMILES IDX 32 60 28 61 29 62 31 63 33 64 30 65 52 66 53 67 58 68 54 69
REMARK SMILES IDX 55 70 57 71 59 72 56 73 40 74 41 75 46 76 42 77 43 78 45 79
REMARK SMILES IDX 47 80 44 81
REMARK H PARENT 10 4 3 8 3 9 7 14 14 24 64 43 38 54
REMARK Flexibility Score: inf
ROOT
ATOM      1  C   UNL A   1      34.103  33.879  32.056  1.00  0.00     0.290 C 
ATOM      2  O   UNL A   1      33.716  32.840  32.599  1.00  0.00    -0.267 OA
ATOM      3  N   UNL A   1      33.833  33.972  30.721  1.00  0.00    -0.350 N 
ATOM      4  H   UNL A   1      33.302  33.225  30.363  1.00  0.00     0.163 HD
ENDROOT
BRANCH   1   5
ATOM      5  C   UNL A   1      34.826  34.997  32.833  1.00  0.00     0.268 C 
ATOM      6  C   UNL A   1      35.127  34.530  34.276  1.00  0.00     0.101 C 
BRANCH   5   7
ATOM      7  N   UNL A   1      36.174  35.316  32.226  1.00  0.00    -0.326 N 
ATOM      8  H   UNL A   1      36.507  36.178  32.657  1.00  0.00     0.347 HD
ATOM      9  H   UNL A   1      36.002  35.369  31.222  1.00  0.00     0.347 HD
BRANCH   7  10
ATOM     10  C   UNL A   1      37.233  34.314  32.371  1.00  0.00     0.264 C 
BRANCH  10  11
ATOM     11  C   UNL A   1      37.474  33.346  31.207  1.00  0.00     0.089 C 
BRANCH  11  12
ATOM     12  C   UNL A   1      38.273  33.907  30.038  1.00  0.00     0.162 C 
BRANCH  12  13
ATOM     13  O   UNL A   1      38.564  35.283  30.231  1.00  0.00    -0.396 OA
ATOM     14  H   UNL A   1      38.123  35.807  29.543  1.00  0.00     0.210 HD
ENDBRANCH  12  13
ENDBRANCH  11  12
ENDBRANCH  10  11
ENDBRANCH   7  10
ENDBRANCH   5   7
BRANCH   5  15
ATOM     15  C   UNL A   1      33.825  36.180  32.976  1.00  0.00     0.453 C 
ATOM     16  F   UNL A   1      33.924  36.799  34.176  1.00  0.00    -0.164 F 
ATOM     17  F   UNL A   1      34.111  37.124  32.034  1.00  0.00    -0.164 F 
ATOM     18  F   UNL A   1      32.535  35.840  32.791  1.00  0.00    -0.164 F 
ENDBRANCH   5  15
ENDBRANCH   1   5
BRANCH   3  19
ATOM     19  C   UNL A   1      34.190  34.976  29.734  1.00  0.00     0.118 C 
BRANCH  19  20
ATOM     20  C   UNL A   1      34.408  34.344  28.364  1.00  0.00     0.042 C 
BRANCH  20  21
ATOM     21  C   UNL A   1      35.149  33.013  28.417  1.00  0.00     0.118 C 
BRANCH  21  22
ATOM     22  N   UNL A   1      34.274  31.879  28.156  1.00  0.00    -0.352 N 
ATOM     23  C   UNL A   1      34.580  30.554  27.974  1.00  0.00     0.251 C 
ATOM     24  H   UNL A   1      33.315  32.096  28.103  1.00  0.00     0.163 HD
ATOM     25  O   UNL A   1      33.721  29.781  27.564  1.00  0.00    -0.269 OA
BRANCH  23  26
ATOM     26  C   UNL A   1      35.946  30.059  28.251  1.00  0.00     0.039 A 
ATOM     27  C   UNL A   1      36.900  30.111  27.233  1.00  0.00     0.014 A 
ATOM     28  C   UNL A   1      36.281  29.525  29.498  1.00  0.00     0.014 A 
ATOM     29  C   UNL A   1      38.205  29.684  27.483  1.00  0.00     0.010 A 
ATOM     30  C   UNL A   1      37.601  29.180  29.772  1.00  0.00     0.010 A 
ATOM     31  C   UNL A   1      38.575  29.248  28.765  1.00  0.00    -0.014 A 
BRANCH  31  32
ATOM     32  C   UNL A   1      39.974  28.852  29.070  1.00  0.00     0.031 A 
ATOM     33  C   UNL A   1      40.894  29.808  29.779  1.00  0.00     0.074 A 
ATOM     34  C   UNL A   1      40.432  27.655  28.657  1.00  0.00     0.049 A 
ATOM     35  N   UNL A   1      42.160  29.668  30.077  1.00  0.00    -0.248 NA
ATOM     36  C   UNL A   1      40.322  31.102  30.183  1.00  0.00     0.031 C 
ATOM     37  C   UNL A   1      39.653  26.657  27.921  1.00  0.00     0.029 A 
ATOM     38  N   UNL A   1      41.670  27.076  28.788  1.00  0.00    -0.354 N 
ATOM     39  C   UNL A   1      42.538  30.858  30.689  1.00  0.00     0.074 A 
ATOM     40  C   UNL A   1      41.384  31.729  30.667  1.00  0.00     0.031 C 
ATOM     41  C   UNL A   1      40.422  25.581  27.690  1.00  0.00     0.029 A 
ATOM     42  C   UNL A   1      41.758  25.828  28.221  1.00  0.00     0.049 A 
ATOM     43  H   UNL A   1      42.423  27.514  29.247  1.00  0.00     0.167 HD
ATOM     44  C   UNL A   1      43.730  31.185  31.242  1.00  0.00     0.037 A 
ATOM     45  C   UNL A   1      42.802  24.982  28.130  1.00  0.00     0.037 A 
ATOM     46  C   UNL A   1      44.871  30.307  31.279  1.00  0.00     0.049 A 
ATOM     47  C   UNL A   1      44.122  25.378  28.734  1.00  0.00     0.074 A 
ATOM     48  C   UNL A   1      46.106  30.523  31.866  1.00  0.00     0.029 A 
ATOM     49  N   UNL A   1      44.919  29.049  30.699  1.00  0.00    -0.354 N 
ATOM     50  N   UNL A   1      44.443  26.476  29.372  1.00  0.00    -0.248 NA
ATOM     51  C   UNL A   1      45.223  24.412  28.607  1.00  0.00     0.031 C 
ATOM     52  C   UNL A   1      46.918  29.418  31.596  1.00  0.00     0.029 A 
ATOM     53  C   UNL A   1      46.171  28.488  30.890  1.00  0.00     0.049 A 
ATOM     54  H   UNL A   1      44.173  28.618  30.222  1.00  0.00     0.167 HD
ATOM     55  C   UNL A   1      45.771  26.323  29.750  1.00  0.00     0.074 A 
ATOM     56  C   UNL A   1      46.190  25.018  29.281  1.00  0.00     0.031 C 
ATOM     57  C   UNL A   1      46.572  27.184  30.424  1.00  0.00     0.037 A 
BRANCH  44  58
ATOM     58  C   UNL A   1      43.861  32.551  31.852  1.00  0.00     0.057 A 
ATOM     59  C   UNL A   1      44.262  33.663  31.098  1.00  0.00     0.134 A 
ATOM     60  C   UNL A   1      43.551  32.765  33.201  1.00  0.00     0.134 A 
ATOM     61  F   UNL A   1      44.585  33.526  29.804  1.00  0.00    -0.206 F 
ATOM     62  C   UNL A   1      44.378  34.931  31.670  1.00  0.00     0.040 A 
ATOM     63  C   UNL A   1      43.633  34.034  33.777  1.00  0.00     0.040 A 
ATOM     64  F   UNL A   1      43.153  31.748  33.979  1.00  0.00    -0.206 F 
ATOM     65  C   UNL A   1      44.056  35.121  33.013  1.00  0.00     0.006 A 
ENDBRANCH  44  58
BRANCH  45  66
ATOM     66  C   UNL A   1      42.640  23.669  27.455  1.00  0.00     0.057 A 
ATOM     67  C   UNL A   1      42.766  23.550  26.066  1.00  0.00     0.134 A 
ATOM     68  C   UNL A   1      42.343  22.506  28.176  1.00  0.00     0.134 A 
ATOM     69  F   UNL A   1      43.033  24.631  25.318  1.00  0.00    -0.206 F 
ATOM     70  C   UNL A   1      42.582  22.329  25.416  1.00  0.00     0.040 A 
ATOM     71  C   UNL A   1      42.183  21.273  27.542  1.00  0.00     0.040 A 
ATOM     72  F   UNL A   1      42.217  22.550  29.511  1.00  0.00    -0.206 F 
ATOM     73  C   UNL A   1      42.293  21.184  26.156  1.00  0.00     0.006 A 
ENDBRANCH  45  66
BRANCH  57  74
ATOM     74  C   UNL A   1      47.970  26.731  30.728  1.00  0.00     0.057 A 
ATOM     75  C   UNL A   1      48.280  25.999  31.882  1.00  0.00     0.134 A 
ATOM     76  C   UNL A   1      49.014  26.993  29.830  1.00  0.00     0.134 A 
ATOM     77  F   UNL A   1      47.329  25.724  32.789  1.00  0.00    -0.206 F 
ATOM     78  C   UNL A   1      49.580  25.566  32.144  1.00  0.00     0.040 A 
ATOM     79  C   UNL A   1      50.312  26.539  30.066  1.00  0.00     0.040 A 
ATOM     80  F   UNL A   1      48.785  27.680  28.700  1.00  0.00    -0.206 F 
ATOM     81  C   UNL A   1      50.600  25.829  31.230  1.00  0.00     0.006 A 
ENDBRANCH  57  74
ENDBRANCH  31  32
ENDBRANCH  23  26
ENDBRANCH  21  22
ENDBRANCH  20  21
ENDBRANCH  19  20
ENDBRANCH   3  19
TORSDOF 16
ENDMDL
