MODEL 1
REMARK VINA RESULT:     -11.4      0.000      0.000
REMARK SMILES O=C(C[C@H]1C(=O)Nc2ccccc21)NCCCNC(=O)c1ccc(-c2c3nc(c(-c4c(F)cccc4F)c4ccc([nH]4)c(-c4c(F)cccc4F)c4nc(c(-c5c(F)cccc5F)c5ccc2[nH]5)C=C4)C=C3)cc1
REMARK SMILES IDX 16 1 15 2 14 3 1 4 2 5 3 7 4 8 5 9 13 10 6 11 7 12 8 13
REMARK SMILES IDX 12 14 9 16 11 17 10 18 17 19 18 20 19 21 20 23 21 24 22 25
REMARK SMILES IDX 74 26 23 27 73 28 24 29 25 30 26 31 67 32 27 33 72 34 66 35
REMARK SMILES IDX 68 36 28 37 71 38 65 39 64 40 29 42 55 43 38 44 54 45 39 46
REMARK SMILES IDX 42 47 53 48 69 49 40 50 41 51 52 53 70 54 43 55 30 56 31 57
REMARK SMILES IDX 36 58 32 59 33 60 35 61 37 62 34 63 56 64 57 65 62 66 58 67
REMARK SMILES IDX 59 68 61 69 63 70 60 71 44 72 45 73 50 74 46 75 47 76 49 77
REMARK SMILES IDX 51 78 48 79
REMARK H PARENT 14 6 7 15 18 22 68 41 42 52
REMARK Flexibility Score: inf
ROOT
ATOM      1  C   UNL A   1      32.099  28.268  27.067  1.00  0.00     0.042 C 
ENDROOT
BRANCH   1   2
ATOM      2  C   UNL A   1      31.895  27.609  25.711  1.00  0.00     0.117 C 
BRANCH   2   3
ATOM      3  N   UNL A   1      32.544  26.317  25.625  1.00  0.00    -0.356 N 
ATOM      4  O   UNL A   1      30.865  25.110  26.645  1.00  0.00    -0.275 OA
ATOM      5  C   UNL A   1      31.919  25.155  26.024  1.00  0.00     0.221 C 
ATOM      6  H   UNL A   1      33.460  26.267  25.269  1.00  0.00     0.163 HD
BRANCH   5   7
ATOM      7  C   UNL A   1      32.687  23.905  25.654  1.00  0.00     0.118 C 
BRANCH   7   8
ATOM      8  C   UNL A   1      33.911  23.618  26.527  1.00  0.00     0.120 C 
ATOM      9  C   UNL A   1      33.763  22.435  27.513  1.00  0.00     0.232 C 
ATOM     10  C   UNL A   1      35.070  23.147  25.677  1.00  0.00    -0.011 A 
ATOM     11  O   UNL A   1      33.024  22.358  28.480  1.00  0.00    -0.274 OA
ATOM     12  N   UNL A   1      34.621  21.428  27.094  1.00  0.00    -0.325 N 
ATOM     13  C   UNL A   1      35.406  21.842  26.033  1.00  0.00     0.045 A 
ATOM     14  C   UNL A   1      35.762  23.801  24.673  1.00  0.00     0.007 A 
ATOM     15  H   UNL A   1      34.665  20.531  27.500  1.00  0.00     0.169 HD
ATOM     16  C   UNL A   1      36.404  21.132  25.403  1.00  0.00     0.026 A 
ATOM     17  C   UNL A   1      36.788  23.106  24.025  1.00  0.00     0.000 A 
ATOM     18  C   UNL A   1      37.101  21.780  24.382  1.00  0.00     0.002 A 
ENDBRANCH   7   8
ENDBRANCH   5   7
ENDBRANCH   2   3
ENDBRANCH   1   2
BRANCH   1  19
ATOM     19  C   UNL A   1      33.519  28.753  27.343  1.00  0.00     0.118 C 
BRANCH  19  20
ATOM     20  N   UNL A   1      33.593  30.146  27.759  1.00  0.00    -0.352 N 
ATOM     21  C   UNL A   1      34.639  30.842  28.319  1.00  0.00     0.251 C 
ATOM     22  H   UNL A   1      32.771  30.669  27.617  1.00  0.00     0.163 HD
ATOM     23  O   UNL A   1      34.474  31.996  28.699  1.00  0.00    -0.269 OA
BRANCH  21  24
ATOM     24  C   UNL A   1      35.958  30.194  28.502  1.00  0.00     0.039 A 
ATOM     25  C   UNL A   1      36.870  30.221  27.443  1.00  0.00     0.014 A 
ATOM     26  C   UNL A   1      36.305  29.571  29.704  1.00  0.00     0.014 A 
ATOM     27  C   UNL A   1      38.158  29.708  27.620  1.00  0.00     0.010 A 
ATOM     28  C   UNL A   1      37.612  29.126  29.903  1.00  0.00     0.010 A 
ATOM     29  C   UNL A   1      38.556  29.203  28.869  1.00  0.00    -0.014 A 
BRANCH  29  30
ATOM     30  C   UNL A   1      39.967  28.801  29.122  1.00  0.00     0.031 A 
ATOM     31  C   UNL A   1      40.939  29.759  29.749  1.00  0.00     0.074 A 
ATOM     32  C   UNL A   1      40.390  27.587  28.717  1.00  0.00     0.049 A 
ATOM     33  N   UNL A   1      42.220  29.611  29.972  1.00  0.00    -0.248 NA
ATOM     34  C   UNL A   1      40.406  31.068  30.161  1.00  0.00     0.031 C 
ATOM     35  C   UNL A   1      39.560  26.577  28.059  1.00  0.00     0.029 A 
ATOM     36  N   UNL A   1      41.631  27.000  28.786  1.00  0.00    -0.354 N 
ATOM     37  C   UNL A   1      42.649  30.802  30.542  1.00  0.00     0.074 A 
ATOM     38  C   UNL A   1      41.502  31.684  30.583  1.00  0.00     0.031 C 
ATOM     39  C   UNL A   1      40.306  25.491  27.804  1.00  0.00     0.029 A 
ATOM     40  C   UNL A   1      41.678  25.742  28.233  1.00  0.00     0.049 A 
ATOM     41  H   UNL A   1      42.412  27.439  29.193  1.00  0.00     0.167 HD
ATOM     42  C   UNL A   1      43.881  31.127  31.005  1.00  0.00     0.037 A 
ATOM     43  C   UNL A   1      42.710  24.893  28.074  1.00  0.00     0.037 A 
ATOM     44  C   UNL A   1      45.020  30.246  30.970  1.00  0.00     0.049 A 
ATOM     45  C   UNL A   1      44.075  25.293  28.559  1.00  0.00     0.074 A 
ATOM     46  C   UNL A   1      46.293  30.464  31.466  1.00  0.00     0.029 A 
ATOM     47  N   UNL A   1      45.028  28.981  30.399  1.00  0.00    -0.354 N 
ATOM     48  N   UNL A   1      44.449  26.396  29.159  1.00  0.00    -0.248 NA
ATOM     49  C   UNL A   1      45.163  24.327  28.348  1.00  0.00     0.031 C 
ATOM     50  C   UNL A   1      47.087  29.359  31.142  1.00  0.00     0.029 A 
ATOM     51  C   UNL A   1      46.293  28.424  30.498  1.00  0.00     0.049 A 
ATOM     52  H   UNL A   1      44.250  28.545  29.983  1.00  0.00     0.167 HD
ATOM     53  C   UNL A   1      45.806  26.249  29.418  1.00  0.00     0.074 A 
ATOM     54  C   UNL A   1      46.185  24.940  28.928  1.00  0.00     0.031 C 
ATOM     55  C   UNL A   1      46.662  27.121  30.005  1.00  0.00     0.037 A 
BRANCH  42  56
ATOM     56  C   UNL A   1      44.066  32.500  31.586  1.00  0.00     0.057 A 
ATOM     57  C   UNL A   1      43.809  32.773  32.937  1.00  0.00     0.134 A 
ATOM     58  C   UNL A   1      44.550  33.551  30.798  1.00  0.00     0.134 A 
ATOM     59  F   UNL A   1      43.334  31.814  33.746  1.00  0.00    -0.206 F 
ATOM     60  C   UNL A   1      44.000  34.047  33.474  1.00  0.00     0.040 A 
ATOM     61  C   UNL A   1      44.775  34.822  31.331  1.00  0.00     0.040 A 
ATOM     62  F   UNL A   1      44.827  33.359  29.499  1.00  0.00    -0.206 F 
ATOM     63  C   UNL A   1      44.493  35.074  32.672  1.00  0.00     0.006 A 
ENDBRANCH  42  56
BRANCH  43  64
ATOM     64  C   UNL A   1      42.496  23.574  27.422  1.00  0.00     0.057 A 
ATOM     65  C   UNL A   1      42.224  22.429  28.179  1.00  0.00     0.134 A 
ATOM     66  C   UNL A   1      42.571  23.425  26.031  1.00  0.00     0.134 A 
ATOM     67  F   UNL A   1      42.160  22.504  29.516  1.00  0.00    -0.206 F 
ATOM     68  C   UNL A   1      42.057  21.179  27.580  1.00  0.00     0.040 A 
ATOM     69  C   UNL A   1      42.376  22.186  25.418  1.00  0.00     0.040 A 
ATOM     70  F   UNL A   1      42.822  24.484  25.248  1.00  0.00    -0.206 F 
ATOM     71  C   UNL A   1      42.127  21.056  26.194  1.00  0.00     0.006 A 
ENDBRANCH  43  64
BRANCH  55  72
ATOM     72  C   UNL A   1      48.087  26.677  30.175  1.00  0.00     0.057 A 
ATOM     73  C   UNL A   1      49.069  26.956  29.215  1.00  0.00     0.134 A 
ATOM     74  C   UNL A   1      48.489  25.993  31.328  1.00  0.00     0.134 A 
ATOM     75  F   UNL A   1      48.748  27.596  28.080  1.00  0.00    -0.206 F 
ATOM     76  C   UNL A   1      50.392  26.544  29.384  1.00  0.00     0.040 A 
ATOM     77  C   UNL A   1      49.816  25.603  31.523  1.00  0.00     0.040 A 
ATOM     78  F   UNL A   1      47.604  25.701  32.293  1.00  0.00    -0.206 F 
ATOM     79  C   UNL A   1      50.771  25.873  30.545  1.00  0.00     0.006 A 
ENDBRANCH  55  72
ENDBRANCH  29  30
ENDBRANCH  21  24
ENDBRANCH  19  20
ENDBRANCH   1  19
TORSDOF 11
ENDMDL
MODEL 2
REMARK VINA RESULT:     -11.4      5.373      8.741
REMARK SMILES O=C(C[C@H]1C(=O)Nc2ccccc21)NCCCNC(=O)c1ccc(-c2c3nc(c(-c4c(F)cccc4F)c4ccc([nH]4)c(-c4c(F)cccc4F)c4nc(c(-c5c(F)cccc5F)c5ccc2[nH]5)C=C4)C=C3)cc1
REMARK SMILES IDX 16 1 15 2 14 3 1 4 2 5 3 7 4 8 5 9 13 10 6 11 7 12 8 13
REMARK SMILES IDX 12 14 9 16 11 17 10 18 17 19 18 20 19 21 20 23 21 24 22 25
REMARK SMILES IDX 74 26 23 27 73 28 24 29 25 30 26 31 67 32 27 33 72 34 66 35
REMARK SMILES IDX 68 36 28 37 71 38 65 39 64 40 29 42 55 43 38 44 54 45 39 46
REMARK SMILES IDX 42 47 53 48 69 49 40 50 41 51 52 53 70 54 43 55 30 56 31 57
REMARK SMILES IDX 36 58 32 59 33 60 35 61 37 62 34 63 56 64 57 65 62 66 58 67
REMARK SMILES IDX 59 68 61 69 63 70 60 71 44 72 45 73 50 74 46 75 47 76 49 77
REMARK SMILES IDX 51 78 48 79
REMARK H PARENT 14 6 7 15 18 22 68 41 42 52
REMARK Flexibility Score: inf
ROOT
ATOM      1  C   UNL A   1      41.976  21.606  27.648  1.00  0.00     0.042 C 
ENDROOT
BRANCH   1   2
ATOM      2  C   UNL A   1      41.728  20.106  27.577  1.00  0.00     0.117 C 
BRANCH   2   3
ATOM      3  N   UNL A   1      42.907  19.373  27.163  1.00  0.00    -0.356 N 
ATOM      4  O   UNL A   1      42.369  19.248  24.925  1.00  0.00    -0.275 OA
ATOM      5  C   UNL A   1      43.166  19.087  25.840  1.00  0.00     0.221 C 
ATOM      6  H   UNL A   1      43.544  19.070  27.850  1.00  0.00     0.163 HD
BRANCH   5   7
ATOM      7  C   UNL A   1      44.543  18.505  25.612  1.00  0.00     0.118 C 
BRANCH   7   8
ATOM      8  C   UNL A   1      45.437  19.314  24.668  1.00  0.00     0.120 C 
ATOM      9  C   UNL A   1      45.025  19.290  23.177  1.00  0.00     0.232 C 
ATOM     10  C   UNL A   1      45.334  20.791  24.976  1.00  0.00    -0.011 A 
ATOM     11  O   UNL A   1      45.039  18.337  22.415  1.00  0.00    -0.274 OA
ATOM     12  N   UNL A   1      44.599  20.566  22.837  1.00  0.00    -0.325 N 
ATOM     13  C   UNL A   1      44.796  21.458  23.876  1.00  0.00     0.045 A 
ATOM     14  C   UNL A   1      45.671  21.488  26.123  1.00  0.00     0.007 A 
ATOM     15  H   UNL A   1      44.206  20.807  21.966  1.00  0.00     0.169 HD
ATOM     16  C   UNL A   1      44.548  22.812  23.874  1.00  0.00     0.026 A 
ATOM     17  C   UNL A   1      45.440  22.867  26.142  1.00  0.00     0.000 A 
ATOM     18  C   UNL A   1      44.876  23.522  25.030  1.00  0.00     0.002 A 
ENDBRANCH   7   8
ENDBRANCH   5   7
ENDBRANCH   2   3
ENDBRANCH   1   2
BRANCH   1  19
ATOM     19  C   UNL A   1      41.735  22.362  26.344  1.00  0.00     0.118 C 
BRANCH  19  20
ATOM     20  N   UNL A   1      40.593  23.264  26.393  1.00  0.00    -0.352 N 
ATOM     21  C   UNL A   1      40.559  24.632  26.530  1.00  0.00     0.251 C 
ATOM     22  H   UNL A   1      39.713  22.830  26.314  1.00  0.00     0.163 HD
ATOM     23  O   UNL A   1      39.484  25.210  26.653  1.00  0.00    -0.269 OA
BRANCH  21  24
ATOM     24  C   UNL A   1      41.816  25.414  26.569  1.00  0.00     0.039 A 
ATOM     25  C   UNL A   1      42.277  26.000  25.386  1.00  0.00     0.014 A 
ATOM     26  C   UNL A   1      42.536  25.581  27.755  1.00  0.00     0.014 A 
ATOM     27  C   UNL A   1      43.404  26.825  25.411  1.00  0.00     0.010 A 
ATOM     28  C   UNL A   1      43.616  26.463  27.793  1.00  0.00     0.010 A 
ATOM     29  C   UNL A   1      44.052  27.106  26.626  1.00  0.00    -0.014 A 
BRANCH  29  30
ATOM     30  C   UNL A   1      45.152  28.106  26.698  1.00  0.00     0.031 A 
ATOM     31  C   UNL A   1      44.852  29.570  26.847  1.00  0.00     0.074 A 
ATOM     32  C   UNL A   1      46.429  27.696  26.556  1.00  0.00     0.049 A 
ATOM     33  N   UNL A   1      45.675  30.588  26.848  1.00  0.00    -0.248 NA
ATOM     34  C   UNL A   1      43.436  29.944  26.991  1.00  0.00     0.031 C 
ATOM     35  C   UNL A   1      46.855  26.308  26.364  1.00  0.00     0.029 A 
ATOM     36  N   UNL A   1      47.603  28.408  26.536  1.00  0.00    -0.354 N 
ATOM     37  C   UNL A   1      44.883  31.720  26.986  1.00  0.00     0.074 A 
ATOM     38  C   UNL A   1      43.507  31.268  27.013  1.00  0.00     0.031 C 
ATOM     39  C   UNL A   1      48.193  26.268  26.267  1.00  0.00     0.029 A 
ATOM     40  C   UNL A   1      48.718  27.627  26.340  1.00  0.00     0.049 A 
ATOM     41  H   UNL A   1      47.643  29.384  26.652  1.00  0.00     0.167 HD
ATOM     42  C   UNL A   1      45.264  33.015  27.098  1.00  0.00     0.037 A 
ATOM     43  C   UNL A   1      50.014  27.967  26.214  1.00  0.00     0.037 A 
ATOM     44  C   UNL A   1      46.634  33.463  27.078  1.00  0.00     0.049 A 
ATOM     45  C   UNL A   1      50.409  29.415  26.301  1.00  0.00     0.074 A 
ATOM     46  C   UNL A   1      47.122  34.747  27.242  1.00  0.00     0.029 A 
ATOM     47  N   UNL A   1      47.734  32.642  26.873  1.00  0.00    -0.354 N 
ATOM     48  N   UNL A   1      49.654  30.467  26.502  1.00  0.00    -0.248 NA
ATOM     49  C   UNL A   1      51.838  29.723  26.147  1.00  0.00     0.031 C 
ATOM     50  C   UNL A   1      48.511  34.714  27.075  1.00  0.00     0.029 A 
ATOM     51  C   UNL A   1      48.895  33.399  26.870  1.00  0.00     0.049 A 
ATOM     52  H   UNL A   1      47.695  31.667  26.748  1.00  0.00     0.167 HD
ATOM     53  C   UNL A   1      50.515  31.557  26.522  1.00  0.00     0.074 A 
ATOM     54  C   UNL A   1      51.853  31.036  26.334  1.00  0.00     0.031 C 
ATOM     55  C   UNL A   1      50.223  32.871  26.679  1.00  0.00     0.037 A 
BRANCH  42  56
ATOM     56  C   UNL A   1      44.184  34.049  27.246  1.00  0.00     0.057 A 
ATOM     57  C   UNL A   1      43.620  34.695  26.137  1.00  0.00     0.134 A 
ATOM     58  C   UNL A   1      43.670  34.370  28.508  1.00  0.00     0.134 A 
ATOM     59  F   UNL A   1      44.072  34.441  24.899  1.00  0.00    -0.206 F 
ATOM     60  C   UNL A   1      42.605  35.642  26.281  1.00  0.00     0.040 A 
ATOM     61  C   UNL A   1      42.633  35.293  28.663  1.00  0.00     0.040 A 
ATOM     62  F   UNL A   1      44.157  33.783  29.612  1.00  0.00    -0.206 F 
ATOM     63  C   UNL A   1      42.102  35.937  27.547  1.00  0.00     0.006 A 
ENDBRANCH  42  56
BRANCH  43  64
ATOM     64  C   UNL A   1      51.042  26.917  25.991  1.00  0.00     0.057 A 
ATOM     65  C   UNL A   1      51.627  26.237  27.066  1.00  0.00     0.134 A 
ATOM     66  C   UNL A   1      51.473  26.577  24.702  1.00  0.00     0.134 A 
ATOM     67  F   UNL A   1      51.272  26.532  28.324  1.00  0.00    -0.206 F 
ATOM     68  C   UNL A   1      52.618  25.274  26.869  1.00  0.00     0.040 A 
ATOM     69  C   UNL A   1      52.442  25.594  24.491  1.00  0.00     0.040 A 
ATOM     70  F   UNL A   1      50.948  27.186  23.629  1.00  0.00    -0.206 F 
ATOM     71  C   UNL A   1      53.025  24.946  25.578  1.00  0.00     0.006 A 
ENDBRANCH  43  64
BRANCH  55  72
ATOM     72  C   UNL A   1      51.375  33.836  26.680  1.00  0.00     0.057 A 
ATOM     73  C   UNL A   1      51.810  34.472  25.510  1.00  0.00     0.134 A 
ATOM     74  C   UNL A   1      52.035  34.159  27.873  1.00  0.00     0.134 A 
ATOM     75  F   UNL A   1      51.231  34.198  24.331  1.00  0.00    -0.206 F 
ATOM     76  C   UNL A   1      52.878  35.371  25.522  1.00  0.00     0.040 A 
ATOM     77  C   UNL A   1      53.084  35.080  27.903  1.00  0.00     0.040 A 
ATOM     78  F   UNL A   1      51.664  33.595  29.033  1.00  0.00    -0.206 F 
ATOM     79  C   UNL A   1      53.512  35.684  26.723  1.00  0.00     0.006 A 
ENDBRANCH  55  72
ENDBRANCH  29  30
ENDBRANCH  21  24
ENDBRANCH  19  20
ENDBRANCH   1  19
TORSDOF 11
ENDMDL
MODEL 3
REMARK VINA RESULT:     -11.3      2.998      8.238
REMARK SMILES O=C(C[C@H]1C(=O)Nc2ccccc21)NCCCNC(=O)c1ccc(-c2c3nc(c(-c4c(F)cccc4F)c4ccc([nH]4)c(-c4c(F)cccc4F)c4nc(c(-c5c(F)cccc5F)c5ccc2[nH]5)C=C4)C=C3)cc1
REMARK SMILES IDX 16 1 15 2 14 3 1 4 2 5 3 7 4 8 5 9 13 10 6 11 7 12 8 13
REMARK SMILES IDX 12 14 9 16 11 17 10 18 17 19 18 20 19 21 20 23 21 24 22 25
REMARK SMILES IDX 74 26 23 27 73 28 24 29 25 30 26 31 67 32 27 33 72 34 66 35
REMARK SMILES IDX 68 36 28 37 71 38 65 39 64 40 29 42 55 43 38 44 54 45 39 46
REMARK SMILES IDX 42 47 53 48 69 49 40 50 41 51 52 53 70 54 43 55 30 56 31 57
REMARK SMILES IDX 36 58 32 59 33 60 35 61 37 62 34 63 56 64 57 65 62 66 58 67
REMARK SMILES IDX 59 68 61 69 63 70 60 71 44 72 45 73 50 74 46 75 47 76 49 77
REMARK SMILES IDX 51 78 48 79
REMARK H PARENT 14 6 7 15 18 22 68 41 42 52
REMARK Flexibility Score: inf
ROOT
ATOM      1  C   UNL A   1      36.639  23.074  23.784  1.00  0.00     0.042 C 
ENDROOT
BRANCH   1   2
ATOM      2  C   UNL A   1      35.124  22.940  23.820  1.00  0.00     0.117 C 
BRANCH   2   3
ATOM      3  N   UNL A   1      34.464  24.210  24.042  1.00  0.00    -0.356 N 
ATOM      4  O   UNL A   1      33.670  24.476  21.894  1.00  0.00    -0.275 OA
ATOM      5  C   UNL A   1      33.710  24.826  23.067  1.00  0.00     0.221 C 
ATOM      6  H   UNL A   1      34.558  24.648  24.919  1.00  0.00     0.163 HD
BRANCH   5   7
ATOM      7  C   UNL A   1      32.943  26.027  23.573  1.00  0.00     0.118 C 
BRANCH   7   8
ATOM      8  C   UNL A   1      33.810  27.219  23.985  1.00  0.00     0.120 C 
ATOM      9  C   UNL A   1      33.871  28.383  22.966  1.00  0.00     0.232 C 
ATOM     10  C   UNL A   1      33.216  27.916  25.189  1.00  0.00    -0.011 A 
ATOM     11  O   UNL A   1      34.368  28.373  21.853  1.00  0.00    -0.274 OA
ATOM     12  N   UNL A   1      33.225  29.473  23.533  1.00  0.00    -0.325 N 
ATOM     13  C   UNL A   1      32.857  29.217  24.842  1.00  0.00     0.045 A 
ATOM     14  C   UNL A   1      33.000  27.447  26.473  1.00  0.00     0.007 A 
ATOM     15  H   UNL A   1      33.050  30.321  23.063  1.00  0.00     0.169 HD
ATOM     16  C   UNL A   1      32.255  30.085  25.726  1.00  0.00     0.026 A 
ATOM     17  C   UNL A   1      32.400  28.312  27.393  1.00  0.00     0.000 A 
ATOM     18  C   UNL A   1      32.024  29.617  27.021  1.00  0.00     0.002 A 
ENDBRANCH   7   8
ENDBRANCH   5   7
ENDBRANCH   2   3
ENDBRANCH   1   2
BRANCH   1  19
ATOM     19  C   UNL A   1      37.287  23.434  25.118  1.00  0.00     0.118 C 
BRANCH  19  20
ATOM     20  N   UNL A   1      38.436  22.606  25.454  1.00  0.00    -0.352 N 
ATOM     21  C   UNL A   1      39.564  22.920  26.176  1.00  0.00     0.251 C 
ATOM     22  H   UNL A   1      38.399  21.682  25.116  1.00  0.00     0.163 HD
ATOM     23  O   UNL A   1      40.480  22.109  26.267  1.00  0.00    -0.269 OA
BRANCH  21  24
ATOM     24  C   UNL A   1      39.701  24.249  26.814  1.00  0.00     0.039 A 
ATOM     25  C   UNL A   1      39.147  24.442  28.083  1.00  0.00     0.014 A 
ATOM     26  C   UNL A   1      40.373  25.298  26.181  1.00  0.00     0.014 A 
ATOM     27  C   UNL A   1      39.346  25.653  28.753  1.00  0.00     0.010 A 
ATOM     28  C   UNL A   1      40.634  26.477  26.879  1.00  0.00     0.010 A 
ATOM     29  C   UNL A   1      40.137  26.661  28.178  1.00  0.00    -0.014 A 
BRANCH  29  30
ATOM     30  C   UNL A   1      40.492  27.889  28.939  1.00  0.00     0.031 A 
ATOM     31  C   UNL A   1      41.815  28.001  29.643  1.00  0.00     0.074 A 
ATOM     32  C   UNL A   1      39.586  28.880  29.056  1.00  0.00     0.049 A 
ATOM     33  N   UNL A   1      42.263  28.958  30.416  1.00  0.00    -0.248 NA
ATOM     34  C   UNL A   1      42.751  26.879  29.475  1.00  0.00     0.031 C 
ATOM     35  C   UNL A   1      38.250  28.880  28.458  1.00  0.00     0.029 A 
ATOM     36  N   UNL A   1      39.645  30.075  29.732  1.00  0.00    -0.354 N 
ATOM     37  C   UNL A   1      43.525  28.555  30.831  1.00  0.00     0.074 A 
ATOM     38  C   UNL A   1      43.752  27.241  30.266  1.00  0.00     0.031 C 
ATOM     39  C   UNL A   1      37.625  30.025  28.774  1.00  0.00     0.029 A 
ATOM     40  C   UNL A   1      38.492  30.819  29.638  1.00  0.00     0.049 A 
ATOM     41  H   UNL A   1      40.437  30.370  30.236  1.00  0.00     0.167 HD
ATOM     42  C   UNL A   1      44.421  29.223  31.598  1.00  0.00     0.037 A 
ATOM     43  C   UNL A   1      38.163  31.999  30.196  1.00  0.00     0.037 A 
ATOM     44  C   UNL A   1      44.196  30.534  32.153  1.00  0.00     0.049 A 
ATOM     45  C   UNL A   1      39.159  32.702  31.075  1.00  0.00     0.074 A 
ATOM     46  C   UNL A   1      45.065  31.315  32.894  1.00  0.00     0.029 A 
ATOM     47  N   UNL A   1      43.015  31.253  32.038  1.00  0.00    -0.354 N 
ATOM     48  N   UNL A   1      40.376  32.339  31.401  1.00  0.00    -0.248 NA
ATOM     49  C   UNL A   1      38.737  33.981  31.663  1.00  0.00     0.031 C 
ATOM     50  C   UNL A   1      44.391  32.479  33.278  1.00  0.00     0.029 A 
ATOM     51  C   UNL A   1      43.122  32.452  32.725  1.00  0.00     0.049 A 
ATOM     52  H   UNL A   1      42.219  30.955  31.542  1.00  0.00     0.167 HD
ATOM     53  C   UNL A   1      40.872  33.353  32.210  1.00  0.00     0.074 A 
ATOM     54  C   UNL A   1      39.832  34.356  32.309  1.00  0.00     0.031 C 
ATOM     55  C   UNL A   1      42.079  33.443  32.820  1.00  0.00     0.037 A 
BRANCH  42  56
ATOM     56  C   UNL A   1      45.730  28.546  31.889  1.00  0.00     0.057 A 
ATOM     57  C   UNL A   1      46.848  28.709  31.059  1.00  0.00     0.134 A 
ATOM     58  C   UNL A   1      45.888  27.759  33.035  1.00  0.00     0.134 A 
ATOM     59  F   UNL A   1      46.763  29.443  29.939  1.00  0.00    -0.206 F 
ATOM     60  C   UNL A   1      48.067  28.091  31.346  1.00  0.00     0.040 A 
ATOM     61  C   UNL A   1      47.110  27.160  33.349  1.00  0.00     0.040 A 
ATOM     62  F   UNL A   1      44.862  27.568  33.879  1.00  0.00    -0.206 F 
ATOM     63  C   UNL A   1      48.202  27.321  32.499  1.00  0.00     0.006 A 
ENDBRANCH  42  56
BRANCH  43  64
ATOM     64  C   UNL A   1      36.825  32.595  29.943  1.00  0.00     0.057 A 
ATOM     65  C   UNL A   1      35.720  32.252  30.730  1.00  0.00     0.134 A 
ATOM     66  C   UNL A   1      36.617  33.510  28.904  1.00  0.00     0.134 A 
ATOM     67  F   UNL A   1      35.851  31.365  31.727  1.00  0.00    -0.206 F 
ATOM     68  C   UNL A   1      34.451  32.779  30.479  1.00  0.00     0.040 A 
ATOM     69  C   UNL A   1      35.360  34.067  28.661  1.00  0.00     0.040 A 
ATOM     70  F   UNL A   1      37.636  33.886  28.116  1.00  0.00    -0.206 F 
ATOM     71  C   UNL A   1      34.270  33.694  29.445  1.00  0.00     0.006 A 
ENDBRANCH  43  64
BRANCH  55  72
ATOM     72  C   UNL A   1      42.352  34.681  33.626  1.00  0.00     0.057 A 
ATOM     73  C   UNL A   1      42.867  35.846  33.042  1.00  0.00     0.134 A 
ATOM     74  C   UNL A   1      42.064  34.720  34.996  1.00  0.00     0.134 A 
ATOM     75  F   UNL A   1      43.178  35.873  31.737  1.00  0.00    -0.206 F 
ATOM     76  C   UNL A   1      43.112  36.994  33.798  1.00  0.00     0.040 A 
ATOM     77  C   UNL A   1      42.276  35.872  35.756  1.00  0.00     0.040 A 
ATOM     78  F   UNL A   1      41.561  33.643  35.618  1.00  0.00    -0.206 F 
ATOM     79  C   UNL A   1      42.808  37.012  35.158  1.00  0.00     0.006 A 
ENDBRANCH  55  72
ENDBRANCH  29  30
ENDBRANCH  21  24
ENDBRANCH  19  20
ENDBRANCH   1  19
TORSDOF 11
ENDMDL
