MODEL 1
REMARK VINA RESULT:     -13.2      0.000      0.000
REMARK SMILES COc1ccc(-n2c(SCc3cn(-c4ccc(C(=O)NCCCNC(=O)c5ccc(-c6c7nc(c(-c8c(F)cccc8F)c8ccc([nH]8)c(-c8c(F)cccc8F)c8nc(c(-c9c(F)cccc9F)c9ccc6[nH]9)C=C8)C=C7)cc5)cc4)nn3)nc3ccccc3c2=O)cc1
REMARK SMILES IDX 18 1 19 2 20 3 17 5 14 6 15 7 82 8 16 9 81 10 13 11 11 12
REMARK SMILES IDX 12 13 84 14 83 15 10 16 9 17 8 18 7 19 92 20 85 21 91 22
REMARK SMILES IDX 93 23 86 24 90 25 87 26 89 27 88 28 6 29 3 30 4 31 95 32
REMARK SMILES IDX 5 33 94 34 2 35 1 36 21 37 22 38 23 39 24 40 25 41 26 43
REMARK SMILES IDX 27 44 28 45 80 46 29 47 79 48 30 49 31 50 32 51 73 52 33 53
REMARK SMILES IDX 78 54 72 55 74 56 34 57 77 58 71 59 70 60 35 62 61 63 44 64
REMARK SMILES IDX 60 65 45 66 48 67 59 68 75 69 46 70 47 71 58 73 76 74 49 75
REMARK SMILES IDX 36 76 37 77 42 78 38 79 39 80 41 81 43 82 40 83 62 84 63 85
REMARK SMILES IDX 68 86 64 87 65 88 67 89 69 90 66 91 50 92 51 93 56 94 52 95
REMARK SMILES IDX 53 96 55 97 57 98 54 99
REMARK H PARENT 20 4 24 42 74 61 48 72
REMARK Flexibility Score: inf
ROOT
ATOM      1  C   UNL A   1      35.253  34.362  29.127  1.00  0.00     0.251 C 
ATOM      2  O   UNL A   1      36.482  34.431  29.127  1.00  0.00    -0.269 OA
ATOM      3  N   UNL A   1      34.557  35.445  29.608  1.00  0.00    -0.352 N 
ATOM      4  H   UNL A   1      35.136  36.158  29.962  1.00  0.00     0.163 HD
ENDROOT
BRANCH   1   5
ATOM      5  C   UNL A   1      34.601  33.147  28.563  1.00  0.00     0.039 A 
ATOM      6  C   UNL A   1      33.637  30.825  27.371  1.00  0.00     0.066 A 
ATOM      7  C   UNL A   1      34.776  30.741  28.162  1.00  0.00     0.029 A 
ATOM      8  C   UNL A   1      32.930  32.020  27.231  1.00  0.00     0.029 A 
ATOM      9  C   UNL A   1      35.270  31.917  28.730  1.00  0.00     0.016 A 
ATOM     10  C   UNL A   1      33.388  33.161  27.876  1.00  0.00     0.016 A 
BRANCH   6  11
ATOM     11  N   UNL A   1      33.323  29.775  26.510  1.00  0.00    -0.220 N 
ATOM     12  C   UNL A   1      33.378  27.834  25.547  1.00  0.00     0.093 A 
ATOM     13  C   UNL A   1      33.991  28.589  26.513  1.00  0.00     0.141 A 
ATOM     14  N   UNL A   1      32.322  28.554  25.045  1.00  0.00    -0.134 NA
ATOM     15  N   UNL A   1      32.245  29.703  25.712  1.00  0.00    -0.062 NA
BRANCH  12  16
ATOM     16  C   UNL A   1      33.662  26.468  25.070  1.00  0.00     0.138 C 
BRANCH  16  17
ATOM     17  S   UNL A   1      32.826  25.143  25.940  1.00  0.00    -0.081 SA
BRANCH  17  18
ATOM     18  C   UNL A   1      32.293  23.995  24.684  1.00  0.00     0.176 A 
ATOM     19  N   UNL A   1      33.139  23.909  23.598  1.00  0.00    -0.255 N 
ATOM     20  C   UNL A   1      32.705  24.519  22.430  1.00  0.00     0.266 A 
ATOM     21  N   UNL A   1      31.006  23.908  24.516  1.00  0.00    -0.223 NA
ATOM     22  C   UNL A   1      31.494  25.366  22.642  1.00  0.00     0.066 A 
ATOM     23  O   UNL A   1      33.218  24.436  21.322  1.00  0.00    -0.268 OA
ATOM     24  C   UNL A   1      30.587  24.903  23.611  1.00  0.00     0.079 A 
ATOM     25  C   UNL A   1      31.401  26.668  22.162  1.00  0.00     0.016 A 
ATOM     26  C   UNL A   1      29.469  25.662  23.949  1.00  0.00     0.029 A 
ATOM     27  C   UNL A   1      30.356  27.478  22.619  1.00  0.00     0.001 A 
ATOM     28  C   UNL A   1      29.368  26.964  23.468  1.00  0.00     0.002 A 
BRANCH  19  29
ATOM     29  C   UNL A   1      34.162  22.929  23.628  1.00  0.00     0.052 A 
ATOM     30  C   UNL A   1      36.360  21.452  24.521  1.00  0.00     0.119 A 
ATOM     31  C   UNL A   1      35.071  20.964  24.730  1.00  0.00     0.048 A 
ATOM     32  C   UNL A   1      36.553  22.590  23.741  1.00  0.00     0.048 A 
ATOM     33  C   UNL A   1      33.967  21.714  24.304  1.00  0.00     0.030 A 
ATOM     34  C   UNL A   1      35.454  23.318  23.277  1.00  0.00     0.030 A 
BRANCH  30  35
ATOM     35  O   UNL A   1      37.408  20.750  25.049  1.00  0.00    -0.497 OA
ATOM     36  C   UNL A   1      38.409  21.594  25.633  1.00  0.00     0.278 C 
ENDBRANCH  30  35
ENDBRANCH  19  29
ENDBRANCH  17  18
ENDBRANCH  16  17
ENDBRANCH  12  16
ENDBRANCH   6  11
ENDBRANCH   1   5
BRANCH   3  37
ATOM     37  C   UNL A   1      33.134  35.750  29.700  1.00  0.00     0.118 C 
BRANCH  37  38
ATOM     38  C   UNL A   1      32.800  36.579  30.951  1.00  0.00     0.042 C 
BRANCH  38  39
ATOM     39  C   UNL A   1      33.654  36.178  32.136  1.00  0.00     0.118 C 
BRANCH  39  40
ATOM     40  N   UNL A   1      33.075  35.072  32.921  1.00  0.00    -0.352 N 
ATOM     41  C   UNL A   1      33.557  33.783  33.092  1.00  0.00     0.251 C 
ATOM     42  H   UNL A   1      32.232  35.277  33.387  1.00  0.00     0.163 HD
ATOM     43  O   UNL A   1      32.822  32.877  33.494  1.00  0.00    -0.269 OA
BRANCH  41  44
ATOM     44  C   UNL A   1      34.971  33.518  32.797  1.00  0.00     0.039 A 
ATOM     45  C   UNL A   1      36.024  34.399  33.057  1.00  0.00     0.014 A 
ATOM     46  C   UNL A   1      35.230  32.256  32.303  1.00  0.00     0.014 A 
ATOM     47  C   UNL A   1      37.321  33.951  32.813  1.00  0.00     0.010 A 
ATOM     48  C   UNL A   1      36.442  31.715  32.556  1.00  0.00     0.010 A 
ATOM     49  C   UNL A   1      37.502  32.591  32.537  1.00  0.00    -0.014 A 
BRANCH  49  50
ATOM     50  C   UNL A   1      38.762  31.959  32.212  1.00  0.00     0.031 A 
ATOM     51  C   UNL A   1      39.595  31.630  33.380  1.00  0.00     0.074 A 
ATOM     52  C   UNL A   1      38.995  31.457  30.976  1.00  0.00     0.049 A 
ATOM     53  N   UNL A   1      40.685  32.217  33.733  1.00  0.00    -0.248 NA
ATOM     54  C   UNL A   1      39.081  30.667  34.364  1.00  0.00     0.031 C 
ATOM     55  C   UNL A   1      38.121  31.428  29.791  1.00  0.00     0.029 A 
ATOM     56  N   UNL A   1      40.078  30.757  30.553  1.00  0.00    -0.354 N 
ATOM     57  C   UNL A   1      41.117  31.557  34.875  1.00  0.00     0.074 A 
ATOM     58  C   UNL A   1      39.999  30.769  35.329  1.00  0.00     0.031 C 
ATOM     59  C   UNL A   1      38.620  30.568  28.874  1.00  0.00     0.029 A 
ATOM     60  C   UNL A   1      39.915  30.109  29.332  1.00  0.00     0.049 A 
ATOM     61  H   UNL A   1      40.915  30.709  31.070  1.00  0.00     0.167 HD
ATOM     62  C   UNL A   1      42.435  31.534  35.209  1.00  0.00     0.037 A 
ATOM     63  C   UNL A   1      40.789  29.227  28.785  1.00  0.00     0.037 A 
ATOM     64  C   UNL A   1      43.190  32.452  34.388  1.00  0.00     0.049 A 
ATOM     65  C   UNL A   1      42.113  29.494  29.419  1.00  0.00     0.074 A 
ATOM     66  C   UNL A   1      43.158  33.819  34.192  1.00  0.00     0.029 A 
ATOM     67  N   UNL A   1      43.840  31.929  33.293  1.00  0.00    -0.354 N 
ATOM     68  N   UNL A   1      42.773  30.609  29.240  1.00  0.00    -0.248 NA
ATOM     69  C   UNL A   1      42.429  28.779  30.649  1.00  0.00     0.031 C 
ATOM     70  C   UNL A   1      43.336  33.991  32.787  1.00  0.00     0.029 A 
ATOM     71  C   UNL A   1      43.552  32.734  32.218  1.00  0.00     0.049 A 
ATOM     72  H   UNL A   1      44.407  31.124  33.282  1.00  0.00     0.167 HD
ATOM     73  C   UNL A   1      43.250  30.952  30.501  1.00  0.00     0.074 A 
ATOM     74  C   UNL A   1      43.063  29.750  31.315  1.00  0.00     0.031 C 
ATOM     75  C   UNL A   1      43.454  32.257  30.856  1.00  0.00     0.037 A 
BRANCH  62  76
ATOM     76  C   UNL A   1      43.109  30.453  36.004  1.00  0.00     0.057 A 
ATOM     77  C   UNL A   1      43.844  30.810  37.148  1.00  0.00     0.134 A 
ATOM     78  C   UNL A   1      43.302  29.134  35.550  1.00  0.00     0.134 A 
ATOM     79  F   UNL A   1      43.742  32.040  37.675  1.00  0.00    -0.206 F 
ATOM     80  C   UNL A   1      44.767  29.946  37.744  1.00  0.00     0.040 A 
ATOM     81  C   UNL A   1      44.183  28.245  36.169  1.00  0.00     0.040 A 
ATOM     82  F   UNL A   1      42.735  28.670  34.430  1.00  0.00    -0.206 F 
ATOM     83  C   UNL A   1      44.946  28.661  37.249  1.00  0.00     0.006 A 
ENDBRANCH  62  76
BRANCH  63  84
ATOM     84  C   UNL A   1      40.463  27.988  28.036  1.00  0.00     0.057 A 
ATOM     85  C   UNL A   1      40.992  27.729  26.764  1.00  0.00     0.134 A 
ATOM     86  C   UNL A   1      39.817  26.903  28.660  1.00  0.00     0.134 A 
ATOM     87  F   UNL A   1      41.664  28.682  26.100  1.00  0.00    -0.206 F 
ATOM     88  C   UNL A   1      40.899  26.466  26.158  1.00  0.00     0.040 A 
ATOM     89  C   UNL A   1      39.712  25.641  28.065  1.00  0.00     0.040 A 
ATOM     90  F   UNL A   1      39.340  27.004  29.908  1.00  0.00    -0.206 F 
ATOM     91  C   UNL A   1      40.264  25.414  26.813  1.00  0.00     0.006 A 
ENDBRANCH  63  84
BRANCH  75  92
ATOM     92  C   UNL A   1      43.323  33.310  29.783  1.00  0.00     0.057 A 
ATOM     93  C   UNL A   1      42.170  34.086  29.582  1.00  0.00     0.134 A 
ATOM     94  C   UNL A   1      44.454  33.676  29.049  1.00  0.00     0.134 A 
ATOM     95  F   UNL A   1      41.071  33.894  30.315  1.00  0.00    -0.206 F 
ATOM     96  C   UNL A   1      42.128  35.138  28.662  1.00  0.00     0.040 A 
ATOM     97  C   UNL A   1      44.436  34.746  28.149  1.00  0.00     0.040 A 
ATOM     98  F   UNL A   1      45.616  33.032  29.235  1.00  0.00    -0.206 F 
ATOM     99  C   UNL A   1      43.268  35.475  27.944  1.00  0.00     0.006 A 
ENDBRANCH  75  92
ENDBRANCH  49  50
ENDBRANCH  41  44
ENDBRANCH  39  40
ENDBRANCH  38  39
ENDBRANCH  37  38
ENDBRANCH   3  37
TORSDOF 16
ENDMDL
MODEL 2
REMARK VINA RESULT:     -12.7      4.026      9.661
REMARK SMILES COc1ccc(-n2c(SCc3cn(-c4ccc(C(=O)NCCCNC(=O)c5ccc(-c6c7nc(c(-c8c(F)cccc8F)c8ccc([nH]8)c(-c8c(F)cccc8F)c8nc(c(-c9c(F)cccc9F)c9ccc6[nH]9)C=C8)C=C7)cc5)cc4)nn3)nc3ccccc3c2=O)cc1
REMARK SMILES IDX 18 1 19 2 20 3 17 5 14 6 15 7 82 8 16 9 81 10 13 11 11 12
REMARK SMILES IDX 12 13 84 14 83 15 10 16 9 17 8 18 7 19 92 20 85 21 91 22
REMARK SMILES IDX 93 23 86 24 90 25 87 26 89 27 88 28 6 29 3 30 4 31 95 32
REMARK SMILES IDX 5 33 94 34 2 35 1 36 21 37 22 38 23 39 24 40 25 41 26 43
REMARK SMILES IDX 27 44 28 45 80 46 29 47 79 48 30 49 31 50 32 51 73 52 33 53
REMARK SMILES IDX 78 54 72 55 74 56 34 57 77 58 71 59 70 60 35 62 61 63 44 64
REMARK SMILES IDX 60 65 45 66 48 67 59 68 75 69 46 70 47 71 58 73 76 74 49 75
REMARK SMILES IDX 36 76 37 77 42 78 38 79 39 80 41 81 43 82 40 83 62 84 63 85
REMARK SMILES IDX 68 86 64 87 65 88 67 89 69 90 66 91 50 92 51 93 56 94 52 95
REMARK SMILES IDX 53 96 55 97 57 98 54 99
REMARK H PARENT 20 4 24 42 74 61 48 72
REMARK Flexibility Score: inf
ROOT
ATOM      1  C   UNL A   1      42.471  21.865  27.574  1.00  0.00     0.251 C 
ATOM      2  O   UNL A   1      42.805  22.136  28.728  1.00  0.00    -0.269 OA
ATOM      3  N   UNL A   1      43.425  21.319  26.749  1.00  0.00    -0.352 N 
ATOM      4  H   UNL A   1      44.313  21.251  27.168  1.00  0.00     0.163 HD
ENDROOT
BRANCH   1   5
ATOM      5  C   UNL A   1      41.057  22.094  27.162  1.00  0.00     0.039 A 
ATOM      6  C   UNL A   1      38.503  22.459  26.122  1.00  0.00     0.066 A 
ATOM      7  C   UNL A   1      39.127  21.233  25.934  1.00  0.00     0.029 A 
ATOM      8  C   UNL A   1      39.092  23.470  26.882  1.00  0.00     0.029 A 
ATOM      9  C   UNL A   1      40.421  21.070  26.432  1.00  0.00     0.016 A 
ATOM     10  C   UNL A   1      40.343  23.257  27.445  1.00  0.00     0.016 A 
BRANCH   6  11
ATOM     11  N   UNL A   1      37.389  22.786  25.350  1.00  0.00    -0.220 N 
ATOM     12  C   UNL A   1      35.662  23.863  24.606  1.00  0.00     0.093 A 
ATOM     13  C   UNL A   1      36.635  23.897  25.571  1.00  0.00     0.141 A 
ATOM     14  N   UNL A   1      35.900  22.781  23.793  1.00  0.00    -0.134 NA
ATOM     15  N   UNL A   1      37.016  22.186  24.208  1.00  0.00    -0.062 NA
BRANCH  12  16
ATOM     16  C   UNL A   1      34.540  24.782  24.338  1.00  0.00     0.138 C 
BRANCH  16  17
ATOM     17  S   UNL A   1      33.460  24.328  22.982  1.00  0.00    -0.081 SA
BRANCH  17  18
ATOM     18  C   UNL A   1      31.877  23.970  23.720  1.00  0.00     0.176 A 
ATOM     19  N   UNL A   1      31.638  24.637  24.903  1.00  0.00    -0.255 N 
ATOM     20  C   UNL A   1      31.719  23.880  26.063  1.00  0.00     0.266 A 
ATOM     21  N   UNL A   1      31.448  22.752  23.561  1.00  0.00    -0.223 NA
ATOM     22  C   UNL A   1      32.289  22.521  25.823  1.00  0.00     0.066 A 
ATOM     23  O   UNL A   1      31.400  24.227  27.193  1.00  0.00    -0.268 OA
ATOM     24  C   UNL A   1      31.973  21.937  24.584  1.00  0.00     0.079 A 
ATOM     25  C   UNL A   1      33.307  21.990  26.607  1.00  0.00     0.016 A 
ATOM     26  C   UNL A   1      32.524  20.711  24.222  1.00  0.00     0.029 A 
ATOM     27  C   UNL A   1      33.961  20.835  26.165  1.00  0.00     0.001 A 
ATOM     28  C   UNL A   1      33.540  20.171  25.006  1.00  0.00     0.002 A 
BRANCH  19  29
ATOM     29  C   UNL A   1      30.981  25.890  24.839  1.00  0.00     0.052 A 
ATOM     30  C   UNL A   1      30.282  28.448  23.955  1.00  0.00     0.119 A 
ATOM     31  C   UNL A   1      29.499  27.354  23.588  1.00  0.00     0.048 A 
ATOM     32  C   UNL A   1      31.314  28.284  24.877  1.00  0.00     0.048 A 
ATOM     33  C   UNL A   1      29.861  26.068  24.012  1.00  0.00     0.030 A 
ATOM     34  C   UNL A   1      31.651  27.008  25.334  1.00  0.00     0.030 A 
BRANCH  30  35
ATOM     35  O   UNL A   1      29.965  29.671  23.433  1.00  0.00    -0.497 OA
ATOM     36  C   UNL A   1      30.033  29.704  22.001  1.00  0.00     0.278 C 
ENDBRANCH  30  35
ENDBRANCH  19  29
ENDBRANCH  17  18
ENDBRANCH  16  17
ENDBRANCH  12  16
ENDBRANCH   6  11
ENDBRANCH   1   5
BRANCH   3  37
ATOM     37  C   UNL A   1      43.385  20.819  25.381  1.00  0.00     0.118 C 
BRANCH  37  38
ATOM     38  C   UNL A   1      44.704  21.075  24.633  1.00  0.00     0.042 C 
BRANCH  38  39
ATOM     39  C   UNL A   1      44.681  22.392  23.887  1.00  0.00     0.118 C 
BRANCH  39  40
ATOM     40  N   UNL A   1      46.019  22.989  23.720  1.00  0.00    -0.352 N 
ATOM     41  C   UNL A   1      46.596  24.038  24.420  1.00  0.00     0.251 C 
ATOM     42  H   UNL A   1      46.579  22.588  23.016  1.00  0.00     0.163 HD
ATOM     43  O   UNL A   1      47.573  24.642  23.969  1.00  0.00    -0.269 OA
BRANCH  41  44
ATOM     44  C   UNL A   1      46.028  24.408  25.722  1.00  0.00     0.039 A 
ATOM     45  C   UNL A   1      46.125  23.643  26.887  1.00  0.00     0.014 A 
ATOM     46  C   UNL A   1      45.436  25.655  25.759  1.00  0.00     0.014 A 
ATOM     47  C   UNL A   1      45.619  24.189  28.067  1.00  0.00     0.010 A 
ATOM     48  C   UNL A   1      45.430  26.316  26.937  1.00  0.00     0.010 A 
ATOM     49  C   UNL A   1      45.252  25.539  28.057  1.00  0.00    -0.014 A 
BRANCH  49  50
ATOM     50  C   UNL A   1      44.666  26.259  29.167  1.00  0.00     0.031 A 
ATOM     51  C   UNL A   1      43.283  26.707  28.936  1.00  0.00     0.074 A 
ATOM     52  C   UNL A   1      45.241  26.245  30.393  1.00  0.00     0.049 A 
ATOM     53  N   UNL A   1      42.893  27.919  28.744  1.00  0.00    -0.248 NA
ATOM     54  C   UNL A   1      42.240  25.695  28.718  1.00  0.00     0.031 C 
ATOM     55  C   UNL A   1      46.465  25.566  30.852  1.00  0.00     0.029 A 
ATOM     56  N   UNL A   1      44.762  26.785  31.543  1.00  0.00    -0.354 N 
ATOM     57  C   UNL A   1      41.515  27.852  28.590  1.00  0.00     0.074 A 
ATOM     58  C   UNL A   1      41.203  26.462  28.373  1.00  0.00     0.031 C 
ATOM     59  C   UNL A   1      46.507  25.560  32.204  1.00  0.00     0.029 A 
ATOM     60  C   UNL A   1      45.407  26.360  32.701  1.00  0.00     0.049 A 
ATOM     61  H   UNL A   1      44.016  27.427  31.557  1.00  0.00     0.167 HD
ATOM     62  C   UNL A   1      40.728  28.919  28.894  1.00  0.00     0.037 A 
ATOM     63  C   UNL A   1      45.010  26.633  33.969  1.00  0.00     0.037 A 
ATOM     64  C   UNL A   1      41.529  30.098  29.127  1.00  0.00     0.049 A 
ATOM     65  C   UNL A   1      44.147  27.848  33.890  1.00  0.00     0.074 A 
ATOM     66  C   UNL A   1      42.407  30.835  28.356  1.00  0.00     0.029 A 
ATOM     67  N   UNL A   1      41.821  30.412  30.435  1.00  0.00    -0.354 N 
ATOM     68  N   UNL A   1      44.604  29.021  33.538  1.00  0.00    -0.248 NA
ATOM     69  C   UNL A   1      42.720  27.649  33.670  1.00  0.00     0.031 C 
ATOM     70  C   UNL A   1      43.485  31.156  29.234  1.00  0.00     0.029 A 
ATOM     71  C   UNL A   1      43.168  30.676  30.506  1.00  0.00     0.049 A 
ATOM     72  H   UNL A   1      41.182  30.443  31.184  1.00  0.00     0.167 HD
ATOM     73  C   UNL A   1      43.646  29.538  32.673  1.00  0.00     0.074 A 
ATOM     74  C   UNL A   1      42.476  28.675  32.847  1.00  0.00     0.031 C 
ATOM     75  C   UNL A   1      43.982  30.407  31.671  1.00  0.00     0.037 A 
BRANCH  62  76
ATOM     76  C   UNL A   1      39.295  28.842  29.335  1.00  0.00     0.057 A 
ATOM     77  C   UNL A   1      38.302  29.403  28.513  1.00  0.00     0.134 A 
ATOM     78  C   UNL A   1      38.880  28.500  30.636  1.00  0.00     0.134 A 
ATOM     79  F   UNL A   1      38.577  29.767  27.252  1.00  0.00    -0.206 F 
ATOM     80  C   UNL A   1      37.014  29.680  28.981  1.00  0.00     0.040 A 
ATOM     81  C   UNL A   1      37.582  28.725  31.097  1.00  0.00     0.040 A 
ATOM     82  F   UNL A   1      39.728  28.030  31.560  1.00  0.00    -0.206 F 
ATOM     83  C   UNL A   1      36.653  29.350  30.280  1.00  0.00     0.006 A 
ENDBRANCH  62  76
BRANCH  63  84
ATOM     84  C   UNL A   1      45.052  25.721  35.138  1.00  0.00     0.057 A 
ATOM     85  C   UNL A   1      44.312  24.531  35.179  1.00  0.00     0.134 A 
ATOM     86  C   UNL A   1      46.021  25.870  36.150  1.00  0.00     0.134 A 
ATOM     87  F   UNL A   1      43.393  24.270  34.237  1.00  0.00    -0.206 F 
ATOM     88  C   UNL A   1      44.532  23.545  36.154  1.00  0.00     0.040 A 
ATOM     89  C   UNL A   1      46.247  24.899  37.131  1.00  0.00     0.040 A 
ATOM     90  F   UNL A   1      46.844  26.928  36.171  1.00  0.00    -0.206 F 
ATOM     91  C   UNL A   1      45.509  23.724  37.129  1.00  0.00     0.006 A 
ENDBRANCH  63  84
BRANCH  75  92
ATOM     92  C   UNL A   1      45.394  30.936  31.640  1.00  0.00     0.057 A 
ATOM     93  C   UNL A   1      46.432  30.361  30.889  1.00  0.00     0.134 A 
ATOM     94  C   UNL A   1      45.672  32.165  32.243  1.00  0.00     0.134 A 
ATOM     95  F   UNL A   1      46.237  29.248  30.179  1.00  0.00    -0.206 F 
ATOM     96  C   UNL A   1      47.696  30.951  30.784  1.00  0.00     0.040 A 
ATOM     97  C   UNL A   1      46.921  32.783  32.120  1.00  0.00     0.040 A 
ATOM     98  F   UNL A   1      44.714  32.817  32.919  1.00  0.00    -0.206 F 
ATOM     99  C   UNL A   1      47.942  32.171  31.399  1.00  0.00     0.006 A 
ENDBRANCH  75  92
ENDBRANCH  49  50
ENDBRANCH  41  44
ENDBRANCH  39  40
ENDBRANCH  38  39
ENDBRANCH  37  38
ENDBRANCH   3  37
TORSDOF 16
ENDMDL
MODEL 3
REMARK VINA RESULT:     -12.7      1.978      5.558
REMARK SMILES COc1ccc(-n2c(SCc3cn(-c4ccc(C(=O)NCCCNC(=O)c5ccc(-c6c7nc(c(-c8c(F)cccc8F)c8ccc([nH]8)c(-c8c(F)cccc8F)c8nc(c(-c9c(F)cccc9F)c9ccc6[nH]9)C=C8)C=C7)cc5)cc4)nn3)nc3ccccc3c2=O)cc1
REMARK SMILES IDX 18 1 19 2 20 3 17 5 14 6 15 7 82 8 16 9 81 10 13 11 11 12
REMARK SMILES IDX 12 13 84 14 83 15 10 16 9 17 8 18 7 19 92 20 85 21 91 22
REMARK SMILES IDX 93 23 86 24 90 25 87 26 89 27 88 28 6 29 3 30 4 31 95 32
REMARK SMILES IDX 5 33 94 34 2 35 1 36 21 37 22 38 23 39 24 40 25 41 26 43
REMARK SMILES IDX 27 44 28 45 80 46 29 47 79 48 30 49 31 50 32 51 73 52 33 53
REMARK SMILES IDX 78 54 72 55 74 56 34 57 77 58 71 59 70 60 35 62 61 63 44 64
REMARK SMILES IDX 60 65 45 66 48 67 59 68 75 69 46 70 47 71 58 73 76 74 49 75
REMARK SMILES IDX 36 76 37 77 42 78 38 79 39 80 41 81 43 82 40 83 62 84 63 85
REMARK SMILES IDX 68 86 64 87 65 88 67 89 69 90 66 91 50 92 51 93 56 94 52 95
REMARK SMILES IDX 53 96 55 97 57 98 54 99
REMARK H PARENT 20 4 24 42 74 61 48 72
REMARK Flexibility Score: inf
ROOT
ATOM      1  C   UNL A   1      35.915  33.851  29.166  1.00  0.00     0.251 C 
ATOM      2  O   UNL A   1      37.057  34.209  28.875  1.00  0.00    -0.269 OA
ATOM      3  N   UNL A   1      35.247  34.578  30.122  1.00  0.00    -0.352 N 
ATOM      4  H   UNL A   1      35.791  35.294  30.522  1.00  0.00     0.163 HD
ENDROOT
BRANCH   1   5
ATOM      5  C   UNL A   1      35.315  32.700  28.434  1.00  0.00     0.039 A 
ATOM      6  C   UNL A   1      33.990  30.544  27.278  1.00  0.00     0.066 A 
ATOM      7  C   UNL A   1      33.282  31.718  27.497  1.00  0.00     0.029 A 
ATOM      8  C   UNL A   1      35.356  30.453  27.549  1.00  0.00     0.029 A 
ATOM      9  C   UNL A   1      33.946  32.784  28.106  1.00  0.00     0.016 A 
ATOM     10  C   UNL A   1      36.021  31.553  28.073  1.00  0.00     0.016 A 
BRANCH   6  11
ATOM     11  N   UNL A   1      33.296  29.364  27.015  1.00  0.00    -0.220 N 
ATOM     12  C   UNL A   1      32.900  27.295  26.507  1.00  0.00     0.093 A 
ATOM     13  C   UNL A   1      33.913  28.205  26.656  1.00  0.00     0.141 A 
ATOM     14  N   UNL A   1      31.718  27.907  26.849  1.00  0.00    -0.134 NA
ATOM     15  N   UNL A   1      31.991  29.147  27.248  1.00  0.00    -0.062 NA
BRANCH  12  16
ATOM     16  C   UNL A   1      32.933  25.875  26.111  1.00  0.00     0.138 C 
BRANCH  16  17
ATOM     17  S   UNL A   1      31.342  25.066  25.953  1.00  0.00    -0.081 SA
BRANCH  17  18
ATOM     18  C   UNL A   1      31.174  24.654  24.227  1.00  0.00     0.176 A 
ATOM     19  N   UNL A   1      32.367  24.396  23.586  1.00  0.00    -0.255 N 
ATOM     20  C   UNL A   1      32.831  25.382  22.727  1.00  0.00     0.266 A 
ATOM     21  N   UNL A   1      30.215  25.267  23.596  1.00  0.00    -0.223 NA
ATOM     22  C   UNL A   1      32.055  26.653  22.843  1.00  0.00     0.066 A 
ATOM     23  O   UNL A   1      33.774  25.300  21.952  1.00  0.00    -0.268 OA
ATOM     24  C   UNL A   1      30.687  26.510  23.128  1.00  0.00     0.079 A 
ATOM     25  C   UNL A   1      32.672  27.893  22.975  1.00  0.00     0.016 A 
ATOM     26  C   UNL A   1      29.890  27.632  23.344  1.00  0.00     0.029 A 
ATOM     27  C   UNL A   1      31.889  28.995  23.337  1.00  0.00     0.001 A 
ATOM     28  C   UNL A   1      30.501  28.876  23.472  1.00  0.00     0.002 A 
BRANCH  19  29
ATOM     29  C   UNL A   1      32.825  23.056  23.546  1.00  0.00     0.052 A 
ATOM     30  C   UNL A   1      33.157  20.372  24.250  1.00  0.00     0.119 A 
ATOM     31  C   UNL A   1      32.251  20.714  23.246  1.00  0.00     0.048 A 
ATOM     32  C   UNL A   1      33.996  21.345  24.789  1.00  0.00     0.048 A 
ATOM     33  C   UNL A   1      32.067  22.061  22.908  1.00  0.00     0.030 A 
ATOM     34  C   UNL A   1      33.844  22.684  24.422  1.00  0.00     0.030 A 
BRANCH  30  35
ATOM     35  O   UNL A   1      33.230  19.061  24.631  1.00  0.00    -0.497 OA
ATOM     36  C   UNL A   1      32.534  18.178  23.741  1.00  0.00     0.278 C 
ENDBRANCH  30  35
ENDBRANCH  19  29
ENDBRANCH  17  18
ENDBRANCH  16  17
ENDBRANCH  12  16
ENDBRANCH   6  11
ENDBRANCH   1   5
BRANCH   3  37
ATOM     37  C   UNL A   1      33.895  34.501  30.662  1.00  0.00     0.118 C 
BRANCH  37  38
ATOM     38  C   UNL A   1      33.857  34.809  32.168  1.00  0.00     0.042 C 
BRANCH  38  39
ATOM     39  C   UNL A   1      34.098  33.568  33.002  1.00  0.00     0.118 C 
BRANCH  39  40
ATOM     40  N   UNL A   1      34.667  33.863  34.330  1.00  0.00    -0.352 N 
ATOM     41  C   UNL A   1      35.969  33.691  34.775  1.00  0.00     0.251 C 
ATOM     42  H   UNL A   1      34.037  34.231  34.991  1.00  0.00     0.163 HD
ATOM     43  O   UNL A   1      36.232  33.666  35.980  1.00  0.00    -0.269 OA
BRANCH  41  44
ATOM     44  C   UNL A   1      37.038  33.554  33.778  1.00  0.00     0.039 A 
ATOM     45  C   UNL A   1      37.490  34.577  32.940  1.00  0.00     0.014 A 
ATOM     46  C   UNL A   1      37.664  32.324  33.769  1.00  0.00     0.014 A 
ATOM     47  C   UNL A   1      38.587  34.308  32.120  1.00  0.00     0.010 A 
ATOM     48  C   UNL A   1      38.954  32.274  33.372  1.00  0.00     0.010 A 
ATOM     49  C   UNL A   1      39.296  33.123  32.345  1.00  0.00    -0.014 A 
BRANCH  49  50
ATOM     50  C   UNL A   1      40.423  32.657  31.567  1.00  0.00     0.031 A 
ATOM     51  C   UNL A   1      40.155  31.445  30.776  1.00  0.00     0.074 A 
ATOM     52  C   UNL A   1      41.508  33.442  31.366  1.00  0.00     0.049 A 
ATOM     53  N   UNL A   1      40.612  30.264  31.006  1.00  0.00    -0.248 NA
ATOM     54  C   UNL A   1      39.132  31.502  29.723  1.00  0.00     0.031 C 
ATOM     55  C   UNL A   1      41.778  34.813  31.832  1.00  0.00     0.029 A 
ATOM     56  N   UNL A   1      42.589  33.184  30.586  1.00  0.00    -0.354 N 
ATOM     57  C   UNL A   1      40.104  29.459  29.996  1.00  0.00     0.074 A 
ATOM     58  C   UNL A   1      39.048  30.216  29.373  1.00  0.00     0.031 C 
ATOM     59  C   UNL A   1      42.829  35.330  31.156  1.00  0.00     0.029 A 
ATOM     60  C   UNL A   1      43.399  34.286  30.329  1.00  0.00     0.049 A 
ATOM     61  H   UNL A   1      42.784  32.288  30.230  1.00  0.00     0.167 HD
ATOM     62  C   UNL A   1      40.761  28.332  29.608  1.00  0.00     0.037 A 
ATOM     63  C   UNL A   1      44.437  34.313  29.455  1.00  0.00     0.037 A 
ATOM     64  C   UNL A   1      41.831  28.019  30.526  1.00  0.00     0.049 A 
ATOM     65  C   UNL A   1      44.865  32.897  29.261  1.00  0.00     0.074 A 
ATOM     66  C   UNL A   1      41.887  27.711  31.871  1.00  0.00     0.029 A 
ATOM     67  N   UNL A   1      43.098  28.430  30.180  1.00  0.00    -0.354 N 
ATOM     68  N   UNL A   1      45.391  32.178  30.217  1.00  0.00    -0.248 NA
ATOM     69  C   UNL A   1      44.217  32.136  28.200  1.00  0.00     0.031 C 
ATOM     70  C   UNL A   1      43.025  28.418  32.361  1.00  0.00     0.029 A 
ATOM     71  C   UNL A   1      43.648  29.043  31.279  1.00  0.00     0.049 A 
ATOM     72  H   UNL A   1      43.531  28.307  29.304  1.00  0.00     0.167 HD
ATOM     73  C   UNL A   1      44.780  30.933  30.111  1.00  0.00     0.074 A 
ATOM     74  C   UNL A   1      44.116  30.948  28.807  1.00  0.00     0.031 C 
ATOM     75  C   UNL A   1      44.598  30.132  31.205  1.00  0.00     0.037 A 
BRANCH  62  76
ATOM     76  C   UNL A   1      40.692  27.717  28.240  1.00  0.00     0.057 A 
ATOM     77  C   UNL A   1      40.197  26.408  28.109  1.00  0.00     0.134 A 
ATOM     78  C   UNL A   1      41.340  28.235  27.101  1.00  0.00     0.134 A 
ATOM     79  F   UNL A   1      39.559  25.809  29.126  1.00  0.00    -0.206 F 
ATOM     80  C   UNL A   1      40.406  25.642  26.959  1.00  0.00     0.040 A 
ATOM     81  C   UNL A   1      41.508  27.495  25.929  1.00  0.00     0.040 A 
ATOM     82  F   UNL A   1      41.932  29.435  27.096  1.00  0.00    -0.206 F 
ATOM     83  C   UNL A   1      41.073  26.181  25.867  1.00  0.00     0.006 A 
ENDBRANCH  62  76
BRANCH  63  84
ATOM     84  C   UNL A   1      44.820  35.426  28.552  1.00  0.00     0.057 A 
ATOM     85  C   UNL A   1      43.953  35.910  27.561  1.00  0.00     0.134 A 
ATOM     86  C   UNL A   1      45.959  36.216  28.803  1.00  0.00     0.134 A 
ATOM     87  F   UNL A   1      42.818  35.257  27.274  1.00  0.00    -0.206 F 
ATOM     88  C   UNL A   1      44.197  37.111  26.876  1.00  0.00     0.040 A 
ATOM     89  C   UNL A   1      46.217  37.412  28.124  1.00  0.00     0.040 A 
ATOM     90  F   UNL A   1      46.821  35.899  29.780  1.00  0.00    -0.206 F 
ATOM     91  C   UNL A   1      45.328  37.871  27.163  1.00  0.00     0.006 A 
ENDBRANCH  63  84
BRANCH  75  92
ATOM     92  C   UNL A   1      45.241  30.551  32.503  1.00  0.00     0.057 A 
ATOM     93  C   UNL A   1      44.588  31.297  33.498  1.00  0.00     0.134 A 
ATOM     94  C   UNL A   1      46.496  30.037  32.837  1.00  0.00     0.134 A 
ATOM     95  F   UNL A   1      43.339  31.735  33.325  1.00  0.00    -0.206 F 
ATOM     96  C   UNL A   1      45.171  31.559  34.741  1.00  0.00     0.040 A 
ATOM     97  C   UNL A   1      47.080  30.265  34.088  1.00  0.00     0.040 A 
ATOM     98  F   UNL A   1      47.157  29.255  31.970  1.00  0.00    -0.206 F 
ATOM     99  C   UNL A   1      46.422  31.038  35.041  1.00  0.00     0.006 A 
ENDBRANCH  75  92
ENDBRANCH  49  50
ENDBRANCH  41  44
ENDBRANCH  39  40
ENDBRANCH  38  39
ENDBRANCH  37  38
ENDBRANCH   3  37
TORSDOF 16
ENDMDL
