MODEL 1
REMARK VINA RESULT:     -12.0      0.000      0.000
REMARK SMILES CC(=O)N1CCc2cc(S(=O)(=O)N[C@@H](C(=O)NCCCNC(=O)c3ccc(-c4c5nc(c(-c6c(F)cccc6F)c6ccc([nH]6)c(-c6c(F)cccc6F)c6nc(c(-c7c(F)cccc7F)c7ccc4[nH]7)C=C6)C=C5)cc3)C(C)C)ccc21
REMARK SMILES IDX 18 1 17 2 15 3 16 4 14 6 13 7 10 9 11 10 12 11 9 12 4 13
REMARK SMILES IDX 5 14 83 15 6 16 7 17 82 18 8 19 81 20 2 21 1 22 3 23 78 24
REMARK SMILES IDX 79 25 80 26 19 27 20 28 21 29 22 30 23 32 24 33 25 34 77 35
REMARK SMILES IDX 26 36 76 37 27 38 28 39 29 40 70 41 30 42 75 43 69 44 71 45
REMARK SMILES IDX 31 46 74 47 68 48 67 49 32 51 58 52 41 53 57 54 42 55 45 56
REMARK SMILES IDX 56 57 72 58 43 59 44 60 55 62 73 63 46 64 33 65 34 66 39 67
REMARK SMILES IDX 35 68 36 69 38 70 40 71 37 72 59 73 60 74 65 75 61 76 62 77
REMARK SMILES IDX 64 78 66 79 63 80 47 81 48 82 53 83 49 84 50 85 52 86 54 87
REMARK SMILES IDX 51 88
REMARK H PARENT 17 5 13 8 21 31 71 50 45 61
REMARK Flexibility Score: inf
ROOT
ATOM      1  C   UNL A   1      36.091  20.552  24.991  1.00  0.00     0.117 C 
ENDROOT
BRANCH   1   2
ATOM      2  N   UNL A   1      34.865  19.773  25.001  1.00  0.00    -0.355 N 
ATOM      3  C   UNL A   1      33.595  20.144  25.337  1.00  0.00     0.238 C 
ATOM      4  O   UNL A   1      32.818  19.243  25.666  1.00  0.00    -0.273 OA
ATOM      5  H   UNL A   1      34.964  18.834  24.724  1.00  0.00     0.163 HD
BRANCH   3   6
ATOM      6  C   UNL A   1      33.129  21.608  25.239  1.00  0.00     0.161 C 
BRANCH   6   7
ATOM      7  N   UNL A   1      31.756  21.807  25.762  1.00  0.00    -0.198 NA
ATOM      8  H   UNL A   1      31.189  22.060  24.952  1.00  0.00     0.142 HD
BRANCH   7   9
ATOM      9  S   UNL A   1      31.350  22.904  26.955  1.00  0.00     0.241 S 
ATOM     10  O   UNL A   1      32.405  22.844  27.940  1.00  0.00    -0.207 OA
ATOM     11  O   UNL A   1      29.985  22.627  27.322  1.00  0.00    -0.207 OA
BRANCH   9  12
ATOM     12  C   UNL A   1      31.376  24.518  26.218  1.00  0.00     0.082 A 
ATOM     13  N   UNL A   1      31.707  28.345  24.576  1.00  0.00    -0.312 N 
ATOM     14  C   UNL A   1      33.138  28.620  24.777  1.00  0.00     0.130 C 
ATOM     15  C   UNL A   1      31.419  27.055  25.059  1.00  0.00     0.047 A 
ATOM     16  C   UNL A   1      33.769  27.380  25.408  1.00  0.00     0.059 C 
ATOM     17  C   UNL A   1      32.583  26.485  25.586  1.00  0.00    -0.021 A 
ATOM     18  C   UNL A   1      30.233  26.337  25.077  1.00  0.00     0.028 A 
ATOM     19  C   UNL A   1      32.579  25.229  26.180  1.00  0.00     0.027 A 
ATOM     20  C   UNL A   1      30.208  25.066  25.673  1.00  0.00     0.024 A 
BRANCH  13  21
ATOM     21  C   UNL A   1      30.912  29.339  24.048  1.00  0.00     0.223 C 
ATOM     22  C   UNL A   1      30.307  29.162  22.684  1.00  0.00     0.115 C 
ATOM     23  O   UNL A   1      30.661  30.368  24.685  1.00  0.00    -0.275 OA
ENDBRANCH  13  21
ENDBRANCH   9  12
ENDBRANCH   7   9
ENDBRANCH   6   7
BRANCH   6  24
ATOM     24  C   UNL A   1      33.056  21.993  23.717  1.00  0.00     0.010 C 
ATOM     25  C   UNL A   1      31.643  22.378  23.253  1.00  0.00     0.009 C 
ATOM     26  C   UNL A   1      34.014  23.138  23.373  1.00  0.00     0.009 C 
ENDBRANCH   6  24
ENDBRANCH   3   6
ENDBRANCH   1   2
BRANCH   1  27
ATOM     27  C   UNL A   1      37.304  19.622  24.968  1.00  0.00     0.042 C 
BRANCH  27  28
ATOM     28  C   UNL A   1      38.620  20.304  25.310  1.00  0.00     0.118 C 
BRANCH  28  29
ATOM     29  N   UNL A   1      39.664  19.342  25.617  1.00  0.00    -0.352 N 
ATOM     30  C   UNL A   1      40.957  19.524  26.047  1.00  0.00     0.251 C 
ATOM     31  H   UNL A   1      39.401  18.400  25.496  1.00  0.00     0.163 HD
ATOM     32  O   UNL A   1      41.728  18.567  25.991  1.00  0.00    -0.269 OA
BRANCH  30  33
ATOM     33  C   UNL A   1      41.455  20.828  26.560  1.00  0.00     0.039 A 
ATOM     34  C   UNL A   1      41.226  21.139  27.907  1.00  0.00     0.014 A 
ATOM     35  C   UNL A   1      42.050  21.790  25.739  1.00  0.00     0.014 A 
ATOM     36  C   UNL A   1      41.611  22.381  28.425  1.00  0.00     0.010 A 
ATOM     37  C   UNL A   1      42.523  22.989  26.278  1.00  0.00     0.010 A 
ATOM     38  C   UNL A   1      42.282  23.314  27.619  1.00  0.00    -0.014 A 
BRANCH  38  39
ATOM     39  C   UNL A   1      42.677  24.649  28.151  1.00  0.00     0.031 A 
ATOM     40  C   UNL A   1      41.634  25.716  28.380  1.00  0.00     0.074 A 
ATOM     41  C   UNL A   1      43.973  24.923  28.400  1.00  0.00     0.049 A 
ATOM     42  N   UNL A   1      41.787  26.949  28.795  1.00  0.00    -0.248 NA
ATOM     43  C   UNL A   1      40.238  25.360  28.075  1.00  0.00     0.031 C 
ATOM     44  C   UNL A   1      45.091  24.006  28.176  1.00  0.00     0.029 A 
ATOM     45  N   UNL A   1      44.570  26.057  28.893  1.00  0.00    -0.354 N 
ATOM     46  C   UNL A   1      40.519  27.518  28.774  1.00  0.00     0.074 A 
ATOM     47  C   UNL A   1      39.614  26.514  28.263  1.00  0.00     0.031 C 
ATOM     48  C   UNL A   1      46.233  24.603  28.553  1.00  0.00     0.029 A 
ATOM     49  C   UNL A   1      45.935  25.955  29.016  1.00  0.00     0.049 A 
ATOM     50  H   UNL A   1      44.068  26.868  29.135  1.00  0.00     0.167 HD
ATOM     51  C   UNL A   1      40.135  28.756  29.169  1.00  0.00     0.037 A 
ATOM     52  C   UNL A   1      46.844  26.848  29.451  1.00  0.00     0.037 A 
ATOM     53  C   UNL A   1      41.021  29.741  29.731  1.00  0.00     0.049 A 
ATOM     54  C   UNL A   1      46.387  28.203  29.917  1.00  0.00     0.074 A 
ATOM     55  C   UNL A   1      40.709  30.992  30.235  1.00  0.00     0.029 A 
ATOM     56  N   UNL A   1      42.390  29.581  29.872  1.00  0.00    -0.354 N 
ATOM     57  N   UNL A   1      45.174  28.698  29.958  1.00  0.00    -0.248 NA
ATOM     58  C   UNL A   1      47.426  29.122  30.405  1.00  0.00     0.031 C 
ATOM     59  C   UNL A   1      41.896  31.604  30.650  1.00  0.00     0.029 A 
ATOM     60  C   UNL A   1      42.940  30.719  30.440  1.00  0.00     0.049 A 
ATOM     61  H   UNL A   1      42.895  28.780  29.607  1.00  0.00     0.167 HD
ATOM     62  C   UNL A   1      45.300  29.971  30.497  1.00  0.00     0.074 A 
ATOM     63  C   UNL A   1      46.705  30.168  30.784  1.00  0.00     0.031 C 
ATOM     64  C   UNL A   1      44.337  30.895  30.732  1.00  0.00     0.037 A 
BRANCH  51  65
ATOM     65  C   UNL A   1      38.685  29.116  29.022  1.00  0.00     0.057 A 
ATOM     66  C   UNL A   1      37.793  29.035  30.099  1.00  0.00     0.134 A 
ATOM     67  C   UNL A   1      38.188  29.599  27.806  1.00  0.00     0.134 A 
ATOM     68  F   UNL A   1      38.203  28.570  31.289  1.00  0.00    -0.206 F 
ATOM     69  C   UNL A   1      36.453  29.403  29.966  1.00  0.00     0.040 A 
ATOM     70  C   UNL A   1      36.856  29.994  27.667  1.00  0.00     0.040 A 
ATOM     71  F   UNL A   1      38.990  29.710  26.737  1.00  0.00    -0.206 F 
ATOM     72  C   UNL A   1      35.983  29.892  28.748  1.00  0.00     0.006 A 
ENDBRANCH  51  65
BRANCH  52  73
ATOM     73  C   UNL A   1      48.283  26.487  29.491  1.00  0.00     0.057 A 
ATOM     74  C   UNL A   1      48.834  25.834  30.601  1.00  0.00     0.134 A 
ATOM     75  C   UNL A   1      49.146  26.801  28.434  1.00  0.00     0.134 A 
ATOM     76  F   UNL A   1      48.062  25.527  31.654  1.00  0.00    -0.206 F 
ATOM     77  C   UNL A   1      50.193  25.527  30.670  1.00  0.00     0.040 A 
ATOM     78  C   UNL A   1      50.503  26.477  28.478  1.00  0.00     0.040 A 
ATOM     79  F   UNL A   1      48.679  27.420  27.341  1.00  0.00    -0.206 F 
ATOM     80  C   UNL A   1      51.031  25.845  29.604  1.00  0.00     0.006 A 
ENDBRANCH  52  73
BRANCH  64  81
ATOM     81  C   UNL A   1      44.764  32.189  31.357  1.00  0.00     0.057 A 
ATOM     82  C   UNL A   1      44.830  32.351  32.746  1.00  0.00     0.134 A 
ATOM     83  C   UNL A   1      45.152  33.272  30.559  1.00  0.00     0.134 A 
ATOM     84  F   UNL A   1      44.459  31.354  33.564  1.00  0.00    -0.206 F 
ATOM     85  C   UNL A   1      45.249  33.552  33.320  1.00  0.00     0.040 A 
ATOM     86  C   UNL A   1      45.596  34.470  31.121  1.00  0.00     0.040 A 
ATOM     87  F   UNL A   1      45.120  33.179  29.221  1.00  0.00    -0.206 F 
ATOM     88  C   UNL A   1      45.641  34.614  32.505  1.00  0.00     0.006 A 
ENDBRANCH  64  81
ENDBRANCH  38  39
ENDBRANCH  30  33
ENDBRANCH  28  29
ENDBRANCH  27  28
ENDBRANCH   1  27
TORSDOF 15
ENDMDL
MODEL 2
REMARK VINA RESULT:     -11.9      0.371      6.154
REMARK SMILES CC(=O)N1CCc2cc(S(=O)(=O)N[C@@H](C(=O)NCCCNC(=O)c3ccc(-c4c5nc(c(-c6c(F)cccc6F)c6ccc([nH]6)c(-c6c(F)cccc6F)c6nc(c(-c7c(F)cccc7F)c7ccc4[nH]7)C=C6)C=C5)cc3)C(C)C)ccc21
REMARK SMILES IDX 18 1 17 2 15 3 16 4 14 6 13 7 10 9 11 10 12 11 9 12 4 13
REMARK SMILES IDX 5 14 83 15 6 16 7 17 82 18 8 19 81 20 2 21 1 22 3 23 78 24
REMARK SMILES IDX 79 25 80 26 19 27 20 28 21 29 22 30 23 32 24 33 25 34 77 35
REMARK SMILES IDX 26 36 76 37 27 38 28 39 29 40 70 41 30 42 75 43 69 44 71 45
REMARK SMILES IDX 31 46 74 47 68 48 67 49 32 51 58 52 41 53 57 54 42 55 45 56
REMARK SMILES IDX 56 57 72 58 43 59 44 60 55 62 73 63 46 64 33 65 34 66 39 67
REMARK SMILES IDX 35 68 36 69 38 70 40 71 37 72 59 73 60 74 65 75 61 76 62 77
REMARK SMILES IDX 64 78 66 79 63 80 47 81 48 82 53 83 49 84 50 85 52 86 54 87
REMARK SMILES IDX 51 88
REMARK H PARENT 17 5 13 8 21 31 71 50 45 61
REMARK Flexibility Score: inf
ROOT
ATOM      1  C   UNL A   1      36.116  20.427  24.919  1.00  0.00     0.117 C 
ENDROOT
BRANCH   1   2
ATOM      2  N   UNL A   1      34.871  19.680  24.977  1.00  0.00    -0.355 N 
ATOM      3  C   UNL A   1      33.623  20.086  25.350  1.00  0.00     0.238 C 
ATOM      4  O   UNL A   1      32.834  19.208  25.712  1.00  0.00    -0.273 OA
ATOM      5  H   UNL A   1      34.938  18.737  24.704  1.00  0.00     0.163 HD
BRANCH   3   6
ATOM      6  C   UNL A   1      33.192  21.561  25.254  1.00  0.00     0.161 C 
BRANCH   6   7
ATOM      7  N   UNL A   1      31.825  21.792  25.781  1.00  0.00    -0.198 NA
ATOM      8  H   UNL A   1      31.257  22.038  24.970  1.00  0.00     0.142 HD
BRANCH   7   9
ATOM      9  S   UNL A   1      31.444  22.919  26.954  1.00  0.00     0.241 S 
ATOM     10  O   UNL A   1      32.517  22.879  27.922  1.00  0.00    -0.207 OA
ATOM     11  O   UNL A   1      30.085  22.656  27.352  1.00  0.00    -0.207 OA
BRANCH   9  12
ATOM     12  C   UNL A   1      31.461  24.515  26.178  1.00  0.00     0.082 A 
ATOM     13  N   UNL A   1      31.777  28.296  24.431  1.00  0.00    -0.312 N 
ATOM     14  C   UNL A   1      33.218  28.556  24.567  1.00  0.00     0.130 C 
ATOM     15  C   UNL A   1      31.491  27.023  24.956  1.00  0.00     0.047 A 
ATOM     16  C   UNL A   1      33.858  27.322  25.202  1.00  0.00     0.059 C 
ATOM     17  C   UNL A   1      32.668  26.449  25.450  1.00  0.00    -0.021 A 
ATOM     18  C   UNL A   1      30.297  26.322  25.040  1.00  0.00     0.028 A 
ATOM     19  C   UNL A   1      32.671  25.207  26.074  1.00  0.00     0.027 A 
ATOM     20  C   UNL A   1      30.280  25.066  25.667  1.00  0.00     0.024 A 
BRANCH  13  21
ATOM     21  C   UNL A   1      30.974  29.289  23.911  1.00  0.00     0.223 C 
ATOM     22  C   UNL A   1      30.533  29.214  22.477  1.00  0.00     0.115 C 
ATOM     23  O   UNL A   1      30.585  30.232  24.609  1.00  0.00    -0.275 OA
ENDBRANCH  13  21
ENDBRANCH   9  12
ENDBRANCH   7   9
ENDBRANCH   6   7
BRANCH   6  24
ATOM     24  C   UNL A   1      33.124  21.949  23.733  1.00  0.00     0.010 C 
ATOM     25  C   UNL A   1      31.708  22.315  23.260  1.00  0.00     0.009 C 
ATOM     26  C   UNL A   1      34.068  23.108  23.398  1.00  0.00     0.009 C 
ENDBRANCH   6  24
ENDBRANCH   3   6
ENDBRANCH   1   2
BRANCH   1  27
ATOM     27  C   UNL A   1      37.304  19.483  25.101  1.00  0.00     0.042 C 
BRANCH  27  28
ATOM     28  C   UNL A   1      38.651  20.184  25.199  1.00  0.00     0.118 C 
BRANCH  28  29
ATOM     29  N   UNL A   1      39.713  19.267  25.571  1.00  0.00    -0.352 N 
ATOM     30  C   UNL A   1      40.978  19.503  26.053  1.00  0.00     0.251 C 
ATOM     31  H   UNL A   1      39.489  18.314  25.458  1.00  0.00     0.163 HD
ATOM     32  O   UNL A   1      41.784  18.574  26.051  1.00  0.00    -0.269 OA
BRANCH  30  33
ATOM     33  C   UNL A   1      41.407  20.834  26.560  1.00  0.00     0.039 A 
ATOM     34  C   UNL A   1      41.245  21.105  27.926  1.00  0.00     0.014 A 
ATOM     35  C   UNL A   1      41.868  21.853  25.723  1.00  0.00     0.014 A 
ATOM     36  C   UNL A   1      41.566  22.365  28.444  1.00  0.00     0.010 A 
ATOM     37  C   UNL A   1      42.282  23.077  26.255  1.00  0.00     0.010 A 
ATOM     38  C   UNL A   1      42.107  23.361  27.616  1.00  0.00    -0.014 A 
BRANCH  38  39
ATOM     39  C   UNL A   1      42.432  24.713  28.149  1.00  0.00     0.031 A 
ATOM     40  C   UNL A   1      43.849  25.057  28.540  1.00  0.00     0.074 A 
ATOM     41  C   UNL A   1      41.457  25.629  28.315  1.00  0.00     0.049 A 
ATOM     42  N   UNL A   1      44.321  26.163  29.061  1.00  0.00    -0.248 NA
ATOM     43  C   UNL A   1      44.866  24.009  28.348  1.00  0.00     0.031 C 
ATOM     44  C   UNL A   1      40.037  25.417  28.029  1.00  0.00     0.029 A 
ATOM     45  N   UNL A   1      41.511  26.923  28.773  1.00  0.00    -0.354 N 
ATOM     46  C   UNL A   1      45.673  25.933  29.281  1.00  0.00     0.074 A 
ATOM     47  C   UNL A   1      45.941  24.570  28.882  1.00  0.00     0.031 C 
ATOM     48  C   UNL A   1      39.361  26.547  28.293  1.00  0.00     0.029 A 
ATOM     49  C   UNL A   1      40.291  27.554  28.796  1.00  0.00     0.049 A 
ATOM     50  H   UNL A   1      42.347  27.358  29.058  1.00  0.00     0.167 HD
ATOM     51  C   UNL A   1      46.616  26.786  29.748  1.00  0.00     0.037 A 
ATOM     52  C   UNL A   1      39.957  28.801  29.179  1.00  0.00     0.037 A 
ATOM     53  C   UNL A   1      46.369  28.161  30.094  1.00  0.00     0.049 A 
ATOM     54  C   UNL A   1      41.028  29.739  29.661  1.00  0.00     0.074 A 
ATOM     55  C   UNL A   1      47.277  29.124  30.500  1.00  0.00     0.029 A 
ATOM     56  N   UNL A   1      45.124  28.769  30.067  1.00  0.00    -0.354 N 
ATOM     57  N   UNL A   1      42.315  29.527  29.793  1.00  0.00    -0.248 NA
ATOM     58  C   UNL A   1      40.603  31.095  30.039  1.00  0.00     0.031 C 
ATOM     59  C   UNL A   1      46.575  30.308  30.750  1.00  0.00     0.029 A 
ATOM     60  C   UNL A   1      45.237  30.091  30.464  1.00  0.00     0.049 A 
ATOM     61  H   UNL A   1      44.285  28.326  29.806  1.00  0.00     0.167 HD
ATOM     62  C   UNL A   1      42.854  30.725  30.245  1.00  0.00     0.074 A 
ATOM     63  C   UNL A   1      41.758  31.666  30.348  1.00  0.00     0.031 C 
ATOM     64  C   UNL A   1      44.141  31.019  30.549  1.00  0.00     0.037 A 
BRANCH  51  65
ATOM     65  C   UNL A   1      48.015  26.264  29.901  1.00  0.00     0.057 A 
ATOM     66  C   UNL A   1      48.957  26.364  28.868  1.00  0.00     0.134 A 
ATOM     67  C   UNL A   1      48.441  25.704  31.111  1.00  0.00     0.134 A 
ATOM     68  F   UNL A   1      48.610  26.881  27.680  1.00  0.00    -0.206 F 
ATOM     69  C   UNL A   1      50.266  25.907  29.027  1.00  0.00     0.040 A 
ATOM     70  C   UNL A   1      49.755  25.265  31.291  1.00  0.00     0.040 A 
ATOM     71  F   UNL A   1      47.593  25.586  32.144  1.00  0.00    -0.206 F 
ATOM     72  C   UNL A   1      50.670  25.362  30.245  1.00  0.00     0.006 A 
ENDBRANCH  51  65
BRANCH  52  73
ATOM     73  C   UNL A   1      38.544  29.250  29.103  1.00  0.00     0.057 A 
ATOM     74  C   UNL A   1      38.002  29.731  27.905  1.00  0.00     0.134 A 
ATOM     75  C   UNL A   1      37.709  29.229  30.226  1.00  0.00     0.134 A 
ATOM     76  F   UNL A   1      38.760  29.796  26.800  1.00  0.00    -0.206 F 
ATOM     77  C   UNL A   1      36.688  30.196  27.830  1.00  0.00     0.040 A 
ATOM     78  C   UNL A   1      36.385  29.668  30.160  1.00  0.00     0.040 A 
ATOM     79  F   UNL A   1      38.167  28.775  31.401  1.00  0.00    -0.206 F 
ATOM     80  C   UNL A   1      35.875  30.161  28.960  1.00  0.00     0.006 A 
ENDBRANCH  52  73
BRANCH  64  81
ATOM     81  C   UNL A   1      44.441  32.420  30.989  1.00  0.00     0.057 A 
ATOM     82  C   UNL A   1      44.447  32.782  32.342  1.00  0.00     0.134 A 
ATOM     83  C   UNL A   1      44.768  33.407  30.052  1.00  0.00     0.134 A 
ATOM     84  F   UNL A   1      44.130  31.884  33.287  1.00  0.00    -0.206 F 
ATOM     85  C   UNL A   1      44.749  34.083  32.746  1.00  0.00     0.040 A 
ATOM     86  C   UNL A   1      45.095  34.706  30.445  1.00  0.00     0.040 A 
ATOM     87  F   UNL A   1      44.789  33.123  28.741  1.00  0.00    -0.206 F 
ATOM     88  C   UNL A   1      45.081  35.048  31.795  1.00  0.00     0.006 A 
ENDBRANCH  64  81
ENDBRANCH  38  39
ENDBRANCH  30  33
ENDBRANCH  28  29
ENDBRANCH  27  28
ENDBRANCH   1  27
TORSDOF 15
ENDMDL
MODEL 3
REMARK VINA RESULT:     -11.9      3.117      8.788
REMARK SMILES CC(=O)N1CCc2cc(S(=O)(=O)N[C@@H](C(=O)NCCCNC(=O)c3ccc(-c4c5nc(c(-c6c(F)cccc6F)c6ccc([nH]6)c(-c6c(F)cccc6F)c6nc(c(-c7c(F)cccc7F)c7ccc4[nH]7)C=C6)C=C5)cc3)C(C)C)ccc21
REMARK SMILES IDX 18 1 17 2 15 3 16 4 14 6 13 7 10 9 11 10 12 11 9 12 4 13
REMARK SMILES IDX 5 14 83 15 6 16 7 17 82 18 8 19 81 20 2 21 1 22 3 23 78 24
REMARK SMILES IDX 79 25 80 26 19 27 20 28 21 29 22 30 23 32 24 33 25 34 77 35
REMARK SMILES IDX 26 36 76 37 27 38 28 39 29 40 70 41 30 42 75 43 69 44 71 45
REMARK SMILES IDX 31 46 74 47 68 48 67 49 32 51 58 52 41 53 57 54 42 55 45 56
REMARK SMILES IDX 56 57 72 58 43 59 44 60 55 62 73 63 46 64 33 65 34 66 39 67
REMARK SMILES IDX 35 68 36 69 38 70 40 71 37 72 59 73 60 74 65 75 61 76 62 77
REMARK SMILES IDX 64 78 66 79 63 80 47 81 48 82 53 83 49 84 50 85 52 86 54 87
REMARK SMILES IDX 51 88
REMARK H PARENT 17 5 13 8 21 31 71 50 45 61
REMARK Flexibility Score: inf
ROOT
ATOM      1  C   UNL A   1      31.559  30.103  25.250  1.00  0.00     0.117 C 
ENDROOT
BRANCH   1   2
ATOM      2  N   UNL A   1      30.683  29.909  24.107  1.00  0.00    -0.355 N 
ATOM      3  C   UNL A   1      30.727  28.968  23.120  1.00  0.00     0.238 C 
ATOM      4  O   UNL A   1      30.155  29.241  22.060  1.00  0.00    -0.273 OA
ATOM      5  H   UNL A   1      29.944  30.555  24.034  1.00  0.00     0.163 HD
BRANCH   3   6
ATOM      6  C   UNL A   1      31.394  27.598  23.340  1.00  0.00     0.161 C 
BRANCH   6   7
ATOM      7  N   UNL A   1      31.614  26.859  22.074  1.00  0.00    -0.198 NA
ATOM      8  H   UNL A   1      30.987  26.055  22.114  1.00  0.00     0.142 HD
BRANCH   7   9
ATOM      9  S   UNL A   1      33.090  26.253  21.579  1.00  0.00     0.241 S 
ATOM     10  O   UNL A   1      34.074  27.262  21.901  1.00  0.00    -0.207 OA
ATOM     11  O   UNL A   1      32.917  25.803  20.221  1.00  0.00    -0.207 OA
BRANCH   9  12
ATOM     12  C   UNL A   1      33.429  24.818  22.566  1.00  0.00     0.082 A 
ATOM     13  N   UNL A   1      34.406  21.601  25.045  1.00  0.00    -0.312 N 
ATOM     14  C   UNL A   1      35.200  22.272  26.086  1.00  0.00     0.130 C 
ATOM     15  C   UNL A   1      33.962  22.563  24.119  1.00  0.00     0.047 A 
ATOM     16  C   UNL A   1      35.212  23.768  25.775  1.00  0.00     0.059 C 
ATOM     17  C   UNL A   1      34.447  23.822  24.489  1.00  0.00    -0.021 A 
ATOM     18  C   UNL A   1      33.174  22.436  22.986  1.00  0.00     0.028 A 
ATOM     19  C   UNL A   1      34.205  24.955  23.721  1.00  0.00     0.027 A 
ATOM     20  C   UNL A   1      32.917  23.568  22.196  1.00  0.00     0.024 A 
BRANCH  13  21
ATOM     21  C   UNL A   1      34.280  20.230  25.093  1.00  0.00     0.223 C 
ATOM     22  C   UNL A   1      32.967  19.616  25.490  1.00  0.00     0.115 C 
ATOM     23  O   UNL A   1      35.220  19.487  24.790  1.00  0.00    -0.275 OA
ENDBRANCH  13  21
ENDBRANCH   9  12
ENDBRANCH   7   9
ENDBRANCH   6   7
BRANCH   6  24
ATOM     24  C   UNL A   1      30.407  26.707  24.178  1.00  0.00     0.010 C 
ATOM     25  C   UNL A   1      29.918  25.462  23.420  1.00  0.00     0.009 C 
ATOM     26  C   UNL A   1      31.029  26.260  25.505  1.00  0.00     0.009 C 
ENDBRANCH   6  24
ENDBRANCH   3   6
ENDBRANCH   1   2
BRANCH   1  27
ATOM     27  C   UNL A   1      31.215  31.413  25.959  1.00  0.00     0.042 C 
BRANCH  27  28
ATOM     28  C   UNL A   1      32.204  31.815  27.043  1.00  0.00     0.118 C 
BRANCH  28  29
ATOM     29  N   UNL A   1      32.160  33.241  27.314  1.00  0.00    -0.352 N 
ATOM     30  C   UNL A   1      32.957  34.031  28.107  1.00  0.00     0.251 C 
ATOM     31  H   UNL A   1      31.437  33.723  26.850  1.00  0.00     0.163 HD
ATOM     32  O   UNL A   1      32.566  35.165  28.378  1.00  0.00    -0.269 OA
BRANCH  30  33
ATOM     33  C   UNL A   1      34.257  33.562  28.656  1.00  0.00     0.039 A 
ATOM     34  C   UNL A   1      35.421  33.832  27.923  1.00  0.00     0.014 A 
ATOM     35  C   UNL A   1      34.357  32.783  29.813  1.00  0.00     0.014 A 
ATOM     36  C   UNL A   1      36.662  33.354  28.358  1.00  0.00     0.010 A 
ATOM     37  C   UNL A   1      35.607  32.390  30.298  1.00  0.00     0.010 A 
ATOM     38  C   UNL A   1      36.772  32.642  29.562  1.00  0.00    -0.014 A 
BRANCH  38  39
ATOM     39  C   UNL A   1      38.082  32.107  30.025  1.00  0.00     0.031 A 
ATOM     40  C   UNL A   1      38.597  30.790  29.496  1.00  0.00     0.074 A 
ATOM     41  C   UNL A   1      38.803  32.780  30.944  1.00  0.00     0.049 A 
ATOM     42  N   UNL A   1      39.691  30.141  29.809  1.00  0.00    -0.248 NA
ATOM     43  C   UNL A   1      37.757  30.096  28.506  1.00  0.00     0.031 C 
ATOM     44  C   UNL A   1      38.404  34.037  31.580  1.00  0.00     0.029 A 
ATOM     45  N   UNL A   1      40.023  32.498  31.509  1.00  0.00    -0.354 N 
ATOM     46  C   UNL A   1      39.655  28.959  29.080  1.00  0.00     0.074 A 
ATOM     47  C   UNL A   1      38.411  28.955  28.342  1.00  0.00     0.031 C 
ATOM     48  C   UNL A   1      39.371  34.429  32.426  1.00  0.00     0.029 A 
ATOM     49  C   UNL A   1      40.443  33.438  32.418  1.00  0.00     0.049 A 
ATOM     50  H   UNL A   1      40.548  31.695  31.284  1.00  0.00     0.167 HD
ATOM     51  C   UNL A   1      40.583  27.975  29.006  1.00  0.00     0.037 A 
ATOM     52  C   UNL A   1      41.564  33.497  33.162  1.00  0.00     0.037 A 
ATOM     53  C   UNL A   1      41.847  27.998  29.693  1.00  0.00     0.049 A 
ATOM     54  C   UNL A   1      42.595  32.410  33.036  1.00  0.00     0.074 A 
ATOM     55  C   UNL A   1      42.886  27.085  29.617  1.00  0.00     0.029 A 
ATOM     56  N   UNL A   1      42.247  28.989  30.575  1.00  0.00    -0.354 N 
ATOM     57  N   UNL A   1      42.576  31.336  32.285  1.00  0.00    -0.248 NA
ATOM     58  C   UNL A   1      43.808  32.547  33.855  1.00  0.00     0.031 C 
ATOM     59  C   UNL A   1      43.903  27.508  30.480  1.00  0.00     0.029 A 
ATOM     60  C   UNL A   1      43.512  28.702  31.063  1.00  0.00     0.049 A 
ATOM     61  H   UNL A   1      41.713  29.778  30.819  1.00  0.00     0.167 HD
ATOM     62  C   UNL A   1      43.780  30.685  32.521  1.00  0.00     0.074 A 
ATOM     63  C   UNL A   1      44.513  31.492  33.474  1.00  0.00     0.031 C 
ATOM     64  C   UNL A   1      44.235  29.521  31.999  1.00  0.00     0.037 A 
BRANCH  51  65
ATOM     65  C   UNL A   1      40.276  26.789  28.138  1.00  0.00     0.057 A 
ATOM     66  C   UNL A   1      39.436  25.755  28.573  1.00  0.00     0.134 A 
ATOM     67  C   UNL A   1      40.782  26.707  26.836  1.00  0.00     0.134 A 
ATOM     68  F   UNL A   1      38.927  25.769  29.814  1.00  0.00    -0.206 F 
ATOM     69  C   UNL A   1      39.127  24.672  27.749  1.00  0.00     0.040 A 
ATOM     70  C   UNL A   1      40.460  25.640  25.993  1.00  0.00     0.040 A 
ATOM     71  F   UNL A   1      41.585  27.667  26.354  1.00  0.00    -0.206 F 
ATOM     72  C   UNL A   1      39.634  24.617  26.452  1.00  0.00     0.006 A 
ENDBRANCH  51  65
BRANCH  52  73
ATOM     73  C   UNL A   1      41.788  34.641  34.082  1.00  0.00     0.057 A 
ATOM     74  C   UNL A   1      42.414  35.813  33.639  1.00  0.00     0.134 A 
ATOM     75  C   UNL A   1      41.402  34.584  35.426  1.00  0.00     0.134 A 
ATOM     76  F   UNL A   1      42.825  35.918  32.367  1.00  0.00    -0.206 F 
ATOM     77  C   UNL A   1      42.668  36.879  34.504  1.00  0.00     0.040 A 
ATOM     78  C   UNL A   1      41.628  35.652  36.297  1.00  0.00     0.040 A 
ATOM     79  F   UNL A   1      40.794  33.492  35.910  1.00  0.00    -0.206 F 
ATOM     80  C   UNL A   1      42.271  36.800  35.837  1.00  0.00     0.006 A 
ENDBRANCH  52  73
BRANCH  64  81
ATOM     81  C   UNL A   1      45.601  29.066  32.418  1.00  0.00     0.057 A 
ATOM     82  C   UNL A   1      45.791  28.213  33.511  1.00  0.00     0.134 A 
ATOM     83  C   UNL A   1      46.735  29.455  31.694  1.00  0.00     0.134 A 
ATOM     84  F   UNL A   1      44.745  27.816  34.253  1.00  0.00    -0.206 F 
ATOM     85  C   UNL A   1      47.064  27.777  33.882  1.00  0.00     0.040 A 
ATOM     86  C   UNL A   1      48.010  29.007  32.040  1.00  0.00     0.040 A 
ATOM     87  F   UNL A   1      46.620  30.265  30.630  1.00  0.00    -0.206 F 
ATOM     88  C   UNL A   1      48.177  28.169  33.140  1.00  0.00     0.006 A 
ENDBRANCH  64  81
ENDBRANCH  38  39
ENDBRANCH  30  33
ENDBRANCH  28  29
ENDBRANCH  27  28
ENDBRANCH   1  27
TORSDOF 15
ENDMDL
