MODEL 1
REMARK VINA RESULT:     -12.2      0.000      0.000
REMARK SMILES C[C@@H]1CN(S(=O)(=O)c2ccc(Cl)c(C(=O)NCCCNC(=O)c3ccc(-c4c5nc(c(-c6c(F)cccc6F)c6ccc([nH]6)c(-c6c(F)cccc6F)c6nc(c(-c7c(F)cccc7F)c7ccc4[nH]7)C=C6)C=C5)cc3)c2Cl)C[C@H]1C
REMARK SMILES IDX 18 1 17 2 16 3 14 4 15 5 13 7 8 8 9 9 77 10 10 11 78 12
REMARK SMILES IDX 11 13 12 14 5 15 6 16 7 17 4 18 1 19 2 20 3 21 80 22 79 23
REMARK SMILES IDX 81 24 19 25 20 26 21 27 22 29 23 30 24 31 76 32 25 33 75 34
REMARK SMILES IDX 26 35 27 36 28 37 69 38 29 39 74 40 68 41 70 42 30 43 73 44
REMARK SMILES IDX 67 45 66 46 31 48 57 49 40 50 56 51 41 52 44 53 55 54 71 55
REMARK SMILES IDX 42 56 43 57 54 59 72 60 45 61 32 62 33 63 38 64 34 65 35 66
REMARK SMILES IDX 37 67 39 68 36 69 58 70 59 71 64 72 60 73 61 74 63 75 65 76
REMARK SMILES IDX 62 77 46 78 47 79 52 80 48 81 49 82 51 83 53 84 50 85
REMARK H PARENT 16 6 20 28 70 47 44 58
REMARK Flexibility Score: inf
ROOT
ATOM      1  C   UNL A   1      37.287  19.583  25.016  1.00  0.00     0.042 C 
ENDROOT
BRANCH   1   2
ATOM      2  C   UNL A   1      36.095  20.502  24.714  1.00  0.00     0.118 C 
BRANCH   2   3
ATOM      3  N   UNL A   1      35.206  20.558  25.862  1.00  0.00    -0.352 N 
ATOM      4  C   UNL A   1      34.566  21.582  26.510  1.00  0.00     0.254 C 
ATOM      5  O   UNL A   1      34.166  21.343  27.652  1.00  0.00    -0.269 OA
ATOM      6  H   UNL A   1      35.027  19.675  26.258  1.00  0.00     0.163 HD
BRANCH   4   7
ATOM      7  C   UNL A   1      34.276  22.934  25.953  1.00  0.00     0.078 A 
ATOM      8  C   UNL A   1      32.535  24.650  25.709  1.00  0.00     0.102 A 
ATOM      9  C   UNL A   1      33.537  25.621  25.598  1.00  0.00     0.025 A 
ATOM     10  C   UNL A   1      32.897  23.297  25.824  1.00  0.00     0.075 A 
ATOM     11  C   UNL A   1      34.872  25.264  25.590  1.00  0.00     0.023 A 
ATOM     12  Cl  UNL A   1      31.697  22.043  25.694  1.00  0.00    -0.082 Cl
ATOM     13  C   UNL A   1      35.245  23.944  25.842  1.00  0.00     0.055 A 
ATOM     14  Cl  UNL A   1      36.928  23.783  26.139  1.00  0.00    -0.083 Cl
BRANCH   8  15
ATOM     15  S   UNL A   1      30.894  25.293  26.012  1.00  0.00     0.244 S 
ATOM     16  O   UNL A   1      31.071  26.562  26.693  1.00  0.00    -0.207 OA
ATOM     17  O   UNL A   1      30.058  24.279  26.611  1.00  0.00    -0.207 OA
BRANCH  15  18
ATOM     18  N   UNL A   1      30.250  25.661  24.473  1.00  0.00    -0.197 NA
ATOM     19  C   UNL A   1      31.722  25.999  21.045  1.00  0.00     0.009 C 
ATOM     20  C   UNL A   1      31.492  26.311  22.515  1.00  0.00     0.005 C 
ATOM     21  C   UNL A   1      30.941  25.111  23.276  1.00  0.00     0.106 C 
ATOM     22  C   UNL A   1      30.427  27.372  22.777  1.00  0.00     0.005 C 
ATOM     23  C   UNL A   1      30.102  27.142  24.255  1.00  0.00     0.106 C 
ATOM     24  C   UNL A   1      30.912  28.786  22.490  1.00  0.00     0.009 C 
ENDBRANCH  15  18
ENDBRANCH   8  15
ENDBRANCH   4   7
ENDBRANCH   2   3
ENDBRANCH   1   2
BRANCH   1  25
ATOM     25  C   UNL A   1      38.579  20.290  25.405  1.00  0.00     0.118 C 
BRANCH  25  26
ATOM     26  N   UNL A   1      39.668  19.357  25.628  1.00  0.00    -0.352 N 
ATOM     27  C   UNL A   1      40.966  19.585  26.018  1.00  0.00     0.251 C 
ATOM     28  H   UNL A   1      39.441  18.411  25.474  1.00  0.00     0.163 HD
ATOM     29  O   UNL A   1      41.785  18.675  25.908  1.00  0.00    -0.269 OA
BRANCH  27  30
ATOM     30  C   UNL A   1      41.405  20.896  26.560  1.00  0.00     0.039 A 
ATOM     31  C   UNL A   1      41.277  21.127  27.936  1.00  0.00     0.014 A 
ATOM     32  C   UNL A   1      41.861  21.927  25.735  1.00  0.00     0.014 A 
ATOM     33  C   UNL A   1      41.638  22.362  28.482  1.00  0.00     0.010 A 
ATOM     34  C   UNL A   1      42.296  23.133  26.289  1.00  0.00     0.010 A 
ATOM     35  C   UNL A   1      42.171  23.372  27.666  1.00  0.00    -0.014 A 
BRANCH  35  36
ATOM     36  C   UNL A   1      42.578  24.687  28.227  1.00  0.00     0.031 A 
ATOM     37  C   UNL A   1      41.557  25.768  28.451  1.00  0.00     0.074 A 
ATOM     38  C   UNL A   1      43.880  24.937  28.471  1.00  0.00     0.049 A 
ATOM     39  N   UNL A   1      41.727  27.000  28.862  1.00  0.00    -0.248 NA
ATOM     40  C   UNL A   1      40.160  25.429  28.140  1.00  0.00     0.031 C 
ATOM     41  C   UNL A   1      44.977  23.998  28.240  1.00  0.00     0.029 A 
ATOM     42  N   UNL A   1      44.499  26.066  28.945  1.00  0.00    -0.354 N 
ATOM     43  C   UNL A   1      40.469  27.589  28.830  1.00  0.00     0.074 A 
ATOM     44  C   UNL A   1      39.553  26.593  28.318  1.00  0.00     0.031 C 
ATOM     45  C   UNL A   1      46.135  24.585  28.581  1.00  0.00     0.029 A 
ATOM     46  C   UNL A   1      45.865  25.950  29.025  1.00  0.00     0.049 A 
ATOM     47  H   UNL A   1      44.012  26.881  29.204  1.00  0.00     0.167 HD
ATOM     48  C   UNL A   1      40.106  28.838  29.210  1.00  0.00     0.037 A 
ATOM     49  C   UNL A   1      46.799  26.843  29.404  1.00  0.00     0.037 A 
ATOM     50  C   UNL A   1      41.013  29.816  29.753  1.00  0.00     0.049 A 
ATOM     51  C   UNL A   1      46.374  28.211  29.855  1.00  0.00     0.074 A 
ATOM     52  C   UNL A   1      40.728  31.074  30.253  1.00  0.00     0.029 A 
ATOM     53  N   UNL A   1      42.385  29.644  29.859  1.00  0.00    -0.354 N 
ATOM     54  N   UNL A   1      45.169  28.726  29.902  1.00  0.00    -0.248 NA
ATOM     55  C   UNL A   1      47.434  29.118  30.316  1.00  0.00     0.031 C 
ATOM     56  C   UNL A   1      41.934  31.680  30.622  1.00  0.00     0.029 A 
ATOM     57  C   UNL A   1      42.965  30.783  30.393  1.00  0.00     0.049 A 
ATOM     58  H   UNL A   1      42.875  28.832  29.594  1.00  0.00     0.167 HD
ATOM     59  C   UNL A   1      45.322  30.008  30.411  1.00  0.00     0.074 A 
ATOM     60  C   UNL A   1      46.735  30.187  30.673  1.00  0.00     0.031 C 
ATOM     61  C   UNL A   1      44.375  30.951  30.641  1.00  0.00     0.037 A 
BRANCH  48  62
ATOM     62  C   UNL A   1      38.661  29.215  29.041  1.00  0.00     0.057 A 
ATOM     63  C   UNL A   1      38.137  29.614  27.803  1.00  0.00     0.134 A 
ATOM     64  C   UNL A   1      37.782  29.176  30.130  1.00  0.00     0.134 A 
ATOM     65  F   UNL A   1      38.927  29.682  26.721  1.00  0.00    -0.206 F 
ATOM     66  C   UNL A   1      36.803  30.001  27.664  1.00  0.00     0.040 A 
ATOM     67  C   UNL A   1      36.439  29.534  29.997  1.00  0.00     0.040 A 
ATOM     68  F   UNL A   1      38.212  28.795  31.342  1.00  0.00    -0.206 F 
ATOM     69  C   UNL A   1      35.948  29.959  28.764  1.00  0.00     0.006 A 
ENDBRANCH  48  62
BRANCH  49  70
ATOM     70  C   UNL A   1      48.230  26.450  29.390  1.00  0.00     0.057 A 
ATOM     71  C   UNL A   1      49.044  26.730  28.286  1.00  0.00     0.134 A 
ATOM     72  C   UNL A   1      48.825  25.827  30.493  1.00  0.00     0.134 A 
ATOM     73  F   UNL A   1      48.526  27.310  27.195  1.00  0.00    -0.206 F 
ATOM     74  C   UNL A   1      50.401  26.403  28.280  1.00  0.00     0.040 A 
ATOM     75  C   UNL A   1      50.185  25.513  30.508  1.00  0.00     0.040 A 
ATOM     76  F   UNL A   1      48.098  25.543  31.582  1.00  0.00    -0.206 F 
ATOM     77  C   UNL A   1      50.976  25.799  29.397  1.00  0.00     0.006 A 
ENDBRANCH  49  70
BRANCH  61  78
ATOM     78  C   UNL A   1      44.835  32.258  31.218  1.00  0.00     0.057 A 
ATOM     79  C   UNL A   1      45.184  33.340  30.402  1.00  0.00     0.134 A 
ATOM     80  C   UNL A   1      44.891  32.445  32.605  1.00  0.00     0.134 A 
ATOM     81  F   UNL A   1      45.165  33.220  29.067  1.00  0.00    -0.206 F 
ATOM     82  C   UNL A   1      45.589  34.561  30.946  1.00  0.00     0.040 A 
ATOM     83  C   UNL A   1      45.272  33.668  33.160  1.00  0.00     0.040 A 
ATOM     84  F   UNL A   1      44.562  31.449  33.441  1.00  0.00    -0.206 F 
ATOM     85  C   UNL A   1      45.627  34.729  32.330  1.00  0.00     0.006 A 
ENDBRANCH  61  78
ENDBRANCH  35  36
ENDBRANCH  27  30
ENDBRANCH  25  26
ENDBRANCH   1  25
TORSDOF 12
ENDMDL
MODEL 2
REMARK VINA RESULT:     -12.1      1.589      2.287
REMARK SMILES C[C@@H]1CN(S(=O)(=O)c2ccc(Cl)c(C(=O)NCCCNC(=O)c3ccc(-c4c5nc(c(-c6c(F)cccc6F)c6ccc([nH]6)c(-c6c(F)cccc6F)c6nc(c(-c7c(F)cccc7F)c7ccc4[nH]7)C=C6)C=C5)cc3)c2Cl)C[C@H]1C
REMARK SMILES IDX 18 1 17 2 16 3 14 4 15 5 13 7 8 8 9 9 77 10 10 11 78 12
REMARK SMILES IDX 11 13 12 14 5 15 6 16 7 17 4 18 1 19 2 20 3 21 80 22 79 23
REMARK SMILES IDX 81 24 19 25 20 26 21 27 22 29 23 30 24 31 76 32 25 33 75 34
REMARK SMILES IDX 26 35 27 36 28 37 69 38 29 39 74 40 68 41 70 42 30 43 73 44
REMARK SMILES IDX 67 45 66 46 31 48 57 49 40 50 56 51 41 52 44 53 55 54 71 55
REMARK SMILES IDX 42 56 43 57 54 59 72 60 45 61 32 62 33 63 38 64 34 65 35 66
REMARK SMILES IDX 37 67 39 68 36 69 58 70 59 71 64 72 60 73 61 74 63 75 65 76
REMARK SMILES IDX 62 77 46 78 47 79 52 80 48 81 49 82 51 83 53 84 50 85
REMARK H PARENT 16 6 20 28 70 47 44 58
REMARK Flexibility Score: inf
ROOT
ATOM      1  C   UNL A   1      37.424  19.467  24.945  1.00  0.00     0.042 C 
ENDROOT
BRANCH   1   2
ATOM      2  C   UNL A   1      36.149  20.322  24.947  1.00  0.00     0.118 C 
BRANCH   2   3
ATOM      3  N   UNL A   1      34.990  19.487  25.218  1.00  0.00    -0.352 N 
ATOM      4  C   UNL A   1      33.639  19.679  25.091  1.00  0.00     0.254 C 
ATOM      5  O   UNL A   1      32.914  18.911  25.727  1.00  0.00    -0.269 OA
ATOM      6  H   UNL A   1      35.226  18.597  25.567  1.00  0.00     0.163 HD
BRANCH   4   7
ATOM      7  C   UNL A   1      32.971  20.696  24.231  1.00  0.00     0.078 A 
ATOM      8  C   UNL A   1      32.964  23.071  23.602  1.00  0.00     0.102 A 
ATOM      9  C   UNL A   1      32.397  22.722  22.371  1.00  0.00     0.025 A 
ATOM     10  C   UNL A   1      33.197  22.071  24.562  1.00  0.00     0.075 A 
ATOM     11  C   UNL A   1      32.055  21.412  22.094  1.00  0.00     0.023 A 
ATOM     12  Cl  UNL A   1      33.645  22.490  26.189  1.00  0.00    -0.082 Cl
ATOM     13  C   UNL A   1      32.407  20.394  22.980  1.00  0.00     0.055 A 
ATOM     14  Cl  UNL A   1      32.214  18.832  22.295  1.00  0.00    -0.083 Cl
BRANCH   8  15
ATOM     15  S   UNL A   1      33.626  24.731  23.682  1.00  0.00     0.244 S 
ATOM     16  O   UNL A   1      33.528  25.276  22.341  1.00  0.00    -0.207 OA
ATOM     17  O   UNL A   1      34.904  24.731  24.356  1.00  0.00    -0.207 OA
BRANCH  15  18
ATOM     18  N   UNL A   1      32.527  25.620  24.642  1.00  0.00    -0.197 NA
ATOM     19  C   UNL A   1      31.232  29.134  24.544  1.00  0.00     0.009 C 
ATOM     20  C   UNL A   1      32.251  28.012  24.666  1.00  0.00     0.005 C 
ATOM     21  C   UNL A   1      31.773  26.729  23.998  1.00  0.00     0.106 C 
ATOM     22  C   UNL A   1      32.515  27.550  26.096  1.00  0.00     0.005 C 
ATOM     23  C   UNL A   1      33.176  26.187  25.876  1.00  0.00     0.106 C 
ATOM     24  C   UNL A   1      33.391  28.514  26.882  1.00  0.00     0.009 C 
ENDBRANCH  15  18
ENDBRANCH   8  15
ENDBRANCH   4   7
ENDBRANCH   2   3
ENDBRANCH   1   2
BRANCH   1  25
ATOM     25  C   UNL A   1      38.692  20.178  25.398  1.00  0.00     0.118 C 
BRANCH  25  26
ATOM     26  N   UNL A   1      39.781  19.251  25.648  1.00  0.00    -0.352 N 
ATOM     27  C   UNL A   1      41.078  19.487  26.034  1.00  0.00     0.251 C 
ATOM     28  H   UNL A   1      39.553  18.301  25.521  1.00  0.00     0.163 HD
ATOM     29  O   UNL A   1      41.897  18.575  25.950  1.00  0.00    -0.269 OA
BRANCH  27  30
ATOM     30  C   UNL A   1      41.517  20.813  26.540  1.00  0.00     0.039 A 
ATOM     31  C   UNL A   1      41.534  21.028  27.925  1.00  0.00     0.014 A 
ATOM     32  C   UNL A   1      41.833  21.870  25.682  1.00  0.00     0.014 A 
ATOM     33  C   UNL A   1      41.898  22.274  28.443  1.00  0.00     0.010 A 
ATOM     34  C   UNL A   1      42.274  23.089  26.200  1.00  0.00     0.010 A 
ATOM     35  C   UNL A   1      42.293  23.312  27.585  1.00  0.00    -0.014 A 
BRANCH  35  36
ATOM     36  C   UNL A   1      42.703  24.640  28.113  1.00  0.00     0.031 A 
ATOM     37  C   UNL A   1      41.675  25.711  28.360  1.00  0.00     0.074 A 
ATOM     38  C   UNL A   1      44.009  24.911  28.307  1.00  0.00     0.049 A 
ATOM     39  N   UNL A   1      41.845  26.951  28.748  1.00  0.00    -0.248 NA
ATOM     40  C   UNL A   1      40.273  25.350  28.104  1.00  0.00     0.031 C 
ATOM     41  C   UNL A   1      45.109  23.982  28.049  1.00  0.00     0.029 A 
ATOM     42  N   UNL A   1      44.630  26.053  28.743  1.00  0.00    -0.354 N 
ATOM     43  C   UNL A   1      40.578  27.523  28.754  1.00  0.00     0.074 A 
ATOM     44  C   UNL A   1      39.657  26.509  28.288  1.00  0.00     0.031 C 
ATOM     45  C   UNL A   1      46.271  24.588  28.340  1.00  0.00     0.029 A 
ATOM     46  C   UNL A   1      45.999  25.956  28.776  1.00  0.00     0.049 A 
ATOM     47  H   UNL A   1      44.141  26.865  29.009  1.00  0.00     0.167 HD
ATOM     48  C   UNL A   1      40.212  28.772  29.129  1.00  0.00     0.037 A 
ATOM     49  C   UNL A   1      46.934  26.866  29.109  1.00  0.00     0.037 A 
ATOM     50  C   UNL A   1      41.125  29.769  29.626  1.00  0.00     0.049 A 
ATOM     51  C   UNL A   1      46.507  28.234  29.557  1.00  0.00     0.074 A 
ATOM     52  C   UNL A   1      40.842  31.030  30.120  1.00  0.00     0.029 A 
ATOM     53  N   UNL A   1      42.503  29.616  29.685  1.00  0.00    -0.354 N 
ATOM     54  N   UNL A   1      45.298  28.734  29.640  1.00  0.00    -0.248 NA
ATOM     55  C   UNL A   1      47.571  29.161  29.967  1.00  0.00     0.031 C 
ATOM     56  C   UNL A   1      42.053  31.657  30.437  1.00  0.00     0.029 A 
ATOM     57  C   UNL A   1      43.086  30.770  30.183  1.00  0.00     0.049 A 
ATOM     58  H   UNL A   1      42.994  28.807  29.413  1.00  0.00     0.167 HD
ATOM     59  C   UNL A   1      45.452  30.026  30.126  1.00  0.00     0.074 A 
ATOM     60  C   UNL A   1      46.872  30.226  30.335  1.00  0.00     0.031 C 
ATOM     61  C   UNL A   1      44.502  30.959  30.378  1.00  0.00     0.037 A 
BRANCH  48  62
ATOM     62  C   UNL A   1      38.758  29.128  29.008  1.00  0.00     0.057 A 
ATOM     63  C   UNL A   1      38.198  29.566  27.799  1.00  0.00     0.134 A 
ATOM     64  C   UNL A   1      37.904  29.031  30.113  1.00  0.00     0.134 A 
ATOM     65  F   UNL A   1      38.962  29.691  26.703  1.00  0.00    -0.206 F 
ATOM     66  C   UNL A   1      36.855  29.933  27.705  1.00  0.00     0.040 A 
ATOM     67  C   UNL A   1      36.552  29.368  30.025  1.00  0.00     0.040 A 
ATOM     68  F   UNL A   1      38.369  28.611  31.299  1.00  0.00    -0.206 F 
ATOM     69  C   UNL A   1      36.026  29.832  28.821  1.00  0.00     0.006 A 
ENDBRANCH  48  62
BRANCH  49  70
ATOM     70  C   UNL A   1      48.368  26.491  29.048  1.00  0.00     0.057 A 
ATOM     71  C   UNL A   1      49.007  25.902  30.146  1.00  0.00     0.134 A 
ATOM     72  C   UNL A   1      49.121  26.671  27.881  1.00  0.00     0.134 A 
ATOM     73  F   UNL A   1      48.341  25.720  31.295  1.00  0.00    -0.206 F 
ATOM     74  C   UNL A   1      50.344  25.507  30.087  1.00  0.00     0.040 A 
ATOM     75  C   UNL A   1      50.452  26.261  27.801  1.00  0.00     0.040 A 
ATOM     76  F   UNL A   1      48.561  27.220  26.795  1.00  0.00    -0.206 F 
ATOM     77  C   UNL A   1      51.068  25.679  28.908  1.00  0.00     0.006 A 
ENDBRANCH  49  70
BRANCH  61  78
ATOM     78  C   UNL A   1      44.965  32.279  30.920  1.00  0.00     0.057 A 
ATOM     79  C   UNL A   1      45.276  33.353  30.078  1.00  0.00     0.134 A 
ATOM     80  C   UNL A   1      45.062  32.489  32.302  1.00  0.00     0.134 A 
ATOM     81  F   UNL A   1      45.216  33.212  28.746  1.00  0.00    -0.206 F 
ATOM     82  C   UNL A   1      45.684  34.587  30.591  1.00  0.00     0.040 A 
ATOM     83  C   UNL A   1      45.446  33.723  32.827  1.00  0.00     0.040 A 
ATOM     84  F   UNL A   1      44.771  31.502  33.163  1.00  0.00    -0.206 F 
ATOM     85  C   UNL A   1      45.763  34.776  31.970  1.00  0.00     0.006 A 
ENDBRANCH  61  78
ENDBRANCH  35  36
ENDBRANCH  27  30
ENDBRANCH  25  26
ENDBRANCH   1  25
TORSDOF 12
ENDMDL
MODEL 3
REMARK VINA RESULT:     -12.1      4.410      9.454
REMARK SMILES C[C@@H]1CN(S(=O)(=O)c2ccc(Cl)c(C(=O)NCCCNC(=O)c3ccc(-c4c5nc(c(-c6c(F)cccc6F)c6ccc([nH]6)c(-c6c(F)cccc6F)c6nc(c(-c7c(F)cccc7F)c7ccc4[nH]7)C=C6)C=C5)cc3)c2Cl)C[C@H]1C
REMARK SMILES IDX 18 1 17 2 16 3 14 4 15 5 13 7 8 8 9 9 77 10 10 11 78 12
REMARK SMILES IDX 11 13 12 14 5 15 6 16 7 17 4 18 1 19 2 20 3 21 80 22 79 23
REMARK SMILES IDX 81 24 19 25 20 26 21 27 22 29 23 30 24 31 76 32 25 33 75 34
REMARK SMILES IDX 26 35 27 36 28 37 69 38 29 39 74 40 68 41 70 42 30 43 73 44
REMARK SMILES IDX 67 45 66 46 31 48 57 49 40 50 56 51 41 52 44 53 55 54 71 55
REMARK SMILES IDX 42 56 43 57 54 59 72 60 45 61 32 62 33 63 38 64 34 65 35 66
REMARK SMILES IDX 37 67 39 68 36 69 58 70 59 71 64 72 60 73 61 74 63 75 65 76
REMARK SMILES IDX 62 77 46 78 47 79 52 80 48 81 49 82 51 83 53 84 50 85
REMARK H PARENT 16 6 20 28 70 47 44 58
REMARK Flexibility Score: inf
ROOT
ATOM      1  C   UNL A   1      31.029  32.041  26.204  1.00  0.00     0.042 C 
ENDROOT
BRANCH   1   2
ATOM      2  C   UNL A   1      31.073  30.718  25.427  1.00  0.00     0.118 C 
BRANCH   2   3
ATOM      3  N   UNL A   1      30.267  30.822  24.222  1.00  0.00    -0.352 N 
ATOM      4  C   UNL A   1      29.950  29.941  23.221  1.00  0.00     0.254 C 
ATOM      5  O   UNL A   1      29.532  30.434  22.170  1.00  0.00    -0.269 OA
ATOM      6  H   UNL A   1      29.864  31.712  24.100  1.00  0.00     0.163 HD
BRANCH   4   7
ATOM      7  C   UNL A   1      30.025  28.455  23.297  1.00  0.00     0.078 A 
ATOM      8  C   UNL A   1      31.454  26.570  23.963  1.00  0.00     0.102 A 
ATOM      9  C   UNL A   1      30.305  25.792  24.150  1.00  0.00     0.025 A 
ATOM     10  C   UNL A   1      31.326  27.883  23.477  1.00  0.00     0.075 A 
ATOM     11  C   UNL A   1      29.053  26.296  23.854  1.00  0.00     0.023 A 
ATOM     12  Cl  UNL A   1      32.727  28.785  22.979  1.00  0.00    -0.082 Cl
ATOM     13  C   UNL A   1      28.902  27.638  23.504  1.00  0.00     0.055 A 
ATOM     14  Cl  UNL A   1      27.261  28.142  23.526  1.00  0.00    -0.083 Cl
BRANCH   8  15
ATOM     15  S   UNL A   1      32.946  25.891  24.678  1.00  0.00     0.244 S 
ATOM     16  O   UNL A   1      33.132  26.561  25.951  1.00  0.00    -0.207 OA
ATOM     17  O   UNL A   1      34.018  25.901  23.709  1.00  0.00    -0.207 OA
BRANCH  15  18
ATOM     18  N   UNL A   1      32.584  24.262  25.041  1.00  0.00    -0.197 NA
ATOM     19  C   UNL A   1      33.767  21.848  27.651  1.00  0.00     0.009 C 
ATOM     20  C   UNL A   1      33.857  22.790  26.460  1.00  0.00     0.005 C 
ATOM     21  C   UNL A   1      32.725  23.811  26.452  1.00  0.00     0.106 C 
ATOM     22  C   UNL A   1      33.686  22.112  25.104  1.00  0.00     0.005 C 
ATOM     23  C   UNL A   1      33.368  23.299  24.190  1.00  0.00     0.106 C 
ATOM     24  C   UNL A   1      34.922  21.341  24.663  1.00  0.00     0.009 C 
ENDBRANCH  15  18
ENDBRANCH   8  15
ENDBRANCH   4   7
ENDBRANCH   2   3
ENDBRANCH   1   2
BRANCH   1  25
ATOM     25  C   UNL A   1      32.329  32.446  26.886  1.00  0.00     0.118 C 
BRANCH  25  26
ATOM     26  N   UNL A   1      32.321  33.837  27.300  1.00  0.00    -0.352 N 
ATOM     27  C   UNL A   1      33.026  34.472  28.294  1.00  0.00     0.251 C 
ATOM     28  H   UNL A   1      31.714  34.418  26.786  1.00  0.00     0.163 HD
ATOM     29  O   UNL A   1      32.684  35.603  28.632  1.00  0.00    -0.269 OA
BRANCH  27  30
ATOM     30  C   UNL A   1      34.178  33.828  28.974  1.00  0.00     0.039 A 
ATOM     31  C   UNL A   1      35.469  34.291  28.684  1.00  0.00     0.014 A 
ATOM     32  C   UNL A   1      34.023  32.730  29.824  1.00  0.00     0.014 A 
ATOM     33  C   UNL A   1      36.585  33.684  29.268  1.00  0.00     0.010 A 
ATOM     34  C   UNL A   1      35.130  32.176  30.469  1.00  0.00     0.010 A 
ATOM     35  C   UNL A   1      36.425  32.633  30.184  1.00  0.00    -0.014 A 
BRANCH  35  36
ATOM     36  C   UNL A   1      37.596  31.986  30.831  1.00  0.00     0.031 A 
ATOM     37  C   UNL A   1      38.374  30.921  30.107  1.00  0.00     0.074 A 
ATOM     38  C   UNL A   1      37.921  32.303  32.100  1.00  0.00     0.049 A 
ATOM     39  N   UNL A   1      39.376  30.191  30.531  1.00  0.00    -0.248 NA
ATOM     40  C   UNL A   1      37.946  30.611  28.735  1.00  0.00     0.031 C 
ATOM     41  C   UNL A   1      37.212  33.273  32.935  1.00  0.00     0.029 A 
ATOM     42  N   UNL A   1      38.917  31.825  32.915  1.00  0.00    -0.354 N 
ATOM     43  C   UNL A   1      39.678  29.320  29.491  1.00  0.00     0.074 A 
ATOM     44  C   UNL A   1      38.724  29.582  28.434  1.00  0.00     0.031 C 
ATOM     45  C   UNL A   1      37.800  33.326  34.141  1.00  0.00     0.029 A 
ATOM     46  C   UNL A   1      38.906  32.373  34.174  1.00  0.00     0.049 A 
ATOM     47  H   UNL A   1      39.575  31.154  32.624  1.00  0.00     0.167 HD
ATOM     48  C   UNL A   1      40.669  28.400  29.414  1.00  0.00     0.037 A 
ATOM     49  C   UNL A   1      39.692  32.131  35.240  1.00  0.00     0.037 A 
ATOM     50  C   UNL A   1      41.639  28.165  30.452  1.00  0.00     0.049 A 
ATOM     51  C   UNL A   1      40.808  31.133  35.125  1.00  0.00     0.074 A 
ATOM     52  C   UNL A   1      42.736  27.322  30.435  1.00  0.00     0.029 A 
ATOM     53  N   UNL A   1      41.622  28.774  31.699  1.00  0.00    -0.354 N 
ATOM     54  N   UNL A   1      41.136  30.377  34.104  1.00  0.00    -0.248 NA
ATOM     55  C   UNL A   1      41.669  30.960  36.303  1.00  0.00     0.031 C 
ATOM     56  C   UNL A   1      43.358  27.389  31.687  1.00  0.00     0.029 A 
ATOM     57  C   UNL A   1      42.674  28.306  32.469  1.00  0.00     0.049 A 
ATOM     58  H   UNL A   1      40.959  29.439  31.993  1.00  0.00     0.167 HD
ATOM     59  C   UNL A   1      42.249  29.652  34.509  1.00  0.00     0.074 A 
ATOM     60  C   UNL A   1      42.550  30.070  35.863  1.00  0.00     0.031 C 
ATOM     61  C   UNL A   1      42.957  28.725  33.819  1.00  0.00     0.037 A 
BRANCH  48  62
ATOM     62  C   UNL A   1      40.744  27.573  28.162  1.00  0.00     0.057 A 
ATOM     63  C   UNL A   1      40.089  26.338  28.047  1.00  0.00     0.134 A 
ATOM     64  C   UNL A   1      41.479  28.017  27.057  1.00  0.00     0.134 A 
ATOM     65  F   UNL A   1      39.376  25.850  29.072  1.00  0.00    -0.206 F 
ATOM     66  C   UNL A   1      40.197  25.558  26.894  1.00  0.00     0.040 A 
ATOM     67  C   UNL A   1      41.572  27.258  25.888  1.00  0.00     0.040 A 
ATOM     68  F   UNL A   1      42.124  29.192  27.093  1.00  0.00    -0.206 F 
ATOM     69  C   UNL A   1      40.938  26.019  25.809  1.00  0.00     0.006 A 
ENDBRANCH  48  62
BRANCH  49  70
ATOM     70  C   UNL A   1      39.454  32.873  36.502  1.00  0.00     0.057 A 
ATOM     71  C   UNL A   1      40.150  34.054  36.787  1.00  0.00     0.134 A 
ATOM     72  C   UNL A   1      38.497  32.446  37.430  1.00  0.00     0.134 A 
ATOM     73  F   UNL A   1      41.089  34.503  35.943  1.00  0.00    -0.206 F 
ATOM     74  C   UNL A   1      39.904  34.783  37.951  1.00  0.00     0.040 A 
ATOM     75  C   UNL A   1      38.226  33.176  38.588  1.00  0.00     0.040 A 
ATOM     76  F   UNL A   1      37.792  31.328  37.208  1.00  0.00    -0.206 F 
ATOM     77  C   UNL A   1      38.933  34.348  38.852  1.00  0.00     0.006 A 
ENDBRANCH  49  70
BRANCH  61  78
ATOM     78  C   UNL A   1      44.136  28.108  34.512  1.00  0.00     0.057 A 
ATOM     79  C   UNL A   1      44.025  26.911  35.230  1.00  0.00     0.134 A 
ATOM     80  C   UNL A   1      45.403  28.698  34.427  1.00  0.00     0.134 A 
ATOM     81  F   UNL A   1      42.837  26.304  35.361  1.00  0.00    -0.206 F 
ATOM     82  C   UNL A   1      45.132  26.330  35.854  1.00  0.00     0.040 A 
ATOM     83  C   UNL A   1      46.521  28.115  35.025  1.00  0.00     0.040 A 
ATOM     84  F   UNL A   1      45.578  29.841  33.747  1.00  0.00    -0.206 F 
ATOM     85  C   UNL A   1      46.386  26.929  35.745  1.00  0.00     0.006 A 
ENDBRANCH  61  78
ENDBRANCH  35  36
ENDBRANCH  27  30
ENDBRANCH  25  26
ENDBRANCH   1  25
TORSDOF 12
ENDMDL
