MODEL 1
REMARK VINA RESULT:     -11.4      0.000      0.000
REMARK SMILES C[C@]([NH3+])(C(=O)N1[C@@H](C(=O)NCCCNC(=O)c2ccc(-c3c4nc(c(-c5c(F)cccc5F)c5ccc([nH]5)c(-c5c(F)cccc5F)c5nc(c(-c6c(F)cccc6F)c6ccc3[nH]6)C=C5)C=C4)cc2)C[C@H]2CCCC[C@@H]21)C(F)(F)F
REMARK SMILES IDX 11 1 10 2 8 3 9 4 7 6 6 7 77 8 71 9 72 10 76 11 73 12 75 13
REMARK SMILES IDX 74 14 4 15 5 16 2 17 1 18 78 19 79 20 80 21 81 22 3 23 12 27
REMARK SMILES IDX 13 28 14 29 15 30 16 32 17 33 18 34 70 35 19 36 69 37 20 38
REMARK SMILES IDX 21 39 22 40 63 41 23 42 68 43 62 44 64 45 24 46 67 47 61 48
REMARK SMILES IDX 60 49 25 51 51 52 34 53 50 54 35 55 38 56 49 57 65 58 36 59
REMARK SMILES IDX 37 60 48 62 66 63 39 64 26 65 27 66 32 67 28 68 29 69 31 70
REMARK SMILES IDX 33 71 30 72 52 73 53 74 58 75 54 76 55 77 57 78 59 79 56 80
REMARK SMILES IDX 40 81 41 82 46 83 42 84 43 85 45 86 47 87 44 88
REMARK H PARENT 10 5 3 24 3 25 3 26 14 31 64 50 38 61
REMARK Flexibility Score: inf
ROOT
ATOM      1  C   UNL A   1      35.232  22.585  24.157  1.00  0.00     0.117 C 
ENDROOT
BRANCH   1   2
ATOM      2  N   UNL A   1      34.591  22.959  22.910  1.00  0.00    -0.354 N 
ATOM      3  C   UNL A   1      33.776  24.012  22.612  1.00  0.00     0.242 C 
ATOM      4  O   UNL A   1      33.266  24.011  21.488  1.00  0.00    -0.273 OA
ATOM      5  H   UNL A   1      34.774  22.353  22.156  1.00  0.00     0.163 HD
BRANCH   3   6
ATOM      6  C   UNL A   1      33.401  25.076  23.683  1.00  0.00     0.175 C 
ATOM      7  N   UNL A   1      31.981  24.916  24.096  1.00  0.00    -0.322 N 
ATOM      8  C   UNL A   1      31.181  25.976  23.496  1.00  0.00     0.089 C 
ATOM      9  C   UNL A   1      33.454  26.505  23.109  1.00  0.00     0.041 C 
ATOM     10  C   UNL A   1      32.169  27.135  23.574  1.00  0.00     0.014 C 
ATOM     11  C   UNL A   1      29.891  26.432  24.177  1.00  0.00     0.025 C 
ATOM     12  C   UNL A   1      31.710  28.340  22.784  1.00  0.00     0.006 C 
ATOM     13  C   UNL A   1      29.360  27.717  23.516  1.00  0.00     0.002 C 
ATOM     14  C   UNL A   1      30.404  28.835  23.396  1.00  0.00     0.000 C 
BRANCH   7  15
ATOM     15  C   UNL A   1      31.398  23.854  24.774  1.00  0.00     0.294 C 
ATOM     16  O   UNL A   1      30.755  23.015  24.139  1.00  0.00    -0.267 OA
BRANCH  15  17
ATOM     17  C   UNL A   1      31.400  23.858  26.326  1.00  0.00     0.267 C 
ATOM     18  C   UNL A   1      30.142  23.103  26.797  1.00  0.00     0.100 C 
BRANCH  17  19
ATOM     19  C   UNL A   1      32.643  23.043  26.792  1.00  0.00     0.453 C 
ATOM     20  F   UNL A   1      33.783  23.770  26.778  1.00  0.00    -0.164 F 
ATOM     21  F   UNL A   1      32.471  22.621  28.077  1.00  0.00    -0.164 F 
ATOM     22  F   UNL A   1      32.844  21.920  26.062  1.00  0.00    -0.164 F 
ENDBRANCH  17  19
BRANCH  17  23
ATOM     23  N   UNL A   1      31.385  25.244  26.895  1.00  0.00    -0.337 N 
ATOM     24  H   UNL A   1      32.234  25.737  26.615  1.00  0.00     0.345 HD
ATOM     25  H   UNL A   1      31.342  25.194  27.914  1.00  0.00     0.345 HD
ATOM     26  H   UNL A   1      30.570  25.746  26.545  1.00  0.00     0.345 HD
ENDBRANCH  17  23
ENDBRANCH  15  17
ENDBRANCH   7  15
ENDBRANCH   3   6
ENDBRANCH   1   2
BRANCH   1  27
ATOM     27  C   UNL A   1      36.475  23.399  24.442  1.00  0.00     0.042 C 
BRANCH  27  28
ATOM     28  C   UNL A   1      36.931  23.316  25.884  1.00  0.00     0.118 C 
BRANCH  28  29
ATOM     29  N   UNL A   1      38.060  22.411  26.065  1.00  0.00    -0.352 N 
ATOM     30  C   UNL A   1      39.364  22.674  26.400  1.00  0.00     0.251 C 
ATOM     31  H   UNL A   1      37.853  21.459  25.922  1.00  0.00     0.163 HD
ATOM     32  O   UNL A   1      40.208  21.781  26.298  1.00  0.00    -0.269 OA
BRANCH  30  33
ATOM     33  C   UNL A   1      39.767  24.017  26.864  1.00  0.00     0.039 A 
ATOM     34  C   UNL A   1      40.181  24.972  25.930  1.00  0.00     0.014 A 
ATOM     35  C   UNL A   1      39.763  24.335  28.223  1.00  0.00     0.014 A 
ATOM     36  C   UNL A   1      40.540  26.250  26.361  1.00  0.00     0.010 A 
ATOM     37  C   UNL A   1      39.981  25.642  28.633  1.00  0.00     0.010 A 
ATOM     38  C   UNL A   1      40.417  26.603  27.715  1.00  0.00    -0.014 A 
BRANCH  38  39
ATOM     39  C   UNL A   1      40.825  27.938  28.217  1.00  0.00     0.031 A 
ATOM     40  C   UNL A   1      42.290  28.295  28.265  1.00  0.00     0.074 A 
ATOM     41  C   UNL A   1      39.900  28.799  28.680  1.00  0.00     0.049 A 
ATOM     42  N   UNL A   1      42.866  29.370  28.735  1.00  0.00    -0.248 NA
ATOM     43  C   UNL A   1      43.237  27.289  27.751  1.00  0.00     0.031 C 
ATOM     44  C   UNL A   1      38.459  28.547  28.739  1.00  0.00     0.029 A 
ATOM     45  N   UNL A   1      40.037  30.062  29.195  1.00  0.00    -0.354 N 
ATOM     46  C   UNL A   1      44.232  29.155  28.601  1.00  0.00     0.074 A 
ATOM     47  C   UNL A   1      44.404  27.820  28.077  1.00  0.00     0.031 C 
ATOM     48  C   UNL A   1      37.842  29.636  29.228  1.00  0.00     0.029 A 
ATOM     49  C   UNL A   1      38.846  30.646  29.549  1.00  0.00     0.049 A 
ATOM     50  H   UNL A   1      40.908  30.508  29.300  1.00  0.00     0.167 HD
ATOM     51  C   UNL A   1      45.255  30.005  28.852  1.00  0.00     0.037 A 
ATOM     52  C   UNL A   1      38.596  31.861  30.070  1.00  0.00     0.037 A 
ATOM     53  C   UNL A   1      45.077  31.350  29.329  1.00  0.00     0.049 A 
ATOM     54  C   UNL A   1      39.746  32.798  30.321  1.00  0.00     0.074 A 
ATOM     55  C   UNL A   1      46.037  32.317  29.562  1.00  0.00     0.029 A 
ATOM     56  N   UNL A   1      43.849  31.918  29.637  1.00  0.00    -0.354 N 
ATOM     57  N   UNL A   1      41.028  32.606  30.127  1.00  0.00    -0.248 NA
ATOM     58  C   UNL A   1      39.411  34.129  30.849  1.00  0.00     0.031 C 
ATOM     59  C   UNL A   1      45.394  33.459  30.050  1.00  0.00     0.029 A 
ATOM     60  C   UNL A   1      44.028  33.220  30.069  1.00  0.00     0.049 A 
ATOM     61  H   UNL A   1      42.981  31.461  29.561  1.00  0.00     0.167 HD
ATOM     62  C   UNL A   1      41.649  33.801  30.469  1.00  0.00     0.074 A 
ATOM     63  C   UNL A   1      40.599  34.713  30.876  1.00  0.00     0.031 C 
ATOM     64  C   UNL A   1      42.967  34.117  30.447  1.00  0.00     0.037 A 
BRANCH  51  65
ATOM     65  C   UNL A   1      46.649  29.506  28.601  1.00  0.00     0.057 A 
ATOM     66  C   UNL A   1      47.398  28.866  29.599  1.00  0.00     0.134 A 
ATOM     67  C   UNL A   1      47.247  29.654  27.344  1.00  0.00     0.134 A 
ATOM     68  F   UNL A   1      46.893  28.706  30.832  1.00  0.00    -0.206 F 
ATOM     69  C   UNL A   1      48.701  28.423  29.366  1.00  0.00     0.040 A 
ATOM     70  C   UNL A   1      48.537  29.186  27.089  1.00  0.00     0.040 A 
ATOM     71  F   UNL A   1      46.587  30.254  26.341  1.00  0.00    -0.206 F 
ATOM     72  C   UNL A   1      49.272  28.577  28.105  1.00  0.00     0.006 A 
ENDBRANCH  51  65
BRANCH  52  73
ATOM     73  C   UNL A   1      37.199  32.281  30.348  1.00  0.00     0.057 A 
ATOM     74  C   UNL A   1      36.465  33.011  29.405  1.00  0.00     0.134 A 
ATOM     75  C   UNL A   1      36.567  31.973  31.558  1.00  0.00     0.134 A 
ATOM     76  F   UNL A   1      37.020  33.348  28.232  1.00  0.00    -0.206 F 
ATOM     77  C   UNL A   1      35.164  33.444  29.666  1.00  0.00     0.040 A 
ATOM     78  C   UNL A   1      35.257  32.378  31.822  1.00  0.00     0.040 A 
ATOM     79  F   UNL A   1      37.210  31.265  32.498  1.00  0.00    -0.206 F 
ATOM     80  C   UNL A   1      34.555  33.124  30.877  1.00  0.00     0.006 A 
ENDBRANCH  52  73
BRANCH  64  81
ATOM     81  C   UNL A   1      43.343  35.523  30.816  1.00  0.00     0.057 A 
ATOM     82  C   UNL A   1      43.635  35.895  32.133  1.00  0.00     0.134 A 
ATOM     83  C   UNL A   1      43.449  36.507  29.825  1.00  0.00     0.134 A 
ATOM     84  F   UNL A   1      43.542  35.001  33.129  1.00  0.00    -0.206 F 
ATOM     85  C   UNL A   1      43.992  37.205  32.457  1.00  0.00     0.040 A 
ATOM     86  C   UNL A   1      43.834  37.812  30.131  1.00  0.00     0.040 A 
ATOM     87  F   UNL A   1      43.194  36.213  28.541  1.00  0.00    -0.206 F 
ATOM     88  C   UNL A   1      44.099  38.165  31.452  1.00  0.00     0.006 A 
ENDBRANCH  64  81
ENDBRANCH  38  39
ENDBRANCH  30  33
ENDBRANCH  28  29
ENDBRANCH  27  28
ENDBRANCH   1  27
TORSDOF 14
ENDMDL
MODEL 2
REMARK VINA RESULT:     -11.3      4.594      8.694
REMARK SMILES C[C@]([NH3+])(C(=O)N1[C@@H](C(=O)NCCCNC(=O)c2ccc(-c3c4nc(c(-c5c(F)cccc5F)c5ccc([nH]5)c(-c5c(F)cccc5F)c5nc(c(-c6c(F)cccc6F)c6ccc3[nH]6)C=C5)C=C4)cc2)C[C@H]2CCCC[C@@H]21)C(F)(F)F
REMARK SMILES IDX 11 1 10 2 8 3 9 4 7 6 6 7 77 8 71 9 72 10 76 11 73 12 75 13
REMARK SMILES IDX 74 14 4 15 5 16 2 17 1 18 78 19 79 20 80 21 81 22 3 23 12 27
REMARK SMILES IDX 13 28 14 29 15 30 16 32 17 33 18 34 70 35 19 36 69 37 20 38
REMARK SMILES IDX 21 39 22 40 63 41 23 42 68 43 62 44 64 45 24 46 67 47 61 48
REMARK SMILES IDX 60 49 25 51 51 52 34 53 50 54 35 55 38 56 49 57 65 58 36 59
REMARK SMILES IDX 37 60 48 62 66 63 39 64 26 65 27 66 32 67 28 68 29 69 31 70
REMARK SMILES IDX 33 71 30 72 52 73 53 74 58 75 54 76 55 77 57 78 59 79 56 80
REMARK SMILES IDX 40 81 41 82 46 83 42 84 43 85 45 86 47 87 44 88
REMARK H PARENT 10 5 3 24 3 25 3 26 14 31 64 50 38 61
REMARK Flexibility Score: inf
ROOT
ATOM      1  C   UNL A   1      31.579  30.809  26.172  1.00  0.00     0.117 C 
ENDROOT
BRANCH   1   2
ATOM      2  N   UNL A   1      31.550  29.727  27.138  1.00  0.00    -0.354 N 
ATOM      3  C   UNL A   1      32.064  28.465  27.072  1.00  0.00     0.242 C 
ATOM      4  O   UNL A   1      31.776  27.704  28.001  1.00  0.00    -0.273 OA
ATOM      5  H   UNL A   1      31.083  29.938  27.979  1.00  0.00     0.163 HD
BRANCH   3   6
ATOM      6  C   UNL A   1      32.849  27.974  25.823  1.00  0.00     0.175 C 
ATOM      7  N   UNL A   1      31.989  27.099  24.981  1.00  0.00    -0.322 N 
ATOM      8  C   UNL A   1      32.396  25.710  25.155  1.00  0.00     0.089 C 
ATOM      9  C   UNL A   1      34.026  27.058  26.213  1.00  0.00     0.041 C 
ATOM     10  C   UNL A   1      33.906  25.886  25.277  1.00  0.00     0.014 C 
ATOM     11  C   UNL A   1      32.146  24.700  24.035  1.00  0.00     0.025 C 
ATOM     12  C   UNL A   1      34.600  24.620  25.725  1.00  0.00     0.006 C 
ATOM     13  C   UNL A   1      32.880  23.380  24.328  1.00  0.00     0.002 C 
ATOM     14  C   UNL A   1      34.367  23.553  24.660  1.00  0.00     0.000 C 
BRANCH   7  15
ATOM     15  C   UNL A   1      30.845  27.443  24.275  1.00  0.00     0.294 C 
ATOM     16  O   UNL A   1      29.757  26.979  24.626  1.00  0.00    -0.267 OA
BRANCH  15  17
ATOM     17  C   UNL A   1      30.987  28.238  22.949  1.00  0.00     0.267 C 
ATOM     18  C   UNL A   1      31.027  27.218  21.795  1.00  0.00     0.100 C 
BRANCH  17  19
ATOM     19  C   UNL A   1      29.697  29.095  22.780  1.00  0.00     0.453 C 
ATOM     20  F   UNL A   1      29.521  29.983  23.786  1.00  0.00    -0.164 F 
ATOM     21  F   UNL A   1      29.768  29.826  21.631  1.00  0.00    -0.164 F 
ATOM     22  F   UNL A   1      28.575  28.347  22.669  1.00  0.00    -0.164 F 
ENDBRANCH  17  19
BRANCH  17  23
ATOM     23  N   UNL A   1      32.232  29.073  22.913  1.00  0.00    -0.337 N 
ATOM     24  H   UNL A   1      31.987  30.041  22.706  1.00  0.00     0.345 HD
ATOM     25  H   UNL A   1      32.858  28.719  22.189  1.00  0.00     0.345 HD
ATOM     26  H   UNL A   1      32.698  29.026  23.819  1.00  0.00     0.345 HD
ENDBRANCH  17  23
ENDBRANCH  15  17
ENDBRANCH   7  15
ENDBRANCH   3   6
ENDBRANCH   1   2
BRANCH   1  27
ATOM     27  C   UNL A   1      31.403  32.169  26.813  1.00  0.00     0.042 C 
BRANCH  27  28
ATOM     28  C   UNL A   1      32.684  32.974  26.879  1.00  0.00     0.118 C 
BRANCH  28  29
ATOM     29  N   UNL A   1      32.528  34.216  27.625  1.00  0.00    -0.352 N 
ATOM     30  C   UNL A   1      33.155  34.652  28.765  1.00  0.00     0.251 C 
ATOM     31  H   UNL A   1      31.867  34.843  27.252  1.00  0.00     0.163 HD
ATOM     32  O   UNL A   1      32.727  35.649  29.350  1.00  0.00    -0.269 OA
BRANCH  30  33
ATOM     33  C   UNL A   1      34.323  33.928  29.306  1.00  0.00     0.039 A 
ATOM     34  C   UNL A   1      35.610  34.416  29.059  1.00  0.00     0.014 A 
ATOM     35  C   UNL A   1      34.159  32.752  30.039  1.00  0.00     0.014 A 
ATOM     36  C   UNL A   1      36.717  33.749  29.588  1.00  0.00     0.010 A 
ATOM     37  C   UNL A   1      35.244  32.174  30.682  1.00  0.00     0.010 A 
ATOM     38  C   UNL A   1      36.539  32.637  30.427  1.00  0.00    -0.014 A 
BRANCH  38  39
ATOM     39  C   UNL A   1      37.690  31.879  30.976  1.00  0.00     0.031 A 
ATOM     40  C   UNL A   1      38.178  32.180  32.371  1.00  0.00     0.074 A 
ATOM     41  C   UNL A   1      38.330  30.972  30.213  1.00  0.00     0.049 A 
ATOM     42  N   UNL A   1      39.209  31.694  33.012  1.00  0.00    -0.248 NA
ATOM     43  C   UNL A   1      37.430  33.197  33.132  1.00  0.00     0.031 C 
ATOM     44  C   UNL A   1      37.989  30.633  28.830  1.00  0.00     0.029 A 
ATOM     45  N   UNL A   1      39.407  30.172  30.495  1.00  0.00    -0.354 N 
ATOM     46  C   UNL A   1      39.245  32.364  34.229  1.00  0.00     0.074 A 
ATOM     47  C   UNL A   1      38.183  33.343  34.209  1.00  0.00     0.031 C 
ATOM     48  C   UNL A   1      38.818  29.669  28.397  1.00  0.00     0.029 A 
ATOM     49  C   UNL A   1      39.769  29.349  29.457  1.00  0.00     0.049 A 
ATOM     50  H   UNL A   1      39.876  30.187  31.360  1.00  0.00     0.167 HD
ATOM     51  C   UNL A   1      40.063  32.157  35.288  1.00  0.00     0.037 A 
ATOM     52  C   UNL A   1      40.756  28.438  29.376  1.00  0.00     0.037 A 
ATOM     53  C   UNL A   1      41.087  31.149  35.321  1.00  0.00     0.049 A 
ATOM     54  C   UNL A   1      41.639  28.209  30.572  1.00  0.00     0.074 A 
ATOM     55  C   UNL A   1      41.934  30.814  36.362  1.00  0.00     0.029 A 
ATOM     56  N   UNL A   1      41.396  30.308  34.262  1.00  0.00    -0.354 N 
ATOM     57  N   UNL A   1      41.620  28.803  31.741  1.00  0.00    -0.248 NA
ATOM     58  C   UNL A   1      42.671  27.171  30.443  1.00  0.00     0.031 C 
ATOM     59  C   UNL A   1      42.783  29.794  35.919  1.00  0.00     0.029 A 
ATOM     60  C   UNL A   1      42.429  29.460  34.621  1.00  0.00     0.049 A 
ATOM     61  H   UNL A   1      40.947  30.314  33.387  1.00  0.00     0.167 HD
ATOM     62  C   UNL A   1      42.606  28.186  32.499  1.00  0.00     0.074 A 
ATOM     63  C   UNL A   1      43.199  27.165  31.658  1.00  0.00     0.031 C 
ATOM     64  C   UNL A   1      42.987  28.436  33.776  1.00  0.00     0.037 A 
BRANCH  51  65
ATOM     65  C   UNL A   1      39.868  33.030  36.495  1.00  0.00     0.057 A 
ATOM     66  C   UNL A   1      40.618  34.198  36.694  1.00  0.00     0.134 A 
ATOM     67  C   UNL A   1      38.910  32.707  37.464  1.00  0.00     0.134 A 
ATOM     68  F   UNL A   1      41.564  34.557  35.813  1.00  0.00    -0.206 F 
ATOM     69  C   UNL A   1      40.446  34.994  37.828  1.00  0.00     0.040 A 
ATOM     70  C   UNL A   1      38.707  33.512  38.586  1.00  0.00     0.040 A 
ATOM     71  F   UNL A   1      38.155  31.606  37.336  1.00  0.00    -0.206 F 
ATOM     72  C   UNL A   1      39.483  34.654  38.776  1.00  0.00     0.006 A 
ENDBRANCH  51  65
BRANCH  52  73
ATOM     73  C   UNL A   1      40.935  27.641  28.136  1.00  0.00     0.057 A 
ATOM     74  C   UNL A   1      41.759  28.095  27.099  1.00  0.00     0.134 A 
ATOM     75  C   UNL A   1      40.283  26.415  27.950  1.00  0.00     0.134 A 
ATOM     76  F   UNL A   1      42.400  29.267  27.212  1.00  0.00    -0.206 F 
ATOM     77  C   UNL A   1      41.908  27.375  25.913  1.00  0.00     0.040 A 
ATOM     78  C   UNL A   1      40.443  25.673  26.779  1.00  0.00     0.040 A 
ATOM     79  F   UNL A   1      39.490  25.918  28.910  1.00  0.00    -0.206 F 
ATOM     80  C   UNL A   1      41.251  26.157  25.753  1.00  0.00     0.006 A 
ENDBRANCH  52  73
BRANCH  64  81
ATOM     81  C   UNL A   1      44.053  27.556  34.361  1.00  0.00     0.057 A 
ATOM     82  C   UNL A   1      45.408  27.904  34.328  1.00  0.00     0.134 A 
ATOM     83  C   UNL A   1      43.706  26.359  34.999  1.00  0.00     0.134 A 
ATOM     84  F   UNL A   1      45.806  29.032  33.722  1.00  0.00    -0.206 F 
ATOM     85  C   UNL A   1      46.385  27.077  34.885  1.00  0.00     0.040 A 
ATOM     86  C   UNL A   1      44.669  25.539  35.586  1.00  0.00     0.040 A 
ATOM     87  F   UNL A   1      42.423  25.972  35.075  1.00  0.00    -0.206 F 
ATOM     88  C   UNL A   1      46.014  25.894  35.523  1.00  0.00     0.006 A 
ENDBRANCH  64  81
ENDBRANCH  38  39
ENDBRANCH  30  33
ENDBRANCH  28  29
ENDBRANCH  27  28
ENDBRANCH   1  27
TORSDOF 14
ENDMDL
MODEL 3
REMARK VINA RESULT:     -11.2      3.105      7.868
REMARK SMILES C[C@]([NH3+])(C(=O)N1[C@@H](C(=O)NCCCNC(=O)c2ccc(-c3c4nc(c(-c5c(F)cccc5F)c5ccc([nH]5)c(-c5c(F)cccc5F)c5nc(c(-c6c(F)cccc6F)c6ccc3[nH]6)C=C5)C=C4)cc2)C[C@H]2CCCC[C@@H]21)C(F)(F)F
REMARK SMILES IDX 11 1 10 2 8 3 9 4 7 6 6 7 77 8 71 9 72 10 76 11 73 12 75 13
REMARK SMILES IDX 74 14 4 15 5 16 2 17 1 18 78 19 79 20 80 21 81 22 3 23 12 27
REMARK SMILES IDX 13 28 14 29 15 30 16 32 17 33 18 34 70 35 19 36 69 37 20 38
REMARK SMILES IDX 21 39 22 40 63 41 23 42 68 43 62 44 64 45 24 46 67 47 61 48
REMARK SMILES IDX 60 49 25 51 51 52 34 53 50 54 35 55 38 56 49 57 65 58 36 59
REMARK SMILES IDX 37 60 48 62 66 63 39 64 26 65 27 66 32 67 28 68 29 69 31 70
REMARK SMILES IDX 33 71 30 72 52 73 53 74 58 75 54 76 55 77 57 78 59 79 56 80
REMARK SMILES IDX 40 81 41 82 46 83 42 84 43 85 45 86 47 87 44 88
REMARK H PARENT 10 5 3 24 3 25 3 26 14 31 64 50 38 61
REMARK Flexibility Score: inf
ROOT
ATOM      1  C   UNL A   1      32.184  26.650  26.361  1.00  0.00     0.117 C 
ENDROOT
BRANCH   1   2
ATOM      2  N   UNL A   1      31.334  25.586  26.860  1.00  0.00    -0.354 N 
ATOM      3  C   UNL A   1      31.461  24.230  26.763  1.00  0.00     0.242 C 
ATOM      4  O   UNL A   1      30.510  23.558  27.175  1.00  0.00    -0.273 OA
ATOM      5  H   UNL A   1      30.536  25.890  27.348  1.00  0.00     0.163 HD
BRANCH   3   6
ATOM      6  C   UNL A   1      32.674  23.578  26.042  1.00  0.00     0.175 C 
ATOM      7  N   UNL A   1      32.332  23.269  24.628  1.00  0.00    -0.322 N 
ATOM      8  C   UNL A   1      32.122  21.834  24.484  1.00  0.00     0.089 C 
ATOM      9  C   UNL A   1      33.021  22.201  26.640  1.00  0.00     0.041 C 
ATOM     10  C   UNL A   1      33.189  21.310  25.440  1.00  0.00     0.014 C 
ATOM     11  C   UNL A   1      32.357  21.164  23.130  1.00  0.00     0.025 C 
ATOM     12  C   UNL A   1      33.051  19.828  25.703  1.00  0.00     0.006 C 
ATOM     13  C   UNL A   1      32.330  19.632  23.277  1.00  0.00     0.002 C 
ATOM     14  C   UNL A   1      33.247  19.094  24.381  1.00  0.00     0.000 C 
BRANCH   7  15
ATOM     15  C   UNL A   1      32.045  24.157  23.600  1.00  0.00     0.294 C 
ATOM     16  O   UNL A   1      30.867  24.371  23.300  1.00  0.00    -0.267 OA
BRANCH  15  17
ATOM     17  C   UNL A   1      33.206  24.700  22.726  1.00  0.00     0.267 C 
ATOM     18  C   UNL A   1      32.881  24.370  21.257  1.00  0.00     0.100 C 
BRANCH  17  19
ATOM     19  C   UNL A   1      33.213  26.251  22.873  1.00  0.00     0.453 C 
ATOM     20  F   UNL A   1      31.996  26.754  23.183  1.00  0.00    -0.164 F 
ATOM     21  F   UNL A   1      34.051  26.623  23.881  1.00  0.00    -0.164 F 
ATOM     22  F   UNL A   1      33.667  26.885  21.767  1.00  0.00    -0.164 F 
ENDBRANCH  17  19
BRANCH  17  23
ATOM     23  N   UNL A   1      34.527  24.091  23.087  1.00  0.00    -0.337 N 
ATOM     24  H   UNL A   1      34.623  23.187  22.626  1.00  0.00     0.345 HD
ATOM     25  H   UNL A   1      34.578  23.964  24.099  1.00  0.00     0.345 HD
ATOM     26  H   UNL A   1      35.280  24.709  22.784  1.00  0.00     0.345 HD
ENDBRANCH  17  23
ENDBRANCH  15  17
ENDBRANCH   7  15
ENDBRANCH   3   6
ENDBRANCH   1   2
BRANCH   1  27
ATOM     27  C   UNL A   1      32.302  27.806  27.330  1.00  0.00     0.042 C 
BRANCH  27  28
ATOM     28  C   UNL A   1      33.662  28.473  27.310  1.00  0.00     0.118 C 
BRANCH  28  29
ATOM     29  N   UNL A   1      33.593  29.899  27.606  1.00  0.00    -0.352 N 
ATOM     30  C   UNL A   1      34.513  30.729  28.194  1.00  0.00     0.251 C 
ATOM     31  H   UNL A   1      32.750  30.335  27.343  1.00  0.00     0.163 HD
ATOM     32  O   UNL A   1      34.175  31.862  28.539  1.00  0.00    -0.269 OA
BRANCH  30  33
ATOM     33  C   UNL A   1      35.898  30.271  28.431  1.00  0.00     0.039 A 
ATOM     34  C   UNL A   1      36.230  29.690  29.658  1.00  0.00     0.014 A 
ATOM     35  C   UNL A   1      36.882  30.435  27.455  1.00  0.00     0.014 A 
ATOM     36  C   UNL A   1      37.532  29.234  29.878  1.00  0.00     0.010 A 
ATOM     37  C   UNL A   1      38.131  29.855  27.619  1.00  0.00     0.010 A 
ATOM     38  C   UNL A   1      38.486  29.290  28.849  1.00  0.00    -0.014 A 
BRANCH  38  39
ATOM     39  C   UNL A   1      39.887  28.852  29.057  1.00  0.00     0.031 A 
ATOM     40  C   UNL A   1      40.870  29.795  29.705  1.00  0.00     0.074 A 
ATOM     41  C   UNL A   1      40.292  27.645  28.618  1.00  0.00     0.049 A 
ATOM     42  N   UNL A   1      42.152  29.644  29.910  1.00  0.00    -0.248 NA
ATOM     43  C   UNL A   1      40.347  31.101  30.143  1.00  0.00     0.031 C 
ATOM     44  C   UNL A   1      39.451  26.666  27.926  1.00  0.00     0.029 A 
ATOM     45  N   UNL A   1      41.519  27.038  28.685  1.00  0.00    -0.354 N 
ATOM     46  C   UNL A   1      42.588  30.839  30.470  1.00  0.00     0.074 A 
ATOM     47  C   UNL A   1      41.453  31.733  30.502  1.00  0.00     0.031 C 
ATOM     48  C   UNL A   1      40.178  25.568  27.665  1.00  0.00     0.029 A 
ATOM     49  C   UNL A   1      41.543  25.779  28.138  1.00  0.00     0.049 A 
ATOM     50  H   UNL A   1      42.309  27.465  29.089  1.00  0.00     0.167 HD
ATOM     51  C   UNL A   1      43.813  31.155  30.952  1.00  0.00     0.037 A 
ATOM     52  C   UNL A   1      42.554  24.896  28.034  1.00  0.00     0.037 A 
ATOM     53  C   UNL A   1      44.926  30.246  30.960  1.00  0.00     0.049 A 
ATOM     54  C   UNL A   1      43.900  25.260  28.597  1.00  0.00     0.074 A 
ATOM     55  C   UNL A   1      46.195  30.440  31.476  1.00  0.00     0.029 A 
ATOM     56  N   UNL A   1      44.897  28.964  30.432  1.00  0.00    -0.354 N 
ATOM     57  N   UNL A   1      44.281  26.368  29.184  1.00  0.00    -0.248 NA
ATOM     58  C   UNL A   1      44.955  24.241  28.496  1.00  0.00     0.031 C 
ATOM     59  C   UNL A   1      46.947  29.288  31.225  1.00  0.00     0.029 A 
ATOM     60  C   UNL A   1      46.130  28.358  30.600  1.00  0.00     0.049 A 
ATOM     61  H   UNL A   1      44.116  28.548  30.001  1.00  0.00     0.167 HD
ATOM     62  C   UNL A   1      45.603  26.168  29.558  1.00  0.00     0.074 A 
ATOM     63  C   UNL A   1      45.955  24.826  29.138  1.00  0.00     0.031 C 
ATOM     64  C   UNL A   1      46.451  27.014  30.194  1.00  0.00     0.037 A 
BRANCH  51  65
ATOM     65  C   UNL A   1      43.999  32.533  31.519  1.00  0.00     0.057 A 
ATOM     66  C   UNL A   1      44.420  33.611  30.726  1.00  0.00     0.134 A 
ATOM     67  C   UNL A   1      43.744  32.791  32.872  1.00  0.00     0.134 A 
ATOM     68  F   UNL A   1      44.700  33.430  29.426  1.00  0.00    -0.206 F 
ATOM     69  C   UNL A   1      44.613  34.884  31.264  1.00  0.00     0.040 A 
ATOM     70  C   UNL A   1      43.901  34.067  33.414  1.00  0.00     0.040 A 
ATOM     71  F   UNL A   1      43.335  31.808  33.688  1.00  0.00    -0.206 F 
ATOM     72  C   UNL A   1      44.346  35.117  32.612  1.00  0.00     0.006 A 
ENDBRANCH  51  65
BRANCH  52  73
ATOM     73  C   UNL A   1      42.322  23.567  27.414  1.00  0.00     0.057 A 
ATOM     74  C   UNL A   1      41.980  22.456  28.196  1.00  0.00     0.134 A 
ATOM     75  C   UNL A   1      42.444  23.369  26.034  1.00  0.00     0.134 A 
ATOM     76  F   UNL A   1      41.861  22.579  29.526  1.00  0.00    -0.206 F 
ATOM     77  C   UNL A   1      41.795  21.193  27.633  1.00  0.00     0.040 A 
ATOM     78  C   UNL A   1      42.237  22.117  25.454  1.00  0.00     0.040 A 
ATOM     79  F   UNL A   1      42.756  24.395  25.227  1.00  0.00    -0.206 F 
ATOM     80  C   UNL A   1      41.920  21.022  26.255  1.00  0.00     0.006 A 
ENDBRANCH  52  73
BRANCH  64  81
ATOM     81  C   UNL A   1      47.819  26.494  30.529  1.00  0.00     0.057 A 
ATOM     82  C   UNL A   1      48.107  25.896  31.761  1.00  0.00     0.134 A 
ATOM     83  C   UNL A   1      48.849  26.562  29.583  1.00  0.00     0.134 A 
ATOM     84  F   UNL A   1      47.167  25.809  32.713  1.00  0.00    -0.206 F 
ATOM     85  C   UNL A   1      49.383  25.409  32.051  1.00  0.00     0.040 A 
ATOM     86  C   UNL A   1      50.119  26.052  29.850  1.00  0.00     0.040 A 
ATOM     87  F   UNL A   1      48.635  27.113  28.378  1.00  0.00    -0.206 F 
ATOM     88  C   UNL A   1      50.391  25.481  31.091  1.00  0.00     0.006 A 
ENDBRANCH  64  81
ENDBRANCH  38  39
ENDBRANCH  30  33
ENDBRANCH  28  29
ENDBRANCH  27  28
ENDBRANCH   1  27
TORSDOF 14
ENDMDL
