MODEL 1
REMARK VINA RESULT:     -11.5      0.000      0.000
REMARK SMILES C[C@H]1[C@H](C(=O)NCCCNC(=O)c2ccc(-c3c4nc(c(-c5c(F)cccc5F)c5ccc([nH]5)c(-c5c(F)cccc5F)c5nc(c(-c6c(F)cccc6F)c6ccc3[nH]6)C=C5)C=C4)cc2)CCN1C(=O)NCc1cnn(C)c1
REMARK SMILES IDX 7 1 6 2 4 3 5 4 3 6 1 7 2 8 69 9 67 10 68 11 70 12 71 13
REMARK SMILES IDX 72 14 73 16 74 17 75 18 79 19 76 20 77 21 78 22 8 23 9 24
REMARK SMILES IDX 10 25 11 26 12 28 13 29 14 30 66 31 15 32 65 33 16 34 17 35
REMARK SMILES IDX 18 36 59 37 19 38 64 39 58 40 60 41 20 42 63 43 57 44 56 45
REMARK SMILES IDX 21 47 47 48 30 49 46 50 31 51 34 52 45 53 61 54 32 55 33 56
REMARK SMILES IDX 44 58 62 59 35 60 22 61 23 62 28 63 24 64 25 65 27 66 29 67
REMARK SMILES IDX 26 68 48 69 49 70 54 71 50 72 51 73 53 74 55 75 52 76 36 77
REMARK SMILES IDX 37 78 42 79 38 80 39 81 41 82 43 83 40 84
REMARK H PARENT 6 5 72 15 10 27 60 46 34 57
REMARK Flexibility Score: inf
ROOT
ATOM      1  C   UNL A   1      32.212  26.637  25.860  1.00  0.00     0.117 C 
ENDROOT
BRANCH   1   2
ATOM      2  N   UNL A   1      32.181  25.289  26.402  1.00  0.00    -0.356 N 
ATOM      3  C   UNL A   1      33.003  24.221  26.244  1.00  0.00     0.225 C 
ATOM      4  O   UNL A   1      32.681  23.184  26.831  1.00  0.00    -0.275 OA
ATOM      5  H   UNL A   1      31.417  25.118  26.999  1.00  0.00     0.163 HD
BRANCH   3   6
ATOM      6  C   UNL A   1      34.244  24.227  25.365  1.00  0.00     0.102 C 
ATOM      7  C   UNL A   1      36.652  24.100  26.061  1.00  0.00     0.032 C 
ATOM      8  C   UNL A   1      35.348  23.306  25.905  1.00  0.00     0.096 C 
ATOM      9  N   UNL A   1      35.500  22.261  24.899  1.00  0.00    -0.321 N 
ATOM     10  C   UNL A   1      34.026  23.853  23.902  1.00  0.00     0.037 C 
ATOM     11  C   UNL A   1      35.024  22.742  23.610  1.00  0.00     0.122 C 
BRANCH   9  12
ATOM     12  C   UNL A   1      35.986  20.995  24.981  1.00  0.00     0.317 C 
ATOM     13  O   UNL A   1      37.200  20.786  25.091  1.00  0.00    -0.249 OA
ATOM     14  N   UNL A   1      35.224  19.894  24.934  1.00  0.00    -0.334 N 
ATOM     15  H   UNL A   1      35.777  19.083  24.868  1.00  0.00     0.165 HD
BRANCH  14  16
ATOM     16  C   UNL A   1      33.816  19.568  24.953  1.00  0.00     0.157 C 
BRANCH  16  17
ATOM     17  C   UNL A   1      33.652  18.103  24.783  1.00  0.00     0.009 A 
ATOM     18  C   UNL A   1      34.151  17.304  23.727  1.00  0.00     0.140 A 
ATOM     19  C   UNL A   1      32.965  17.204  25.578  1.00  0.00     0.113 A 
ATOM     20  N   UNL A   1      33.843  16.014  23.864  1.00  0.00    -0.181 NA
ATOM     21  N   UNL A   1      33.099  15.982  24.984  1.00  0.00    -0.275 N 
ATOM     22  C   UNL A   1      32.547  14.729  25.437  1.00  0.00     0.173 C 
ENDBRANCH  16  17
ENDBRANCH  14  16
ENDBRANCH   9  12
ENDBRANCH   3   6
ENDBRANCH   1   2
BRANCH   1  23
ATOM     23  C   UNL A   1      32.267  27.706  26.944  1.00  0.00     0.042 C 
BRANCH  23  24
ATOM     24  C   UNL A   1      33.646  28.313  27.178  1.00  0.00     0.118 C 
BRANCH  24  25
ATOM     25  N   UNL A   1      33.586  29.721  27.545  1.00  0.00    -0.352 N 
ATOM     26  C   UNL A   1      34.506  30.523  28.170  1.00  0.00     0.251 C 
ATOM     27  H   UNL A   1      32.744  30.173  27.306  1.00  0.00     0.163 HD
ATOM     28  O   UNL A   1      34.168  31.648  28.537  1.00  0.00    -0.269 OA
BRANCH  26  29
ATOM     29  C   UNL A   1      35.891  30.064  28.424  1.00  0.00     0.039 A 
ATOM     30  C   UNL A   1      36.819  30.142  27.379  1.00  0.00     0.014 A 
ATOM     31  C   UNL A   1      36.271  29.502  29.645  1.00  0.00     0.014 A 
ATOM     32  C   UNL A   1      38.132  29.707  27.572  1.00  0.00     0.010 A 
ATOM     33  C   UNL A   1      37.599  29.131  29.860  1.00  0.00     0.010 A 
ATOM     34  C   UNL A   1      38.541  29.224  28.825  1.00  0.00    -0.014 A 
BRANCH  34  35
ATOM     35  C   UNL A   1      39.947  28.816  29.069  1.00  0.00     0.031 A 
ATOM     36  C   UNL A   1      40.929  29.783  29.670  1.00  0.00     0.074 A 
ATOM     37  C   UNL A   1      40.360  27.591  28.690  1.00  0.00     0.049 A 
ATOM     38  N   UNL A   1      42.209  29.626  29.902  1.00  0.00    -0.248 NA
ATOM     39  C   UNL A   1      40.407  31.106  30.049  1.00  0.00     0.031 C 
ATOM     40  C   UNL A   1      39.517  26.566  28.071  1.00  0.00     0.029 A 
ATOM     41  N   UNL A   1      41.601  27.008  28.749  1.00  0.00    -0.354 N 
ATOM     42  C   UNL A   1      42.643  30.826  30.450  1.00  0.00     0.074 A 
ATOM     43  C   UNL A   1      41.505  31.720  30.467  1.00  0.00     0.031 C 
ATOM     44  C   UNL A   1      40.267  25.488  27.793  1.00  0.00     0.029 A 
ATOM     45  C   UNL A   1      41.643  25.748  28.205  1.00  0.00     0.049 A 
ATOM     46  H   UNL A   1      42.386  27.451  29.144  1.00  0.00     0.167 HD
ATOM     47  C   UNL A   1      43.872  31.146  30.922  1.00  0.00     0.037 A 
ATOM     48  C   UNL A   1      42.674  24.896  28.051  1.00  0.00     0.037 A 
ATOM     49  C   UNL A   1      45.002  30.254  30.923  1.00  0.00     0.049 A 
ATOM     50  C   UNL A   1      44.029  25.276  28.573  1.00  0.00     0.074 A 
ATOM     51  C   UNL A   1      46.270  30.468  31.434  1.00  0.00     0.029 A 
ATOM     52  N   UNL A   1      44.998  28.977  30.384  1.00  0.00    -0.354 N 
ATOM     53  N   UNL A   1      44.408  26.388  29.153  1.00  0.00    -0.248 NA
ATOM     54  C   UNL A   1      45.095  24.273  28.441  1.00  0.00     0.031 C 
ATOM     55  C   UNL A   1      47.044  29.330  31.174  1.00  0.00     0.029 A 
ATOM     56  C   UNL A   1      46.246  28.396  30.535  1.00  0.00     0.049 A 
ATOM     57  H   UNL A   1      44.222  28.547  29.957  1.00  0.00     0.167 HD
ATOM     58  C   UNL A   1      45.745  26.210  29.479  1.00  0.00     0.074 A 
ATOM     59  C   UNL A   1      46.109  24.878  29.040  1.00  0.00     0.031 C 
ATOM     60  C   UNL A   1      46.594  27.070  30.091  1.00  0.00     0.037 A 
BRANCH  47  61
ATOM     61  C   UNL A   1      44.052  32.522  31.494  1.00  0.00     0.057 A 
ATOM     62  C   UNL A   1      43.835  32.785  32.853  1.00  0.00     0.134 A 
ATOM     63  C   UNL A   1      44.474  33.586  30.689  1.00  0.00     0.134 A 
ATOM     64  F   UNL A   1      43.420  31.810  33.677  1.00  0.00    -0.206 F 
ATOM     65  C   UNL A   1      44.008  34.065  33.386  1.00  0.00     0.040 A 
ATOM     66  C   UNL A   1      44.671  34.865  31.214  1.00  0.00     0.040 A 
ATOM     67  F   UNL A   1      44.706  33.401  29.380  1.00  0.00    -0.206 F 
ATOM     68  C   UNL A   1      44.432  35.107  32.565  1.00  0.00     0.006 A 
ENDBRANCH  47  61
BRANCH  48  69
ATOM     69  C   UNL A   1      42.450  23.585  27.399  1.00  0.00     0.057 A 
ATOM     70  C   UNL A   1      42.604  23.430  26.017  1.00  0.00     0.134 A 
ATOM     71  C   UNL A   1      42.091  22.455  28.142  1.00  0.00     0.134 A 
ATOM     72  F   UNL A   1      42.936  24.482  25.255  1.00  0.00    -0.206 F 
ATOM     73  C   UNL A   1      42.390  22.201  25.393  1.00  0.00     0.040 A 
ATOM     74  C   UNL A   1      41.890  21.216  27.533  1.00  0.00     0.040 A 
ATOM     75  F   UNL A   1      41.946  22.536  29.474  1.00  0.00    -0.206 F 
ATOM     76  C   UNL A   1      42.035  21.088  26.152  1.00  0.00     0.006 A 
ENDBRANCH  48  69
BRANCH  60  77
ATOM     77  C   UNL A   1      47.990  26.586  30.344  1.00  0.00     0.057 A 
ATOM     78  C   UNL A   1      49.016  26.776  29.411  1.00  0.00     0.134 A 
ATOM     79  C   UNL A   1      48.316  25.940  31.543  1.00  0.00     0.134 A 
ATOM     80  F   UNL A   1      48.765  27.374  28.235  1.00  0.00    -0.206 F 
ATOM     81  C   UNL A   1      50.313  26.320  29.652  1.00  0.00     0.040 A 
ATOM     82  C   UNL A   1      49.614  25.500  31.804  1.00  0.00     0.040 A 
ATOM     83  F   UNL A   1      47.379  25.731  32.481  1.00  0.00    -0.206 F 
ATOM     84  C   UNL A   1      50.616  25.684  30.854  1.00  0.00     0.006 A 
ENDBRANCH  60  77
ENDBRANCH  34  35
ENDBRANCH  26  29
ENDBRANCH  24  25
ENDBRANCH  23  24
ENDBRANCH   1  23
TORSDOF 13
ENDMDL
MODEL 2
REMARK VINA RESULT:     -11.4      3.163      8.026
REMARK SMILES C[C@H]1[C@H](C(=O)NCCCNC(=O)c2ccc(-c3c4nc(c(-c5c(F)cccc5F)c5ccc([nH]5)c(-c5c(F)cccc5F)c5nc(c(-c6c(F)cccc6F)c6ccc3[nH]6)C=C5)C=C4)cc2)CCN1C(=O)NCc1cnn(C)c1
REMARK SMILES IDX 7 1 6 2 4 3 5 4 3 6 1 7 2 8 69 9 67 10 68 11 70 12 71 13
REMARK SMILES IDX 72 14 73 16 74 17 75 18 79 19 76 20 77 21 78 22 8 23 9 24
REMARK SMILES IDX 10 25 11 26 12 28 13 29 14 30 66 31 15 32 65 33 16 34 17 35
REMARK SMILES IDX 18 36 59 37 19 38 64 39 58 40 60 41 20 42 63 43 57 44 56 45
REMARK SMILES IDX 21 47 47 48 30 49 46 50 31 51 34 52 45 53 61 54 32 55 33 56
REMARK SMILES IDX 44 58 62 59 35 60 22 61 23 62 28 63 24 64 25 65 27 66 29 67
REMARK SMILES IDX 26 68 48 69 49 70 54 71 50 72 51 73 53 74 55 75 52 76 36 77
REMARK SMILES IDX 37 78 42 79 38 80 39 81 41 82 43 83 40 84
REMARK H PARENT 6 5 72 15 10 27 60 46 34 57
REMARK Flexibility Score: inf
ROOT
ATOM      1  C   UNL A   1      36.589  20.427  24.862  1.00  0.00     0.117 C 
ENDROOT
BRANCH   1   2
ATOM      2  N   UNL A   1      36.865  21.522  23.949  1.00  0.00    -0.356 N 
ATOM      3  C   UNL A   1      36.148  22.617  23.592  1.00  0.00     0.225 C 
ATOM      4  O   UNL A   1      36.660  23.364  22.751  1.00  0.00    -0.275 OA
ATOM      5  H   UNL A   1      37.741  21.458  23.504  1.00  0.00     0.163 HD
BRANCH   3   6
ATOM      6  C   UNL A   1      34.762  22.939  24.128  1.00  0.00     0.102 C 
ATOM      7  C   UNL A   1      34.005  24.976  25.382  1.00  0.00     0.032 C 
ATOM      8  C   UNL A   1      34.419  24.431  24.009  1.00  0.00     0.096 C 
ATOM      9  N   UNL A   1      33.301  24.492  23.074  1.00  0.00    -0.321 N 
ATOM     10  C   UNL A   1      33.608  22.163  23.500  1.00  0.00     0.037 C 
ATOM     11  C   UNL A   1      32.604  23.215  23.051  1.00  0.00     0.122 C 
BRANCH   9  12
ATOM     12  C   UNL A   1      32.847  25.495  22.278  1.00  0.00     0.317 C 
ATOM     13  O   UNL A   1      33.278  25.639  21.128  1.00  0.00    -0.249 OA
ATOM     14  N   UNL A   1      31.935  26.400  22.658  1.00  0.00    -0.334 N 
ATOM     15  H   UNL A   1      31.848  27.118  21.991  1.00  0.00     0.165 HD
BRANCH  14  16
ATOM     16  C   UNL A   1      31.043  26.614  23.776  1.00  0.00     0.157 C 
BRANCH  16  17
ATOM     17  C   UNL A   1      30.319  27.895  23.583  1.00  0.00     0.009 A 
ATOM     18  C   UNL A   1      30.775  29.193  23.912  1.00  0.00     0.140 A 
ATOM     19  C   UNL A   1      29.048  28.111  23.081  1.00  0.00     0.113 A 
ATOM     20  N   UNL A   1      29.892  30.145  23.607  1.00  0.00    -0.181 NA
ATOM     21  N   UNL A   1      28.839  29.459  23.127  1.00  0.00    -0.275 N 
ATOM     22  C   UNL A   1      27.653  30.170  22.719  1.00  0.00     0.173 C 
ENDBRANCH  16  17
ENDBRANCH  14  16
ENDBRANCH   9  12
ENDBRANCH   3   6
ENDBRANCH   1   2
BRANCH   1  23
ATOM     23  C   UNL A   1      37.763  19.468  25.004  1.00  0.00     0.042 C 
BRANCH  23  24
ATOM     24  C   UNL A   1      38.968  20.033  25.751  1.00  0.00     0.118 C 
BRANCH  24  25
ATOM     25  N   UNL A   1      40.071  19.087  25.836  1.00  0.00    -0.352 N 
ATOM     26  C   UNL A   1      41.412  19.292  26.036  1.00  0.00     0.251 C 
ATOM     27  H   UNL A   1      39.812  18.142  25.733  1.00  0.00     0.163 HD
ATOM     28  O   UNL A   1      42.189  18.348  25.897  1.00  0.00    -0.269 OA
BRANCH  26  29
ATOM     29  C   UNL A   1      41.948  20.622  26.404  1.00  0.00     0.039 A 
ATOM     30  C   UNL A   1      42.275  21.515  25.376  1.00  0.00     0.014 A 
ATOM     31  C   UNL A   1      42.194  20.980  27.732  1.00  0.00     0.014 A 
ATOM     32  C   UNL A   1      42.796  22.775  25.679  1.00  0.00     0.010 A 
ATOM     33  C   UNL A   1      42.650  22.262  28.038  1.00  0.00     0.010 A 
ATOM     34  C   UNL A   1      42.961  23.170  27.016  1.00  0.00    -0.014 A 
BRANCH  34  35
ATOM     35  C   UNL A   1      43.454  24.528  27.360  1.00  0.00     0.031 A 
ATOM     36  C   UNL A   1      42.493  25.601  27.790  1.00  0.00     0.074 A 
ATOM     37  C   UNL A   1      44.763  24.815  27.222  1.00  0.00     0.049 A 
ATOM     38  N   UNL A   1      42.730  26.858  28.073  1.00  0.00    -0.248 NA
ATOM     39  C   UNL A   1      41.078  25.216  27.906  1.00  0.00     0.031 C 
ATOM     40  C   UNL A   1      45.796  23.873  26.787  1.00  0.00     0.029 A 
ATOM     41  N   UNL A   1      45.445  25.990  27.414  1.00  0.00    -0.354 N 
ATOM     42  C   UNL A   1      41.498  27.411  28.397  1.00  0.00     0.074 A 
ATOM     43  C   UNL A   1      40.509  26.369  28.225  1.00  0.00     0.031 C 
ATOM     44  C   UNL A   1      46.976  24.510  26.729  1.00  0.00     0.029 A 
ATOM     45  C   UNL A   1      46.781  25.906  27.114  1.00  0.00     0.049 A 
ATOM     46  H   UNL A   1      45.016  26.816  27.736  1.00  0.00     0.167 HD
ATOM     47  C   UNL A   1      41.220  28.666  28.827  1.00  0.00     0.037 A 
ATOM     48  C   UNL A   1      47.745  26.845  27.142  1.00  0.00     0.037 A 
ATOM     49  C   UNL A   1      42.203  29.699  29.017  1.00  0.00     0.049 A 
ATOM     50  C   UNL A   1      47.411  28.232  27.611  1.00  0.00     0.074 A 
ATOM     51  C   UNL A   1      42.025  30.982  29.505  1.00  0.00     0.029 A 
ATOM     52  N   UNL A   1      43.552  29.567  28.724  1.00  0.00    -0.354 N 
ATOM     53  N   UNL A   1      46.253  28.720  27.982  1.00  0.00    -0.248 NA
ATOM     54  C   UNL A   1      48.522  29.190  27.689  1.00  0.00     0.031 C 
ATOM     55  C   UNL A   1      43.262  31.637  29.476  1.00  0.00     0.029 A 
ATOM     56  C   UNL A   1      44.215  30.750  29.005  1.00  0.00     0.049 A 
ATOM     57  H   UNL A   1      43.975  28.752  28.369  1.00  0.00     0.167 HD
ATOM     58  C   UNL A   1      46.499  30.032  28.362  1.00  0.00     0.074 A 
ATOM     59  C   UNL A   1      47.919  30.260  28.186  1.00  0.00     0.031 C 
ATOM     60  C   UNL A   1      45.628  30.963  28.822  1.00  0.00     0.037 A 
BRANCH  47  61
ATOM     61  C   UNL A   1      39.786  28.983  29.137  1.00  0.00     0.057 A 
ATOM     62  C   UNL A   1      38.887  29.366  28.133  1.00  0.00     0.134 A 
ATOM     63  C   UNL A   1      39.290  28.875  30.442  1.00  0.00     0.134 A 
ATOM     64  F   UNL A   1      39.301  29.497  26.863  1.00  0.00    -0.206 F 
ATOM     65  C   UNL A   1      37.551  29.656  28.420  1.00  0.00     0.040 A 
ATOM     66  C   UNL A   1      37.952  29.141  30.738  1.00  0.00     0.040 A 
ATOM     67  F   UNL A   1      40.097  28.507  31.448  1.00  0.00    -0.206 F 
ATOM     68  C   UNL A   1      37.080  29.538  29.726  1.00  0.00     0.006 A 
ENDBRANCH  47  61
BRANCH  48  69
ATOM     69  C   UNL A   1      49.127  26.491  26.739  1.00  0.00     0.057 A 
ATOM     70  C   UNL A   1      50.016  25.909  27.649  1.00  0.00     0.134 A 
ATOM     71  C   UNL A   1      49.584  26.714  25.436  1.00  0.00     0.134 A 
ATOM     72  F   UNL A   1      49.634  25.684  28.914  1.00  0.00    -0.206 F 
ATOM     73  C   UNL A   1      51.321  25.578  27.282  1.00  0.00     0.040 A 
ATOM     74  C   UNL A   1      50.881  26.371  25.051  1.00  0.00     0.040 A 
ATOM     75  F   UNL A   1      48.772  27.251  24.514  1.00  0.00    -0.206 F 
ATOM     76  C   UNL A   1      51.755  25.806  25.978  1.00  0.00     0.006 A 
ENDBRANCH  48  69
BRANCH  60  77
ATOM     77  C   UNL A   1      46.193  32.302  29.189  1.00  0.00     0.057 A 
ATOM     78  C   UNL A   1      46.262  33.351  28.263  1.00  0.00     0.134 A 
ATOM     79  C   UNL A   1      46.654  32.552  30.487  1.00  0.00     0.134 A 
ATOM     80  F   UNL A   1      45.851  33.169  26.998  1.00  0.00    -0.206 F 
ATOM     81  C   UNL A   1      46.792  34.594  28.611  1.00  0.00     0.040 A 
ATOM     82  C   UNL A   1      47.165  33.798  30.852  1.00  0.00     0.040 A 
ATOM     83  F   UNL A   1      46.611  31.590  31.423  1.00  0.00    -0.206 F 
ATOM     84  C   UNL A   1      47.240  34.822  29.910  1.00  0.00     0.006 A 
ENDBRANCH  60  77
ENDBRANCH  34  35
ENDBRANCH  26  29
ENDBRANCH  24  25
ENDBRANCH  23  24
ENDBRANCH   1  23
TORSDOF 13
ENDMDL
MODEL 3
REMARK VINA RESULT:     -11.3      2.388      7.895
REMARK SMILES C[C@H]1[C@H](C(=O)NCCCNC(=O)c2ccc(-c3c4nc(c(-c5c(F)cccc5F)c5ccc([nH]5)c(-c5c(F)cccc5F)c5nc(c(-c6c(F)cccc6F)c6ccc3[nH]6)C=C5)C=C4)cc2)CCN1C(=O)NCc1cnn(C)c1
REMARK SMILES IDX 7 1 6 2 4 3 5 4 3 6 1 7 2 8 69 9 67 10 68 11 70 12 71 13
REMARK SMILES IDX 72 14 73 16 74 17 75 18 79 19 76 20 77 21 78 22 8 23 9 24
REMARK SMILES IDX 10 25 11 26 12 28 13 29 14 30 66 31 15 32 65 33 16 34 17 35
REMARK SMILES IDX 18 36 59 37 19 38 64 39 58 40 60 41 20 42 63 43 57 44 56 45
REMARK SMILES IDX 21 47 47 48 30 49 46 50 31 51 34 52 45 53 61 54 32 55 33 56
REMARK SMILES IDX 44 58 62 59 35 60 22 61 23 62 28 63 24 64 25 65 27 66 29 67
REMARK SMILES IDX 26 68 48 69 49 70 54 71 50 72 51 73 53 74 55 75 52 76 36 77
REMARK SMILES IDX 37 78 42 79 38 80 39 81 41 82 43 83 40 84
REMARK H PARENT 6 5 72 15 10 27 60 46 34 57
REMARK Flexibility Score: inf
ROOT
ATOM      1  C   UNL A   1      36.191  20.549  24.737  1.00  0.00     0.117 C 
ENDROOT
BRANCH   1   2
ATOM      2  N   UNL A   1      35.554  20.951  25.979  1.00  0.00    -0.356 N 
ATOM      3  C   UNL A   1      34.757  22.001  26.300  1.00  0.00     0.225 C 
ATOM      4  O   UNL A   1      34.390  22.079  27.477  1.00  0.00    -0.275 OA
ATOM      5  H   UNL A   1      35.734  20.345  26.734  1.00  0.00     0.163 HD
BRANCH   3   6
ATOM      6  C   UNL A   1      34.341  23.083  25.316  1.00  0.00     0.102 C 
ATOM      7  C   UNL A   1      32.672  22.939  23.447  1.00  0.00     0.032 C 
ATOM      8  C   UNL A   1      32.846  23.017  24.969  1.00  0.00     0.096 C 
ATOM      9  N   UNL A   1      32.278  24.257  25.488  1.00  0.00    -0.321 N 
ATOM     10  C   UNL A   1      34.638  24.519  25.739  1.00  0.00     0.037 C 
ATOM     11  C   UNL A   1      33.319  25.266  25.606  1.00  0.00     0.122 C 
BRANCH   9  12
ATOM     12  C   UNL A   1      31.010  24.584  25.852  1.00  0.00     0.317 C 
ATOM     13  O   UNL A   1      30.609  24.389  27.005  1.00  0.00    -0.249 OA
ATOM     14  N   UNL A   1      30.105  25.114  25.019  1.00  0.00    -0.334 N 
ATOM     15  H   UNL A   1      29.215  25.146  25.436  1.00  0.00     0.165 HD
BRANCH  14  16
ATOM     16  C   UNL A   1      30.072  25.652  23.677  1.00  0.00     0.157 C 
BRANCH  16  17
ATOM     17  C   UNL A   1      30.094  27.135  23.745  1.00  0.00     0.009 A 
ATOM     18  C   UNL A   1      31.047  27.946  24.406  1.00  0.00     0.140 A 
ATOM     19  C   UNL A   1      29.195  28.045  23.220  1.00  0.00     0.113 A 
ATOM     20  N   UNL A   1      30.796  29.249  24.276  1.00  0.00    -0.181 NA
ATOM     21  N   UNL A   1      29.650  29.283  23.573  1.00  0.00    -0.275 N 
ATOM     22  C   UNL A   1      29.042  30.554  23.263  1.00  0.00     0.173 C 
ENDBRANCH  16  17
ENDBRANCH  14  16
ENDBRANCH   9  12
ENDBRANCH   3   6
ENDBRANCH   1   2
BRANCH   1  23
ATOM     23  C   UNL A   1      37.373  19.613  24.959  1.00  0.00     0.042 C 
BRANCH  23  24
ATOM     24  C   UNL A   1      38.607  20.270  25.568  1.00  0.00     0.118 C 
BRANCH  24  25
ATOM     25  N   UNL A   1      39.739  19.358  25.664  1.00  0.00    -0.352 N 
ATOM     26  C   UNL A   1      41.041  19.585  26.031  1.00  0.00     0.251 C 
ATOM     27  H   UNL A   1      39.537  18.425  25.426  1.00  0.00     0.163 HD
ATOM     28  O   UNL A   1      41.872  18.691  25.870  1.00  0.00    -0.269 OA
BRANCH  26  29
ATOM     29  C   UNL A   1      41.473  20.880  26.604  1.00  0.00     0.039 A 
ATOM     30  C   UNL A   1      41.958  21.863  25.734  1.00  0.00     0.014 A 
ATOM     31  C   UNL A   1      41.470  21.118  27.980  1.00  0.00     0.014 A 
ATOM     32  C   UNL A   1      42.388  23.094  26.234  1.00  0.00     0.010 A 
ATOM     33  C   UNL A   1      41.835  22.371  28.475  1.00  0.00     0.010 A 
ATOM     34  C   UNL A   1      42.304  23.368  27.608  1.00  0.00    -0.014 A 
BRANCH  34  35
ATOM     35  C   UNL A   1      42.696  24.693  28.152  1.00  0.00     0.031 A 
ATOM     36  C   UNL A   1      41.668  25.771  28.353  1.00  0.00     0.074 A 
ATOM     37  C   UNL A   1      43.995  24.949  28.407  1.00  0.00     0.049 A 
ATOM     38  N   UNL A   1      41.831  27.005  28.761  1.00  0.00    -0.248 NA
ATOM     39  C   UNL A   1      40.273  25.420  28.043  1.00  0.00     0.031 C 
ATOM     40  C   UNL A   1      45.096  24.001  28.230  1.00  0.00     0.029 A 
ATOM     41  N   UNL A   1      44.609  26.094  28.848  1.00  0.00    -0.354 N 
ATOM     42  C   UNL A   1      40.565  27.576  28.754  1.00  0.00     0.074 A 
ATOM     43  C   UNL A   1      39.652  26.573  28.252  1.00  0.00     0.031 C 
ATOM     44  C   UNL A   1      46.252  24.606  28.542  1.00  0.00     0.029 A 
ATOM     45  C   UNL A   1      45.975  25.986  28.934  1.00  0.00     0.049 A 
ATOM     46  H   UNL A   1      44.118  26.914  29.081  1.00  0.00     0.167 HD
ATOM     47  C   UNL A   1      40.193  28.815  29.157  1.00  0.00     0.037 A 
ATOM     48  C   UNL A   1      46.903  26.895  29.285  1.00  0.00     0.037 A 
ATOM     49  C   UNL A   1      41.096  29.809  29.674  1.00  0.00     0.049 A 
ATOM     50  C   UNL A   1      46.469  28.265  29.718  1.00  0.00     0.074 A 
ATOM     51  C   UNL A   1      40.804  31.071  30.162  1.00  0.00     0.029 A 
ATOM     52  N   UNL A   1      42.470  29.654  29.767  1.00  0.00    -0.354 N 
ATOM     53  N   UNL A   1      45.260  28.768  29.773  1.00  0.00    -0.248 NA
ATOM     54  C   UNL A   1      47.525  29.186  30.159  1.00  0.00     0.031 C 
ATOM     55  C   UNL A   1      42.007  31.691  30.521  1.00  0.00     0.029 A 
ATOM     56  C   UNL A   1      43.043  30.801  30.290  1.00  0.00     0.049 A 
ATOM     57  H   UNL A   1      42.966  28.846  29.501  1.00  0.00     0.167 HD
ATOM     58  C   UNL A   1      45.405  30.051  30.280  1.00  0.00     0.074 A 
ATOM     59  C   UNL A   1      46.819  30.247  30.525  1.00  0.00     0.031 C 
ATOM     60  C   UNL A   1      44.452  30.982  30.526  1.00  0.00     0.037 A 
BRANCH  47  61
ATOM     61  C   UNL A   1      38.735  29.157  29.067  1.00  0.00     0.057 A 
ATOM     62  C   UNL A   1      37.888  29.057  30.179  1.00  0.00     0.134 A 
ATOM     63  C   UNL A   1      38.177  29.619  27.869  1.00  0.00     0.134 A 
ATOM     64  F   UNL A   1      38.358  28.611  31.354  1.00  0.00    -0.206 F 
ATOM     65  C   UNL A   1      36.532  29.381  30.096  1.00  0.00     0.040 A 
ATOM     66  C   UNL A   1      36.828  29.967  27.779  1.00  0.00     0.040 A 
ATOM     67  F   UNL A   1      38.934  29.744  26.769  1.00  0.00    -0.206 F 
ATOM     68  C   UNL A   1      36.000  29.842  28.894  1.00  0.00     0.006 A 
ENDBRANCH  47  61
BRANCH  48  69
ATOM     69  C   UNL A   1      48.338  26.521  29.271  1.00  0.00     0.057 A 
ATOM     70  C   UNL A   1      48.936  25.911  30.379  1.00  0.00     0.134 A 
ATOM     71  C   UNL A   1      49.138  26.754  28.147  1.00  0.00     0.134 A 
ATOM     72  F   UNL A   1      48.219  25.675  31.486  1.00  0.00    -0.206 F 
ATOM     73  C   UNL A   1      50.286  25.562  30.377  1.00  0.00     0.040 A 
ATOM     74  C   UNL A   1      50.486  26.394  28.125  1.00  0.00     0.040 A 
ATOM     75  F   UNL A   1      48.617  27.319  27.047  1.00  0.00    -0.206 F 
ATOM     76  C   UNL A   1      51.065  25.801  29.246  1.00  0.00     0.006 A 
ENDBRANCH  48  69
BRANCH  60  77
ATOM     77  C   UNL A   1      44.907  32.285  31.111  1.00  0.00     0.057 A 
ATOM     78  C   UNL A   1      45.031  32.469  32.494  1.00  0.00     0.134 A 
ATOM     79  C   UNL A   1      45.244  33.362  30.282  1.00  0.00     0.134 A 
ATOM     80  F   UNL A   1      44.708  31.480  33.343  1.00  0.00    -0.206 F 
ATOM     81  C   UNL A   1      45.452  33.685  33.032  1.00  0.00     0.040 A 
ATOM     82  C   UNL A   1      45.687  34.576  30.808  1.00  0.00     0.040 A 
ATOM     83  F   UNL A   1      45.152  33.250  28.948  1.00  0.00    -0.206 F 
ATOM     84  C   UNL A   1      45.787  34.742  32.187  1.00  0.00     0.006 A 
ENDBRANCH  60  77
ENDBRANCH  34  35
ENDBRANCH  26  29
ENDBRANCH  24  25
ENDBRANCH  23  24
ENDBRANCH   1  23
TORSDOF 13
ENDMDL
