MODEL 1
REMARK VINA RESULT:     -13.2      0.000      0.000
REMARK SMILES O=C(NCCCNC(=O)[C@@H](CO)NC(=O)c1ccc2noc(-c3ccccc3)c2c1)c1ccc(-c2c3nc(c(-c4c(F)cccc4F)c4ccc([nH]4)c(-c4c(F)cccc4F)c4nc(c(-c5c(F)cccc5F)c5ccc2[nH]5)C=C4)C=C3)cc1
REMARK SMILES IDX 5 1 4 2 3 3 1 4 2 5 31 7 32 8 84 9 33 10 83 11 34 12 35 13
REMARK SMILES IDX 36 14 77 15 37 16 82 17 76 18 78 19 38 20 81 21 75 22 74 23
REMARK SMILES IDX 39 25 65 26 48 27 64 28 49 29 52 30 63 31 79 32 50 33 51 34
REMARK SMILES IDX 62 36 80 37 53 38 40 39 41 40 46 41 42 42 43 43 45 44 47 45
REMARK SMILES IDX 44 46 66 47 67 48 72 49 68 50 69 51 71 52 73 53 70 54 54 55
REMARK SMILES IDX 55 56 60 57 56 58 57 59 59 60 61 61 58 62 6 63 7 64 8 65
REMARK SMILES IDX 9 67 10 68 11 69 12 70 13 72 14 73 15 75 16 76 17 77 30 78
REMARK SMILES IDX 18 79 29 80 19 81 22 82 20 83 21 84 23 85 24 86 28 87 25 88
REMARK SMILES IDX 27 89 26 90
REMARK H PARENT 3 6 78 24 52 35 7 66 12 71 13 74
REMARK Flexibility Score: inf
ROOT
ATOM      1  C   UNL A   1      33.709  28.606  27.130  1.00  0.00     0.042 C 
ENDROOT
BRANCH   1   2
ATOM      2  C   UNL A   1      35.120  29.116  27.325  1.00  0.00     0.118 C 
BRANCH   2   3
ATOM      3  N   UNL A   1      35.349  29.792  28.603  1.00  0.00    -0.352 N 
ATOM      4  O   UNL A   1      36.399  29.920  30.626  1.00  0.00    -0.269 OA
ATOM      5  C   UNL A   1      36.438  29.614  29.458  1.00  0.00     0.251 C 
ATOM      6  H   UNL A   1      34.665  30.439  28.890  1.00  0.00     0.163 HD
BRANCH   5   7
ATOM      7  C   UNL A   1      37.654  29.025  28.860  1.00  0.00     0.039 A 
ATOM      8  C   UNL A   1      38.281  29.576  27.744  1.00  0.00     0.014 A 
ATOM      9  C   UNL A   1      38.249  28.006  29.587  1.00  0.00     0.014 A 
ATOM     10  C   UNL A   1      39.577  29.157  27.442  1.00  0.00     0.010 A 
ATOM     11  C   UNL A   1      39.595  27.813  29.446  1.00  0.00     0.010 A 
ATOM     12  C   UNL A   1      40.255  28.299  28.327  1.00  0.00    -0.014 A 
BRANCH  12  13
ATOM     13  C   UNL A   1      41.659  27.933  28.129  1.00  0.00     0.031 A 
ATOM     14  C   UNL A   1      41.903  26.680  27.369  1.00  0.00     0.074 A 
ATOM     15  C   UNL A   1      42.703  28.711  28.502  1.00  0.00     0.049 A 
ATOM     16  N   UNL A   1      42.276  25.544  27.858  1.00  0.00    -0.248 NA
ATOM     17  C   UNL A   1      41.582  26.634  25.936  1.00  0.00     0.031 C 
ATOM     18  C   UNL A   1      42.704  30.080  29.042  1.00  0.00     0.029 A 
ATOM     19  N   UNL A   1      44.036  28.441  28.403  1.00  0.00    -0.354 N 
ATOM     20  C   UNL A   1      42.453  24.694  26.773  1.00  0.00     0.074 A 
ATOM     21  C   UNL A   1      41.843  25.356  25.648  1.00  0.00     0.031 C 
ATOM     22  C   UNL A   1      43.949  30.597  28.990  1.00  0.00     0.029 A 
ATOM     23  C   UNL A   1      44.861  29.533  28.630  1.00  0.00     0.049 A 
ATOM     24  H   UNL A   1      44.383  27.545  28.188  1.00  0.00     0.167 HD
ATOM     25  C   UNL A   1      43.309  23.636  26.853  1.00  0.00     0.037 A 
ATOM     26  C   UNL A   1      46.212  29.574  28.575  1.00  0.00     0.037 A 
ATOM     27  C   UNL A   1      43.642  23.342  28.229  1.00  0.00     0.049 A 
ATOM     28  C   UNL A   1      46.696  28.189  28.759  1.00  0.00     0.074 A 
ATOM     29  C   UNL A   1      42.920  23.027  29.366  1.00  0.00     0.029 A 
ATOM     30  N   UNL A   1      44.883  23.720  28.682  1.00  0.00    -0.354 N 
ATOM     31  N   UNL A   1      46.608  27.538  29.885  1.00  0.00    -0.248 NA
ATOM     32  C   UNL A   1      46.872  27.364  27.575  1.00  0.00     0.031 C 
ATOM     33  C   UNL A   1      43.585  23.711  30.428  1.00  0.00     0.029 A 
ATOM     34  C   UNL A   1      44.708  24.343  29.890  1.00  0.00     0.049 A 
ATOM     35  H   UNL A   1      45.741  23.573  28.221  1.00  0.00     0.167 HD
ATOM     36  C   UNL A   1      46.260  26.247  29.516  1.00  0.00     0.074 A 
ATOM     37  C   UNL A   1      46.552  26.173  28.085  1.00  0.00     0.031 C 
ATOM     38  C   UNL A   1      45.508  25.457  30.339  1.00  0.00     0.037 A 
BRANCH  25  39
ATOM     39  C   UNL A   1      44.172  23.145  25.712  1.00  0.00     0.057 A 
ATOM     40  C   UNL A   1      45.148  23.923  25.059  1.00  0.00     0.134 A 
ATOM     41  C   UNL A   1      44.268  21.757  25.483  1.00  0.00     0.134 A 
ATOM     42  F   UNL A   1      45.224  25.252  25.196  1.00  0.00    -0.206 F 
ATOM     43  C   UNL A   1      46.180  23.364  24.299  1.00  0.00     0.040 A 
ATOM     44  C   UNL A   1      45.327  21.185  24.767  1.00  0.00     0.040 A 
ATOM     45  F   UNL A   1      43.392  20.906  26.036  1.00  0.00    -0.206 F 
ATOM     46  C   UNL A   1      46.298  21.989  24.187  1.00  0.00     0.006 A 
ENDBRANCH  25  39
BRANCH  26  47
ATOM     47  C   UNL A   1      47.092  30.698  28.200  1.00  0.00     0.057 A 
ATOM     48  C   UNL A   1      47.864  31.373  29.161  1.00  0.00     0.134 A 
ATOM     49  C   UNL A   1      46.988  31.314  26.946  1.00  0.00     0.134 A 
ATOM     50  F   UNL A   1      47.979  30.902  30.413  1.00  0.00    -0.206 F 
ATOM     51  C   UNL A   1      48.473  32.604  28.903  1.00  0.00     0.040 A 
ATOM     52  C   UNL A   1      47.587  32.551  26.676  1.00  0.00     0.040 A 
ATOM     53  F   UNL A   1      46.250  30.760  25.974  1.00  0.00    -0.206 F 
ATOM     54  C   UNL A   1      48.319  33.207  27.661  1.00  0.00     0.006 A 
ENDBRANCH  26  47
BRANCH  38  55
ATOM     55  C   UNL A   1      45.313  25.919  31.758  1.00  0.00     0.057 A 
ATOM     56  C   UNL A   1      44.184  26.683  32.068  1.00  0.00     0.134 A 
ATOM     57  C   UNL A   1      46.247  25.725  32.788  1.00  0.00     0.134 A 
ATOM     58  F   UNL A   1      43.274  26.960  31.120  1.00  0.00    -0.206 F 
ATOM     59  C   UNL A   1      43.975  27.208  33.346  1.00  0.00     0.040 A 
ATOM     60  C   UNL A   1      46.034  26.217  34.080  1.00  0.00     0.040 A 
ATOM     61  F   UNL A   1      47.408  25.096  32.565  1.00  0.00    -0.206 F 
ATOM     62  C   UNL A   1      44.895  26.964  34.362  1.00  0.00     0.006 A 
ENDBRANCH  38  55
ENDBRANCH  12  13
ENDBRANCH   5   7
ENDBRANCH   2   3
ENDBRANCH   1   2
BRANCH   1  63
ATOM     63  C   UNL A   1      33.006  29.169  25.892  1.00  0.00     0.117 C 
BRANCH  63  64
ATOM     64  N   UNL A   1      33.835  29.213  24.692  1.00  0.00    -0.354 N 
ATOM     65  C   UNL A   1      33.654  28.760  23.419  1.00  0.00     0.244 C 
ATOM     66  H   UNL A   1      34.701  29.659  24.830  1.00  0.00     0.163 HD
ATOM     67  O   UNL A   1      34.636  28.841  22.668  1.00  0.00    -0.273 OA
BRANCH  65  68
ATOM     68  C   UNL A   1      32.390  28.024  22.927  1.00  0.00     0.197 C 
BRANCH  68  69
ATOM     69  C   UNL A   1      31.209  29.003  22.846  1.00  0.00     0.191 C 
BRANCH  69  70
ATOM     70  O   UNL A   1      31.254  29.825  21.686  1.00  0.00    -0.394 OA
ATOM     71  H   UNL A   1      30.579  30.518  21.756  1.00  0.00     0.210 HD
ENDBRANCH  69  70
ENDBRANCH  68  69
BRANCH  68  72
ATOM     72  N   UNL A   1      32.572  27.217  21.715  1.00  0.00    -0.338 N 
ATOM     73  C   UNL A   1      32.749  25.867  21.578  1.00  0.00     0.252 C 
ATOM     74  H   UNL A   1      32.565  27.724  20.871  1.00  0.00     0.164 HD
ATOM     75  O   UNL A   1      33.156  25.408  20.517  1.00  0.00    -0.269 OA
BRANCH  73  76
ATOM     76  C   UNL A   1      32.470  24.958  22.709  1.00  0.00     0.040 A 
ATOM     77  C   UNL A   1      31.110  24.633  23.033  1.00  0.00     0.016 A 
ATOM     78  C   UNL A   1      33.588  24.417  23.377  1.00  0.00     0.028 A 
ATOM     79  C   UNL A   1      30.739  23.810  24.118  1.00  0.00     0.033 A 
ATOM     80  C   UNL A   1      33.185  23.594  24.425  1.00  0.00     0.050 A 
ATOM     81  C   UNL A   1      31.834  23.281  24.819  1.00  0.00     0.114 A 
ATOM     82  C   UNL A   1      33.996  22.861  25.245  1.00  0.00     0.174 A 
ATOM     83  N   UNL A   1      31.865  22.446  25.870  1.00  0.00    -0.079 NA
ATOM     84  O   UNL A   1      33.203  22.175  26.119  1.00  0.00    -0.355 OA
BRANCH  82  85
ATOM     85  C   UNL A   1      35.421  22.630  25.366  1.00  0.00     0.021 A 
ATOM     86  C   UNL A   1      35.958  21.383  25.019  1.00  0.00     0.012 A 
ATOM     87  C   UNL A   1      36.283  23.652  25.783  1.00  0.00     0.012 A 
ATOM     88  C   UNL A   1      37.335  21.165  25.078  1.00  0.00     0.001 A 
ATOM     89  C   UNL A   1      37.660  23.430  25.849  1.00  0.00     0.001 A 
ATOM     90  C   UNL A   1      38.185  22.189  25.492  1.00  0.00     0.000 A 
ENDBRANCH  82  85
ENDBRANCH  73  76
ENDBRANCH  68  72
ENDBRANCH  65  68
ENDBRANCH  63  64
ENDBRANCH   1  63
TORSDOF 15
ENDMDL
MODEL 2
REMARK VINA RESULT:     -12.7      4.559      9.510
REMARK SMILES O=C(NCCCNC(=O)[C@@H](CO)NC(=O)c1ccc2noc(-c3ccccc3)c2c1)c1ccc(-c2c3nc(c(-c4c(F)cccc4F)c4ccc([nH]4)c(-c4c(F)cccc4F)c4nc(c(-c5c(F)cccc5F)c5ccc2[nH]5)C=C4)C=C3)cc1
REMARK SMILES IDX 5 1 4 2 3 3 1 4 2 5 31 7 32 8 84 9 33 10 83 11 34 12 35 13
REMARK SMILES IDX 36 14 77 15 37 16 82 17 76 18 78 19 38 20 81 21 75 22 74 23
REMARK SMILES IDX 39 25 65 26 48 27 64 28 49 29 52 30 63 31 79 32 50 33 51 34
REMARK SMILES IDX 62 36 80 37 53 38 40 39 41 40 46 41 42 42 43 43 45 44 47 45
REMARK SMILES IDX 44 46 66 47 67 48 72 49 68 50 69 51 71 52 73 53 70 54 54 55
REMARK SMILES IDX 55 56 60 57 56 58 57 59 59 60 61 61 58 62 6 63 7 64 8 65
REMARK SMILES IDX 9 67 10 68 11 69 12 70 13 72 14 73 15 75 16 76 17 77 30 78
REMARK SMILES IDX 18 79 29 80 19 81 22 82 20 83 21 84 23 85 24 86 28 87 25 88
REMARK SMILES IDX 27 89 26 90
REMARK H PARENT 3 6 78 24 52 35 7 66 12 71 13 74
REMARK Flexibility Score: inf
ROOT
ATOM      1  C   UNL A   1      34.536  35.393  28.196  1.00  0.00     0.042 C 
ENDROOT
BRANCH   1   2
ATOM      2  C   UNL A   1      35.235  34.072  28.429  1.00  0.00     0.118 C 
BRANCH   2   3
ATOM      3  N   UNL A   1      34.342  32.913  28.487  1.00  0.00    -0.352 N 
ATOM      4  O   UNL A   1      33.847  30.753  27.938  1.00  0.00    -0.269 OA
ATOM      5  C   UNL A   1      34.677  31.586  28.214  1.00  0.00     0.251 C 
ATOM      6  H   UNL A   1      33.408  33.088  28.743  1.00  0.00     0.163 HD
BRANCH   5   7
ATOM      7  C   UNL A   1      36.113  31.245  28.279  1.00  0.00     0.039 A 
ATOM      8  C   UNL A   1      37.005  31.916  29.115  1.00  0.00     0.014 A 
ATOM      9  C   UNL A   1      36.488  30.092  27.608  1.00  0.00     0.014 A 
ATOM     10  C   UNL A   1      38.251  31.334  29.352  1.00  0.00     0.010 A 
ATOM     11  C   UNL A   1      37.584  29.409  28.060  1.00  0.00     0.010 A 
ATOM     12  C   UNL A   1      38.525  30.048  28.853  1.00  0.00    -0.014 A 
BRANCH  12  13
ATOM     13  C   UNL A   1      39.762  29.336  29.181  1.00  0.00     0.031 A 
ATOM     14  C   UNL A   1      39.946  28.980  30.612  1.00  0.00     0.074 A 
ATOM     15  C   UNL A   1      40.659  28.913  28.259  1.00  0.00     0.049 A 
ATOM     16  N   UNL A   1      40.737  29.559  31.453  1.00  0.00    -0.248 NA
ATOM     17  C   UNL A   1      39.077  27.961  31.217  1.00  0.00     0.031 C 
ATOM     18  C   UNL A   1      40.573  28.936  26.791  1.00  0.00     0.029 A 
ATOM     19  N   UNL A   1      41.852  28.287  28.467  1.00  0.00    -0.354 N 
ATOM     20  C   UNL A   1      40.635  28.841  32.640  1.00  0.00     0.074 A 
ATOM     21  C   UNL A   1      39.479  27.994  32.491  1.00  0.00     0.031 C 
ATOM     22  C   UNL A   1      41.529  28.148  26.258  1.00  0.00     0.029 A 
ATOM     23  C   UNL A   1      42.424  27.749  27.322  1.00  0.00     0.049 A 
ATOM     24  H   UNL A   1      42.273  28.223  29.354  1.00  0.00     0.167 HD
ATOM     25  C   UNL A   1      41.663  28.831  33.535  1.00  0.00     0.037 A 
ATOM     26  C   UNL A   1      43.581  27.055  27.224  1.00  0.00     0.037 A 
ATOM     27  C   UNL A   1      42.596  29.902  33.265  1.00  0.00     0.049 A 
ATOM     28  C   UNL A   1      44.399  27.407  28.405  1.00  0.00     0.074 A 
ATOM     29  C   UNL A   1      42.505  31.279  33.168  1.00  0.00     0.029 A 
ATOM     30  N   UNL A   1      43.790  29.576  32.669  1.00  0.00    -0.354 N 
ATOM     31  N   UNL A   1      44.939  28.580  28.584  1.00  0.00    -0.248 NA
ATOM     32  C   UNL A   1      44.249  26.600  29.604  1.00  0.00     0.031 C 
ATOM     33  C   UNL A   1      43.377  31.633  32.094  1.00  0.00     0.029 A 
ATOM     34  C   UNL A   1      43.997  30.465  31.647  1.00  0.00     0.049 A 
ATOM     35  H   UNL A   1      44.387  28.837  32.929  1.00  0.00     0.167 HD
ATOM     36  C   UNL A   1      44.774  28.837  29.937  1.00  0.00     0.074 A 
ATOM     37  C   UNL A   1      44.452  27.540  30.530  1.00  0.00     0.031 C 
ATOM     38  C   UNL A   1      44.634  30.115  30.400  1.00  0.00     0.037 A 
BRANCH  25  39
ATOM     39  C   UNL A   1      42.059  27.633  34.369  1.00  0.00     0.057 A 
ATOM     40  C   UNL A   1      42.896  26.591  33.920  1.00  0.00     0.134 A 
ATOM     41  C   UNL A   1      41.878  27.690  35.765  1.00  0.00     0.134 A 
ATOM     42  F   UNL A   1      43.203  26.415  32.630  1.00  0.00    -0.206 F 
ATOM     43  C   UNL A   1      43.556  25.721  34.792  1.00  0.00     0.040 A 
ATOM     44  C   UNL A   1      42.576  26.856  36.648  1.00  0.00     0.040 A 
ATOM     45  F   UNL A   1      41.096  28.627  36.321  1.00  0.00    -0.206 F 
ATOM     46  C   UNL A   1      43.433  25.879  36.163  1.00  0.00     0.006 A 
ENDBRANCH  25  39
BRANCH  26  47
ATOM     47  C   UNL A   1      43.943  25.984  26.276  1.00  0.00     0.057 A 
ATOM     48  C   UNL A   1      43.180  24.807  26.178  1.00  0.00     0.134 A 
ATOM     49  C   UNL A   1      45.192  25.966  25.643  1.00  0.00     0.134 A 
ATOM     50  F   UNL A   1      41.995  24.696  26.799  1.00  0.00    -0.206 F 
ATOM     51  C   UNL A   1      43.645  23.666  25.518  1.00  0.00     0.040 A 
ATOM     52  C   UNL A   1      45.673  24.827  24.984  1.00  0.00     0.040 A 
ATOM     53  F   UNL A   1      46.003  27.031  25.705  1.00  0.00    -0.206 F 
ATOM     54  C   UNL A   1      44.905  23.668  24.933  1.00  0.00     0.006 A 
ENDBRANCH  26  47
BRANCH  38  55
ATOM     55  C   UNL A   1      44.948  31.238  29.448  1.00  0.00     0.057 A 
ATOM     56  C   UNL A   1      46.232  31.789  29.459  1.00  0.00     0.134 A 
ATOM     57  C   UNL A   1      44.003  31.852  28.610  1.00  0.00     0.134 A 
ATOM     58  F   UNL A   1      47.174  31.294  30.277  1.00  0.00    -0.206 F 
ATOM     59  C   UNL A   1      46.575  32.882  28.658  1.00  0.00     0.040 A 
ATOM     60  C   UNL A   1      44.341  32.924  27.778  1.00  0.00     0.040 A 
ATOM     61  F   UNL A   1      42.723  31.464  28.605  1.00  0.00    -0.206 F 
ATOM     62  C   UNL A   1      45.631  33.444  27.802  1.00  0.00     0.006 A 
ENDBRANCH  38  55
ENDBRANCH  12  13
ENDBRANCH   5   7
ENDBRANCH   2   3
ENDBRANCH   1   2
BRANCH   1  63
ATOM     63  C   UNL A   1      33.194  35.527  28.922  1.00  0.00     0.117 C 
BRANCH  63  64
ATOM     64  N   UNL A   1      33.030  36.771  29.667  1.00  0.00    -0.354 N 
ATOM     65  C   UNL A   1      33.328  37.135  30.945  1.00  0.00     0.244 C 
ATOM     66  H   UNL A   1      32.621  37.493  29.138  1.00  0.00     0.163 HD
ATOM     67  O   UNL A   1      32.922  38.250  31.302  1.00  0.00    -0.273 OA
BRANCH  65  68
ATOM     68  C   UNL A   1      33.974  36.201  31.990  1.00  0.00     0.197 C 
BRANCH  68  69
ATOM     69  C   UNL A   1      33.713  36.736  33.406  1.00  0.00     0.191 C 
BRANCH  69  70
ATOM     70  O   UNL A   1      32.333  36.731  33.752  1.00  0.00    -0.394 OA
ATOM     71  H   UNL A   1      31.841  36.194  33.110  1.00  0.00     0.210 HD
ENDBRANCH  69  70
ENDBRANCH  68  69
BRANCH  68  72
ATOM     72  N   UNL A   1      33.659  34.776  31.830  1.00  0.00    -0.338 N 
ATOM     73  C   UNL A   1      34.430  33.674  32.080  1.00  0.00     0.252 C 
ATOM     74  H   UNL A   1      32.754  34.584  31.493  1.00  0.00     0.164 HD
ATOM     75  O   UNL A   1      34.100  32.582  31.631  1.00  0.00    -0.269 OA
BRANCH  73  76
ATOM     76  C   UNL A   1      35.672  33.794  32.873  1.00  0.00     0.040 A 
ATOM     77  C   UNL A   1      35.624  33.586  34.292  1.00  0.00     0.016 A 
ATOM     78  C   UNL A   1      36.857  34.060  32.157  1.00  0.00     0.028 A 
ATOM     79  C   UNL A   1      36.743  33.719  35.141  1.00  0.00     0.033 A 
ATOM     80  C   UNL A   1      37.942  34.162  33.022  1.00  0.00     0.050 A 
ATOM     81  C   UNL A   1      37.933  34.013  34.456  1.00  0.00     0.114 A 
ATOM     82  C   UNL A   1      39.249  34.354  32.672  1.00  0.00     0.174 A 
ATOM     83  N   UNL A   1      39.181  34.176  34.923  1.00  0.00    -0.079 NA
ATOM     84  O   UNL A   1      39.994  34.369  33.816  1.00  0.00    -0.355 OA
BRANCH  82  85
ATOM     85  C   UNL A   1      39.986  34.498  31.432  1.00  0.00     0.021 A 
ATOM     86  C   UNL A   1      39.300  34.757  30.239  1.00  0.00     0.012 A 
ATOM     87  C   UNL A   1      41.384  34.427  31.414  1.00  0.00     0.012 A 
ATOM     88  C   UNL A   1      40.000  34.953  29.048  1.00  0.00     0.001 A 
ATOM     89  C   UNL A   1      42.085  34.615  30.220  1.00  0.00     0.001 A 
ATOM     90  C   UNL A   1      41.392  34.882  29.040  1.00  0.00     0.000 A 
ENDBRANCH  82  85
ENDBRANCH  73  76
ENDBRANCH  68  72
ENDBRANCH  65  68
ENDBRANCH  63  64
ENDBRANCH   1  63
TORSDOF 15
ENDMDL
MODEL 3
REMARK VINA RESULT:     -12.6      1.947      6.283
REMARK SMILES O=C(NCCCNC(=O)[C@@H](CO)NC(=O)c1ccc2noc(-c3ccccc3)c2c1)c1ccc(-c2c3nc(c(-c4c(F)cccc4F)c4ccc([nH]4)c(-c4c(F)cccc4F)c4nc(c(-c5c(F)cccc5F)c5ccc2[nH]5)C=C4)C=C3)cc1
REMARK SMILES IDX 5 1 4 2 3 3 1 4 2 5 31 7 32 8 84 9 33 10 83 11 34 12 35 13
REMARK SMILES IDX 36 14 77 15 37 16 82 17 76 18 78 19 38 20 81 21 75 22 74 23
REMARK SMILES IDX 39 25 65 26 48 27 64 28 49 29 52 30 63 31 79 32 50 33 51 34
REMARK SMILES IDX 62 36 80 37 53 38 40 39 41 40 46 41 42 42 43 43 45 44 47 45
REMARK SMILES IDX 44 46 66 47 67 48 72 49 68 50 69 51 71 52 73 53 70 54 54 55
REMARK SMILES IDX 55 56 60 57 56 58 57 59 59 60 61 61 58 62 6 63 7 64 8 65
REMARK SMILES IDX 9 67 10 68 11 69 12 70 13 72 14 73 15 75 16 76 17 77 30 78
REMARK SMILES IDX 18 79 29 80 19 81 22 82 20 83 21 84 23 85 24 86 28 87 25 88
REMARK SMILES IDX 27 89 26 90
REMARK H PARENT 3 6 78 24 52 35 7 66 12 71 13 74
REMARK Flexibility Score: inf
ROOT
ATOM      1  C   UNL A   1      33.903  28.775  27.140  1.00  0.00     0.042 C 
ENDROOT
BRANCH   1   2
ATOM      2  C   UNL A   1      35.103  29.675  26.946  1.00  0.00     0.118 C 
BRANCH   2   3
ATOM      3  N   UNL A   1      34.899  31.060  27.373  1.00  0.00    -0.352 N 
ATOM      4  O   UNL A   1      34.841  32.650  29.010  1.00  0.00    -0.269 OA
ATOM      5  C   UNL A   1      35.331  31.638  28.567  1.00  0.00     0.251 C 
ATOM      6  H   UNL A   1      34.405  31.645  26.754  1.00  0.00     0.163 HD
BRANCH   5   7
ATOM      7  C   UNL A   1      36.428  30.945  29.274  1.00  0.00     0.039 A 
ATOM      8  C   UNL A   1      36.253  29.711  29.898  1.00  0.00     0.014 A 
ATOM      9  C   UNL A   1      37.689  31.496  29.116  1.00  0.00     0.014 A 
ATOM     10  C   UNL A   1      37.390  28.987  30.258  1.00  0.00     0.010 A 
ATOM     11  C   UNL A   1      38.773  30.669  29.218  1.00  0.00     0.010 A 
ATOM     12  C   UNL A   1      38.661  29.453  29.875  1.00  0.00    -0.014 A 
BRANCH  12  13
ATOM     13  C   UNL A   1      39.877  28.670  30.108  1.00  0.00     0.031 A 
ATOM     14  C   UNL A   1      40.395  28.676  31.501  1.00  0.00     0.074 A 
ATOM     15  C   UNL A   1      40.464  27.888  29.172  1.00  0.00     0.049 A 
ATOM     16  N   UNL A   1      41.423  29.325  31.937  1.00  0.00    -0.248 NA
ATOM     17  C   UNL A   1      39.630  27.996  32.556  1.00  0.00     0.031 C 
ATOM     18  C   UNL A   1      40.002  27.540  27.820  1.00  0.00     0.029 A 
ATOM     19  N   UNL A   1      41.613  27.162  29.279  1.00  0.00    -0.354 N 
ATOM     20  C   UNL A   1      41.572  28.966  33.272  1.00  0.00     0.074 A 
ATOM     21  C   UNL A   1      40.350  28.298  33.640  1.00  0.00     0.031 C 
ATOM     22  C   UNL A   1      40.717  26.502  27.338  1.00  0.00     0.029 A 
ATOM     23  C   UNL A   1      41.822  26.262  28.242  1.00  0.00     0.049 A 
ATOM     24  H   UNL A   1      42.243  27.267  30.027  1.00  0.00     0.167 HD
ATOM     25  C   UNL A   1      42.792  29.032  33.875  1.00  0.00     0.037 A 
ATOM     26  C   UNL A   1      42.851  25.397  28.093  1.00  0.00     0.037 A 
ATOM     27  C   UNL A   1      43.710  29.839  33.103  1.00  0.00     0.049 A 
ATOM     28  C   UNL A   1      43.974  25.915  28.903  1.00  0.00     0.074 A 
ATOM     29  C   UNL A   1      43.714  31.140  32.632  1.00  0.00     0.029 A 
ATOM     30  N   UNL A   1      44.677  29.188  32.375  1.00  0.00    -0.354 N 
ATOM     31  N   UNL A   1      44.638  26.997  28.608  1.00  0.00    -0.248 NA
ATOM     32  C   UNL A   1      44.073  25.482  30.287  1.00  0.00     0.031 C 
ATOM     33  C   UNL A   1      44.304  31.062  31.335  1.00  0.00     0.029 A 
ATOM     34  C   UNL A   1      44.686  29.737  31.119  1.00  0.00     0.049 A 
ATOM     35  H   UNL A   1      45.256  28.460  32.697  1.00  0.00     0.167 HD
ATOM     36  C   UNL A   1      44.852  27.620  29.828  1.00  0.00     0.074 A 
ATOM     37  C   UNL A   1      44.587  26.588  30.829  1.00  0.00     0.031 C 
ATOM     38  C   UNL A   1      44.945  28.980  29.918  1.00  0.00     0.037 A 
BRANCH  25  39
ATOM     39  C   UNL A   1      43.289  28.047  34.911  1.00  0.00     0.057 A 
ATOM     40  C   UNL A   1      43.543  26.684  34.656  1.00  0.00     0.134 A 
ATOM     41  C   UNL A   1      43.851  28.543  36.104  1.00  0.00     0.134 A 
ATOM     42  F   UNL A   1      43.115  26.063  33.552  1.00  0.00    -0.206 F 
ATOM     43  C   UNL A   1      44.350  25.897  35.483  1.00  0.00     0.040 A 
ATOM     44  C   UNL A   1      44.702  27.777  36.909  1.00  0.00     0.040 A 
ATOM     45  F   UNL A   1      43.674  29.821  36.469  1.00  0.00    -0.206 F 
ATOM     46  C   UNL A   1      44.968  26.453  36.590  1.00  0.00     0.006 A 
ENDBRANCH  25  39
BRANCH  26  47
ATOM     47  C   UNL A   1      42.862  24.073  27.441  1.00  0.00     0.057 A 
ATOM     48  C   UNL A   1      42.997  23.947  26.047  1.00  0.00     0.134 A 
ATOM     49  C   UNL A   1      42.467  22.921  28.130  1.00  0.00     0.134 A 
ATOM     50  F   UNL A   1      43.311  25.004  25.282  1.00  0.00    -0.206 F 
ATOM     51  C   UNL A   1      42.723  22.754  25.373  1.00  0.00     0.040 A 
ATOM     52  C   UNL A   1      42.183  21.720  27.468  1.00  0.00     0.040 A 
ATOM     53  F   UNL A   1      42.285  22.950  29.458  1.00  0.00    -0.206 F 
ATOM     54  C   UNL A   1      42.296  21.639  26.083  1.00  0.00     0.006 A 
ENDBRANCH  26  47
BRANCH  38  55
ATOM     55  C   UNL A   1      45.095  29.753  28.635  1.00  0.00     0.057 A 
ATOM     56  C   UNL A   1      46.381  30.078  28.192  1.00  0.00     0.134 A 
ATOM     57  C   UNL A   1      44.022  30.270  27.893  1.00  0.00     0.134 A 
ATOM     58  F   UNL A   1      47.457  29.669  28.882  1.00  0.00    -0.206 F 
ATOM     59  C   UNL A   1      46.595  30.857  27.052  1.00  0.00     0.040 A 
ATOM     60  C   UNL A   1      44.221  31.022  26.731  1.00  0.00     0.040 A 
ATOM     61  F   UNL A   1      42.755  30.102  28.293  1.00  0.00    -0.206 F 
ATOM     62  C   UNL A   1      45.512  31.320  26.308  1.00  0.00     0.006 A 
ENDBRANCH  38  55
ENDBRANCH  12  13
ENDBRANCH   5   7
ENDBRANCH   2   3
ENDBRANCH   1   2
BRANCH   1  63
ATOM     63  C   UNL A   1      33.458  28.042  25.870  1.00  0.00     0.117 C 
BRANCH  63  64
ATOM     64  N   UNL A   1      34.005  28.589  24.633  1.00  0.00    -0.354 N 
ATOM     65  C   UNL A   1      33.604  28.527  23.332  1.00  0.00     0.244 C 
ATOM     66  H   UNL A   1      34.832  29.107  24.765  1.00  0.00     0.163 HD
ATOM     67  O   UNL A   1      34.391  28.996  22.497  1.00  0.00    -0.273 OA
BRANCH  65  68
ATOM     68  C   UNL A   1      32.346  27.781  22.842  1.00  0.00     0.197 C 
BRANCH  68  69
ATOM     69  C   UNL A   1      31.168  28.760  22.719  1.00  0.00     0.191 C 
BRANCH  69  70
ATOM     70  O   UNL A   1      31.414  29.802  21.783  1.00  0.00    -0.394 OA
ATOM     71  H   UNL A   1      32.265  29.649  21.345  1.00  0.00     0.210 HD
ENDBRANCH  69  70
ENDBRANCH  68  69
BRANCH  68  72
ATOM     72  N   UNL A   1      32.543  26.943  21.653  1.00  0.00    -0.338 N 
ATOM     73  C   UNL A   1      32.789  25.601  21.557  1.00  0.00     0.252 C 
ATOM     74  H   UNL A   1      32.488  27.419  20.792  1.00  0.00     0.164 HD
ATOM     75  O   UNL A   1      33.195  25.127  20.502  1.00  0.00    -0.269 OA
BRANCH  73  76
ATOM     76  C   UNL A   1      32.588  24.718  22.725  1.00  0.00     0.040 A 
ATOM     77  C   UNL A   1      31.256  24.327  23.091  1.00  0.00     0.016 A 
ATOM     78  C   UNL A   1      33.749  24.267  23.386  1.00  0.00     0.028 A 
ATOM     79  C   UNL A   1      30.956  23.524  24.211  1.00  0.00     0.033 A 
ATOM     80  C   UNL A   1      33.416  23.460  24.470  1.00  0.00     0.050 A 
ATOM     81  C   UNL A   1      32.095  23.084  24.905  1.00  0.00     0.114 A 
ATOM     82  C   UNL A   1      34.286  22.805  25.296  1.00  0.00     0.174 A 
ATOM     83  N   UNL A   1      32.196  22.290  25.984  1.00  0.00    -0.079 NA
ATOM     84  O   UNL A   1      33.552  22.106  26.211  1.00  0.00    -0.355 OA
BRANCH  82  85
ATOM     85  C   UNL A   1      35.725  22.661  25.392  1.00  0.00     0.021 A 
ATOM     86  C   UNL A   1      36.500  23.717  25.890  1.00  0.00     0.012 A 
ATOM     87  C   UNL A   1      36.353  21.462  25.036  1.00  0.00     0.012 A 
ATOM     88  C   UNL A   1      37.880  23.572  26.040  1.00  0.00     0.001 A 
ATOM     89  C   UNL A   1      37.735  21.320  25.179  1.00  0.00     0.001 A 
ATOM     90  C   UNL A   1      38.496  22.374  25.684  1.00  0.00     0.000 A 
ENDBRANCH  82  85
ENDBRANCH  73  76
ENDBRANCH  68  72
ENDBRANCH  65  68
ENDBRANCH  63  64
ENDBRANCH   1  63
TORSDOF 15
ENDMDL
