MODEL 1
REMARK VINA RESULT:     -12.1      0.000      0.000
REMARK SMILES CCCN1CCC[C@@]2(CCN(c3ccc(C(=O)NCCCNC(=O)c4ccc(-c5c6nc(c(-c7c(F)cccc7F)c7ccc([nH]7)c(-c7c(F)cccc7F)c7nc(c(-c8c(F)cccc8F)c8ccc5[nH]8)C=C7)C=C6)cc4)cn3)C2)C1=O
REMARK SMILES IDX 19 1 18 2 16 3 17 4 15 6 12 7 13 8 80 9 14 10 79 11 11 12
REMARK SMILES IDX 4 13 5 14 82 15 6 16 8 17 83 18 7 19 9 20 81 21 10 22 3 23
REMARK SMILES IDX 2 24 1 25 20 26 21 27 22 28 23 29 24 31 25 32 26 33 78 34
REMARK SMILES IDX 27 35 77 36 28 37 29 38 30 39 71 40 31 41 76 42 70 43 72 44
REMARK SMILES IDX 32 45 75 46 69 47 68 48 33 50 59 51 42 52 58 53 43 54 46 55
REMARK SMILES IDX 57 56 73 57 44 58 45 59 56 61 74 62 47 63 34 64 35 65 40 66
REMARK SMILES IDX 36 67 37 68 39 69 41 70 38 71 60 72 61 73 66 74 62 75 63 76
REMARK SMILES IDX 65 77 67 78 64 79 48 80 49 81 54 82 50 83 51 84 53 85 55 86
REMARK SMILES IDX 52 87
REMARK H PARENT 18 5 22 30 72 49 46 60
REMARK Flexibility Score: inf
ROOT
ATOM      1  C   UNL A   1      36.589  20.452  24.999  1.00  0.00     0.118 C 
ENDROOT
BRANCH   1   2
ATOM      2  N   UNL A   1      35.441  19.571  24.891  1.00  0.00    -0.352 N 
ATOM      3  C   UNL A   1      34.086  19.790  24.947  1.00  0.00     0.252 C 
ATOM      4  O   UNL A   1      33.354  18.817  24.761  1.00  0.00    -0.269 OA
ATOM      5  H   UNL A   1      35.680  18.626  24.751  1.00  0.00     0.163 HD
BRANCH   3   6
ATOM      6  C   UNL A   1      33.470  21.118  25.186  1.00  0.00     0.058 A 
ATOM      7  C   UNL A   1      32.310  23.542  25.911  1.00  0.00     0.128 A 
ATOM      8  C   UNL A   1      32.381  23.173  24.574  1.00  0.00     0.048 A 
ATOM      9  N   UNL A   1      32.831  22.762  26.875  1.00  0.00    -0.239 NA
ATOM     10  C   UNL A   1      33.000  21.982  24.207  1.00  0.00     0.019 A 
ATOM     11  C   UNL A   1      33.376  21.571  26.500  1.00  0.00     0.127 A 
BRANCH   7  12
ATOM     12  N   UNL A   1      31.714  24.740  26.217  1.00  0.00    -0.356 N 
ATOM     13  N   UNL A   1      32.361  28.757  24.631  1.00  0.00    -0.342 N 
ATOM     14  C   UNL A   1      32.633  29.716  25.689  1.00  0.00     0.119 C 
ATOM     15  C   UNL A   1      31.390  27.783  24.852  1.00  0.00     0.230 C 
ATOM     16  C   UNL A   1      33.021  28.983  26.958  1.00  0.00     0.023 C 
ATOM     17  C   UNL A   1      31.465  27.109  26.231  1.00  0.00     0.069 C 
ATOM     18  O   UNL A   1      30.670  27.358  23.951  1.00  0.00    -0.274 OA
ATOM     19  C   UNL A   1      31.858  28.078  27.360  1.00  0.00     0.021 C 
ATOM     20  C   UNL A   1      30.146  26.374  26.555  1.00  0.00     0.040 C 
ATOM     21  C   UNL A   1      32.503  25.961  26.097  1.00  0.00     0.135 C 
ATOM     22  C   UNL A   1      30.322  24.994  25.919  1.00  0.00     0.119 C 
BRANCH  13  23
ATOM     23  C   UNL A   1      32.981  28.795  23.308  1.00  0.00     0.119 C 
BRANCH  23  24
ATOM     24  C   UNL A   1      34.004  27.727  22.930  1.00  0.00     0.018 C 
ATOM     25  C   UNL A   1      33.471  26.675  21.965  1.00  0.00     0.006 C 
ENDBRANCH  23  24
ENDBRANCH  13  23
ENDBRANCH   7  12
ENDBRANCH   3   6
ENDBRANCH   1   2
BRANCH   1  26
ATOM     26  C   UNL A   1      37.901  19.675  24.869  1.00  0.00     0.042 C 
BRANCH  26  27
ATOM     27  C   UNL A   1      39.016  20.237  25.748  1.00  0.00     0.118 C 
BRANCH  27  28
ATOM     28  N   UNL A   1      40.133  19.306  25.863  1.00  0.00    -0.352 N 
ATOM     29  C   UNL A   1      41.461  19.545  26.097  1.00  0.00     0.251 C 
ATOM     30  H   UNL A   1      39.896  18.356  25.754  1.00  0.00     0.163 HD
ATOM     31  O   UNL A   1      42.287  18.651  25.898  1.00  0.00    -0.269 OA
BRANCH  29  32
ATOM     32  C   UNL A   1      41.914  20.865  26.579  1.00  0.00     0.039 A 
ATOM     33  C   UNL A   1      42.411  21.791  25.657  1.00  0.00     0.014 A 
ATOM     34  C   UNL A   1      41.881  21.177  27.941  1.00  0.00     0.014 A 
ATOM     35  C   UNL A   1      42.802  23.060  26.091  1.00  0.00     0.010 A 
ATOM     36  C   UNL A   1      42.208  22.463  28.363  1.00  0.00     0.010 A 
ATOM     37  C   UNL A   1      42.663  23.419  27.442  1.00  0.00    -0.014 A 
BRANCH  37  38
ATOM     38  C   UNL A   1      42.947  24.798  27.911  1.00  0.00     0.031 A 
ATOM     39  C   UNL A   1      44.337  25.188  28.325  1.00  0.00     0.074 A 
ATOM     40  C   UNL A   1      41.927  25.666  28.052  1.00  0.00     0.049 A 
ATOM     41  N   UNL A   1      44.753  26.299  28.876  1.00  0.00    -0.248 NA
ATOM     42  C   UNL A   1      45.394  24.187  28.114  1.00  0.00     0.031 C 
ATOM     43  C   UNL A   1      40.528  25.391  27.720  1.00  0.00     0.029 A 
ATOM     44  N   UNL A   1      41.907  26.951  28.535  1.00  0.00    -0.354 N 
ATOM     45  C   UNL A   1      46.114  26.128  29.092  1.00  0.00     0.074 A 
ATOM     46  C   UNL A   1      46.445  24.789  28.652  1.00  0.00     0.031 C 
ATOM     47  C   UNL A   1      39.787  26.475  27.999  1.00  0.00     0.029 A 
ATOM     48  C   UNL A   1      40.649  27.503  28.572  1.00  0.00     0.049 A 
ATOM     49  H   UNL A   1      42.715  27.431  28.825  1.00  0.00     0.167 HD
ATOM     50  C   UNL A   1      47.008  27.013  29.595  1.00  0.00     0.037 A 
ATOM     51  C   UNL A   1      40.232  28.695  29.039  1.00  0.00     0.037 A 
ATOM     52  C   UNL A   1      46.673  28.349  30.017  1.00  0.00     0.049 A 
ATOM     53  C   UNL A   1      41.239  29.646  29.624  1.00  0.00     0.074 A 
ATOM     54  C   UNL A   1      47.516  29.342  30.480  1.00  0.00     0.029 A 
ATOM     55  N   UNL A   1      45.389  28.874  30.033  1.00  0.00    -0.354 N 
ATOM     56  N   UNL A   1      42.534  29.497  29.759  1.00  0.00    -0.248 NA
ATOM     57  C   UNL A   1      40.725  30.930  30.122  1.00  0.00     0.031 C 
ATOM     58  C   UNL A   1      46.738  30.451  30.827  1.00  0.00     0.029 A 
ATOM     59  C   UNL A   1      45.414  30.166  30.530  1.00  0.00     0.049 A 
ATOM     60  H   UNL A   1      44.580  28.397  29.736  1.00  0.00     0.167 HD
ATOM     61  C   UNL A   1      42.993  30.673  30.338  1.00  0.00     0.074 A 
ATOM     62  C   UNL A   1      41.841  31.532  30.510  1.00  0.00     0.031 C 
ATOM     63  C   UNL A   1      44.257  31.009  30.696  1.00  0.00     0.037 A 
BRANCH  50  64
ATOM     64  C   UNL A   1      48.434  26.563  29.721  1.00  0.00     0.057 A 
ATOM     65  C   UNL A   1      49.385  26.831  28.728  1.00  0.00     0.134 A 
ATOM     66  C   UNL A   1      48.874  25.889  30.868  1.00  0.00     0.134 A 
ATOM     67  F   UNL A   1      49.030  27.464  27.599  1.00  0.00    -0.206 F 
ATOM     68  C   UNL A   1      50.714  26.423  28.858  1.00  0.00     0.040 A 
ATOM     69  C   UNL A   1      50.205  25.501  31.022  1.00  0.00     0.040 A 
ATOM     70  F   UNL A   1      48.018  25.607  31.862  1.00  0.00    -0.206 F 
ATOM     71  C   UNL A   1      51.128  25.761  30.012  1.00  0.00     0.006 A 
ENDBRANCH  50  64
BRANCH  51  72
ATOM     72  C   UNL A   1      38.794  29.057  28.973  1.00  0.00     0.057 A 
ATOM     73  C   UNL A   1      38.224  29.532  27.786  1.00  0.00     0.134 A 
ATOM     74  C   UNL A   1      37.957  28.945  30.091  1.00  0.00     0.134 A 
ATOM     75  F   UNL A   1      38.978  29.678  26.688  1.00  0.00    -0.206 F 
ATOM     76  C   UNL A   1      36.879  29.899  27.717  1.00  0.00     0.040 A 
ATOM     77  C   UNL A   1      36.605  29.284  30.029  1.00  0.00     0.040 A 
ATOM     78  F   UNL A   1      38.440  28.489  31.256  1.00  0.00    -0.206 F 
ATOM     79  C   UNL A   1      36.064  29.770  28.839  1.00  0.00     0.006 A 
ENDBRANCH  51  72
BRANCH  63  80
ATOM     80  C   UNL A   1      44.461  32.372  31.289  1.00  0.00     0.057 A 
ATOM     81  C   UNL A   1      44.435  32.586  32.673  1.00  0.00     0.134 A 
ATOM     82  C   UNL A   1      44.730  33.475  30.468  1.00  0.00     0.134 A 
ATOM     83  F   UNL A   1      44.167  31.574  33.512  1.00  0.00    -0.206 F 
ATOM     84  C   UNL A   1      44.650  33.852  33.219  1.00  0.00     0.040 A 
ATOM     85  C   UNL A   1      44.974  34.741  31.003  1.00  0.00     0.040 A 
ATOM     86  F   UNL A   1      44.777  33.337  29.135  1.00  0.00    -0.206 F 
ATOM     87  C   UNL A   1      44.929  34.933  32.383  1.00  0.00     0.006 A 
ENDBRANCH  63  80
ENDBRANCH  37  38
ENDBRANCH  29  32
ENDBRANCH  27  28
ENDBRANCH  26  27
ENDBRANCH   1  26
TORSDOF 13
ENDMDL
MODEL 2
REMARK VINA RESULT:     -12.1      1.293      6.247
REMARK SMILES CCCN1CCC[C@@]2(CCN(c3ccc(C(=O)NCCCNC(=O)c4ccc(-c5c6nc(c(-c7c(F)cccc7F)c7ccc([nH]7)c(-c7c(F)cccc7F)c7nc(c(-c8c(F)cccc8F)c8ccc5[nH]8)C=C7)C=C6)cc4)cn3)C2)C1=O
REMARK SMILES IDX 19 1 18 2 16 3 17 4 15 6 12 7 13 8 80 9 14 10 79 11 11 12
REMARK SMILES IDX 4 13 5 14 82 15 6 16 8 17 83 18 7 19 9 20 81 21 10 22 3 23
REMARK SMILES IDX 2 24 1 25 20 26 21 27 22 28 23 29 24 31 25 32 26 33 78 34
REMARK SMILES IDX 27 35 77 36 28 37 29 38 30 39 71 40 31 41 76 42 70 43 72 44
REMARK SMILES IDX 32 45 75 46 69 47 68 48 33 50 59 51 42 52 58 53 43 54 46 55
REMARK SMILES IDX 57 56 73 57 44 58 45 59 56 61 74 62 47 63 34 64 35 65 40 66
REMARK SMILES IDX 36 67 37 68 39 69 41 70 38 71 60 72 61 73 66 74 62 75 63 76
REMARK SMILES IDX 65 77 67 78 64 79 48 80 49 81 54 82 50 83 51 84 53 85 55 86
REMARK SMILES IDX 52 87
REMARK H PARENT 18 5 22 30 72 49 46 60
REMARK Flexibility Score: inf
ROOT
ATOM      1  C   UNL A   1      36.760  20.481  25.005  1.00  0.00     0.118 C 
ENDROOT
BRANCH   1   2
ATOM      2  N   UNL A   1      35.625  19.583  24.895  1.00  0.00    -0.352 N 
ATOM      3  C   UNL A   1      34.267  19.783  24.942  1.00  0.00     0.252 C 
ATOM      4  O   UNL A   1      33.550  18.800  24.756  1.00  0.00    -0.269 OA
ATOM      5  H   UNL A   1      35.879  18.642  24.760  1.00  0.00     0.163 HD
BRANCH   3   6
ATOM      6  C   UNL A   1      33.630  21.104  25.171  1.00  0.00     0.058 A 
ATOM      7  C   UNL A   1      32.377  23.491  25.865  1.00  0.00     0.128 A 
ATOM      8  C   UNL A   1      32.705  23.232  24.540  1.00  0.00     0.048 A 
ATOM      9  N   UNL A   1      32.692  22.619  26.840  1.00  0.00    -0.239 NA
ATOM     10  C   UNL A   1      33.371  22.058  24.198  1.00  0.00     0.019 A 
ATOM     11  C   UNL A   1      33.286  21.449  26.476  1.00  0.00     0.127 A 
BRANCH   7  12
ATOM     12  N   UNL A   1      31.746  24.675  26.152  1.00  0.00    -0.356 N 
ATOM     13  N   UNL A   1      32.177  28.655  24.407  1.00  0.00    -0.342 N 
ATOM     14  C   UNL A   1      32.450  29.661  25.421  1.00  0.00     0.119 C 
ATOM     15  C   UNL A   1      31.254  27.653  24.698  1.00  0.00     0.230 C 
ATOM     16  C   UNL A   1      32.912  28.988  26.699  1.00  0.00     0.023 C 
ATOM     17  C   UNL A   1      31.405  27.032  26.095  1.00  0.00     0.069 C 
ATOM     18  O   UNL A   1      30.519  27.169  23.839  1.00  0.00    -0.274 OA
ATOM     19  C   UNL A   1      31.801  28.055  27.175  1.00  0.00     0.021 C 
ATOM     20  C   UNL A   1      30.129  26.259  26.494  1.00  0.00     0.040 C 
ATOM     21  C   UNL A   1      32.482  25.920  25.961  1.00  0.00     0.135 C 
ATOM     22  C   UNL A   1      30.336  24.865  25.899  1.00  0.00     0.119 C 
BRANCH  13  23
ATOM     23  C   UNL A   1      32.746  28.670  23.062  1.00  0.00     0.119 C 
BRANCH  23  24
ATOM     24  C   UNL A   1      33.807  27.639  22.687  1.00  0.00     0.018 C 
ATOM     25  C   UNL A   1      33.276  26.481  21.850  1.00  0.00     0.006 C 
ENDBRANCH  23  24
ENDBRANCH  13  23
ENDBRANCH   7  12
ENDBRANCH   3   6
ENDBRANCH   1   2
BRANCH   1  26
ATOM     26  C   UNL A   1      38.081  19.736  24.804  1.00  0.00     0.042 C 
BRANCH  26  27
ATOM     27  C   UNL A   1      39.159  20.154  25.801  1.00  0.00     0.118 C 
BRANCH  27  28
ATOM     28  N   UNL A   1      40.188  19.129  25.946  1.00  0.00    -0.352 N 
ATOM     29  C   UNL A   1      41.535  19.255  26.149  1.00  0.00     0.251 C 
ATOM     30  H   UNL A   1      39.861  18.202  25.888  1.00  0.00     0.163 HD
ATOM     31  O   UNL A   1      42.272  18.279  25.982  1.00  0.00    -0.269 OA
BRANCH  29  32
ATOM     32  C   UNL A   1      42.118  20.547  26.558  1.00  0.00     0.039 A 
ATOM     33  C   UNL A   1      42.646  21.396  25.581  1.00  0.00     0.014 A 
ATOM     34  C   UNL A   1      42.175  20.910  27.907  1.00  0.00     0.014 A 
ATOM     35  C   UNL A   1      43.160  22.641  25.947  1.00  0.00     0.010 A 
ATOM     36  C   UNL A   1      42.626  22.177  28.264  1.00  0.00     0.010 A 
ATOM     37  C   UNL A   1      43.115  23.058  27.287  1.00  0.00    -0.014 A 
BRANCH  37  38
ATOM     38  C   UNL A   1      43.533  24.424  27.689  1.00  0.00     0.031 A 
ATOM     39  C   UNL A   1      42.505  25.457  28.052  1.00  0.00     0.074 A 
ATOM     40  C   UNL A   1      44.837  24.755  27.633  1.00  0.00     0.049 A 
ATOM     41  N   UNL A   1      42.667  26.730  28.306  1.00  0.00    -0.248 NA
ATOM     42  C   UNL A   1      41.107  25.004  28.114  1.00  0.00     0.031 C 
ATOM     43  C   UNL A   1      45.926  23.850  27.257  1.00  0.00     0.029 A 
ATOM     44  N   UNL A   1      45.468  25.952  27.868  1.00  0.00    -0.354 N 
ATOM     45  C   UNL A   1      41.394  27.233  28.542  1.00  0.00     0.074 A 
ATOM     46  C   UNL A   1      40.467  26.138  28.358  1.00  0.00     0.031 C 
ATOM     47  C   UNL A   1      47.088  24.519  27.297  1.00  0.00     0.029 A 
ATOM     48  C   UNL A   1      46.824  25.908  27.653  1.00  0.00     0.049 A 
ATOM     49  H   UNL A   1      44.994  26.762  28.163  1.00  0.00     0.167 HD
ATOM     50  C   UNL A   1      41.036  28.491  28.896  1.00  0.00     0.037 A 
ATOM     51  C   UNL A   1      47.749  26.885  27.713  1.00  0.00     0.037 A 
ATOM     52  C   UNL A   1      41.967  29.573  29.091  1.00  0.00     0.049 A 
ATOM     53  C   UNL A   1      47.320  28.279  28.075  1.00  0.00     0.074 A 
ATOM     54  C   UNL A   1      41.709  30.865  29.512  1.00  0.00     0.029 A 
ATOM     55  N   UNL A   1      43.333  29.488  28.871  1.00  0.00    -0.354 N 
ATOM     56  N   UNL A   1      46.122  28.726  28.362  1.00  0.00    -0.248 NA
ATOM     57  C   UNL A   1      48.372  29.305  28.119  1.00  0.00     0.031 C 
ATOM     58  C   UNL A   1      42.912  31.578  29.495  1.00  0.00     0.029 A 
ATOM     59  C   UNL A   1      43.928  30.715  29.115  1.00  0.00     0.049 A 
ATOM     60  H   UNL A   1      43.810  28.676  28.583  1.00  0.00     0.167 HD
ATOM     61  C   UNL A   1      46.278  30.078  28.641  1.00  0.00     0.074 A 
ATOM     62  C   UNL A   1      47.689  30.373  28.508  1.00  0.00     0.031 C 
ATOM     63  C   UNL A   1      45.335  30.993  28.976  1.00  0.00     0.037 A 
BRANCH  50  64
ATOM     64  C   UNL A   1      39.573  28.766  29.091  1.00  0.00     0.057 A 
ATOM     65  C   UNL A   1      38.951  28.613  30.337  1.00  0.00     0.134 A 
ATOM     66  C   UNL A   1      38.784  29.231  28.031  1.00  0.00     0.134 A 
ATOM     67  F   UNL A   1      39.646  28.163  31.393  1.00  0.00    -0.206 F 
ATOM     68  C   UNL A   1      37.593  28.885  30.516  1.00  0.00     0.040 A 
ATOM     69  C   UNL A   1      37.433  29.533  28.203  1.00  0.00     0.040 A 
ATOM     70  F   UNL A   1      39.317  29.408  26.812  1.00  0.00    -0.206 F 
ATOM     71  C   UNL A   1      36.832  29.353  29.447  1.00  0.00     0.006 A 
ENDBRANCH  50  64
BRANCH  51  72
ATOM     72  C   UNL A   1      49.172  26.579  27.423  1.00  0.00     0.057 A 
ATOM     73  C   UNL A   1      49.694  26.732  26.132  1.00  0.00     0.134 A 
ATOM     74  C   UNL A   1      50.043  26.124  28.420  1.00  0.00     0.134 A 
ATOM     75  F   UNL A   1      48.905  27.147  25.131  1.00  0.00    -0.206 F 
ATOM     76  C   UNL A   1      51.024  26.425  25.841  1.00  0.00     0.040 A 
ATOM     77  C   UNL A   1      51.382  25.838  28.148  1.00  0.00     0.040 A 
ATOM     78  F   UNL A   1      49.608  25.964  29.679  1.00  0.00    -0.206 F 
ATOM     79  C   UNL A   1      51.874  25.982  26.852  1.00  0.00     0.006 A 
ENDBRANCH  51  72
BRANCH  63  80
ATOM     80  C   UNL A   1      45.803  32.393  29.243  1.00  0.00     0.057 A 
ATOM     81  C   UNL A   1      45.837  33.365  28.235  1.00  0.00     0.134 A 
ATOM     82  C   UNL A   1      46.183  32.786  30.533  1.00  0.00     0.134 A 
ATOM     83  F   UNL A   1      45.500  33.049  26.975  1.00  0.00    -0.206 F 
ATOM     84  C   UNL A   1      46.250  34.672  28.495  1.00  0.00     0.040 A 
ATOM     85  C   UNL A   1      46.573  34.097  30.812  1.00  0.00     0.040 A 
ATOM     86  F   UNL A   1      46.167  31.906  31.545  1.00  0.00    -0.206 F 
ATOM     87  C   UNL A   1      46.612  35.043  29.790  1.00  0.00     0.006 A 
ENDBRANCH  63  80
ENDBRANCH  37  38
ENDBRANCH  29  32
ENDBRANCH  27  28
ENDBRANCH  26  27
ENDBRANCH   1  26
TORSDOF 13
ENDMDL
MODEL 3
REMARK VINA RESULT:     -12.0      4.098      9.442
REMARK SMILES CCCN1CCC[C@@]2(CCN(c3ccc(C(=O)NCCCNC(=O)c4ccc(-c5c6nc(c(-c7c(F)cccc7F)c7ccc([nH]7)c(-c7c(F)cccc7F)c7nc(c(-c8c(F)cccc8F)c8ccc5[nH]8)C=C7)C=C6)cc4)cn3)C2)C1=O
REMARK SMILES IDX 19 1 18 2 16 3 17 4 15 6 12 7 13 8 80 9 14 10 79 11 11 12
REMARK SMILES IDX 4 13 5 14 82 15 6 16 8 17 83 18 7 19 9 20 81 21 10 22 3 23
REMARK SMILES IDX 2 24 1 25 20 26 21 27 22 28 23 29 24 31 25 32 26 33 78 34
REMARK SMILES IDX 27 35 77 36 28 37 29 38 30 39 71 40 31 41 76 42 70 43 72 44
REMARK SMILES IDX 32 45 75 46 69 47 68 48 33 50 59 51 42 52 58 53 43 54 46 55
REMARK SMILES IDX 57 56 73 57 44 58 45 59 56 61 74 62 47 63 34 64 35 65 40 66
REMARK SMILES IDX 36 67 37 68 39 69 41 70 38 71 60 72 61 73 66 74 62 75 63 76
REMARK SMILES IDX 65 77 67 78 64 79 48 80 49 81 54 82 50 83 51 84 53 85 55 86
REMARK SMILES IDX 52 87
REMARK H PARENT 18 5 22 30 72 49 46 60
REMARK Flexibility Score: inf
ROOT
ATOM      1  C   UNL A   1      31.688  30.710  25.811  1.00  0.00     0.118 C 
ENDROOT
BRANCH   1   2
ATOM      2  N   UNL A   1      30.672  30.578  24.782  1.00  0.00    -0.352 N 
ATOM      3  C   UNL A   1      30.388  29.590  23.871  1.00  0.00     0.252 C 
ATOM      4  O   UNL A   1      29.401  29.758  23.153  1.00  0.00    -0.269 OA
ATOM      5  H   UNL A   1      30.065  31.351  24.725  1.00  0.00     0.163 HD
BRANCH   3   6
ATOM      6  C   UNL A   1      31.174  28.340  23.729  1.00  0.00     0.058 A 
ATOM      7  C   UNL A   1      32.801  26.130  23.262  1.00  0.00     0.128 A 
ATOM      8  C   UNL A   1      31.658  26.005  24.042  1.00  0.00     0.048 A 
ATOM      9  N   UNL A   1      33.167  27.321  22.754  1.00  0.00    -0.239 NA
ATOM     10  C   UNL A   1      30.868  27.119  24.311  1.00  0.00     0.019 A 
ATOM     11  C   UNL A   1      32.346  28.384  22.978  1.00  0.00     0.127 A 
BRANCH   7  12
ATOM     12  N   UNL A   1      33.560  25.007  23.049  1.00  0.00    -0.356 N 
ATOM     13  N   UNL A   1      34.687  21.751  25.732  1.00  0.00    -0.342 N 
ATOM     14  C   UNL A   1      36.127  21.552  25.763  1.00  0.00     0.119 C 
ATOM     15  C   UNL A   1      34.083  22.038  24.510  1.00  0.00     0.230 C 
ATOM     16  C   UNL A   1      36.825  22.773  25.197  1.00  0.00     0.023 C 
ATOM     17  C   UNL A   1      34.824  23.082  23.661  1.00  0.00     0.069 C 
ATOM     18  O   UNL A   1      32.952  21.643  24.229  1.00  0.00    -0.274 OA
ATOM     19  C   UNL A   1      36.355  22.967  23.757  1.00  0.00     0.021 C 
ATOM     20  C   UNL A   1      34.347  23.035  22.193  1.00  0.00     0.040 C 
ATOM     21  C   UNL A   1      34.337  24.471  24.161  1.00  0.00     0.135 C 
ATOM     22  C   UNL A   1      33.120  23.948  22.169  1.00  0.00     0.119 C 
BRANCH  13  23
ATOM     23  C   UNL A   1      33.811  21.587  26.890  1.00  0.00     0.119 C 
BRANCH  23  24
ATOM     24  C   UNL A   1      33.296  22.825  27.619  1.00  0.00     0.018 C 
ATOM     25  C   UNL A   1      31.941  23.315  27.124  1.00  0.00     0.006 C 
ENDBRANCH  23  24
ENDBRANCH  13  23
ENDBRANCH   7  12
ENDBRANCH   3   6
ENDBRANCH   1   2
BRANCH   1  26
ATOM     26  C   UNL A   1      31.405  31.906  26.721  1.00  0.00     0.042 C 
BRANCH  26  27
ATOM     27  C   UNL A   1      32.677  32.567  27.249  1.00  0.00     0.118 C 
BRANCH  27  28
ATOM     28  N   UNL A   1      32.468  33.980  27.546  1.00  0.00    -0.352 N 
ATOM     29  C   UNL A   1      33.040  34.774  28.502  1.00  0.00     0.251 C 
ATOM     30  H   UNL A   1      31.812  34.433  26.967  1.00  0.00     0.163 HD
ATOM     31  O   UNL A   1      32.542  35.872  28.763  1.00  0.00    -0.269 OA
BRANCH  29  32
ATOM     32  C   UNL A   1      34.243  34.328  29.231  1.00  0.00     0.039 A 
ATOM     33  C   UNL A   1      34.094  33.703  30.473  1.00  0.00     0.014 A 
ATOM     34  C   UNL A   1      35.520  34.553  28.708  1.00  0.00     0.014 A 
ATOM     35  C   UNL A   1      35.220  33.235  31.154  1.00  0.00     0.010 A 
ATOM     36  C   UNL A   1      36.635  34.029  29.354  1.00  0.00     0.010 A 
ATOM     37  C   UNL A   1      36.495  33.357  30.578  1.00  0.00    -0.014 A 
BRANCH  37  38
ATOM     38  C   UNL A   1      37.694  32.755  31.214  1.00  0.00     0.031 A 
ATOM     39  C   UNL A   1      38.340  31.539  30.617  1.00  0.00     0.074 A 
ATOM     40  C   UNL A   1      38.136  33.254  32.384  1.00  0.00     0.049 A 
ATOM     41  N   UNL A   1      39.311  30.801  31.092  1.00  0.00    -0.248 NA
ATOM     42  C   UNL A   1      37.809  31.075  29.326  1.00  0.00     0.031 C 
ATOM     43  C   UNL A   1      37.567  34.408  33.083  1.00  0.00     0.029 A 
ATOM     44  N   UNL A   1      39.155  32.839  33.206  1.00  0.00    -0.354 N 
ATOM     45  C   UNL A   1      39.497  29.780  30.170  1.00  0.00     0.074 A 
ATOM     46  C   UNL A   1      38.510  29.968  29.128  1.00  0.00     0.031 C 
ATOM     47  C   UNL A   1      38.248  34.615  34.220  1.00  0.00     0.029 A 
ATOM     48  C   UNL A   1      39.269  33.582  34.356  1.00  0.00     0.049 A 
ATOM     49  H   UNL A   1      39.746  32.082  32.992  1.00  0.00     0.167 HD
ATOM     50  C   UNL A   1      40.419  28.788  30.183  1.00  0.00     0.037 A 
ATOM     51  C   UNL A   1      40.090  33.434  35.413  1.00  0.00     0.037 A 
ATOM     52  C   UNL A   1      41.407  28.616  31.217  1.00  0.00     0.049 A 
ATOM     53  C   UNL A   1      41.080  32.304  35.419  1.00  0.00     0.074 A 
ATOM     54  C   UNL A   1      42.424  27.681  31.289  1.00  0.00     0.029 A 
ATOM     55  N   UNL A   1      41.497  29.393  32.362  1.00  0.00    -0.354 N 
ATOM     56  N   UNL A   1      41.292  31.386  34.508  1.00  0.00    -0.248 NA
ATOM     57  C   UNL A   1      41.946  32.188  36.602  1.00  0.00     0.031 C 
ATOM     58  C   UNL A   1      43.096  27.858  32.503  1.00  0.00     0.029 A 
ATOM     59  C   UNL A   1      42.531  28.938  33.163  1.00  0.00     0.049 A 
ATOM     60  H   UNL A   1      40.910  30.156  32.574  1.00  0.00     0.167 HD
ATOM     61  C   UNL A   1      42.325  30.597  34.995  1.00  0.00     0.074 A 
ATOM     62  C   UNL A   1      42.712  31.156  36.273  1.00  0.00     0.031 C 
ATOM     63  C   UNL A   1      42.902  29.506  34.434  1.00  0.00     0.037 A 
BRANCH  50  64
ATOM     64  C   UNL A   1      40.398  27.806  29.048  1.00  0.00     0.057 A 
ATOM     65  C   UNL A   1      39.572  26.674  29.063  1.00  0.00     0.134 A 
ATOM     66  C   UNL A   1      41.183  28.015  27.907  1.00  0.00     0.134 A 
ATOM     67  F   UNL A   1      38.802  26.409  30.128  1.00  0.00    -0.206 F 
ATOM     68  C   UNL A   1      39.547  25.773  27.997  1.00  0.00     0.040 A 
ATOM     69  C   UNL A   1      41.146  27.137  26.823  1.00  0.00     0.040 A 
ATOM     70  F   UNL A   1      41.991  29.083  27.822  1.00  0.00    -0.206 F 
ATOM     71  C   UNL A   1      40.332  26.008  26.869  1.00  0.00     0.006 A 
ENDBRANCH  50  64
BRANCH  51  72
ATOM     72  C   UNL A   1      40.009  34.379  36.555  1.00  0.00     0.057 A 
ATOM     73  C   UNL A   1      39.216  34.094  37.673  1.00  0.00     0.134 A 
ATOM     74  C   UNL A   1      40.714  35.589  36.557  1.00  0.00     0.134 A 
ATOM     75  F   UNL A   1      38.503  32.960  37.721  1.00  0.00    -0.206 F 
ATOM     76  C   UNL A   1      39.113  34.985  38.742  1.00  0.00     0.040 A 
ATOM     77  C   UNL A   1      40.640  36.478  37.631  1.00  0.00     0.040 A 
ATOM     78  F   UNL A   1      41.498  35.918  35.519  1.00  0.00    -0.206 F 
ATOM     79  C   UNL A   1      39.831  36.179  38.725  1.00  0.00     0.006 A 
ENDBRANCH  51  72
BRANCH  63  80
ATOM     80  C   UNL A   1      44.025  28.860  35.190  1.00  0.00     0.057 A 
ATOM     81  C   UNL A   1      45.361  29.232  34.988  1.00  0.00     0.134 A 
ATOM     82  C   UNL A   1      43.766  27.885  36.162  1.00  0.00     0.134 A 
ATOM     83  F   UNL A   1      45.678  30.148  34.060  1.00  0.00    -0.206 F 
ATOM     84  C   UNL A   1      46.399  28.644  35.712  1.00  0.00     0.040 A 
ATOM     85  C   UNL A   1      44.793  27.310  36.912  1.00  0.00     0.040 A 
ATOM     86  F   UNL A   1      42.508  27.489  36.410  1.00  0.00    -0.206 F 
ATOM     87  C   UNL A   1      46.115  27.686  36.684  1.00  0.00     0.006 A 
ENDBRANCH  63  80
ENDBRANCH  37  38
ENDBRANCH  29  32
ENDBRANCH  27  28
ENDBRANCH  26  27
ENDBRANCH   1  26
TORSDOF 13
ENDMDL
