MODEL 1
REMARK VINA RESULT:     -11.4      0.000      0.000
REMARK SMILES CC[C@H](C)[C@@H](NC(=O)c1csc(NC(C)=O)n1)C(=O)NCCCNC(=O)c1ccc(-c2c3nc(c(-c4c(F)cccc4F)c4ccc([nH]4)c(-c4c(F)cccc4F)c4nc(c(-c5c(F)cccc5F)c5ccc2[nH]5)C=C4)C=C3)cc1
REMARK SMILES IDX 21 1 20 2 18 3 19 4 5 6 3 7 4 8 2 9 1 10 6 11 7 12 8 14 9 15
REMARK SMILES IDX 10 16 17 17 11 18 12 19 13 20 14 21 15 23 16 24 22 25 23 26
REMARK SMILES IDX 24 27 25 28 26 30 27 31 28 32 80 33 29 34 79 35 30 36 31 37
REMARK SMILES IDX 32 38 73 39 33 40 78 41 72 42 74 43 34 44 77 45 71 46 70 47
REMARK SMILES IDX 35 49 61 50 44 51 60 52 45 53 48 54 59 55 75 56 46 57 47 58
REMARK SMILES IDX 58 60 76 61 49 62 36 63 37 64 42 65 38 66 39 67 41 68 43 69
REMARK SMILES IDX 40 70 62 71 63 72 68 73 64 74 65 75 67 76 69 77 66 78 50 79
REMARK SMILES IDX 51 80 56 81 52 82 53 83 55 84 57 85 54 86
REMARK H PARENT 20 5 6 13 13 22 24 29 74 48 48 59
REMARK Flexibility Score: inf
ROOT
ATOM      1  C   UNL A   1      32.500  28.964  26.161  1.00  0.00     0.117 C 
ENDROOT
BRANCH   1   2
ATOM      2  N   UNL A   1      33.222  29.333  24.958  1.00  0.00    -0.354 N 
ATOM      3  C   UNL A   1      33.020  28.956  23.665  1.00  0.00     0.242 C 
ATOM      4  O   UNL A   1      33.839  29.350  22.826  1.00  0.00    -0.273 OA
ATOM      5  H   UNL A   1      33.974  29.952  25.098  1.00  0.00     0.163 HD
BRANCH   3   6
ATOM      6  C   UNL A   1      31.914  27.941  23.290  1.00  0.00     0.174 C 
BRANCH   6   7
ATOM      7  C   UNL A   1      30.539  28.717  23.290  1.00  0.00     0.018 C 
ATOM      8  C   UNL A   1      30.367  29.602  22.047  1.00  0.00     0.010 C 
BRANCH   7   9
ATOM      9  C   UNL A   1      29.331  27.754  23.444  1.00  0.00     0.002 C 
ATOM     10  C   UNL A   1      27.987  28.359  23.054  1.00  0.00     0.004 C 
ENDBRANCH   7   9
ENDBRANCH   6   7
BRANCH   6  11
ATOM     11  N   UNL A   1      32.125  27.245  22.000  1.00  0.00    -0.339 N 
ATOM     12  C   UNL A   1      32.045  25.918  21.641  1.00  0.00     0.271 C 
ATOM     13  H   UNL A   1      32.367  27.844  21.257  1.00  0.00     0.164 HD
ATOM     14  O   UNL A   1      32.090  25.652  20.440  1.00  0.00    -0.267 OA
BRANCH  12  15
ATOM     15  C   UNL A   1      32.097  24.870  22.658  1.00  0.00     0.141 A 
ATOM     16  C   UNL A   1      33.292  24.329  23.106  1.00  0.00     0.102 A 
ATOM     17  N   UNL A   1      30.976  24.374  23.309  1.00  0.00    -0.215 NA
ATOM     18  S   UNL A   1      33.012  23.339  24.473  1.00  0.00    -0.104 S 
ATOM     19  C   UNL A   1      31.344  23.655  24.344  1.00  0.00     0.190 A 
BRANCH  19  20
ATOM     20  N   UNL A   1      30.421  23.210  25.254  1.00  0.00    -0.302 N 
ATOM     21  C   UNL A   1      30.464  23.372  26.618  1.00  0.00     0.223 C 
ATOM     22  H   UNL A   1      29.645  22.725  24.891  1.00  0.00     0.172 HD
ATOM     23  C   UNL A   1      29.316  22.695  27.324  1.00  0.00     0.114 C 
ATOM     24  O   UNL A   1      31.298  23.997  27.264  1.00  0.00    -0.275 OA
ENDBRANCH  19  20
ENDBRANCH  12  15
ENDBRANCH   6  11
ENDBRANCH   3   6
ENDBRANCH   1   2
BRANCH   1  25
ATOM     25  C   UNL A   1      31.949  30.185  26.870  1.00  0.00     0.042 C 
BRANCH  25  26
ATOM     26  C   UNL A   1      33.018  31.206  27.218  1.00  0.00     0.118 C 
BRANCH  26  27
ATOM     27  N   UNL A   1      32.489  32.555  27.377  1.00  0.00    -0.352 N 
ATOM     28  C   UNL A   1      33.030  33.591  28.103  1.00  0.00     0.251 C 
ATOM     29  H   UNL A   1      31.646  32.748  26.908  1.00  0.00     0.163 HD
ATOM     30  O   UNL A   1      32.419  34.637  28.279  1.00  0.00    -0.269 OA
BRANCH  28  31
ATOM     31  C   UNL A   1      34.363  33.388  28.700  1.00  0.00     0.039 A 
ATOM     32  C   UNL A   1      34.477  32.666  29.888  1.00  0.00     0.014 A 
ATOM     33  C   UNL A   1      35.495  33.808  27.997  1.00  0.00     0.014 A 
ATOM     34  C   UNL A   1      35.744  32.287  30.335  1.00  0.00     0.010 A 
ATOM     35  C   UNL A   1      36.744  33.357  28.398  1.00  0.00     0.010 A 
ATOM     36  C   UNL A   1      36.879  32.591  29.567  1.00  0.00    -0.014 A 
BRANCH  36  37
ATOM     37  C   UNL A   1      38.237  32.141  29.957  1.00  0.00     0.031 A 
ATOM     38  C   UNL A   1      38.755  30.838  29.424  1.00  0.00     0.074 A 
ATOM     39  C   UNL A   1      38.938  32.828  30.878  1.00  0.00     0.049 A 
ATOM     40  N   UNL A   1      39.807  30.153  29.786  1.00  0.00    -0.248 NA
ATOM     41  C   UNL A   1      37.945  30.193  28.376  1.00  0.00     0.031 C 
ATOM     42  C   UNL A   1      38.515  34.077  31.514  1.00  0.00     0.029 A 
ATOM     43  N   UNL A   1      40.146  32.547  31.467  1.00  0.00    -0.354 N 
ATOM     44  C   UNL A   1      39.760  28.979  29.048  1.00  0.00     0.074 A 
ATOM     45  C   UNL A   1      38.555  29.026  28.248  1.00  0.00     0.031 C 
ATOM     46  C   UNL A   1      39.450  34.456  32.401  1.00  0.00     0.029 A 
ATOM     47  C   UNL A   1      40.516  33.459  32.425  1.00  0.00     0.049 A 
ATOM     48  H   UNL A   1      40.696  31.767  31.225  1.00  0.00     0.167 HD
ATOM     49  C   UNL A   1      40.650  27.959  29.026  1.00  0.00     0.037 A 
ATOM     50  C   UNL A   1      41.584  33.477  33.243  1.00  0.00     0.037 A 
ATOM     51  C   UNL A   1      41.874  27.946  29.778  1.00  0.00     0.049 A 
ATOM     52  C   UNL A   1      42.591  32.366  33.161  1.00  0.00     0.074 A 
ATOM     53  C   UNL A   1      42.888  27.008  29.759  1.00  0.00     0.029 A 
ATOM     54  N   UNL A   1      42.251  28.931  30.680  1.00  0.00    -0.354 N 
ATOM     55  N   UNL A   1      42.568  31.288  32.416  1.00  0.00    -0.248 NA
ATOM     56  C   UNL A   1      43.774  32.473  34.029  1.00  0.00     0.031 C 
ATOM     57  C   UNL A   1      43.871  27.411  30.669  1.00  0.00     0.029 A 
ATOM     58  C   UNL A   1      43.481  28.616  31.232  1.00  0.00     0.049 A 
ATOM     59  H   UNL A   1      41.723  29.733  30.896  1.00  0.00     0.167 HD
ATOM     60  C   UNL A   1      43.737  30.598  32.707  1.00  0.00     0.074 A 
ATOM     61  C   UNL A   1      44.451  31.383  33.693  1.00  0.00     0.031 C 
ATOM     62  C   UNL A   1      44.178  29.420  32.202  1.00  0.00     0.037 A 
BRANCH  49  63
ATOM     63  C   UNL A   1      40.321  26.784  28.156  1.00  0.00     0.057 A 
ATOM     64  C   UNL A   1      40.863  26.639  26.872  1.00  0.00     0.134 A 
ATOM     65  C   UNL A   1      39.440  25.791  28.602  1.00  0.00     0.134 A 
ATOM     66  F   UNL A   1      41.699  27.565  26.379  1.00  0.00    -0.206 F 
ATOM     67  C   UNL A   1      40.513  25.568  26.049  1.00  0.00     0.040 A 
ATOM     68  C   UNL A   1      39.104  24.702  27.799  1.00  0.00     0.040 A 
ATOM     69  F   UNL A   1      38.888  25.869  29.822  1.00  0.00    -0.206 F 
ATOM     70  C   UNL A   1      39.633  24.594  26.514  1.00  0.00     0.006 A 
ENDBRANCH  49  63
BRANCH  50  71
ATOM     71  C   UNL A   1      41.759  34.600  34.197  1.00  0.00     0.057 A 
ATOM     72  C   UNL A   1      41.302  34.500  35.515  1.00  0.00     0.134 A 
ATOM     73  C   UNL A   1      42.412  35.781  33.825  1.00  0.00     0.134 A 
ATOM     74  F   UNL A   1      40.657  33.398  35.924  1.00  0.00    -0.206 F 
ATOM     75  C   UNL A   1      41.482  35.538  36.431  1.00  0.00     0.040 A 
ATOM     76  C   UNL A   1      42.614  36.820  34.735  1.00  0.00     0.040 A 
ATOM     77  F   UNL A   1      42.881  35.931  32.578  1.00  0.00    -0.206 F 
ATOM     78  C   UNL A   1      42.145  36.701  36.042  1.00  0.00     0.006 A 
ENDBRANCH  50  71
BRANCH  62  79
ATOM     79  C   UNL A   1      45.507  28.922  32.679  1.00  0.00     0.057 A 
ATOM     80  C   UNL A   1      45.616  28.056  33.773  1.00  0.00     0.134 A 
ATOM     81  C   UNL A   1      46.679  29.254  31.990  1.00  0.00     0.134 A 
ATOM     82  F   UNL A   1      44.529  27.711  34.479  1.00  0.00    -0.206 F 
ATOM     83  C   UNL A   1      46.851  27.538  34.168  1.00  0.00     0.040 A 
ATOM     84  C   UNL A   1      47.917  28.729  32.364  1.00  0.00     0.040 A 
ATOM     85  F   UNL A   1      46.636  30.075  30.929  1.00  0.00    -0.206 F 
ATOM     86  C   UNL A   1      48.004  27.868  33.456  1.00  0.00     0.006 A 
ENDBRANCH  62  79
ENDBRANCH  36  37
ENDBRANCH  28  31
ENDBRANCH  26  27
ENDBRANCH  25  26
ENDBRANCH   1  25
TORSDOF 15
ENDMDL
MODEL 2
REMARK VINA RESULT:     -11.3      3.538      8.577
REMARK SMILES CC[C@H](C)[C@@H](NC(=O)c1csc(NC(C)=O)n1)C(=O)NCCCNC(=O)c1ccc(-c2c3nc(c(-c4c(F)cccc4F)c4ccc([nH]4)c(-c4c(F)cccc4F)c4nc(c(-c5c(F)cccc5F)c5ccc2[nH]5)C=C4)C=C3)cc1
REMARK SMILES IDX 21 1 20 2 18 3 19 4 5 6 3 7 4 8 2 9 1 10 6 11 7 12 8 14 9 15
REMARK SMILES IDX 10 16 17 17 11 18 12 19 13 20 14 21 15 23 16 24 22 25 23 26
REMARK SMILES IDX 24 27 25 28 26 30 27 31 28 32 80 33 29 34 79 35 30 36 31 37
REMARK SMILES IDX 32 38 73 39 33 40 78 41 72 42 74 43 34 44 77 45 71 46 70 47
REMARK SMILES IDX 35 49 61 50 44 51 60 52 45 53 48 54 59 55 75 56 46 57 47 58
REMARK SMILES IDX 58 60 76 61 49 62 36 63 37 64 42 65 38 66 39 67 41 68 43 69
REMARK SMILES IDX 40 70 62 71 63 72 68 73 64 74 65 75 67 76 69 77 66 78 50 79
REMARK SMILES IDX 51 80 56 81 52 82 53 83 55 84 57 85 54 86
REMARK H PARENT 20 5 6 13 13 22 24 29 74 48 48 59
REMARK Flexibility Score: inf
ROOT
ATOM      1  C   UNL A   1      36.236  22.270  25.054  1.00  0.00     0.117 C 
ENDROOT
BRANCH   1   2
ATOM      2  N   UNL A   1      35.688  21.842  26.327  1.00  0.00    -0.354 N 
ATOM      3  C   UNL A   1      34.392  21.683  26.714  1.00  0.00     0.242 C 
ATOM      4  O   UNL A   1      34.187  21.386  27.896  1.00  0.00    -0.273 OA
ATOM      5  H   UNL A   1      36.357  21.635  27.019  1.00  0.00     0.163 HD
BRANCH   3   6
ATOM      6  C   UNL A   1      33.223  22.025  25.759  1.00  0.00     0.174 C 
BRANCH   6   7
ATOM      7  C   UNL A   1      33.271  20.995  24.564  1.00  0.00     0.018 C 
ATOM      8  C   UNL A   1      32.581  19.667  24.908  1.00  0.00     0.010 C 
BRANCH   7   9
ATOM      9  C   UNL A   1      32.678  21.594  23.260  1.00  0.00     0.002 C 
ATOM     10  C   UNL A   1      33.369  22.864  22.777  1.00  0.00     0.004 C 
ENDBRANCH   7   9
ENDBRANCH   6   7
BRANCH   6  11
ATOM     11  N   UNL A   1      31.886  22.032  26.395  1.00  0.00    -0.339 N 
ATOM     12  C   UNL A   1      30.808  22.879  26.273  1.00  0.00     0.271 C 
ATOM     13  H   UNL A   1      31.739  21.289  27.024  1.00  0.00     0.164 HD
ATOM     14  O   UNL A   1      29.748  22.526  26.790  1.00  0.00    -0.267 OA
BRANCH  12  15
ATOM     15  C   UNL A   1      30.977  24.219  25.716  1.00  0.00     0.141 A 
ATOM     16  C   UNL A   1      30.598  24.537  24.421  1.00  0.00     0.102 A 
ATOM     17  N   UNL A   1      31.462  25.298  26.442  1.00  0.00    -0.215 NA
ATOM     18  S   UNL A   1      30.679  26.231  24.187  1.00  0.00    -0.104 S 
ATOM     19  C   UNL A   1      31.249  26.412  25.780  1.00  0.00     0.190 A 
BRANCH  19  20
ATOM     20  N   UNL A   1      31.470  27.630  26.366  1.00  0.00    -0.302 N 
ATOM     21  C   UNL A   1      32.686  28.239  26.566  1.00  0.00     0.223 C 
ATOM     22  H   UNL A   1      30.675  28.121  26.675  1.00  0.00     0.172 HD
ATOM     23  C   UNL A   1      32.570  29.550  27.305  1.00  0.00     0.114 C 
ATOM     24  O   UNL A   1      33.785  27.837  26.201  1.00  0.00    -0.275 OA
ENDBRANCH  19  20
ENDBRANCH  12  15
ENDBRANCH   6  11
ENDBRANCH   3   6
ENDBRANCH   1   2
BRANCH   1  25
ATOM     25  C   UNL A   1      37.417  21.411  24.646  1.00  0.00     0.042 C 
BRANCH  25  26
ATOM     26  C   UNL A   1      38.490  21.325  25.716  1.00  0.00     0.118 C 
BRANCH  26  27
ATOM     27  N   UNL A   1      39.276  20.099  25.639  1.00  0.00    -0.352 N 
ATOM     28  C   UNL A   1      40.606  19.932  25.948  1.00  0.00     0.251 C 
ATOM     29  H   UNL A   1      38.799  19.297  25.330  1.00  0.00     0.163 HD
ATOM     30  O   UNL A   1      41.194  18.886  25.706  1.00  0.00    -0.269 OA
BRANCH  28  31
ATOM     31  C   UNL A   1      41.320  21.073  26.550  1.00  0.00     0.039 A 
ATOM     32  C   UNL A   1      41.906  22.029  25.720  1.00  0.00     0.014 A 
ATOM     33  C   UNL A   1      41.282  21.246  27.937  1.00  0.00     0.014 A 
ATOM     34  C   UNL A   1      42.387  23.213  26.279  1.00  0.00     0.010 A 
ATOM     35  C   UNL A   1      41.682  22.459  28.477  1.00  0.00     0.010 A 
ATOM     36  C   UNL A   1      42.235  23.454  27.654  1.00  0.00    -0.014 A 
BRANCH  36  37
ATOM     37  C   UNL A   1      42.655  24.729  28.282  1.00  0.00     0.031 A 
ATOM     38  C   UNL A   1      41.626  25.792  28.533  1.00  0.00     0.074 A 
ATOM     39  C   UNL A   1      43.960  24.977  28.500  1.00  0.00     0.049 A 
ATOM     40  N   UNL A   1      41.793  27.043  28.871  1.00  0.00    -0.248 NA
ATOM     41  C   UNL A   1      40.221  25.404  28.322  1.00  0.00     0.031 C 
ATOM     42  C   UNL A   1      45.059  24.046  28.241  1.00  0.00     0.029 A 
ATOM     43  N   UNL A   1      44.585  26.110  28.959  1.00  0.00    -0.354 N 
ATOM     44  C   UNL A   1      40.522  27.602  28.867  1.00  0.00     0.074 A 
ATOM     45  C   UNL A   1      39.602  26.566  28.453  1.00  0.00     0.031 C 
ATOM     46  C   UNL A   1      46.223  24.644  28.548  1.00  0.00     0.029 A 
ATOM     47  C   UNL A   1      45.954  26.010  28.987  1.00  0.00     0.049 A 
ATOM     48  H   UNL A   1      44.097  26.917  29.243  1.00  0.00     0.167 HD
ATOM     49  C   UNL A   1      40.154  28.863  29.194  1.00  0.00     0.037 A 
ATOM     50  C   UNL A   1      46.887  26.924  29.311  1.00  0.00     0.037 A 
ATOM     51  C   UNL A   1      41.066  29.870  29.661  1.00  0.00     0.049 A 
ATOM     52  C   UNL A   1      46.454  28.300  29.728  1.00  0.00     0.074 A 
ATOM     53  C   UNL A   1      40.786  31.148  30.106  1.00  0.00     0.029 A 
ATOM     54  N   UNL A   1      42.441  29.703  29.751  1.00  0.00    -0.354 N 
ATOM     55  N   UNL A   1      45.244  28.802  29.777  1.00  0.00    -0.248 NA
ATOM     56  C   UNL A   1      47.511  29.236  30.138  1.00  0.00     0.031 C 
ATOM     57  C   UNL A   1      41.996  31.765  30.443  1.00  0.00     0.029 A 
ATOM     58  C   UNL A   1      43.024  30.860  30.236  1.00  0.00     0.049 A 
ATOM     59  H   UNL A   1      42.928  28.883  29.506  1.00  0.00     0.167 HD
ATOM     60  C   UNL A   1      45.389  30.102  30.241  1.00  0.00     0.074 A 
ATOM     61  C   UNL A   1      46.806  30.311  30.465  1.00  0.00     0.031 C 
ATOM     62  C   UNL A   1      44.435  31.039  30.463  1.00  0.00     0.037 A 
BRANCH  49  63
ATOM     63  C   UNL A   1      38.702  29.208  29.056  1.00  0.00     0.057 A 
ATOM     64  C   UNL A   1      37.817  29.131  30.140  1.00  0.00     0.134 A 
ATOM     65  C   UNL A   1      38.179  29.609  27.821  1.00  0.00     0.134 A 
ATOM     66  F   UNL A   1      38.253  28.735  31.346  1.00  0.00    -0.206 F 
ATOM     67  C   UNL A   1      36.457  29.404  29.992  1.00  0.00     0.040 A 
ATOM     68  C   UNL A   1      36.826  29.912  27.667  1.00  0.00     0.040 A 
ATOM     69  F   UNL A   1      38.972  29.706  26.744  1.00  0.00    -0.206 F 
ATOM     70  C   UNL A   1      35.959  29.800  28.753  1.00  0.00     0.006 A 
ENDBRANCH  49  63
BRANCH  50  71
ATOM     71  C   UNL A   1      48.323  26.554  29.268  1.00  0.00     0.057 A 
ATOM     72  C   UNL A   1      48.930  25.904  30.348  1.00  0.00     0.134 A 
ATOM     73  C   UNL A   1      49.111  26.810  28.140  1.00  0.00     0.134 A 
ATOM     74  F   UNL A   1      48.227  25.645  31.460  1.00  0.00    -0.206 F 
ATOM     75  C   UNL A   1      50.273  25.527  30.312  1.00  0.00     0.040 A 
ATOM     76  C   UNL A   1      50.451  26.423  28.084  1.00  0.00     0.040 A 
ATOM     77  F   UNL A   1      48.582  27.421  27.070  1.00  0.00    -0.206 F 
ATOM     78  C   UNL A   1      51.036  25.782  29.174  1.00  0.00     0.006 A 
ENDBRANCH  50  71
BRANCH  62  79
ATOM     79  C   UNL A   1      44.882  32.362  31.002  1.00  0.00     0.057 A 
ATOM     80  C   UNL A   1      45.187  33.434  30.157  1.00  0.00     0.134 A 
ATOM     81  C   UNL A   1      44.933  32.585  32.383  1.00  0.00     0.134 A 
ATOM     82  F   UNL A   1      45.166  33.277  28.824  1.00  0.00    -0.206 F 
ATOM     83  C   UNL A   1      45.534  34.686  30.667  1.00  0.00     0.040 A 
ATOM     84  C   UNL A   1      45.261  33.837  32.907  1.00  0.00     0.040 A 
ATOM     85  F   UNL A   1      44.645  31.597  33.244  1.00  0.00    -0.206 F 
ATOM     86  C   UNL A   1      45.562  34.891  32.047  1.00  0.00     0.006 A 
ENDBRANCH  62  79
ENDBRANCH  36  37
ENDBRANCH  28  31
ENDBRANCH  26  27
ENDBRANCH  25  26
ENDBRANCH   1  25
TORSDOF 15
ENDMDL
MODEL 3
REMARK VINA RESULT:     -11.2      2.545      7.546
REMARK SMILES CC[C@H](C)[C@@H](NC(=O)c1csc(NC(C)=O)n1)C(=O)NCCCNC(=O)c1ccc(-c2c3nc(c(-c4c(F)cccc4F)c4ccc([nH]4)c(-c4c(F)cccc4F)c4nc(c(-c5c(F)cccc5F)c5ccc2[nH]5)C=C4)C=C3)cc1
REMARK SMILES IDX 21 1 20 2 18 3 19 4 5 6 3 7 4 8 2 9 1 10 6 11 7 12 8 14 9 15
REMARK SMILES IDX 10 16 17 17 11 18 12 19 13 20 14 21 15 23 16 24 22 25 23 26
REMARK SMILES IDX 24 27 25 28 26 30 27 31 28 32 80 33 29 34 79 35 30 36 31 37
REMARK SMILES IDX 32 38 73 39 33 40 78 41 72 42 74 43 34 44 77 45 71 46 70 47
REMARK SMILES IDX 35 49 61 50 44 51 60 52 45 53 48 54 59 55 75 56 46 57 47 58
REMARK SMILES IDX 58 60 76 61 49 62 36 63 37 64 42 65 38 66 39 67 41 68 43 69
REMARK SMILES IDX 40 70 62 71 63 72 68 73 64 74 65 75 67 76 69 77 66 78 50 79
REMARK SMILES IDX 51 80 56 81 52 82 53 83 55 84 57 85 54 86
REMARK H PARENT 20 5 6 13 13 22 24 29 74 48 48 59
REMARK Flexibility Score: inf
ROOT
ATOM      1  C   UNL A   1      35.214  22.623  24.354  1.00  0.00     0.117 C 
ENDROOT
BRANCH   1   2
ATOM      2  N   UNL A   1      35.029  22.059  25.677  1.00  0.00    -0.354 N 
ATOM      3  C   UNL A   1      33.888  21.672  26.313  1.00  0.00     0.242 C 
ATOM      4  O   UNL A   1      33.994  21.297  27.487  1.00  0.00    -0.273 OA
ATOM      5  H   UNL A   1      35.856  21.936  26.196  1.00  0.00     0.163 HD
BRANCH   3   6
ATOM      6  C   UNL A   1      32.501  21.856  25.653  1.00  0.00     0.174 C 
BRANCH   6   7
ATOM      7  C   UNL A   1      32.157  20.515  24.894  1.00  0.00     0.018 C 
ATOM      8  C   UNL A   1      32.346  20.637  23.375  1.00  0.00     0.010 C 
BRANCH   7   9
ATOM      9  C   UNL A   1      32.967  19.313  25.449  1.00  0.00     0.002 C 
ATOM     10  C   UNL A   1      33.842  18.609  24.418  1.00  0.00     0.004 C 
ENDBRANCH   7   9
ENDBRANCH   6   7
BRANCH   6  11
ATOM     11  N   UNL A   1      31.414  22.225  26.589  1.00  0.00    -0.339 N 
ATOM     12  C   UNL A   1      30.646  23.361  26.712  1.00  0.00     0.271 C 
ATOM     13  H   UNL A   1      31.199  21.526  27.247  1.00  0.00     0.164 HD
ATOM     14  O   UNL A   1      29.679  23.311  27.472  1.00  0.00    -0.267 OA
BRANCH  12  15
ATOM     15  C   UNL A   1      31.079  24.619  26.108  1.00  0.00     0.141 A 
ATOM     16  C   UNL A   1      30.332  25.274  25.141  1.00  0.00     0.102 A 
ATOM     17  N   UNL A   1      32.228  25.299  26.489  1.00  0.00    -0.215 NA
ATOM     18  S   UNL A   1      30.982  26.831  24.855  1.00  0.00    -0.104 S 
ATOM     19  C   UNL A   1      32.217  26.510  25.980  1.00  0.00     0.190 A 
BRANCH  19  20
ATOM     20  N   UNL A   1      33.150  27.438  26.360  1.00  0.00    -0.302 N 
ATOM     21  C   UNL A   1      32.926  28.578  27.094  1.00  0.00     0.223 C 
ATOM     22  H   UNL A   1      34.078  27.270  26.078  1.00  0.00     0.172 HD
ATOM     23  C   UNL A   1      34.170  29.413  27.274  1.00  0.00     0.114 C 
ATOM     24  O   UNL A   1      31.868  28.939  27.598  1.00  0.00    -0.275 OA
ENDBRANCH  19  20
ENDBRANCH  12  15
ENDBRANCH   6  11
ENDBRANCH   3   6
ENDBRANCH   1   2
BRANCH   1  25
ATOM     25  C   UNL A   1      36.673  22.936  24.087  1.00  0.00     0.042 C 
BRANCH  25  26
ATOM     26  C   UNL A   1      37.428  23.366  25.332  1.00  0.00     0.118 C 
BRANCH  26  27
ATOM     27  N   UNL A   1      38.648  22.599  25.555  1.00  0.00    -0.352 N 
ATOM     28  C   UNL A   1      39.801  23.015  26.177  1.00  0.00     0.251 C 
ATOM     29  H   UNL A   1      38.645  21.674  25.220  1.00  0.00     0.163 HD
ATOM     30  O   UNL A   1      40.814  22.326  26.176  1.00  0.00    -0.269 OA
BRANCH  28  31
ATOM     31  C   UNL A   1      39.796  24.343  26.818  1.00  0.00     0.039 A 
ATOM     32  C   UNL A   1      39.213  24.492  28.077  1.00  0.00     0.014 A 
ATOM     33  C   UNL A   1      40.488  25.395  26.213  1.00  0.00     0.014 A 
ATOM     34  C   UNL A   1      39.399  25.686  28.775  1.00  0.00     0.010 A 
ATOM     35  C   UNL A   1      40.743  26.545  26.944  1.00  0.00     0.010 A 
ATOM     36  C   UNL A   1      40.204  26.700  28.232  1.00  0.00    -0.014 A 
BRANCH  36  37
ATOM     37  C   UNL A   1      40.498  27.952  28.968  1.00  0.00     0.031 A 
ATOM     38  C   UNL A   1      41.766  28.049  29.765  1.00  0.00     0.074 A 
ATOM     39  C   UNL A   1      39.578  28.933  29.028  1.00  0.00     0.049 A 
ATOM     40  N   UNL A   1      42.128  28.948  30.641  1.00  0.00    -0.248 NA
ATOM     41  C   UNL A   1      42.735  26.954  29.586  1.00  0.00     0.031 C 
ATOM     42  C   UNL A   1      38.283  28.930  28.346  1.00  0.00     0.029 A 
ATOM     43  N   UNL A   1      39.582  30.114  29.728  1.00  0.00    -0.354 N 
ATOM     44  C   UNL A   1      43.339  28.504  31.153  1.00  0.00     0.074 A 
ATOM     45  C   UNL A   1      43.630  27.237  30.518  1.00  0.00     0.031 C 
ATOM     46  C   UNL A   1      37.619  30.055  28.658  1.00  0.00     0.029 A 
ATOM     47  C   UNL A   1      38.423  30.839  29.591  1.00  0.00     0.049 A 
ATOM     48  H   UNL A   1      40.344  30.414  30.275  1.00  0.00     0.167 HD
ATOM     49  C   UNL A   1      44.145  29.106  32.058  1.00  0.00     0.037 A 
ATOM     50  C   UNL A   1      38.046  31.994  30.169  1.00  0.00     0.037 A 
ATOM     51  C   UNL A   1      43.878  30.393  32.639  1.00  0.00     0.049 A 
ATOM     52  C   UNL A   1      38.980  32.676  31.126  1.00  0.00     0.074 A 
ATOM     53  C   UNL A   1      44.671  31.135  33.494  1.00  0.00     0.029 A 
ATOM     54  N   UNL A   1      42.726  31.133  32.412  1.00  0.00    -0.354 N 
ATOM     55  N   UNL A   1      40.151  32.277  31.558  1.00  0.00    -0.248 NA
ATOM     56  C   UNL A   1      38.545  33.970  31.673  1.00  0.00     0.031 C 
ATOM     57  C   UNL A   1      43.988  32.315  33.806  1.00  0.00     0.029 A 
ATOM     58  C   UNL A   1      42.784  32.321  33.120  1.00  0.00     0.049 A 
ATOM     59  H   UNL A   1      41.980  30.855  31.834  1.00  0.00     0.167 HD
ATOM     60  C   UNL A   1      40.604  33.275  32.410  1.00  0.00     0.074 A 
ATOM     61  C   UNL A   1      39.583  34.303  32.430  1.00  0.00     0.031 C 
ATOM     62  C   UNL A   1      41.761  33.335  33.113  1.00  0.00     0.037 A 
BRANCH  49  63
ATOM     63  C   UNL A   1      45.387  28.371  32.463  1.00  0.00     0.057 A 
ATOM     64  C   UNL A   1      46.595  28.522  31.770  1.00  0.00     0.134 A 
ATOM     65  C   UNL A   1      45.371  27.491  33.551  1.00  0.00     0.134 A 
ATOM     66  F   UNL A   1      46.671  29.337  30.706  1.00  0.00    -0.206 F 
ATOM     67  C   UNL A   1      47.734  27.796  32.121  1.00  0.00     0.040 A 
ATOM     68  C   UNL A   1      46.510  26.781  33.930  1.00  0.00     0.040 A 
ATOM     69  F   UNL A   1      44.248  27.303  34.259  1.00  0.00    -0.206 F 
ATOM     70  C   UNL A   1      47.694  26.925  33.207  1.00  0.00     0.006 A 
ENDBRANCH  49  63
BRANCH  50  71
ATOM     71  C   UNL A   1      36.724  32.581  29.838  1.00  0.00     0.057 A 
ATOM     72  C   UNL A   1      36.575  33.449  28.751  1.00  0.00     0.134 A 
ATOM     73  C   UNL A   1      35.579  32.268  30.578  1.00  0.00     0.134 A 
ATOM     74  F   UNL A   1      37.641  33.796  28.015  1.00  0.00    -0.206 F 
ATOM     75  C   UNL A   1      35.334  33.990  28.412  1.00  0.00     0.040 A 
ATOM     76  C   UNL A   1      34.327  32.787  30.241  1.00  0.00     0.040 A 
ATOM     77  F   UNL A   1      35.657  31.434  31.625  1.00  0.00    -0.206 F 
ATOM     78  C   UNL A   1      34.204  33.654  29.156  1.00  0.00     0.006 A 
ENDBRANCH  50  71
BRANCH  62  79
ATOM     79  C   UNL A   1      42.004  34.561  33.937  1.00  0.00     0.057 A 
ATOM     80  C   UNL A   1      41.730  34.590  35.309  1.00  0.00     0.134 A 
ATOM     81  C   UNL A   1      42.587  35.697  33.363  1.00  0.00     0.134 A 
ATOM     82  F   UNL A   1      41.161  33.534  35.911  1.00  0.00    -0.206 F 
ATOM     83  C   UNL A   1      42.025  35.712  36.084  1.00  0.00     0.040 A 
ATOM     84  C   UNL A   1      42.904  36.819  34.131  1.00  0.00     0.040 A 
ATOM     85  F   UNL A   1      42.878  35.726  32.054  1.00  0.00    -0.206 F 
ATOM     86  C   UNL A   1      42.623  36.827  35.496  1.00  0.00     0.006 A 
ENDBRANCH  62  79
ENDBRANCH  36  37
ENDBRANCH  28  31
ENDBRANCH  26  27
ENDBRANCH  25  26
ENDBRANCH   1  25
TORSDOF 15
ENDMDL
