MODEL 1
REMARK VINA RESULT:     -12.1      0.000      0.000
REMARK SMILES CNc1cc(-c2cncc(SCC(=O)NCCCNC(=O)c3ccc(-c4c5nc(c(-c6c(F)cccc6F)c6ccc([nH]6)c(-c6c(F)cccc6F)c6nc(c(-c7c(F)cccc7F)c7ccc4[nH]7)C=C6)C=C5)cc3)n2)c2cc[nH]c2n1
REMARK SMILES IDX 16 1 15 2 13 3 14 4 12 6 11 7 10 8 6 9 7 10 76 11 8 12 9 13
REMARK SMILES IDX 5 14 3 15 4 16 82 17 81 18 77 19 80 20 78 21 79 22 2 24 1 25
REMARK SMILES IDX 17 27 18 28 19 29 20 30 21 32 22 33 23 34 75 35 24 36 74 37
REMARK SMILES IDX 25 38 26 39 27 40 68 41 28 42 73 43 67 44 69 45 29 46 72 47
REMARK SMILES IDX 66 48 65 49 30 51 56 52 39 53 55 54 40 55 43 56 54 57 70 58
REMARK SMILES IDX 41 59 42 60 53 62 71 63 44 64 31 65 32 66 37 67 33 68 34 69
REMARK SMILES IDX 36 70 38 71 35 72 57 73 58 74 63 75 59 76 60 77 62 78 64 79
REMARK SMILES IDX 61 80 45 81 46 82 51 83 47 84 48 85 50 86 52 87 49 88
REMARK H PARENT 15 5 80 23 2 26 19 31 69 50 43 61
REMARK Flexibility Score: inf
ROOT
ATOM      1  C   UNL A   1      31.703  30.591  25.868  1.00  0.00     0.117 C 
ENDROOT
BRANCH   1   2
ATOM      2  N   UNL A   1      31.410  29.493  26.767  1.00  0.00    -0.355 N 
ATOM      3  C   UNL A   1      32.149  28.397  27.103  1.00  0.00     0.230 C 
ATOM      4  O   UNL A   1      31.696  27.683  28.003  1.00  0.00    -0.274 OA
ATOM      5  H   UNL A   1      30.531  29.547  27.209  1.00  0.00     0.163 HD
BRANCH   3   6
ATOM      6  C   UNL A   1      33.527  28.147  26.521  1.00  0.00     0.176 C 
BRANCH   6   7
ATOM      7  S   UNL A   1      33.789  26.484  25.835  1.00  0.00    -0.095 SA
BRANCH   7   8
ATOM      8  C   UNL A   1      32.973  26.577  24.258  1.00  0.00     0.116 A 
ATOM      9  C   UNL A   1      31.335  27.398  22.860  1.00  0.00     0.091 A 
ATOM     10  C   UNL A   1      31.828  26.596  21.831  1.00  0.00     0.140 A 
ATOM     11  N   UNL A   1      31.910  27.393  24.094  1.00  0.00    -0.238 NA
ATOM     12  N   UNL A   1      32.889  25.771  21.980  1.00  0.00    -0.260 NA
ATOM     13  C   UNL A   1      33.442  25.781  23.215  1.00  0.00     0.146 A 
BRANCH   9  14
ATOM     14  C   UNL A   1      30.168  28.249  22.665  1.00  0.00     0.016 A 
ATOM     15  C   UNL A   1      29.120  30.320  21.924  1.00  0.00     0.128 A 
ATOM     16  C   UNL A   1      30.249  29.511  22.046  1.00  0.00     0.058 A 
ATOM     17  N   UNL A   1      27.917  29.984  22.420  1.00  0.00    -0.213 NA
ATOM     18  C   UNL A   1      27.864  28.767  22.982  1.00  0.00     0.140 A 
ATOM     19  C   UNL A   1      28.902  27.857  23.137  1.00  0.00     0.028 A 
ATOM     20  N   UNL A   1      26.728  28.215  23.502  1.00  0.00    -0.346 N 
ATOM     21  C   UNL A   1      28.341  26.720  23.788  1.00  0.00     0.030 A 
ATOM     22  C   UNL A   1      26.999  26.966  23.994  1.00  0.00     0.085 A 
ATOM     23  H   UNL A   1      25.843  28.651  23.520  1.00  0.00     0.167 HD
BRANCH  15  24
ATOM     24  N   UNL A   1      29.142  31.533  21.279  1.00  0.00    -0.373 N 
ATOM     25  C   UNL A   1      28.027  32.047  20.525  1.00  0.00     0.141 C 
ATOM     26  H   UNL A   1      29.958  32.080  21.337  1.00  0.00     0.161 HD
ENDBRANCH  15  24
ENDBRANCH   9  14
ENDBRANCH   7   8
ENDBRANCH   6   7
ENDBRANCH   3   6
ENDBRANCH   1   2
BRANCH   1  27
ATOM     27  C   UNL A   1      31.397  31.948  26.499  1.00  0.00     0.042 C 
BRANCH  27  28
ATOM     28  C   UNL A   1      32.577  32.580  27.235  1.00  0.00     0.118 C 
BRANCH  28  29
ATOM     29  N   UNL A   1      32.343  33.973  27.593  1.00  0.00    -0.352 N 
ATOM     30  C   UNL A   1      32.984  34.776  28.503  1.00  0.00     0.251 C 
ATOM     31  H   UNL A   1      31.607  34.407  27.104  1.00  0.00     0.163 HD
ATOM     32  O   UNL A   1      32.513  35.884  28.768  1.00  0.00    -0.269 OA
BRANCH  30  33
ATOM     33  C   UNL A   1      34.213  34.323  29.188  1.00  0.00     0.039 A 
ATOM     34  C   UNL A   1      34.092  33.661  30.414  1.00  0.00     0.014 A 
ATOM     35  C   UNL A   1      35.480  34.565  28.652  1.00  0.00     0.014 A 
ATOM     36  C   UNL A   1      35.231  33.172  31.058  1.00  0.00     0.010 A 
ATOM     37  C   UNL A   1      36.609  34.018  29.260  1.00  0.00     0.010 A 
ATOM     38  C   UNL A   1      36.496  33.306  30.463  1.00  0.00    -0.014 A 
BRANCH  38  39
ATOM     39  C   UNL A   1      37.702  32.679  31.067  1.00  0.00     0.031 A 
ATOM     40  C   UNL A   1      38.322  31.458  30.445  1.00  0.00     0.074 A 
ATOM     41  C   UNL A   1      38.201  33.175  32.218  1.00  0.00     0.049 A 
ATOM     42  N   UNL A   1      39.315  30.724  30.880  1.00  0.00    -0.248 NA
ATOM     43  C   UNL A   1      37.739  30.990  29.179  1.00  0.00     0.031 C 
ATOM     44  C   UNL A   1      37.668  34.330  32.943  1.00  0.00     0.029 A 
ATOM     45  N   UNL A   1      39.258  32.759  32.989  1.00  0.00    -0.354 N 
ATOM     46  C   UNL A   1      39.475  29.710  29.944  1.00  0.00     0.074 A 
ATOM     47  C   UNL A   1      38.443  29.890  28.946  1.00  0.00     0.031 C 
ATOM     48  C   UNL A   1      38.406  34.537  34.045  1.00  0.00     0.029 A 
ATOM     49  C   UNL A   1      39.434  33.506  34.130  1.00  0.00     0.049 A 
ATOM     50  H   UNL A   1      39.835  31.999  32.748  1.00  0.00     0.167 HD
ATOM     51  C   UNL A   1      40.411  28.731  29.909  1.00  0.00     0.037 A 
ATOM     52  C   UNL A   1      40.312  33.364  35.142  1.00  0.00     0.037 A 
ATOM     53  C   UNL A   1      41.444  28.556  30.896  1.00  0.00     0.049 A 
ATOM     54  C   UNL A   1      41.316  32.245  35.093  1.00  0.00     0.074 A 
ATOM     55  C   UNL A   1      42.457  27.612  30.926  1.00  0.00     0.029 A 
ATOM     56  N   UNL A   1      41.596  29.340  32.029  1.00  0.00    -0.354 N 
ATOM     57  N   UNL A   1      41.489  31.328  34.173  1.00  0.00    -0.248 NA
ATOM     58  C   UNL A   1      42.250  32.140  36.224  1.00  0.00     0.031 C 
ATOM     59  C   UNL A   1      43.196  27.799  32.096  1.00  0.00     0.029 A 
ATOM     60  C   UNL A   1      42.675  28.890  32.773  1.00  0.00     0.049 A 
ATOM     61  H   UNL A   1      41.023  30.104  32.270  1.00  0.00     0.167 HD
ATOM     62  C   UNL A   1      42.564  30.559  34.599  1.00  0.00     0.074 A 
ATOM     63  C   UNL A   1      43.018  31.129  35.850  1.00  0.00     0.031 C 
ATOM     64  C   UNL A   1      43.124  29.475  34.009  1.00  0.00     0.037 A 
BRANCH  51  65
ATOM     65  C   UNL A   1      40.377  27.777  28.750  1.00  0.00     0.057 A 
ATOM     66  C   UNL A   1      41.129  28.004  27.590  1.00  0.00     0.134 A 
ATOM     67  C   UNL A   1      39.642  26.586  28.820  1.00  0.00     0.134 A 
ATOM     68  F   UNL A   1      41.849  29.129  27.457  1.00  0.00    -0.206 F 
ATOM     69  C   UNL A   1      41.140  27.091  26.536  1.00  0.00     0.040 A 
ATOM     70  C   UNL A   1      39.666  25.652  27.782  1.00  0.00     0.040 A 
ATOM     71  F   UNL A   1      38.906  26.301  29.904  1.00  0.00    -0.206 F 
ATOM     72  C   UNL A   1      40.414  25.906  26.634  1.00  0.00     0.006 A 
ENDBRANCH  51  65
BRANCH  52  73
ATOM     73  C   UNL A   1      40.282  34.296  36.300  1.00  0.00     0.057 A 
ATOM     74  C   UNL A   1      39.413  34.087  37.376  1.00  0.00     0.134 A 
ATOM     75  C   UNL A   1      41.092  35.437  36.338  1.00  0.00     0.134 A 
ATOM     76  F   UNL A   1      38.598  33.022  37.388  1.00  0.00    -0.206 F 
ATOM     77  C   UNL A   1      39.323  34.996  38.431  1.00  0.00     0.040 A 
ATOM     78  C   UNL A   1      41.035  36.339  37.402  1.00  0.00     0.040 A 
ATOM     79  F   UNL A   1      41.953  35.692  35.342  1.00  0.00    -0.206 F 
ATOM     80  C   UNL A   1      40.139  36.126  38.447  1.00  0.00     0.006 A 
ENDBRANCH  52  73
BRANCH  64  81
ATOM     81  C   UNL A   1      44.310  28.857  34.691  1.00  0.00     0.057 A 
ATOM     82  C   UNL A   1      44.170  27.838  35.640  1.00  0.00     0.134 A 
ATOM     83  C   UNL A   1      45.611  29.262  34.363  1.00  0.00     0.134 A 
ATOM     84  F   UNL A   1      42.951  27.414  36.009  1.00  0.00    -0.206 F 
ATOM     85  C   UNL A   1      45.280  27.259  36.258  1.00  0.00     0.040 A 
ATOM     86  C   UNL A   1      46.729  28.672  34.953  1.00  0.00     0.040 A 
ATOM     87  F   UNL A   1      45.816  30.227  33.454  1.00  0.00    -0.206 F 
ATOM     88  C   UNL A   1      46.564  27.671  35.908  1.00  0.00     0.006 A 
ENDBRANCH  64  81
ENDBRANCH  38  39
ENDBRANCH  30  33
ENDBRANCH  28  29
ENDBRANCH  27  28
ENDBRANCH   1  27
TORSDOF 14
ENDMDL
MODEL 2
REMARK VINA RESULT:     -12.1      4.138      8.722
REMARK SMILES CNc1cc(-c2cncc(SCC(=O)NCCCNC(=O)c3ccc(-c4c5nc(c(-c6c(F)cccc6F)c6ccc([nH]6)c(-c6c(F)cccc6F)c6nc(c(-c7c(F)cccc7F)c7ccc4[nH]7)C=C6)C=C5)cc3)n2)c2cc[nH]c2n1
REMARK SMILES IDX 16 1 15 2 13 3 14 4 12 6 11 7 10 8 6 9 7 10 76 11 8 12 9 13
REMARK SMILES IDX 5 14 3 15 4 16 82 17 81 18 77 19 80 20 78 21 79 22 2 24 1 25
REMARK SMILES IDX 17 27 18 28 19 29 20 30 21 32 22 33 23 34 75 35 24 36 74 37
REMARK SMILES IDX 25 38 26 39 27 40 68 41 28 42 73 43 67 44 69 45 29 46 72 47
REMARK SMILES IDX 66 48 65 49 30 51 56 52 39 53 55 54 40 55 43 56 54 57 70 58
REMARK SMILES IDX 41 59 42 60 53 62 71 63 44 64 31 65 32 66 37 67 33 68 34 69
REMARK SMILES IDX 36 70 38 71 35 72 57 73 58 74 63 75 59 76 60 77 62 78 64 79
REMARK SMILES IDX 61 80 45 81 46 82 51 83 47 84 48 85 50 86 52 87 49 88
REMARK H PARENT 15 5 80 23 2 26 19 31 69 50 43 61
REMARK Flexibility Score: inf
ROOT
ATOM      1  C   UNL A   1      31.750  29.423  25.757  1.00  0.00     0.117 C 
ENDROOT
BRANCH   1   2
ATOM      2  N   UNL A   1      31.368  29.740  24.395  1.00  0.00    -0.355 N 
ATOM      3  C   UNL A   1      30.664  29.017  23.478  1.00  0.00     0.230 C 
ATOM      4  O   UNL A   1      30.375  29.595  22.427  1.00  0.00    -0.274 OA
ATOM      5  H   UNL A   1      31.667  30.624  24.079  1.00  0.00     0.163 HD
BRANCH   3   6
ATOM      6  C   UNL A   1      30.123  27.634  23.787  1.00  0.00     0.176 C 
BRANCH   6   7
ATOM      7  S   UNL A   1      31.071  26.255  23.077  1.00  0.00    -0.095 SA
BRANCH   7   8
ATOM      8  C   UNL A   1      31.537  25.317  24.514  1.00  0.00     0.116 A 
ATOM      9  C   UNL A   1      32.949  23.884  25.638  1.00  0.00     0.091 A 
ATOM     10  C   UNL A   1      32.102  23.936  26.744  1.00  0.00     0.140 A 
ATOM     11  N   UNL A   1      32.669  24.581  24.503  1.00  0.00    -0.238 NA
ATOM     12  N   UNL A   1      30.963  24.665  26.770  1.00  0.00    -0.260 NA
ATOM     13  C   UNL A   1      30.705  25.348  25.630  1.00  0.00     0.146 A 
BRANCH   9  14
ATOM     14  C   UNL A   1      34.151  23.058  25.640  1.00  0.00     0.016 A 
ATOM     15  C   UNL A   1      36.562  22.777  25.843  1.00  0.00     0.128 A 
ATOM     16  C   UNL A   1      35.429  23.587  25.900  1.00  0.00     0.058 A 
ATOM     17  N   UNL A   1      36.522  21.480  25.496  1.00  0.00    -0.213 NA
ATOM     18  C   UNL A   1      35.289  20.997  25.279  1.00  0.00     0.140 A 
ATOM     19  C   UNL A   1      34.085  21.686  25.334  1.00  0.00     0.028 A 
ATOM     20  N   UNL A   1      35.024  19.694  24.965  1.00  0.00    -0.346 N 
ATOM     21  C   UNL A   1      33.067  20.737  25.029  1.00  0.00     0.030 A 
ATOM     22  C   UNL A   1      33.674  19.518  24.812  1.00  0.00     0.085 A 
ATOM     23  H   UNL A   1      35.702  18.987  24.863  1.00  0.00     0.167 HD
BRANCH  15  24
ATOM     24  N   UNL A   1      37.822  23.239  26.142  1.00  0.00    -0.373 N 
ATOM     25  C   UNL A   1      38.957  22.372  26.328  1.00  0.00     0.141 C 
ATOM     26  H   UNL A   1      37.955  24.210  26.232  1.00  0.00     0.161 HD
ENDBRANCH  15  24
ENDBRANCH   9  14
ENDBRANCH   7   8
ENDBRANCH   6   7
ENDBRANCH   3   6
ENDBRANCH   1   2
BRANCH   1  27
ATOM     27  C   UNL A   1      33.021  28.579  25.815  1.00  0.00     0.042 C 
BRANCH  27  28
ATOM     28  C   UNL A   1      33.799  28.702  27.124  1.00  0.00     0.118 C 
BRANCH  28  29
ATOM     29  N   UNL A   1      33.818  30.061  27.648  1.00  0.00    -0.352 N 
ATOM     30  C   UNL A   1      34.792  30.730  28.346  1.00  0.00     0.251 C 
ATOM     31  H   UNL A   1      33.002  30.582  27.473  1.00  0.00     0.163 HD
ATOM     32  O   UNL A   1      34.533  31.828  28.841  1.00  0.00    -0.269 OA
BRANCH  30  33
ATOM     33  C   UNL A   1      36.136  30.143  28.535  1.00  0.00     0.039 A 
ATOM     34  C   UNL A   1      37.047  30.201  27.476  1.00  0.00     0.014 A 
ATOM     35  C   UNL A   1      36.498  29.516  29.729  1.00  0.00     0.014 A 
ATOM     36  C   UNL A   1      38.343  29.706  27.643  1.00  0.00     0.010 A 
ATOM     37  C   UNL A   1      37.810  29.084  29.918  1.00  0.00     0.010 A 
ATOM     38  C   UNL A   1      38.750  29.184  28.882  1.00  0.00    -0.014 A 
BRANCH  38  39
ATOM     39  C   UNL A   1      40.159  28.773  29.118  1.00  0.00     0.031 A 
ATOM     40  C   UNL A   1      41.142  29.731  29.734  1.00  0.00     0.074 A 
ATOM     41  C   UNL A   1      40.570  27.553  28.719  1.00  0.00     0.049 A 
ATOM     42  N   UNL A   1      42.428  29.582  29.931  1.00  0.00    -0.248 NA
ATOM     43  C   UNL A   1      40.616  31.034  30.167  1.00  0.00     0.031 C 
ATOM     44  C   UNL A   1      39.726  26.544  28.075  1.00  0.00     0.029 A 
ATOM     45  N   UNL A   1      41.806  26.958  28.780  1.00  0.00    -0.354 N 
ATOM     46  C   UNL A   1      42.863  30.768  30.509  1.00  0.00     0.074 A 
ATOM     47  C   UNL A   1      41.717  31.648  30.581  1.00  0.00     0.031 C 
ATOM     48  C   UNL A   1      40.464  25.455  27.809  1.00  0.00     0.029 A 
ATOM     49  C   UNL A   1      41.842  25.702  28.223  1.00  0.00     0.049 A 
ATOM     50  H   UNL A   1      42.593  27.391  29.184  1.00  0.00     0.167 HD
ATOM     51  C   UNL A   1      44.101  31.085  30.958  1.00  0.00     0.037 A 
ATOM     52  C   UNL A   1      42.871  24.851  28.046  1.00  0.00     0.037 A 
ATOM     53  C   UNL A   1      45.241  30.208  30.895  1.00  0.00     0.049 A 
ATOM     54  C   UNL A   1      44.242  25.247  28.522  1.00  0.00     0.074 A 
ATOM     55  C   UNL A   1      46.527  30.431  31.355  1.00  0.00     0.029 A 
ATOM     56  N   UNL A   1      45.232  28.939  30.336  1.00  0.00    -0.354 N 
ATOM     57  N   UNL A   1      44.625  26.350  29.116  1.00  0.00    -0.248 NA
ATOM     58  C   UNL A   1      45.326  24.278  28.304  1.00  0.00     0.031 C 
ATOM     59  C   UNL A   1      47.307  29.316  31.038  1.00  0.00     0.029 A 
ATOM     60  C   UNL A   1      46.495  28.376  30.424  1.00  0.00     0.049 A 
ATOM     61  H   UNL A   1      44.445  28.503  29.936  1.00  0.00     0.167 HD
ATOM     62  C   UNL A   1      45.982  26.196  29.368  1.00  0.00     0.074 A 
ATOM     63  C   UNL A   1      46.353  24.884  28.880  1.00  0.00     0.031 C 
ATOM     64  C   UNL A   1      46.846  27.065  29.947  1.00  0.00     0.037 A 
BRANCH  51  65
ATOM     65  C   UNL A   1      44.290  32.439  31.580  1.00  0.00     0.057 A 
ATOM     66  C   UNL A   1      44.124  32.643  32.956  1.00  0.00     0.134 A 
ATOM     67  C   UNL A   1      44.709  33.532  30.811  1.00  0.00     0.134 A 
ATOM     68  F   UNL A   1      43.716  31.639  33.747  1.00  0.00    -0.206 F 
ATOM     69  C   UNL A   1      44.352  33.888  33.543  1.00  0.00     0.040 A 
ATOM     70  C   UNL A   1      44.966  34.776  31.391  1.00  0.00     0.040 A 
ATOM     71  F   UNL A   1      44.896  33.405  29.489  1.00  0.00    -0.206 F 
ATOM     72  C   UNL A   1      44.783  34.957  32.761  1.00  0.00     0.006 A 
ENDBRANCH  51  65
BRANCH  52  73
ATOM     73  C   UNL A   1      42.658  23.541  27.378  1.00  0.00     0.057 A 
ATOM     74  C   UNL A   1      42.340  22.394  28.115  1.00  0.00     0.134 A 
ATOM     75  C   UNL A   1      42.807  23.395  25.993  1.00  0.00     0.134 A 
ATOM     76  F   UNL A   1      42.202  22.465  29.447  1.00  0.00    -0.206 F 
ATOM     77  C   UNL A   1      42.212  21.145  27.506  1.00  0.00     0.040 A 
ATOM     78  C   UNL A   1      42.653  22.158  25.367  1.00  0.00     0.040 A 
ATOM     79  F   UNL A   1      43.104  24.456  25.228  1.00  0.00    -0.206 F 
ATOM     80  C   UNL A   1      42.366  21.025  26.126  1.00  0.00     0.006 A 
ENDBRANCH  52  73
BRANCH  64  81
ATOM     81  C   UNL A   1      48.267  26.611  30.117  1.00  0.00     0.057 A 
ATOM     82  C   UNL A   1      48.686  25.898  31.246  1.00  0.00     0.134 A 
ATOM     83  C   UNL A   1      49.218  26.859  29.118  1.00  0.00     0.134 A 
ATOM     84  F   UNL A   1      47.827  25.641  32.246  1.00  0.00    -0.206 F 
ATOM     85  C   UNL A   1      50.006  25.467  31.389  1.00  0.00     0.040 A 
ATOM     86  C   UNL A   1      50.534  26.409  29.236  1.00  0.00     0.040 A 
ATOM     87  F   UNL A   1      48.880  27.528  28.006  1.00  0.00    -0.206 F 
ATOM     88  C   UNL A   1      50.932  25.716  30.377  1.00  0.00     0.006 A 
ENDBRANCH  64  81
ENDBRANCH  38  39
ENDBRANCH  30  33
ENDBRANCH  28  29
ENDBRANCH  27  28
ENDBRANCH   1  27
TORSDOF 14
ENDMDL
MODEL 3
REMARK VINA RESULT:     -12.0      2.539      4.253
REMARK SMILES CNc1cc(-c2cncc(SCC(=O)NCCCNC(=O)c3ccc(-c4c5nc(c(-c6c(F)cccc6F)c6ccc([nH]6)c(-c6c(F)cccc6F)c6nc(c(-c7c(F)cccc7F)c7ccc4[nH]7)C=C6)C=C5)cc3)n2)c2cc[nH]c2n1
REMARK SMILES IDX 16 1 15 2 13 3 14 4 12 6 11 7 10 8 6 9 7 10 76 11 8 12 9 13
REMARK SMILES IDX 5 14 3 15 4 16 82 17 81 18 77 19 80 20 78 21 79 22 2 24 1 25
REMARK SMILES IDX 17 27 18 28 19 29 20 30 21 32 22 33 23 34 75 35 24 36 74 37
REMARK SMILES IDX 25 38 26 39 27 40 68 41 28 42 73 43 67 44 69 45 29 46 72 47
REMARK SMILES IDX 66 48 65 49 30 51 56 52 39 53 55 54 40 55 43 56 54 57 70 58
REMARK SMILES IDX 41 59 42 60 53 62 71 63 44 64 31 65 32 66 37 67 33 68 34 69
REMARK SMILES IDX 36 70 38 71 35 72 57 73 58 74 63 75 59 76 60 77 62 78 64 79
REMARK SMILES IDX 61 80 45 81 46 82 51 83 47 84 48 85 50 86 52 87 49 88
REMARK H PARENT 15 5 80 23 2 26 19 31 69 50 43 61
REMARK Flexibility Score: inf
ROOT
ATOM      1  C   UNL A   1      31.658  30.462  25.862  1.00  0.00     0.117 C 
ENDROOT
BRANCH   1   2
ATOM      2  N   UNL A   1      30.956  30.311  24.604  1.00  0.00    -0.355 N 
ATOM      3  C   UNL A   1      30.622  29.191  23.901  1.00  0.00     0.230 C 
ATOM      4  O   UNL A   1      29.904  29.357  22.911  1.00  0.00    -0.274 OA
ATOM      5  H   UNL A   1      30.672  31.157  24.187  1.00  0.00     0.163 HD
BRANCH   3   6
ATOM      6  C   UNL A   1      30.977  27.799  24.389  1.00  0.00     0.176 C 
BRANCH   6   7
ATOM      7  S   UNL A   1      30.168  26.436  23.500  1.00  0.00    -0.095 SA
BRANCH   7   8
ATOM      8  C   UNL A   1      31.528  25.359  23.109  1.00  0.00     0.116 A 
ATOM      9  C   UNL A   1      32.679  23.375  23.328  1.00  0.00     0.091 A 
ATOM     10  C   UNL A   1      33.648  23.854  22.446  1.00  0.00     0.140 A 
ATOM     11  N   UNL A   1      31.602  24.133  23.670  1.00  0.00    -0.238 NA
ATOM     12  N   UNL A   1      33.591  25.081  21.880  1.00  0.00    -0.260 NA
ATOM     13  C   UNL A   1      32.512  25.816  22.236  1.00  0.00     0.146 A 
BRANCH   9  14
ATOM     14  C   UNL A   1      32.797  22.058  23.942  1.00  0.00     0.016 A 
ATOM     15  C   UNL A   1      32.531  19.637  23.896  1.00  0.00     0.128 A 
ATOM     16  C   UNL A   1      32.456  20.874  23.260  1.00  0.00     0.058 A 
ATOM     17  N   UNL A   1      32.878  19.493  25.187  1.00  0.00    -0.213 NA
ATOM     18  C   UNL A   1      33.222  20.634  25.804  1.00  0.00     0.140 A 
ATOM     19  C   UNL A   1      33.220  21.919  25.276  1.00  0.00     0.028 A 
ATOM     20  N   UNL A   1      33.652  20.702  27.098  1.00  0.00    -0.346 N 
ATOM     21  C   UNL A   1      33.665  22.779  26.321  1.00  0.00     0.030 A 
ATOM     22  C   UNL A   1      33.930  22.002  27.429  1.00  0.00     0.085 A 
ATOM     23  H   UNL A   1      33.749  19.930  27.704  1.00  0.00     0.167 HD
BRANCH  15  24
ATOM     24  N   UNL A   1      32.260  18.452  23.253  1.00  0.00    -0.373 N 
ATOM     25  C   UNL A   1      32.996  17.237  23.493  1.00  0.00     0.141 C 
ATOM     26  H   UNL A   1      31.526  18.433  22.599  1.00  0.00     0.161 HD
ENDBRANCH  15  24
ENDBRANCH   9  14
ENDBRANCH   7   8
ENDBRANCH   6   7
ENDBRANCH   3   6
ENDBRANCH   1   2
BRANCH   1  27
ATOM     27  C   UNL A   1      31.402  31.825  26.502  1.00  0.00     0.042 C 
BRANCH  27  28
ATOM     28  C   UNL A   1      32.618  32.429  27.204  1.00  0.00     0.118 C 
BRANCH  28  29
ATOM     29  N   UNL A   1      32.430  33.829  27.561  1.00  0.00    -0.352 N 
ATOM     30  C   UNL A   1      33.072  34.601  28.497  1.00  0.00     0.251 C 
ATOM     31  H   UNL A   1      31.732  34.296  27.048  1.00  0.00     0.163 HD
ATOM     32  O   UNL A   1      32.640  35.726  28.751  1.00  0.00    -0.269 OA
BRANCH  30  33
ATOM     33  C   UNL A   1      34.256  34.094  29.222  1.00  0.00     0.039 A 
ATOM     34  C   UNL A   1      34.058  33.267  30.333  1.00  0.00     0.014 A 
ATOM     35  C   UNL A   1      35.553  34.442  28.839  1.00  0.00     0.014 A 
ATOM     36  C   UNL A   1      35.158  32.727  31.005  1.00  0.00     0.010 A 
ATOM     37  C   UNL A   1      36.648  33.849  29.467  1.00  0.00     0.010 A 
ATOM     38  C   UNL A   1      36.462  32.976  30.549  1.00  0.00    -0.014 A 
BRANCH  38  39
ATOM     39  C   UNL A   1      37.636  32.307  31.169  1.00  0.00     0.031 A 
ATOM     40  C   UNL A   1      38.355  31.201  30.447  1.00  0.00     0.074 A 
ATOM     41  C   UNL A   1      38.016  32.655  32.416  1.00  0.00     0.049 A 
ATOM     42  N   UNL A   1      39.337  30.442  30.867  1.00  0.00    -0.248 NA
ATOM     43  C   UNL A   1      37.901  30.893  29.083  1.00  0.00     0.031 C 
ATOM     44  C   UNL A   1      37.378  33.685  33.238  1.00  0.00     0.029 A 
ATOM     45  N   UNL A   1      39.020  32.168  33.216  1.00  0.00    -0.354 N 
ATOM     46  C   UNL A   1      39.616  29.570  29.822  1.00  0.00     0.074 A 
ATOM     47  C   UNL A   1      38.666  29.856  28.769  1.00  0.00     0.031 C 
ATOM     48  C   UNL A   1      38.010  33.760  34.420  1.00  0.00     0.029 A 
ATOM     49  C   UNL A   1      39.068  32.756  34.458  1.00  0.00     0.049 A 
ATOM     50  H   UNL A   1      39.645  31.464  32.928  1.00  0.00     0.167 HD
ATOM     51  C   UNL A   1      40.589  28.632  29.740  1.00  0.00     0.037 A 
ATOM     52  C   UNL A   1      39.863  32.502  35.515  1.00  0.00     0.037 A 
ATOM     53  C   UNL A   1      41.541  28.353  30.784  1.00  0.00     0.049 A 
ATOM     54  C   UNL A   1      40.911  31.429  35.408  1.00  0.00     0.074 A 
ATOM     55  C   UNL A   1      42.585  27.443  30.778  1.00  0.00     0.029 A 
ATOM     56  N   UNL A   1      41.566  28.979  32.021  1.00  0.00    -0.354 N 
ATOM     57  N   UNL A   1      41.198  30.651  34.393  1.00  0.00    -0.248 NA
ATOM     58  C   UNL A   1      41.749  31.197  36.594  1.00  0.00     0.031 C 
ATOM     59  C   UNL A   1      43.214  27.489  32.024  1.00  0.00     0.029 A 
ATOM     60  C   UNL A   1      42.595  28.462  32.791  1.00  0.00     0.049 A 
ATOM     61  H   UNL A   1      40.944  29.686  32.309  1.00  0.00     0.167 HD
ATOM     62  C   UNL A   1      42.263  29.862  34.806  1.00  0.00     0.074 A 
ATOM     63  C   UNL A   1      42.586  30.268  36.158  1.00  0.00     0.031 C 
ATOM     64  C   UNL A   1      42.914  28.885  34.129  1.00  0.00     0.037 A 
BRANCH  51  65
ATOM     65  C   UNL A   1      40.692  27.845  28.466  1.00  0.00     0.057 A 
ATOM     66  C   UNL A   1      41.471  28.289  27.390  1.00  0.00     0.134 A 
ATOM     67  C   UNL A   1      40.065  26.598  28.338  1.00  0.00     0.134 A 
ATOM     68  F   UNL A   1      42.091  29.478  27.446  1.00  0.00    -0.206 F 
ATOM     69  C   UNL A   1      41.610  27.531  26.227  1.00  0.00     0.040 A 
ATOM     70  C   UNL A   1      40.218  25.819  27.189  1.00  0.00     0.040 A 
ATOM     71  F   UNL A   1      39.311  26.109  29.333  1.00  0.00    -0.206 F 
ATOM     72  C   UNL A   1      40.989  26.288  26.128  1.00  0.00     0.006 A 
ENDBRANCH  51  65
BRANCH  52  73
ATOM     73  C   UNL A   1      39.698  33.266  36.780  1.00  0.00     0.057 A 
ATOM     74  C   UNL A   1      38.767  32.872  37.748  1.00  0.00     0.134 A 
ATOM     75  C   UNL A   1      40.436  34.429  37.031  1.00  0.00     0.134 A 
ATOM     76  F   UNL A   1      38.016  31.778  37.557  1.00  0.00    -0.206 F 
ATOM     77  C   UNL A   1      38.551  33.624  38.904  1.00  0.00     0.040 A 
ATOM     78  C   UNL A   1      40.252  35.174  38.197  1.00  0.00     0.040 A 
ATOM     79  F   UNL A   1      41.350  34.857  36.148  1.00  0.00    -0.206 F 
ATOM     80  C   UNL A   1      39.298  34.779  39.132  1.00  0.00     0.006 A 
ENDBRANCH  52  73
BRANCH  64  81
ATOM     81  C   UNL A   1      44.061  28.213  34.825  1.00  0.00     0.057 A 
ATOM     82  C   UNL A   1      45.362  28.728  34.773  1.00  0.00     0.134 A 
ATOM     83  C   UNL A   1      43.853  27.056  35.588  1.00  0.00     0.134 A 
ATOM     84  F   UNL A   1      45.631  29.825  34.048  1.00  0.00    -0.206 F 
ATOM     85  C   UNL A   1      46.420  28.104  35.436  1.00  0.00     0.040 A 
ATOM     86  C   UNL A   1      44.897  26.440  36.278  1.00  0.00     0.040 A 
ATOM     87  F   UNL A   1      42.629  26.516  35.687  1.00  0.00    -0.206 F 
ATOM     88  C   UNL A   1      46.186  26.961  36.198  1.00  0.00     0.006 A 
ENDBRANCH  64  81
ENDBRANCH  38  39
ENDBRANCH  30  33
ENDBRANCH  28  29
ENDBRANCH  27  28
ENDBRANCH   1  27
TORSDOF 14
ENDMDL
