MODEL 1
REMARK VINA RESULT:      -9.7      0.000      0.000
REMARK SMILES COc1ccccc1C(=O)N/C(=C/c1ccc2c(c1)OCO2)C(=O)Nc1ccc(C(=O)NCCCNC(=O)c2ccc(-c3c4nc(c(-c5c(F)cccc5F)c5ccc([nH]5)c(-c5c(F)cccc5F)c5nc(c(-c6c(F)cccc6F)c6ccc3[nH]6)C=C5)C=C4)cc2)cc1
REMARK SMILES IDX 30 1 31 2 32 3 29 5 26 6 27 7 94 8 28 9 93 10 25 11 23 12
REMARK SMILES IDX 24 13 12 15 13 16 11 17 9 18 10 19 8 21 3 22 4 23 5 24 7 25
REMARK SMILES IDX 6 26 2 27 1 28 14 29 15 30 19 31 16 32 18 33 17 34 20 35
REMARK SMILES IDX 22 36 21 37 33 38 34 39 35 40 36 41 37 42 38 44 39 45 40 46
REMARK SMILES IDX 92 47 41 48 91 49 42 50 43 51 44 52 85 53 45 54 90 55 84 56
REMARK SMILES IDX 86 57 46 58 89 59 83 60 82 61 47 63 73 64 56 65 72 66 57 67
REMARK SMILES IDX 60 68 71 69 87 70 58 71 59 72 70 74 88 75 61 76 48 77 49 78
REMARK SMILES IDX 54 79 50 80 51 81 53 82 55 83 52 84 74 85 75 86 80 87 76 88
REMARK SMILES IDX 77 89 79 90 81 91 78 92 62 93 63 94 68 95 64 96 65 97 67 98
REMARK SMILES IDX 69 99 66 100
REMARK H PARENT 32 4 25 14 11 20 36 43 86 62 60 73
REMARK Flexibility Score: inf
ROOT
ATOM      1  C   UNL A   1      41.259  22.838  26.908  1.00  0.00     0.251 C 
ATOM      2  O   UNL A   1      40.661  21.834  27.277  1.00  0.00    -0.269 OA
ATOM      3  N   UNL A   1      42.147  22.775  25.871  1.00  0.00    -0.352 N 
ATOM      4  H   UNL A   1      42.302  21.872  25.510  1.00  0.00     0.163 HD
ENDROOT
BRANCH   1   5
ATOM      5  C   UNL A   1      40.948  24.124  27.529  1.00  0.00     0.039 A 
ATOM      6  C   UNL A   1      40.184  27.519  28.851  1.00  0.00     0.041 A 
ATOM      7  C   UNL A   1      38.902  26.630  28.014  1.00  0.00     0.027 A 
ATOM      8  C   UNL A   1      41.733  26.725  29.098  1.00  0.00     0.027 A 
ATOM      9  C   UNL A   1      39.311  24.808  27.235  1.00  0.00     0.016 A 
ATOM     10  C   UNL A   1      42.097  25.091  28.467  1.00  0.00     0.016 A 
BRANCH   6  11
ATOM     11  N   UNL A   1      40.138  28.894  28.559  1.00  0.00    -0.321 N 
ATOM     12  C   UNL A   1      40.335  29.848  29.552  1.00  0.00     0.272 C 
ATOM     13  O   UNL A   1      41.260  30.659  29.471  1.00  0.00    -0.267 OA
ATOM     14  H   UNL A   1      39.962  29.187  27.635  1.00  0.00     0.170 HD
BRANCH  12  15
ATOM     15  C   UNL A   1      39.261  30.037  30.650  1.00  0.00     0.108 C 
ATOM     16  C   UNL A   1      37.951  30.374  30.470  1.00  0.00     0.040 C 
BRANCH  15  17
ATOM     17  N   UNL A   1      39.635  29.800  31.970  1.00  0.00    -0.317 N 
ATOM     18  C   UNL A   1      39.571  30.499  33.155  1.00  0.00     0.259 C 
ATOM     19  O   UNL A   1      40.002  29.942  34.169  1.00  0.00    -0.269 OA
ATOM     20  H   UNL A   1      40.048  28.913  32.084  1.00  0.00     0.170 HD
BRANCH  18  21
ATOM     21  C   UNL A   1      39.068  31.875  33.306  1.00  0.00     0.082 A 
ATOM     22  C   UNL A   1      38.079  32.303  34.201  1.00  0.00     0.131 A 
ATOM     23  C   UNL A   1      37.633  33.634  34.125  1.00  0.00     0.047 A 
ATOM     24  C   UNL A   1      38.233  34.552  33.264  1.00  0.00     0.004 A 
ATOM     25  C   UNL A   1      39.710  32.822  32.484  1.00  0.00     0.018 A 
ATOM     26  C   UNL A   1      39.300  34.154  32.466  1.00  0.00     0.001 A 
BRANCH  22  27
ATOM     27  O   UNL A   1      37.403  31.581  35.146  1.00  0.00    -0.496 OA
ATOM     28  C   UNL A   1      37.986  31.460  36.434  1.00  0.00     0.278 C 
ENDBRANCH  22  27
ENDBRANCH  18  21
ENDBRANCH  15  17
BRANCH  16  29
ATOM     29  C   UNL A   1      37.357  30.891  29.217  1.00  0.00    -0.019 A 
ATOM     30  C   UNL A   1      36.152  29.703  28.613  1.00  0.00     0.012 A 
ATOM     31  C   UNL A   1      37.027  32.618  28.969  1.00  0.00     0.058 A 
ATOM     32  C   UNL A   1      34.424  30.399  27.821  1.00  0.00     0.051 A 
ATOM     33  C   UNL A   1      35.522  33.187  28.223  1.00  0.00     0.166 A 
ATOM     34  C   UNL A   1      34.250  32.168  27.669  1.00  0.00     0.165 A 
ATOM     35  O   UNL A   1      34.954  34.423  28.415  1.00  0.00    -0.454 OA
ATOM     36  O   UNL A   1      33.113  32.903  27.593  1.00  0.00    -0.454 OA
ATOM     37  C   UNL A   1      33.521  34.103  28.330  1.00  0.00     0.468 C 
ENDBRANCH  16  29
ENDBRANCH  12  15
ENDBRANCH   6  11
ENDBRANCH   1   5
BRANCH   3  38
ATOM     38  C   UNL A   1      42.896  23.834  25.220  1.00  0.00     0.118 C 
BRANCH  38  39
ATOM     39  C   UNL A   1      44.348  23.432  24.999  1.00  0.00     0.042 C 
BRANCH  39  40
ATOM     40  C   UNL A   1      45.342  24.308  25.749  1.00  0.00     0.118 C 
BRANCH  40  41
ATOM     41  N   UNL A   1      46.131  25.138  24.855  1.00  0.00    -0.352 N 
ATOM     42  C   UNL A   1      46.321  26.498  24.879  1.00  0.00     0.251 C 
ATOM     43  H   UNL A   1      46.594  24.659  24.131  1.00  0.00     0.163 HD
ATOM     44  O   UNL A   1      46.846  27.056  23.922  1.00  0.00    -0.269 OA
BRANCH  42  45
ATOM     45  C   UNL A   1      45.887  27.287  26.052  1.00  0.00     0.039 A 
ATOM     46  C   UNL A   1      44.536  27.622  26.175  1.00  0.00     0.014 A 
ATOM     47  C   UNL A   1      46.810  27.730  27.003  1.00  0.00     0.014 A 
ATOM     48  C   UNL A   1      44.108  28.380  27.267  1.00  0.00     0.010 A 
ATOM     49  C   UNL A   1      46.370  28.407  28.136  1.00  0.00     0.010 A 
ATOM     50  C   UNL A   1      45.021  28.769  28.261  1.00  0.00    -0.014 A 
BRANCH  50  51
ATOM     51  C   UNL A   1      44.600  29.623  29.399  1.00  0.00     0.031 A 
ATOM     52  C   UNL A   1      44.365  28.994  30.749  1.00  0.00     0.074 A 
ATOM     53  C   UNL A   1      44.384  30.939  29.213  1.00  0.00     0.049 A 
ATOM     54  N   UNL A   1      43.935  29.545  31.855  1.00  0.00    -0.248 NA
ATOM     55  C   UNL A   1      44.614  27.546  30.861  1.00  0.00     0.031 C 
ATOM     56  C   UNL A   1      44.526  31.651  27.941  1.00  0.00     0.029 A 
ATOM     57  N   UNL A   1      43.993  31.912  30.097  1.00  0.00    -0.354 N 
ATOM     58  C   UNL A   1      43.832  28.509  32.776  1.00  0.00     0.074 A 
ATOM     59  C   UNL A   1      44.197  27.290  32.092  1.00  0.00     0.031 C 
ATOM     60  C   UNL A   1      44.247  32.951  28.133  1.00  0.00     0.029 A 
ATOM     61  C   UNL A   1      43.882  33.159  29.531  1.00  0.00     0.049 A 
ATOM     62  H   UNL A   1      43.808  31.734  31.047  1.00  0.00     0.167 HD
ATOM     63  C   UNL A   1      43.488  28.572  34.084  1.00  0.00     0.037 A 
ATOM     64  C   UNL A   1      43.528  34.335  30.083  1.00  0.00     0.037 A 
ATOM     65  C   UNL A   1      43.190  29.796  34.777  1.00  0.00     0.049 A 
ATOM     66  C   UNL A   1      43.207  34.384  31.552  1.00  0.00     0.074 A 
ATOM     67  C   UNL A   1      42.907  29.979  36.120  1.00  0.00     0.029 A 
ATOM     68  N   UNL A   1      43.150  31.047  34.181  1.00  0.00    -0.354 N 
ATOM     69  N   UNL A   1      43.186  33.407  32.427  1.00  0.00    -0.248 NA
ATOM     70  C   UNL A   1      42.877  35.700  32.115  1.00  0.00     0.031 C 
ATOM     71  C   UNL A   1      42.667  31.341  36.331  1.00  0.00     0.029 A 
ATOM     72  C   UNL A   1      42.841  32.007  35.128  1.00  0.00     0.049 A 
ATOM     73  H   UNL A   1      43.315  31.225  33.228  1.00  0.00     0.167 HD
ATOM     74  C   UNL A   1      42.881  33.997  33.648  1.00  0.00     0.074 A 
ATOM     75  C   UNL A   1      42.736  35.416  33.402  1.00  0.00     0.031 C 
ATOM     76  C   UNL A   1      42.735  33.418  34.864  1.00  0.00     0.037 A 
BRANCH  63  77
ATOM     77  C   UNL A   1      43.434  27.287  34.857  1.00  0.00     0.057 A 
ATOM     78  C   UNL A   1      42.263  26.524  34.941  1.00  0.00     0.134 A 
ATOM     79  C   UNL A   1      44.582  26.782  35.481  1.00  0.00     0.134 A 
ATOM     80  F   UNL A   1      41.125  26.959  34.379  1.00  0.00    -0.206 F 
ATOM     81  C   UNL A   1      42.230  25.312  35.633  1.00  0.00     0.040 A 
ATOM     82  C   UNL A   1      44.568  25.558  36.153  1.00  0.00     0.040 A 
ATOM     83  F   UNL A   1      45.737  27.461  35.435  1.00  0.00    -0.206 F 
ATOM     84  C   UNL A   1      43.388  24.821  36.233  1.00  0.00     0.006 A 
ENDBRANCH  63  77
BRANCH  64  85
ATOM     85  C   UNL A   1      43.490  35.572  29.262  1.00  0.00     0.057 A 
ATOM     86  C   UNL A   1      42.311  35.982  28.627  1.00  0.00     0.134 A 
ATOM     87  C   UNL A   1      44.633  36.354  29.062  1.00  0.00     0.134 A 
ATOM     88  F   UNL A   1      41.186  35.264  28.767  1.00  0.00    -0.206 F 
ATOM     89  C   UNL A   1      42.277  37.101  27.795  1.00  0.00     0.040 A 
ATOM     90  C   UNL A   1      44.608  37.491  28.254  1.00  0.00     0.040 A 
ATOM     91  F   UNL A   1      45.792  36.023  29.651  1.00  0.00    -0.206 F 
ATOM     92  C   UNL A   1      43.430  37.861  27.608  1.00  0.00     0.006 A 
ENDBRANCH  64  85
BRANCH  76  93
ATOM     93  C   UNL A   1      42.466  34.325  36.026  1.00  0.00     0.057 A 
ATOM     94  C   UNL A   1      41.169  34.557  36.502  1.00  0.00     0.134 A 
ATOM     95  C   UNL A   1      43.526  34.946  36.700  1.00  0.00     0.134 A 
ATOM     96  F   UNL A   1      40.112  34.001  35.892  1.00  0.00    -0.206 F 
ATOM     97  C   UNL A   1      40.935  35.397  37.591  1.00  0.00     0.040 A 
ATOM     98  C   UNL A   1      43.305  35.766  37.805  1.00  0.00     0.040 A 
ATOM     99  F   UNL A   1      44.792  34.755  36.300  1.00  0.00    -0.206 F 
ATOM    100  C   UNL A   1      42.005  36.000  38.249  1.00  0.00     0.006 A 
ENDBRANCH  76  93
ENDBRANCH  50  51
ENDBRANCH  42  45
ENDBRANCH  40  41
ENDBRANCH  39  40
ENDBRANCH  38  39
ENDBRANCH   3  38
TORSDOF 16
ENDMDL
MODEL 2
REMARK VINA RESULT:      -9.7      4.228      7.937
REMARK SMILES COc1ccccc1C(=O)N/C(=C/c1ccc2c(c1)OCO2)C(=O)Nc1ccc(C(=O)NCCCNC(=O)c2ccc(-c3c4nc(c(-c5c(F)cccc5F)c5ccc([nH]5)c(-c5c(F)cccc5F)c5nc(c(-c6c(F)cccc6F)c6ccc3[nH]6)C=C5)C=C4)cc2)cc1
REMARK SMILES IDX 30 1 31 2 32 3 29 5 26 6 27 7 94 8 28 9 93 10 25 11 23 12
REMARK SMILES IDX 24 13 12 15 13 16 11 17 9 18 10 19 8 21 3 22 4 23 5 24 7 25
REMARK SMILES IDX 6 26 2 27 1 28 14 29 15 30 19 31 16 32 18 33 17 34 20 35
REMARK SMILES IDX 22 36 21 37 33 38 34 39 35 40 36 41 37 42 38 44 39 45 40 46
REMARK SMILES IDX 92 47 41 48 91 49 42 50 43 51 44 52 85 53 45 54 90 55 84 56
REMARK SMILES IDX 86 57 46 58 89 59 83 60 82 61 47 63 73 64 56 65 72 66 57 67
REMARK SMILES IDX 60 68 71 69 87 70 58 71 59 72 70 74 88 75 61 76 48 77 49 78
REMARK SMILES IDX 54 79 50 80 51 81 53 82 55 83 52 84 74 85 75 86 80 87 76 88
REMARK SMILES IDX 77 89 79 90 81 91 78 92 62 93 63 94 68 95 64 96 65 97 67 98
REMARK SMILES IDX 69 99 66 100
REMARK H PARENT 32 4 25 14 11 20 36 43 86 62 60 73
REMARK Flexibility Score: inf
ROOT
ATOM      1  C   UNL A   1      41.165  20.376  27.414  1.00  0.00     0.251 C 
ATOM      2  O   UNL A   1      40.807  19.679  28.357  1.00  0.00    -0.269 OA
ATOM      3  N   UNL A   1      42.406  20.215  26.863  1.00  0.00    -0.352 N 
ATOM      4  H   UNL A   1      42.982  19.561  27.321  1.00  0.00     0.163 HD
ENDROOT
BRANCH   1   5
ATOM      5  C   UNL A   1      40.218  21.322  26.826  1.00  0.00     0.039 A 
ATOM      6  C   UNL A   1      37.669  23.730  25.577  1.00  0.00     0.041 A 
ATOM      7  C   UNL A   1      38.979  24.340  26.599  1.00  0.00     0.027 A 
ATOM      8  C   UNL A   1      37.678  22.030  25.125  1.00  0.00     0.027 A 
ATOM      9  C   UNL A   1      40.342  23.041  27.338  1.00  0.00     0.016 A 
ATOM     10  C   UNL A   1      38.908  20.875  25.722  1.00  0.00     0.016 A 
BRANCH   6  11
ATOM     11  N   UNL A   1      36.450  24.375  25.854  1.00  0.00    -0.321 N 
ATOM     12  C   UNL A   1      35.242  23.688  25.795  1.00  0.00     0.272 C 
ATOM     13  O   UNL A   1      34.521  23.598  26.790  1.00  0.00    -0.267 OA
ATOM     14  H   UNL A   1      36.452  25.331  26.091  1.00  0.00     0.170 HD
BRANCH  12  15
ATOM     15  C   UNL A   1      34.695  23.224  24.424  1.00  0.00     0.108 C 
ATOM     16  C   UNL A   1      34.219  21.985  24.106  1.00  0.00     0.040 C 
BRANCH  15  17
ATOM     17  N   UNL A   1      34.631  24.165  23.399  1.00  0.00    -0.317 N 
ATOM     18  C   UNL A   1      33.962  25.349  23.187  1.00  0.00     0.259 C 
ATOM     19  O   UNL A   1      34.175  25.942  22.125  1.00  0.00    -0.269 OA
ATOM     20  H   UNL A   1      35.207  23.922  22.638  1.00  0.00     0.170 HD
BRANCH  18  21
ATOM     21  C   UNL A   1      32.980  25.950  24.106  1.00  0.00     0.082 A 
ATOM     22  C   UNL A   1      31.591  25.779  24.063  1.00  0.00     0.131 A 
ATOM     23  C   UNL A   1      30.794  26.526  24.947  1.00  0.00     0.047 A 
ATOM     24  C   UNL A   1      31.363  27.337  25.929  1.00  0.00     0.004 A 
ATOM     25  C   UNL A   1      33.549  26.721  25.140  1.00  0.00     0.018 A 
ATOM     26  C   UNL A   1      32.746  27.406  26.050  1.00  0.00     0.001 A 
BRANCH  22  27
ATOM     27  O   UNL A   1      30.845  25.004  23.218  1.00  0.00    -0.496 OA
ATOM     28  C   UNL A   1      30.719  23.623  23.518  1.00  0.00     0.278 C 
ENDBRANCH  22  27
ENDBRANCH  18  21
ENDBRANCH  15  17
BRANCH  16  29
ATOM     29  C   UNL A   1      34.377  20.762  24.923  1.00  0.00    -0.019 A 
ATOM     30  C   UNL A   1      32.827  20.422  25.764  1.00  0.00     0.012 A 
ATOM     31  C   UNL A   1      35.358  19.384  24.383  1.00  0.00     0.058 A 
ATOM     32  C   UNL A   1      32.214  18.498  25.916  1.00  0.00     0.051 A 
ATOM     33  C   UNL A   1      34.810  17.709  24.581  1.00  0.00     0.166 A 
ATOM     34  C   UNL A   1      33.316  17.239  25.296  1.00  0.00     0.165 A 
ATOM     35  O   UNL A   1      35.207  16.644  23.810  1.00  0.00    -0.454 OA
ATOM     36  O   UNL A   1      33.018  15.983  24.882  1.00  0.00    -0.454 OA
ATOM     37  C   UNL A   1      33.985  15.825  23.791  1.00  0.00     0.468 C 
ENDBRANCH  16  29
ENDBRANCH  12  15
ENDBRANCH   6  11
ENDBRANCH   1   5
BRANCH   3  38
ATOM     38  C   UNL A   1      43.003  20.860  25.710  1.00  0.00     0.118 C 
BRANCH  38  39
ATOM     39  C   UNL A   1      43.696  22.160  26.096  1.00  0.00     0.042 C 
BRANCH  39  40
ATOM     40  C   UNL A   1      43.408  23.310  25.142  1.00  0.00     0.118 C 
BRANCH  40  41
ATOM     41  N   UNL A   1      44.612  24.028  24.763  1.00  0.00    -0.352 N 
ATOM     42  C   UNL A   1      45.024  25.284  25.135  1.00  0.00     0.251 C 
ATOM     43  H   UNL A   1      45.219  23.547  24.156  1.00  0.00     0.163 HD
ATOM     44  O   UNL A   1      45.963  25.816  24.553  1.00  0.00    -0.269 OA
BRANCH  42  45
ATOM     45  C   UNL A   1      44.331  25.998  26.230  1.00  0.00     0.039 A 
ATOM     46  C   UNL A   1      44.366  27.395  26.252  1.00  0.00     0.014 A 
ATOM     47  C   UNL A   1      43.685  25.296  27.251  1.00  0.00     0.014 A 
ATOM     48  C   UNL A   1      43.730  28.086  27.285  1.00  0.00     0.010 A 
ATOM     49  C   UNL A   1      42.977  25.986  28.230  1.00  0.00     0.010 A 
ATOM     50  C   UNL A   1      43.023  27.387  28.276  1.00  0.00    -0.014 A 
BRANCH  50  51
ATOM     51  C   UNL A   1      42.390  28.098  29.414  1.00  0.00     0.031 A 
ATOM     52  C   UNL A   1      43.028  28.027  30.778  1.00  0.00     0.074 A 
ATOM     53  C   UNL A   1      41.231  28.761  29.237  1.00  0.00     0.049 A 
ATOM     54  N   UNL A   1      42.608  28.519  31.916  1.00  0.00    -0.248 NA
ATOM     55  C   UNL A   1      44.289  27.272  30.884  1.00  0.00     0.031 C 
ATOM     56  C   UNL A   1      40.491  28.855  27.977  1.00  0.00     0.029 A 
ATOM     57  N   UNL A   1      40.468  29.476  30.125  1.00  0.00    -0.354 N 
ATOM     58  C   UNL A   1      43.530  28.106  32.869  1.00  0.00     0.074 A 
ATOM     59  C   UNL A   1      44.507  27.284  32.191  1.00  0.00     0.031 C 
ATOM     60  C   UNL A   1      39.393  29.605  28.168  1.00  0.00     0.029 A 
ATOM     61  C   UNL A   1      39.338  30.021  29.566  1.00  0.00     0.049 A 
ATOM     62  H   UNL A   1      40.708  29.588  31.073  1.00  0.00     0.167 HD
ATOM     63  C   UNL A   1      43.575  28.406  34.188  1.00  0.00     0.037 A 
ATOM     64  C   UNL A   1      38.369  30.772  30.123  1.00  0.00     0.037 A 
ATOM     65  C   UNL A   1      42.639  29.278  34.845  1.00  0.00     0.049 A 
ATOM     66  C   UNL A   1      38.476  31.137  31.579  1.00  0.00     0.074 A 
ATOM     67  C   UNL A   1      42.640  29.710  36.159  1.00  0.00     0.029 A 
ATOM     68  N   UNL A   1      41.542  29.861  34.228  1.00  0.00    -0.354 N 
ATOM     69  N   UNL A   1      39.395  30.800  32.451  1.00  0.00    -0.248 NA
ATOM     70  C   UNL A   1      37.421  32.002  32.125  1.00  0.00     0.031 C 
ATOM     71  C   UNL A   1      41.525  30.534  36.346  1.00  0.00     0.029 A 
ATOM     72  C   UNL A   1      40.855  30.645  35.138  1.00  0.00     0.049 A 
ATOM     73  H   UNL A   1      41.290  29.735  33.286  1.00  0.00     0.167 HD
ATOM     74  C   UNL A   1      39.051  31.442  33.634  1.00  0.00     0.074 A 
ATOM     75  C   UNL A   1      37.846  32.197  33.365  1.00  0.00     0.031 C 
ATOM     76  C   UNL A   1      39.676  31.412  34.837  1.00  0.00     0.037 A 
BRANCH  63  77
ATOM     77  C   UNL A   1      44.680  27.806  35.007  1.00  0.00     0.057 A 
ATOM     78  C   UNL A   1      45.907  28.456  35.183  1.00  0.00     0.134 A 
ATOM     79  C   UNL A   1      44.494  26.586  35.670  1.00  0.00     0.134 A 
ATOM     80  F   UNL A   1      46.156  29.620  34.563  1.00  0.00    -0.206 F 
ATOM     81  C   UNL A   1      46.917  27.908  35.976  1.00  0.00     0.040 A 
ATOM     82  C   UNL A   1      45.485  26.040  36.487  1.00  0.00     0.040 A 
ATOM     83  F   UNL A   1      43.340  25.913  35.547  1.00  0.00    -0.206 F 
ATOM     84  C   UNL A   1      46.704  26.701  36.638  1.00  0.00     0.006 A 
ENDBRANCH  63  77
BRANCH  64  85
ATOM     85  C   UNL A   1      37.231  31.264  29.305  1.00  0.00     0.057 A 
ATOM     86  C   UNL A   1      37.226  32.565  28.785  1.00  0.00     0.134 A 
ATOM     87  C   UNL A   1      36.110  30.466  29.054  1.00  0.00     0.134 A 
ATOM     88  F   UNL A   1      38.264  33.384  29.006  1.00  0.00    -0.206 F 
ATOM     89  C   UNL A   1      36.132  33.065  28.076  1.00  0.00     0.040 A 
ATOM     90  C   UNL A   1      35.021  30.944  28.324  1.00  0.00     0.040 A 
ATOM     91  F   UNL A   1      36.058  29.207  29.515  1.00  0.00    -0.206 F 
ATOM     92  C   UNL A   1      35.026  32.251  27.843  1.00  0.00     0.006 A 
ENDBRANCH  64  85
BRANCH  76  93
ATOM     93  C   UNL A   1      39.104  32.266  35.927  1.00  0.00     0.057 A 
ATOM     94  C   UNL A   1      38.178  31.767  36.851  1.00  0.00     0.134 A 
ATOM     95  C   UNL A   1      39.515  33.598  36.072  1.00  0.00     0.134 A 
ATOM     96  F   UNL A   1      37.736  30.504  36.757  1.00  0.00    -0.206 F 
ATOM     97  C   UNL A   1      37.661  32.572  37.867  1.00  0.00     0.040 A 
ATOM     98  C   UNL A   1      39.025  34.403  37.099  1.00  0.00     0.040 A 
ATOM     99  F   UNL A   1      40.408  34.131  35.226  1.00  0.00    -0.206 F 
ATOM    100  C   UNL A   1      38.089  33.892  37.997  1.00  0.00     0.006 A 
ENDBRANCH  76  93
ENDBRANCH  50  51
ENDBRANCH  42  45
ENDBRANCH  40  41
ENDBRANCH  39  40
ENDBRANCH  38  39
ENDBRANCH   3  38
TORSDOF 16
ENDMDL
MODEL 3
REMARK VINA RESULT:      -9.5      4.116     10.012
REMARK SMILES COc1ccccc1C(=O)N/C(=C/c1ccc2c(c1)OCO2)C(=O)Nc1ccc(C(=O)NCCCNC(=O)c2ccc(-c3c4nc(c(-c5c(F)cccc5F)c5ccc([nH]5)c(-c5c(F)cccc5F)c5nc(c(-c6c(F)cccc6F)c6ccc3[nH]6)C=C5)C=C4)cc2)cc1
REMARK SMILES IDX 30 1 31 2 32 3 29 5 26 6 27 7 94 8 28 9 93 10 25 11 23 12
REMARK SMILES IDX 24 13 12 15 13 16 11 17 9 18 10 19 8 21 3 22 4 23 5 24 7 25
REMARK SMILES IDX 6 26 2 27 1 28 14 29 15 30 19 31 16 32 18 33 17 34 20 35
REMARK SMILES IDX 22 36 21 37 33 38 34 39 35 40 36 41 37 42 38 44 39 45 40 46
REMARK SMILES IDX 92 47 41 48 91 49 42 50 43 51 44 52 85 53 45 54 90 55 84 56
REMARK SMILES IDX 86 57 46 58 89 59 83 60 82 61 47 63 73 64 56 65 72 66 57 67
REMARK SMILES IDX 60 68 71 69 87 70 58 71 59 72 70 74 88 75 61 76 48 77 49 78
REMARK SMILES IDX 54 79 50 80 51 81 53 82 55 83 52 84 74 85 75 86 80 87 76 88
REMARK SMILES IDX 77 89 79 90 81 91 78 92 62 93 63 94 68 95 64 96 65 97 67 98
REMARK SMILES IDX 69 99 66 100
REMARK H PARENT 32 4 25 14 11 20 36 43 86 62 60 73
REMARK Flexibility Score: inf
ROOT
ATOM      1  C   UNL A   1      43.652  23.535  35.027  1.00  0.00     0.251 C 
ATOM      2  O   UNL A   1      42.498  23.720  35.395  1.00  0.00    -0.269 OA
ATOM      3  N   UNL A   1      44.537  22.867  35.827  1.00  0.00    -0.352 N 
ATOM      4  H   UNL A   1      44.190  22.620  36.715  1.00  0.00     0.163 HD
ENDROOT
BRANCH   1   5
ATOM      5  C   UNL A   1      44.051  23.957  33.686  1.00  0.00     0.039 A 
ATOM      6  C   UNL A   1      45.239  24.802  30.260  1.00  0.00     0.041 A 
ATOM      7  C   UNL A   1      44.001  23.549  30.441  1.00  0.00     0.027 A 
ATOM      8  C   UNL A   1      45.789  25.652  31.698  1.00  0.00     0.027 A 
ATOM      9  C   UNL A   1      43.383  23.031  32.296  1.00  0.00     0.016 A 
ATOM     10  C   UNL A   1      45.213  25.249  33.343  1.00  0.00     0.016 A 
BRANCH   6  11
ATOM     11  N   UNL A   1      46.153  24.486  29.239  1.00  0.00    -0.321 N 
ATOM     12  C   UNL A   1      46.385  25.361  28.183  1.00  0.00     0.272 C 
ATOM     13  O   UNL A   1      47.512  25.816  27.978  1.00  0.00    -0.267 OA
ATOM     14  H   UNL A   1      46.637  23.628  29.271  1.00  0.00     0.170 HD
BRANCH  12  15
ATOM     15  C   UNL A   1      45.275  25.595  27.130  1.00  0.00     0.108 C 
ATOM     16  C   UNL A   1      44.378  24.678  26.665  1.00  0.00     0.040 C 
BRANCH  15  17
ATOM     17  N   UNL A   1      45.126  26.881  26.619  1.00  0.00    -0.317 N 
ATOM     18  C   UNL A   1      45.876  27.722  25.828  1.00  0.00     0.259 C 
ATOM     19  O   UNL A   1      45.397  28.827  25.555  1.00  0.00    -0.269 OA
ATOM     20  H   UNL A   1      44.273  27.291  26.892  1.00  0.00     0.170 HD
BRANCH  18  21
ATOM     21  C   UNL A   1      47.224  27.428  25.310  1.00  0.00     0.082 A 
ATOM     22  C   UNL A   1      48.387  28.168  25.557  1.00  0.00     0.131 A 
ATOM     23  C   UNL A   1      49.567  27.812  24.882  1.00  0.00     0.047 A 
ATOM     24  C   UNL A   1      49.625  26.679  24.070  1.00  0.00     0.004 A 
ATOM     25  C   UNL A   1      47.306  26.251  24.539  1.00  0.00     0.018 A 
ATOM     26  C   UNL A   1      48.500  25.875  23.927  1.00  0.00     0.001 A 
BRANCH  22  27
ATOM     27  O   UNL A   1      48.552  29.272  26.348  1.00  0.00    -0.496 OA
ATOM     28  C   UNL A   1      48.545  29.090  27.756  1.00  0.00     0.278 C 
ENDBRANCH  22  27
ENDBRANCH  18  21
ENDBRANCH  15  17
BRANCH  16  29
ATOM     29  C   UNL A   1      44.454  23.214  26.867  1.00  0.00    -0.019 A 
ATOM     30  C   UNL A   1      42.788  22.563  27.030  1.00  0.00     0.012 A 
ATOM     31  C   UNL A   1      45.671  22.209  26.053  1.00  0.00     0.058 A 
ATOM     32  C   UNL A   1      42.354  20.793  26.150  1.00  0.00     0.051 A 
ATOM     33  C   UNL A   1      45.263  20.637  25.339  1.00  0.00     0.166 A 
ATOM     34  C   UNL A   1      43.695  19.927  25.352  1.00  0.00     0.165 A 
ATOM     35  O   UNL A   1      45.941  20.028  24.311  1.00  0.00    -0.454 OA
ATOM     36  O   UNL A   1      43.635  19.001  24.363  1.00  0.00    -0.454 OA
ATOM     37  C   UNL A   1      44.849  19.333  23.612  1.00  0.00     0.468 C 
ENDBRANCH  16  29
ENDBRANCH  12  15
ENDBRANCH   6  11
ENDBRANCH   1   5
BRANCH   3  38
ATOM     38  C   UNL A   1      45.907  22.468  35.569  1.00  0.00     0.118 C 
BRANCH  38  39
ATOM     39  C   UNL A   1      46.897  23.462  36.160  1.00  0.00     0.042 C 
BRANCH  39  40
ATOM     40  C   UNL A   1      46.233  24.609  36.908  1.00  0.00     0.118 C 
BRANCH  40  41
ATOM     41  N   UNL A   1      47.170  25.668  37.240  1.00  0.00    -0.352 N 
ATOM     42  C   UNL A   1      47.194  26.971  36.805  1.00  0.00     0.251 C 
ATOM     43  H   UNL A   1      47.888  25.418  37.864  1.00  0.00     0.163 HD
ATOM     44  O   UNL A   1      48.180  27.667  37.021  1.00  0.00    -0.269 OA
BRANCH  42  45
ATOM     45  C   UNL A   1      46.038  27.529  36.072  1.00  0.00     0.039 A 
ATOM     46  C   UNL A   1      46.272  28.433  35.032  1.00  0.00     0.014 A 
ATOM     47  C   UNL A   1      44.729  27.197  36.430  1.00  0.00     0.014 A 
ATOM     48  C   UNL A   1      45.193  28.983  34.337  1.00  0.00     0.010 A 
ATOM     49  C   UNL A   1      43.659  27.675  35.681  1.00  0.00     0.010 A 
ATOM     50  C   UNL A   1      43.879  28.600  34.650  1.00  0.00    -0.014 A 
BRANCH  50  51
ATOM     51  C   UNL A   1      42.716  29.215  33.964  1.00  0.00     0.031 A 
ATOM     52  C   UNL A   1      41.957  30.325  34.646  1.00  0.00     0.074 A 
ATOM     53  C   UNL A   1      42.315  28.751  32.765  1.00  0.00     0.049 A 
ATOM     54  N   UNL A   1      40.878  30.953  34.252  1.00  0.00    -0.248 NA
ATOM     55  C   UNL A   1      42.457  30.763  35.960  1.00  0.00     0.031 C 
ATOM     56  C   UNL A   1      42.937  27.646  32.031  1.00  0.00     0.029 A 
ATOM     57  N   UNL A   1      41.283  29.149  31.954  1.00  0.00    -0.354 N 
ATOM     58  C   UNL A   1      40.557  31.830  35.281  1.00  0.00     0.074 A 
ATOM     59  C   UNL A   1      41.522  31.623  36.337  1.00  0.00     0.031 C 
ATOM     60  C   UNL A   1      42.286  27.471  30.869  1.00  0.00     0.029 A 
ATOM     61  C   UNL A   1      41.189  28.430  30.788  1.00  0.00     0.049 A 
ATOM     62  H   UNL A   1      40.667  29.881  32.187  1.00  0.00     0.167 HD
ATOM     63  C   UNL A   1      39.561  32.745  35.332  1.00  0.00     0.037 A 
ATOM     64  C   UNL A   1      40.315  28.537  29.769  1.00  0.00     0.037 A 
ATOM     65  C   UNL A   1      38.644  32.993  34.252  1.00  0.00     0.049 A 
ATOM     66  C   UNL A   1      39.253  29.602  29.828  1.00  0.00     0.074 A 
ATOM     67  C   UNL A   1      37.648  33.951  34.170  1.00  0.00     0.029 A 
ATOM     68  N   UNL A   1      38.621  32.284  33.061  1.00  0.00    -0.354 N 
ATOM     69  N   UNL A   1      39.008  30.474  30.776  1.00  0.00    -0.248 NA
ATOM     70  C   UNL A   1      38.359  29.711  28.668  1.00  0.00     0.031 C 
ATOM     71  C   UNL A   1      37.004  33.803  32.938  1.00  0.00     0.029 A 
ATOM     72  C   UNL A   1      37.625  32.780  32.240  1.00  0.00     0.049 A 
ATOM     73  H   UNL A   1      39.224  31.541  32.835  1.00  0.00     0.167 HD
ATOM     74  C   UNL A   1      37.960  31.258  30.310  1.00  0.00     0.074 A 
ATOM     75  C   UNL A   1      37.623  30.765  28.992  1.00  0.00     0.031 C 
ATOM     76  C   UNL A   1      37.331  32.293  30.918  1.00  0.00     0.037 A 
BRANCH  63  77
ATOM     77  C   UNL A   1      39.420  33.560  36.584  1.00  0.00     0.057 A 
ATOM     78  C   UNL A   1      40.031  34.813  36.723  1.00  0.00     0.134 A 
ATOM     79  C   UNL A   1      38.621  33.109  37.642  1.00  0.00     0.134 A 
ATOM     80  F   UNL A   1      40.822  35.296  35.753  1.00  0.00    -0.206 F 
ATOM     81  C   UNL A   1      39.866  35.581  37.877  1.00  0.00     0.040 A 
ATOM     82  C   UNL A   1      38.427  33.879  38.790  1.00  0.00     0.040 A 
ATOM     83  F   UNL A   1      38.004  31.920  37.571  1.00  0.00    -0.206 F 
ATOM     84  C   UNL A   1      39.054  35.119  38.911  1.00  0.00     0.006 A 
ENDBRANCH  63  77
BRANCH  64  85
ATOM     85  C   UNL A   1      40.419  27.642  28.589  1.00  0.00     0.057 A 
ATOM     86  C   UNL A   1      39.759  26.407  28.559  1.00  0.00     0.134 A 
ATOM     87  C   UNL A   1      41.205  27.978  27.481  1.00  0.00     0.134 A 
ATOM     88  F   UNL A   1      39.005  26.020  29.598  1.00  0.00    -0.206 F 
ATOM     89  C   UNL A   1      39.905  25.524  27.488  1.00  0.00     0.040 A 
ATOM     90  C   UNL A   1      41.339  27.117  26.391  1.00  0.00     0.040 A 
ATOM     91  F   UNL A   1      41.853  29.152  27.442  1.00  0.00    -0.206 F 
ATOM     92  C   UNL A   1      40.697  25.880  26.398  1.00  0.00     0.006 A 
ENDBRANCH  64  85
BRANCH  76  93
ATOM     93  C   UNL A   1      36.264  32.999  30.137  1.00  0.00     0.057 A 
ATOM     94  C   UNL A   1      34.904  32.843  30.432  1.00  0.00     0.134 A 
ATOM     95  C   UNL A   1      36.609  33.875  29.099  1.00  0.00     0.134 A 
ATOM     96  F   UNL A   1      34.510  32.009  31.406  1.00  0.00    -0.206 F 
ATOM     97  C   UNL A   1      33.922  33.514  29.702  1.00  0.00     0.040 A 
ATOM     98  C   UNL A   1      35.637  34.570  28.382  1.00  0.00     0.040 A 
ATOM     99  F   UNL A   1      37.895  34.075  28.777  1.00  0.00    -0.206 F 
ATOM    100  C   UNL A   1      34.288  34.385  28.678  1.00  0.00     0.006 A 
ENDBRANCH  76  93
ENDBRANCH  50  51
ENDBRANCH  42  45
ENDBRANCH  40  41
ENDBRANCH  39  40
ENDBRANCH  38  39
ENDBRANCH   3  38
TORSDOF 16
ENDMDL
