MODEL 1
REMARK VINA RESULT:     -12.8      0.000      0.000
REMARK SMILES O=C(NCCCNC(=O)[C@@H](Cc1ccccc1)N1C(=O)/C(=C/c2ccncc2)SC1=S)c1ccc(-c2c3nc(c(-c4c(F)cccc4F)c4ccc([nH]4)c(-c4c(F)cccc4F)c4nc(c(-c5c(F)cccc5F)c5ccc2[nH]5)C=C4)C=C3)cc1
REMARK SMILES IDX 5 1 4 2 3 3 1 4 2 5 32 7 33 8 85 9 34 10 84 11 35 12 36 13
REMARK SMILES IDX 37 14 78 15 38 16 83 17 77 18 79 19 39 20 82 21 76 22 75 23
REMARK SMILES IDX 40 25 66 26 49 27 65 28 50 29 53 30 64 31 80 32 51 33 52 34
REMARK SMILES IDX 63 36 81 37 54 38 41 39 42 40 47 41 43 42 44 43 46 44 48 45
REMARK SMILES IDX 45 46 67 47 68 48 73 49 69 50 70 51 72 52 74 53 71 54 55 55
REMARK SMILES IDX 56 56 61 57 57 58 58 59 60 60 62 61 59 62 6 63 7 64 8 65
REMARK SMILES IDX 9 67 10 68 11 69 12 70 13 71 17 72 14 73 16 74 15 75 18 76
REMARK SMILES IDX 19 77 30 78 20 79 21 80 29 81 31 82 22 83 23 84 24 85 28 86
REMARK SMILES IDX 25 87 27 88 26 89
REMARK H PARENT 3 6 79 24 53 35 7 66
REMARK Flexibility Score: inf
ROOT
ATOM      1  C   UNL A   1      37.365  22.866  24.767  1.00  0.00     0.042 C 
ENDROOT
BRANCH   1   2
ATOM      2  C   UNL A   1      37.944  23.244  26.121  1.00  0.00     0.118 C 
BRANCH   2   3
ATOM      3  N   UNL A   1      39.400  23.171  26.126  1.00  0.00    -0.352 N 
ATOM      4  O   UNL A   1      41.531  23.846  26.166  1.00  0.00    -0.269 OA
ATOM      5  C   UNL A   1      40.370  24.065  26.514  1.00  0.00     0.251 C 
ATOM      6  H   UNL A   1      39.758  22.319  25.786  1.00  0.00     0.163 HD
BRANCH   5   7
ATOM      7  C   UNL A   1      40.079  25.276  27.328  1.00  0.00     0.039 A 
ATOM      8  C   UNL A   1      39.296  25.232  28.479  1.00  0.00     0.014 A 
ATOM      9  C   UNL A   1      40.733  26.476  27.008  1.00  0.00     0.014 A 
ATOM     10  C   UNL A   1      39.077  26.379  29.236  1.00  0.00     0.010 A 
ATOM     11  C   UNL A   1      40.617  27.601  27.842  1.00  0.00     0.010 A 
ATOM     12  C   UNL A   1      39.792  27.555  28.971  1.00  0.00    -0.014 A 
BRANCH  12  13
ATOM     13  C   UNL A   1      39.773  28.631  29.996  1.00  0.00     0.031 A 
ATOM     14  C   UNL A   1      38.782  29.755  29.952  1.00  0.00     0.074 A 
ATOM     15  C   UNL A   1      40.659  28.550  31.012  1.00  0.00     0.049 A 
ATOM     16  N   UNL A   1      38.606  30.724  30.814  1.00  0.00    -0.248 NA
ATOM     17  C   UNL A   1      37.877  29.812  28.794  1.00  0.00     0.031 C 
ATOM     18  C   UNL A   1      41.701  27.525  31.140  1.00  0.00     0.029 A 
ATOM     19  N   UNL A   1      40.809  29.309  32.145  1.00  0.00    -0.354 N 
ATOM     20  C   UNL A   1      37.594  31.519  30.295  1.00  0.00     0.074 A 
ATOM     21  C   UNL A   1      37.197  30.925  29.035  1.00  0.00     0.031 C 
ATOM     22  C   UNL A   1      42.327  27.673  32.315  1.00  0.00     0.029 A 
ATOM     23  C   UNL A   1      41.786  28.843  32.992  1.00  0.00     0.049 A 
ATOM     24  H   UNL A   1      40.269  30.112  32.332  1.00  0.00     0.167 HD
ATOM     25  C   UNL A   1      37.048  32.640  30.826  1.00  0.00     0.037 A 
ATOM     26  C   UNL A   1      42.212  29.310  34.180  1.00  0.00     0.037 A 
ATOM     27  C   UNL A   1      37.426  33.209  32.095  1.00  0.00     0.049 A 
ATOM     28  C   UNL A   1      41.575  30.542  34.745  1.00  0.00     0.074 A 
ATOM     29  C   UNL A   1      36.882  34.306  32.742  1.00  0.00     0.029 A 
ATOM     30  N   UNL A   1      38.443  32.731  32.906  1.00  0.00    -0.354 N 
ATOM     31  N   UNL A   1      40.586  31.252  34.261  1.00  0.00    -0.248 NA
ATOM     32  C   UNL A   1      42.124  31.050  36.010  1.00  0.00     0.031 C 
ATOM     33  C   UNL A   1      37.595  34.513  33.927  1.00  0.00     0.029 A 
ATOM     34  C   UNL A   1      38.561  33.526  34.034  1.00  0.00     0.049 A 
ATOM     35  H   UNL A   1      38.999  31.942  32.710  1.00  0.00     0.167 HD
ATOM     36  C   UNL A   1      40.398  32.295  35.155  1.00  0.00     0.074 A 
ATOM     37  C   UNL A   1      41.351  32.104  36.230  1.00  0.00     0.031 C 
ATOM     38  C   UNL A   1      39.524  33.327  35.085  1.00  0.00     0.037 A 
BRANCH  25  39
ATOM     39  C   UNL A   1      35.986  33.342  30.036  1.00  0.00     0.057 A 
ATOM     40  C   UNL A   1      36.297  34.171  28.952  1.00  0.00     0.134 A 
ATOM     41  C   UNL A   1      34.630  33.118  30.314  1.00  0.00     0.134 A 
ATOM     42  F   UNL A   1      37.575  34.432  28.641  1.00  0.00    -0.206 F 
ATOM     43  C   UNL A   1      35.296  34.760  28.176  1.00  0.00     0.040 A 
ATOM     44  C   UNL A   1      33.623  33.688  29.534  1.00  0.00     0.040 A 
ATOM     45  F   UNL A   1      34.267  32.328  31.335  1.00  0.00    -0.206 F 
ATOM     46  C   UNL A   1      33.955  34.512  28.462  1.00  0.00     0.006 A 
ENDBRANCH  25  39
BRANCH  26  47
ATOM     47  C   UNL A   1      43.316  28.621  34.895  1.00  0.00     0.057 A 
ATOM     48  C   UNL A   1      44.655  28.931  34.635  1.00  0.00     0.134 A 
ATOM     49  C   UNL A   1      43.055  27.638  35.857  1.00  0.00     0.134 A 
ATOM     50  F   UNL A   1      44.969  29.850  33.710  1.00  0.00    -0.206 F 
ATOM     51  C   UNL A   1      45.696  28.279  35.298  1.00  0.00     0.040 A 
ATOM     52  C   UNL A   1      44.084  26.998  36.547  1.00  0.00     0.040 A 
ATOM     53  F   UNL A   1      41.792  27.300  36.155  1.00  0.00    -0.206 F 
ATOM     54  C   UNL A   1      45.411  27.315  36.263  1.00  0.00     0.006 A 
ENDBRANCH  26  47
BRANCH  38  55
ATOM     55  C   UNL A   1      39.574  34.325  36.199  1.00  0.00     0.057 A 
ATOM     56  C   UNL A   1      40.291  35.522  36.073  1.00  0.00     0.134 A 
ATOM     57  C   UNL A   1      38.892  34.097  37.400  1.00  0.00     0.134 A 
ATOM     58  F   UNL A   1      40.978  35.787  34.952  1.00  0.00    -0.206 F 
ATOM     59  C   UNL A   1      40.343  36.450  37.112  1.00  0.00     0.040 A 
ATOM     60  C   UNL A   1      38.921  35.027  38.439  1.00  0.00     0.040 A 
ATOM     61  F   UNL A   1      38.186  32.970  37.579  1.00  0.00    -0.206 F 
ATOM     62  C   UNL A   1      39.653  36.206  38.299  1.00  0.00     0.006 A 
ENDBRANCH  38  55
ENDBRANCH  12  13
ENDBRANCH   5   7
ENDBRANCH   2   3
ENDBRANCH   1   2
BRANCH   1  63
ATOM     63  C   UNL A   1      36.421  21.684  24.893  1.00  0.00     0.117 C 
BRANCH  63  64
ATOM     64  N   UNL A   1      35.751  21.649  26.183  1.00  0.00    -0.354 N 
ATOM     65  C   UNL A   1      34.426  21.702  26.491  1.00  0.00     0.243 C 
ATOM     66  H   UNL A   1      36.353  21.573  26.959  1.00  0.00     0.163 HD
ATOM     67  O   UNL A   1      34.115  21.325  27.630  1.00  0.00    -0.273 OA
BRANCH  65  68
ATOM     68  C   UNL A   1      33.324  22.204  25.522  1.00  0.00     0.185 C 
BRANCH  68  69
ATOM     69  C   UNL A   1      32.290  21.122  25.093  1.00  0.00     0.071 C 
BRANCH  69  70
ATOM     70  C   UNL A   1      32.709  19.863  24.373  1.00  0.00    -0.045 A 
ATOM     71  C   UNL A   1      32.154  19.480  23.146  1.00  0.00     0.004 A 
ATOM     72  C   UNL A   1      33.742  19.075  24.911  1.00  0.00     0.004 A 
ATOM     73  C   UNL A   1      32.554  18.293  22.524  1.00  0.00     0.000 A 
ATOM     74  C   UNL A   1      34.157  17.901  24.279  1.00  0.00     0.000 A 
ATOM     75  C   UNL A   1      33.548  17.501  23.093  1.00  0.00     0.000 A 
ENDBRANCH  69  70
ENDBRANCH  68  69
BRANCH  68  76
ATOM     76  N   UNL A   1      32.823  23.596  25.631  1.00  0.00    -0.280 N 
ATOM     77  C   UNL A   1      33.561  24.666  25.173  1.00  0.00     0.266 C 
ATOM     78  C   UNL A   1      31.609  23.942  26.205  1.00  0.00     0.149 C 
ATOM     79  O   UNL A   1      34.465  24.653  24.354  1.00  0.00    -0.268 OA
ATOM     80  C   UNL A   1      33.055  25.939  25.737  1.00  0.00     0.081 C 
ATOM     81  S   UNL A   1      31.501  25.694  26.398  1.00  0.00    -0.054 SA
ATOM     82  S   UNL A   1      30.368  22.950  26.718  1.00  0.00    -0.052 S 
ATOM     83  C   UNL A   1      33.816  27.040  25.692  1.00  0.00     0.029 C 
BRANCH  83  84
ATOM     84  C   UNL A   1      33.525  28.385  26.201  1.00  0.00    -0.021 A 
ATOM     85  C   UNL A   1      34.291  29.010  27.183  1.00  0.00     0.028 A 
ATOM     86  C   UNL A   1      32.482  29.101  25.609  1.00  0.00     0.028 A 
ATOM     87  C   UNL A   1      33.953  30.299  27.562  1.00  0.00     0.111 A 
ATOM     88  C   UNL A   1      32.225  30.388  26.051  1.00  0.00     0.111 A 
ATOM     89  N   UNL A   1      32.935  31.002  27.021  1.00  0.00    -0.265 NA
ENDBRANCH  83  84
ENDBRANCH  68  76
ENDBRANCH  65  68
ENDBRANCH  63  64
ENDBRANCH   1  63
TORSDOF 14
ENDMDL
MODEL 2
REMARK VINA RESULT:     -12.8      5.263     10.446
REMARK SMILES O=C(NCCCNC(=O)[C@@H](Cc1ccccc1)N1C(=O)/C(=C/c2ccncc2)SC1=S)c1ccc(-c2c3nc(c(-c4c(F)cccc4F)c4ccc([nH]4)c(-c4c(F)cccc4F)c4nc(c(-c5c(F)cccc5F)c5ccc2[nH]5)C=C4)C=C3)cc1
REMARK SMILES IDX 5 1 4 2 3 3 1 4 2 5 32 7 33 8 85 9 34 10 84 11 35 12 36 13
REMARK SMILES IDX 37 14 78 15 38 16 83 17 77 18 79 19 39 20 82 21 76 22 75 23
REMARK SMILES IDX 40 25 66 26 49 27 65 28 50 29 53 30 64 31 80 32 51 33 52 34
REMARK SMILES IDX 63 36 81 37 54 38 41 39 42 40 47 41 43 42 44 43 46 44 48 45
REMARK SMILES IDX 45 46 67 47 68 48 73 49 69 50 70 51 72 52 74 53 71 54 55 55
REMARK SMILES IDX 56 56 61 57 57 58 58 59 60 60 62 61 59 62 6 63 7 64 8 65
REMARK SMILES IDX 9 67 10 68 11 69 12 70 13 71 17 72 14 73 16 74 15 75 18 76
REMARK SMILES IDX 19 77 30 78 20 79 21 80 29 81 31 82 22 83 23 84 24 85 28 86
REMARK SMILES IDX 25 87 27 88 26 89
REMARK H PARENT 3 6 79 24 53 35 7 66
REMARK Flexibility Score: inf
ROOT
ATOM      1  C   UNL A   1      33.004  30.579  27.111  1.00  0.00     0.042 C 
ENDROOT
BRANCH   1   2
ATOM      2  C   UNL A   1      34.419  30.235  27.549  1.00  0.00     0.118 C 
BRANCH   2   3
ATOM      3  N   UNL A   1      34.802  30.958  28.756  1.00  0.00    -0.352 N 
ATOM      4  O   UNL A   1      35.817  31.403  30.697  1.00  0.00    -0.269 OA
ATOM      5  C   UNL A   1      35.876  30.837  29.605  1.00  0.00     0.251 C 
ATOM      6  H   UNL A   1      34.169  31.667  29.013  1.00  0.00     0.163 HD
BRANCH   5   7
ATOM      7  C   UNL A   1      37.097  30.058  29.264  1.00  0.00     0.039 A 
ATOM      8  C   UNL A   1      37.732  30.166  28.029  1.00  0.00     0.014 A 
ATOM      9  C   UNL A   1      37.714  29.296  30.269  1.00  0.00     0.014 A 
ATOM     10  C   UNL A   1      38.894  29.450  27.760  1.00  0.00     0.010 A 
ATOM     11  C   UNL A   1      38.953  28.676  30.042  1.00  0.00     0.010 A 
ATOM     12  C   UNL A   1      39.557  28.757  28.782  1.00  0.00    -0.014 A 
BRANCH  12  13
ATOM     13  C   UNL A   1      40.947  28.296  28.528  1.00  0.00     0.031 A 
ATOM     14  C   UNL A   1      41.257  26.881  28.139  1.00  0.00     0.074 A 
ATOM     15  C   UNL A   1      41.940  29.206  28.614  1.00  0.00     0.049 A 
ATOM     16  N   UNL A   1      42.413  26.355  27.822  1.00  0.00    -0.248 NA
ATOM     17  C   UNL A   1      40.137  25.929  28.111  1.00  0.00     0.031 C 
ATOM     18  C   UNL A   1      41.766  30.604  29.024  1.00  0.00     0.029 A 
ATOM     19  N   UNL A   1      43.279  29.115  28.330  1.00  0.00    -0.354 N 
ATOM     20  C   UNL A   1      42.168  25.011  27.581  1.00  0.00     0.074 A 
ATOM     21  C   UNL A   1      40.752  24.795  27.798  1.00  0.00     0.031 C 
ATOM     22  C   UNL A   1      42.931  31.253  28.893  1.00  0.00     0.029 A 
ATOM     23  C   UNL A   1      43.951  30.308  28.461  1.00  0.00     0.049 A 
ATOM     24  H   UNL A   1      43.718  28.275  28.059  1.00  0.00     0.167 HD
ATOM     25  C   UNL A   1      43.048  24.048  27.212  1.00  0.00     0.037 A 
ATOM     26  C   UNL A   1      45.248  30.610  28.268  1.00  0.00     0.037 A 
ATOM     27  C   UNL A   1      44.450  24.274  26.968  1.00  0.00     0.049 A 
ATOM     28  C   UNL A   1      46.189  29.524  27.844  1.00  0.00     0.074 A 
ATOM     29  C   UNL A   1      45.403  23.372  26.528  1.00  0.00     0.029 A 
ATOM     30  N   UNL A   1      45.099  25.486  27.146  1.00  0.00    -0.354 N 
ATOM     31  N   UNL A   1      45.929  28.268  27.576  1.00  0.00    -0.248 NA
ATOM     32  C   UNL A   1      47.606  29.891  27.714  1.00  0.00     0.031 C 
ATOM     33  C   UNL A   1      46.637  24.028  26.476  1.00  0.00     0.029 A 
ATOM     34  C   UNL A   1      46.446  25.348  26.852  1.00  0.00     0.049 A 
ATOM     35  H   UNL A   1      44.667  26.321  27.440  1.00  0.00     0.167 HD
ATOM     36  C   UNL A   1      47.148  27.691  27.253  1.00  0.00     0.074 A 
ATOM     37  C   UNL A   1      48.142  28.743  27.324  1.00  0.00     0.031 C 
ATOM     38  C   UNL A   1      47.421  26.402  26.941  1.00  0.00     0.037 A 
BRANCH  25  39
ATOM     39  C   UNL A   1      42.529  22.650  27.056  1.00  0.00     0.057 A 
ATOM     40  C   UNL A   1      42.158  21.872  28.159  1.00  0.00     0.134 A 
ATOM     41  C   UNL A   1      42.324  22.108  25.780  1.00  0.00     0.134 A 
ATOM     42  F   UNL A   1      42.338  22.331  29.406  1.00  0.00    -0.206 F 
ATOM     43  C   UNL A   1      41.605  20.600  27.998  1.00  0.00     0.040 A 
ATOM     44  C   UNL A   1      41.757  20.844  25.608  1.00  0.00     0.040 A 
ATOM     45  F   UNL A   1      42.654  22.806  24.684  1.00  0.00    -0.206 F 
ATOM     46  C   UNL A   1      41.396  20.086  26.720  1.00  0.00     0.006 A 
ENDBRANCH  25  39
BRANCH  26  47
ATOM     47  C   UNL A   1      45.729  31.994  28.502  1.00  0.00     0.057 A 
ATOM     48  C   UNL A   1      45.752  32.940  27.472  1.00  0.00     0.134 A 
ATOM     49  C   UNL A   1      46.176  32.402  29.765  1.00  0.00     0.134 A 
ATOM     50  F   UNL A   1      45.354  32.603  26.236  1.00  0.00    -0.206 F 
ATOM     51  C   UNL A   1      46.212  34.240  27.685  1.00  0.00     0.040 A 
ATOM     52  C   UNL A   1      46.612  33.706  30.000  1.00  0.00     0.040 A 
ATOM     53  F   UNL A   1      46.174  31.544  30.795  1.00  0.00    -0.206 F 
ATOM     54  C   UNL A   1      46.637  34.628  28.955  1.00  0.00     0.006 A 
ENDBRANCH  26  47
BRANCH  38  55
ATOM     55  C   UNL A   1      48.853  26.069  26.665  1.00  0.00     0.057 A 
ATOM     56  C   UNL A   1      49.676  25.513  27.653  1.00  0.00     0.134 A 
ATOM     57  C   UNL A   1      49.413  26.291  25.401  1.00  0.00     0.134 A 
ATOM     58  F   UNL A   1      49.200  25.293  28.888  1.00  0.00    -0.206 F 
ATOM     59  C   UNL A   1      51.012  25.207  27.399  1.00  0.00     0.040 A 
ATOM     60  C   UNL A   1      50.743  25.971  25.130  1.00  0.00     0.040 A 
ATOM     61  F   UNL A   1      48.674  26.819  24.413  1.00  0.00    -0.206 F 
ATOM     62  C   UNL A   1      51.548  25.431  26.132  1.00  0.00     0.006 A 
ENDBRANCH  38  55
ENDBRANCH  12  13
ENDBRANCH   5   7
ENDBRANCH   2   3
ENDBRANCH   1   2
BRANCH   1  63
ATOM     63  C   UNL A   1      32.475  29.545  26.133  1.00  0.00     0.117 C 
BRANCH  63  64
ATOM     64  N   UNL A   1      33.178  29.578  24.860  1.00  0.00    -0.354 N 
ATOM     65  C   UNL A   1      32.963  28.874  23.716  1.00  0.00     0.243 C 
ATOM     66  H   UNL A   1      33.929  30.214  24.820  1.00  0.00     0.163 HD
ATOM     67  O   UNL A   1      33.490  29.327  22.690  1.00  0.00    -0.273 OA
BRANCH  65  68
ATOM     68  C   UNL A   1      32.127  27.570  23.637  1.00  0.00     0.185 C 
BRANCH  68  69
ATOM     69  C   UNL A   1      30.868  27.656  22.725  1.00  0.00     0.071 C 
BRANCH  69  70
ATOM     70  C   UNL A   1      29.762  28.648  22.989  1.00  0.00    -0.045 A 
ATOM     71  C   UNL A   1      30.013  30.003  23.239  1.00  0.00     0.004 A 
ATOM     72  C   UNL A   1      28.424  28.222  22.912  1.00  0.00     0.004 A 
ATOM     73  C   UNL A   1      28.959  30.885  23.501  1.00  0.00     0.000 A 
ATOM     74  C   UNL A   1      27.372  29.108  23.153  1.00  0.00     0.000 A 
ATOM     75  C   UNL A   1      27.642  30.437  23.466  1.00  0.00     0.000 A 
ENDBRANCH  69  70
ENDBRANCH  68  69
BRANCH  68  76
ATOM     76  N   UNL A   1      32.807  26.253  23.711  1.00  0.00    -0.280 N 
ATOM     77  C   UNL A   1      33.261  25.742  24.907  1.00  0.00     0.266 C 
ATOM     78  C   UNL A   1      33.056  25.445  22.612  1.00  0.00     0.149 C 
ATOM     79  O   UNL A   1      32.901  26.046  26.033  1.00  0.00    -0.268 OA
ATOM     80  C   UNL A   1      34.228  24.642  24.681  1.00  0.00     0.081 C 
ATOM     81  S   UNL A   1      34.119  24.109  23.064  1.00  0.00    -0.054 SA
ATOM     82  S   UNL A   1      32.527  25.618  21.038  1.00  0.00    -0.052 S 
ATOM     83  C   UNL A   1      35.029  24.241  25.676  1.00  0.00     0.029 C 
BRANCH  83  84
ATOM     84  C   UNL A   1      36.061  23.197  25.667  1.00  0.00    -0.021 A 
ATOM     85  C   UNL A   1      35.812  21.884  25.272  1.00  0.00     0.028 A 
ATOM     86  C   UNL A   1      37.369  23.564  25.987  1.00  0.00     0.028 A 
ATOM     87  C   UNL A   1      36.868  20.987  25.261  1.00  0.00     0.111 A 
ATOM     88  C   UNL A   1      38.360  22.597  25.940  1.00  0.00     0.111 A 
ATOM     89  N   UNL A   1      38.137  21.314  25.589  1.00  0.00    -0.265 NA
ENDBRANCH  83  84
ENDBRANCH  68  76
ENDBRANCH  65  68
ENDBRANCH  63  64
ENDBRANCH   1  63
TORSDOF 14
ENDMDL
MODEL 3
REMARK VINA RESULT:     -12.8      5.143     10.319
REMARK SMILES O=C(NCCCNC(=O)[C@@H](Cc1ccccc1)N1C(=O)/C(=C/c2ccncc2)SC1=S)c1ccc(-c2c3nc(c(-c4c(F)cccc4F)c4ccc([nH]4)c(-c4c(F)cccc4F)c4nc(c(-c5c(F)cccc5F)c5ccc2[nH]5)C=C4)C=C3)cc1
REMARK SMILES IDX 5 1 4 2 3 3 1 4 2 5 32 7 33 8 85 9 34 10 84 11 35 12 36 13
REMARK SMILES IDX 37 14 78 15 38 16 83 17 77 18 79 19 39 20 82 21 76 22 75 23
REMARK SMILES IDX 40 25 66 26 49 27 65 28 50 29 53 30 64 31 80 32 51 33 52 34
REMARK SMILES IDX 63 36 81 37 54 38 41 39 42 40 47 41 43 42 44 43 46 44 48 45
REMARK SMILES IDX 45 46 67 47 68 48 73 49 69 50 70 51 72 52 74 53 71 54 55 55
REMARK SMILES IDX 56 56 61 57 57 58 58 59 60 60 62 61 59 62 6 63 7 64 8 65
REMARK SMILES IDX 9 67 10 68 11 69 12 70 13 71 17 72 14 73 16 74 15 75 18 76
REMARK SMILES IDX 19 77 30 78 20 79 21 80 29 81 31 82 22 83 23 84 24 85 28 86
REMARK SMILES IDX 25 87 27 88 26 89
REMARK H PARENT 3 6 79 24 53 35 7 66
REMARK Flexibility Score: inf
ROOT
ATOM      1  C   UNL A   1      32.787  29.829  27.154  1.00  0.00     0.042 C 
ENDROOT
BRANCH   1   2
ATOM      2  C   UNL A   1      34.291  30.015  27.285  1.00  0.00     0.118 C 
BRANCH   2   3
ATOM      3  N   UNL A   1      34.635  30.836  28.440  1.00  0.00    -0.352 N 
ATOM      4  O   UNL A   1      35.604  31.449  30.359  1.00  0.00    -0.269 OA
ATOM      5  C   UNL A   1      35.695  30.804  29.314  1.00  0.00     0.251 C 
ATOM      6  H   UNL A   1      33.982  31.548  28.632  1.00  0.00     0.163 HD
BRANCH   5   7
ATOM      7  C   UNL A   1      36.939  30.030  29.054  1.00  0.00     0.039 A 
ATOM      8  C   UNL A   1      37.619  30.092  27.841  1.00  0.00     0.014 A 
ATOM      9  C   UNL A   1      37.527  29.323  30.116  1.00  0.00     0.014 A 
ATOM     10  C   UNL A   1      38.800  29.383  27.648  1.00  0.00     0.010 A 
ATOM     11  C   UNL A   1      38.783  28.713  29.962  1.00  0.00     0.010 A 
ATOM     12  C   UNL A   1      39.433  28.747  28.724  1.00  0.00    -0.014 A 
BRANCH  12  13
ATOM     13  C   UNL A   1      40.838  28.296  28.542  1.00  0.00     0.031 A 
ATOM     14  C   UNL A   1      41.177  26.891  28.142  1.00  0.00     0.074 A 
ATOM     15  C   UNL A   1      41.820  29.208  28.708  1.00  0.00     0.049 A 
ATOM     16  N   UNL A   1      42.353  26.377  27.882  1.00  0.00    -0.248 NA
ATOM     17  C   UNL A   1      40.065  25.936  28.025  1.00  0.00     0.031 C 
ATOM     18  C   UNL A   1      41.615  30.595  29.138  1.00  0.00     0.029 A 
ATOM     19  N   UNL A   1      43.174  29.127  28.502  1.00  0.00    -0.354 N 
ATOM     20  C   UNL A   1      42.129  25.037  27.597  1.00  0.00     0.074 A 
ATOM     21  C   UNL A   1      40.704  24.812  27.724  1.00  0.00     0.031 C 
ATOM     22  C   UNL A   1      42.783  31.252  29.091  1.00  0.00     0.029 A 
ATOM     23  C   UNL A   1      43.831  30.319  28.700  1.00  0.00     0.049 A 
ATOM     24  H   UNL A   1      43.632  28.296  28.239  1.00  0.00     0.167 HD
ATOM     25  C   UNL A   1      43.033  24.087  27.260  1.00  0.00     0.037 A 
ATOM     26  C   UNL A   1      45.136  30.630  28.591  1.00  0.00     0.037 A 
ATOM     27  C   UNL A   1      44.446  24.323  27.104  1.00  0.00     0.049 A 
ATOM     28  C   UNL A   1      46.105  29.558  28.200  1.00  0.00     0.074 A 
ATOM     29  C   UNL A   1      45.429  23.434  26.702  1.00  0.00     0.029 A 
ATOM     30  N   UNL A   1      45.079  25.532  27.348  1.00  0.00    -0.354 N 
ATOM     31  N   UNL A   1      45.867  28.307  27.889  1.00  0.00    -0.248 NA
ATOM     32  C   UNL A   1      47.526  29.932  28.163  1.00  0.00     0.031 C 
ATOM     33  C   UNL A   1      46.660  24.095  26.739  1.00  0.00     0.029 A 
ATOM     34  C   UNL A   1      46.441  25.406  27.132  1.00  0.00     0.049 A 
ATOM     35  H   UNL A   1      44.626  26.359  27.634  1.00  0.00     0.167 HD
ATOM     36  C   UNL A   1      47.106  27.742  27.627  1.00  0.00     0.074 A 
ATOM     37  C   UNL A   1      48.090  28.795  27.780  1.00  0.00     0.031 C 
ATOM     38  C   UNL A   1      47.404  26.461  27.303  1.00  0.00     0.037 A 
BRANCH  25  39
ATOM     39  C   UNL A   1      42.532  22.691  27.042  1.00  0.00     0.057 A 
ATOM     40  C   UNL A   1      42.458  22.123  25.765  1.00  0.00     0.134 A 
ATOM     41  C   UNL A   1      42.196  21.879  28.134  1.00  0.00     0.134 A 
ATOM     42  F   UNL A   1      42.758  22.850  24.679  1.00  0.00    -0.206 F 
ATOM     43  C   UNL A   1      42.062  20.796  25.581  1.00  0.00     0.040 A 
ATOM     44  C   UNL A   1      41.814  20.548  27.962  1.00  0.00     0.040 A 
ATOM     45  F   UNL A   1      42.252  22.364  29.384  1.00  0.00    -0.206 F 
ATOM     46  C   UNL A   1      41.746  20.003  26.682  1.00  0.00     0.006 A 
ENDBRANCH  25  39
BRANCH  26  47
ATOM     47  C   UNL A   1      45.596  32.010  28.885  1.00  0.00     0.057 A 
ATOM     48  C   UNL A   1      45.688  32.975  27.877  1.00  0.00     0.134 A 
ATOM     49  C   UNL A   1      45.951  32.396  30.184  1.00  0.00     0.134 A 
ATOM     50  F   UNL A   1      45.381  32.661  26.610  1.00  0.00    -0.206 F 
ATOM     51  C   UNL A   1      46.129  34.272  28.146  1.00  0.00     0.040 A 
ATOM     52  C   UNL A   1      46.366  33.695  30.473  1.00  0.00     0.040 A 
ATOM     53  F   UNL A   1      45.878  31.518  31.194  1.00  0.00    -0.206 F 
ATOM     54  C   UNL A   1      46.462  34.637  29.450  1.00  0.00     0.006 A 
ENDBRANCH  26  47
BRANCH  38  55
ATOM     55  C   UNL A   1      48.852  26.139  27.105  1.00  0.00     0.057 A 
ATOM     56  C   UNL A   1      49.494  26.388  25.886  1.00  0.00     0.134 A 
ATOM     57  C   UNL A   1      49.614  25.589  28.142  1.00  0.00     0.134 A 
ATOM     58  F   UNL A   1      48.810  26.897  24.850  1.00  0.00    -0.206 F 
ATOM     59  C   UNL A   1      50.841  26.083  25.698  1.00  0.00     0.040 A 
ATOM     60  C   UNL A   1      50.968  25.299  27.973  1.00  0.00     0.040 A 
ATOM     61  F   UNL A   1      49.056  25.331  29.335  1.00  0.00    -0.206 F 
ATOM     62  C   UNL A   1      51.584  25.541  26.745  1.00  0.00     0.006 A 
ENDBRANCH  38  55
ENDBRANCH  12  13
ENDBRANCH   5   7
ENDBRANCH   2   3
ENDBRANCH   1   2
BRANCH   1  63
ATOM     63  C   UNL A   1      32.326  30.136  25.741  1.00  0.00     0.117 C 
BRANCH  63  64
ATOM     64  N   UNL A   1      33.287  29.701  24.740  1.00  0.00    -0.354 N 
ATOM     65  C   UNL A   1      33.184  28.748  23.773  1.00  0.00     0.243 C 
ATOM     66  H   UNL A   1      34.151  30.173  24.765  1.00  0.00     0.163 HD
ATOM     67  O   UNL A   1      34.017  28.807  22.858  1.00  0.00    -0.273 OA
BRANCH  65  68
ATOM     68  C   UNL A   1      32.117  27.622  23.767  1.00  0.00     0.185 C 
BRANCH  68  69
ATOM     69  C   UNL A   1      31.156  27.641  22.542  1.00  0.00     0.071 C 
BRANCH  69  70
ATOM     70  C   UNL A   1      29.945  28.540  22.494  1.00  0.00    -0.045 A 
ATOM     71  C   UNL A   1      28.710  28.166  23.038  1.00  0.00     0.004 A 
ATOM     72  C   UNL A   1      30.069  29.831  21.949  1.00  0.00     0.004 A 
ATOM     73  C   UNL A   1      27.607  29.021  22.952  1.00  0.00     0.000 A 
ATOM     74  C   UNL A   1      28.972  30.692  21.882  1.00  0.00     0.000 A 
ATOM     75  C   UNL A   1      27.735  30.278  22.368  1.00  0.00     0.000 A 
ENDBRANCH  69  70
ENDBRANCH  68  69
BRANCH  68  76
ATOM     76  N   UNL A   1      32.444  26.292  24.336  1.00  0.00    -0.280 N 
ATOM     77  C   UNL A   1      33.253  25.400  23.665  1.00  0.00     0.266 C 
ATOM     78  C   UNL A   1      31.966  25.829  25.552  1.00  0.00     0.149 C 
ATOM     79  O   UNL A   1      34.058  25.642  22.781  1.00  0.00    -0.268 OA
ATOM     80  C   UNL A   1      33.112  24.034  24.223  1.00  0.00     0.081 C 
ATOM     81  S   UNL A   1      32.347  24.116  25.746  1.00  0.00    -0.054 SA
ATOM     82  S   UNL A   1      31.112  26.650  26.728  1.00  0.00    -0.052 S 
ATOM     83  C   UNL A   1      33.541  22.978  23.521  1.00  0.00     0.029 C 
BRANCH  83  84
ATOM     84  C   UNL A   1      33.483  21.553  23.869  1.00  0.00    -0.021 A 
ATOM     85  C   UNL A   1      32.429  20.720  23.497  1.00  0.00     0.028 A 
ATOM     86  C   UNL A   1      34.578  20.993  24.529  1.00  0.00     0.028 A 
ATOM     87  C   UNL A   1      32.495  19.380  23.841  1.00  0.00     0.111 A 
ATOM     88  C   UNL A   1      34.555  19.640  24.824  1.00  0.00     0.111 A 
ATOM     89  N   UNL A   1      33.533  18.821  24.500  1.00  0.00    -0.265 NA
ENDBRANCH  83  84
ENDBRANCH  68  76
ENDBRANCH  65  68
ENDBRANCH  63  64
ENDBRANCH   1  63
TORSDOF 14
ENDMDL
