MODEL 1
REMARK VINA RESULT:     -11.2      0.000      0.000
REMARK SMILES CC(=O)Nc1c(C)nn([C@H](C)C(=O)NCCCNC(=O)c2ccc(-c3c4nc(c(-c5c(F)cccc5F)c5ccc([nH]5)c(-c5c(F)cccc5F)c5nc(c(-c6c(F)cccc6F)c6ccc3[nH]6)C=C5)C=C4)cc2)c1C
REMARK SMILES IDX 16 1 15 2 14 3 12 4 13 5 10 7 11 8 9 9 5 10 6 11 75 12 7 13
REMARK SMILES IDX 8 14 76 15 4 16 1 17 2 18 3 19 17 21 18 22 19 23 20 25 21 26
REMARK SMILES IDX 22 27 74 28 23 29 73 30 24 31 25 32 26 33 67 34 27 35 72 36
REMARK SMILES IDX 66 37 68 38 28 39 71 40 65 41 64 42 29 44 55 45 38 46 54 47
REMARK SMILES IDX 39 48 42 49 53 50 69 51 40 52 41 53 52 55 70 56 43 57 30 58
REMARK SMILES IDX 31 59 36 60 32 61 33 62 35 63 37 64 34 65 56 66 57 67 62 68
REMARK SMILES IDX 58 69 59 70 61 71 63 72 60 73 44 74 45 75 50 76 46 77 47 78
REMARK SMILES IDX 49 79 51 80 48 81
REMARK H PARENT 14 6 4 20 18 24 68 43 42 54
REMARK Flexibility Score: inf
ROOT
ATOM      1  C   UNL A   1      40.446  19.915  26.038  1.00  0.00     0.042 C 
ENDROOT
BRANCH   1   2
ATOM      2  C   UNL A   1      39.492  21.097  26.147  1.00  0.00     0.117 C 
BRANCH   2   3
ATOM      3  N   UNL A   1      38.409  21.068  25.171  1.00  0.00    -0.354 N 
ATOM      4  C   UNL A   1      37.366  21.937  25.015  1.00  0.00     0.244 C 
ATOM      5  O   UNL A   1      36.666  21.805  24.004  1.00  0.00    -0.273 OA
ATOM      6  H   UNL A   1      38.434  20.318  24.535  1.00  0.00     0.163 HD
BRANCH   4   7
ATOM      7  C   UNL A   1      36.999  22.972  26.074  1.00  0.00     0.193 C 
ATOM      8  C   UNL A   1      38.025  24.106  26.155  1.00  0.00     0.044 C 
BRANCH   7   9
ATOM      9  N   UNL A   1      35.618  23.456  25.980  1.00  0.00    -0.255 N 
ATOM     10  C   UNL A   1      33.548  23.961  26.517  1.00  0.00     0.085 A 
ATOM     11  C   UNL A   1      34.079  24.856  25.555  1.00  0.00     0.083 A 
ATOM     12  C   UNL A   1      34.523  22.992  26.678  1.00  0.00     0.060 A 
ATOM     13  C   UNL A   1      33.493  26.093  24.980  1.00  0.00     0.071 C 
ATOM     14  N   UNL A   1      35.322  24.522  25.217  1.00  0.00    -0.175 NA
ATOM     15  C   UNL A   1      34.514  21.654  27.323  1.00  0.00     0.069 C 
BRANCH  10  16
ATOM     16  N   UNL A   1      32.282  24.017  27.060  1.00  0.00    -0.323 N 
ATOM     17  C   UNL A   1      31.190  22.348  25.585  1.00  0.00     0.114 C 
ATOM     18  C   UNL A   1      31.124  23.460  26.601  1.00  0.00     0.221 C 
ATOM     19  O   UNL A   1      30.048  23.801  27.097  1.00  0.00    -0.275 OA
ATOM     20  H   UNL A   1      32.203  24.532  27.896  1.00  0.00     0.170 HD
ENDBRANCH  10  16
ENDBRANCH   7   9
ENDBRANCH   4   7
ENDBRANCH   2   3
ENDBRANCH   1   2
BRANCH   1  21
ATOM     21  C   UNL A   1      41.749  20.142  26.776  1.00  0.00     0.118 C 
BRANCH  21  22
ATOM     22  N   UNL A   1      42.923  19.687  26.031  1.00  0.00    -0.352 N 
ATOM     23  C   UNL A   1      43.828  20.466  25.344  1.00  0.00     0.251 C 
ATOM     24  H   UNL A   1      43.084  18.715  26.021  1.00  0.00     0.163 HD
ATOM     25  O   UNL A   1      44.565  19.982  24.488  1.00  0.00    -0.269 OA
BRANCH  23  26
ATOM     26  C   UNL A   1      43.875  21.906  25.643  1.00  0.00     0.039 A 
ATOM     27  C   UNL A   1      43.044  22.804  24.976  1.00  0.00     0.014 A 
ATOM     28  C   UNL A   1      44.705  22.332  26.679  1.00  0.00     0.014 A 
ATOM     29  C   UNL A   1      42.979  24.115  25.435  1.00  0.00     0.010 A 
ATOM     30  C   UNL A   1      44.518  23.577  27.230  1.00  0.00     0.010 A 
ATOM     31  C   UNL A   1      43.685  24.488  26.596  1.00  0.00    -0.014 A 
BRANCH  31  32
ATOM     32  C   UNL A   1      43.425  25.785  27.220  1.00  0.00     0.031 A 
ATOM     33  C   UNL A   1      44.379  26.853  26.817  1.00  0.00     0.074 A 
ATOM     34  C   UNL A   1      42.340  26.081  27.971  1.00  0.00     0.049 A 
ATOM     35  N   UNL A   1      45.295  27.386  27.554  1.00  0.00    -0.248 NA
ATOM     36  C   UNL A   1      44.435  27.268  25.405  1.00  0.00     0.031 C 
ATOM     37  C   UNL A   1      41.160  25.254  28.238  1.00  0.00     0.029 A 
ATOM     38  N   UNL A   1      42.023  27.253  28.593  1.00  0.00    -0.354 N 
ATOM     39  C   UNL A   1      45.890  28.371  26.775  1.00  0.00     0.074 A 
ATOM     40  C   UNL A   1      45.459  28.126  25.422  1.00  0.00     0.031 C 
ATOM     41  C   UNL A   1      40.172  26.021  28.750  1.00  0.00     0.029 A 
ATOM     42  C   UNL A   1      40.700  27.347  29.012  1.00  0.00     0.049 A 
ATOM     43  H   UNL A   1      42.678  27.974  28.735  1.00  0.00     0.167 HD
ATOM     44  C   UNL A   1      46.457  29.460  27.361  1.00  0.00     0.037 A 
ATOM     45  C   UNL A   1      40.075  28.435  29.529  1.00  0.00     0.037 A 
ATOM     46  C   UNL A   1      46.720  29.218  28.762  1.00  0.00     0.049 A 
ATOM     47  C   UNL A   1      41.124  29.347  30.043  1.00  0.00     0.074 A 
ATOM     48  C   UNL A   1      47.405  28.246  29.470  1.00  0.00     0.029 A 
ATOM     49  N   UNL A   1      45.907  29.832  29.685  1.00  0.00    -0.354 N 
ATOM     50  N   UNL A   1      41.852  29.094  31.093  1.00  0.00    -0.248 NA
ATOM     51  C   UNL A   1      41.676  30.328  29.122  1.00  0.00     0.031 C 
ATOM     52  C   UNL A   1      46.597  27.989  30.619  1.00  0.00     0.029 A 
ATOM     53  C   UNL A   1      45.523  28.877  30.588  1.00  0.00     0.049 A 
ATOM     54  H   UNL A   1      45.650  30.782  29.695  1.00  0.00     0.167 HD
ATOM     55  C   UNL A   1      43.127  29.496  30.731  1.00  0.00     0.074 A 
ATOM     56  C   UNL A   1      42.939  30.340  29.553  1.00  0.00     0.031 C 
ATOM     57  C   UNL A   1      44.232  28.871  31.236  1.00  0.00     0.037 A 
BRANCH  44  58
ATOM     58  C   UNL A   1      46.361  30.860  26.798  1.00  0.00     0.057 A 
ATOM     59  C   UNL A   1      47.508  31.673  26.804  1.00  0.00     0.134 A 
ATOM     60  C   UNL A   1      45.147  31.539  26.565  1.00  0.00     0.134 A 
ATOM     61  F   UNL A   1      48.723  31.148  27.022  1.00  0.00    -0.206 F 
ATOM     62  C   UNL A   1      47.440  33.068  26.694  1.00  0.00     0.040 A 
ATOM     63  C   UNL A   1      45.075  32.925  26.403  1.00  0.00     0.040 A 
ATOM     64  F   UNL A   1      43.959  30.927  26.589  1.00  0.00    -0.206 F 
ATOM     65  C   UNL A   1      46.218  33.699  26.507  1.00  0.00     0.006 A 
ENDBRANCH  44  58
BRANCH  45  66
ATOM     66  C   UNL A   1      38.661  28.860  29.405  1.00  0.00     0.057 A 
ATOM     67  C   UNL A   1      37.814  28.894  30.524  1.00  0.00     0.134 A 
ATOM     68  C   UNL A   1      38.188  29.518  28.257  1.00  0.00     0.134 A 
ATOM     69  F   UNL A   1      38.186  28.325  31.680  1.00  0.00    -0.206 F 
ATOM     70  C   UNL A   1      36.591  29.577  30.515  1.00  0.00     0.040 A 
ATOM     71  C   UNL A   1      36.965  30.197  28.233  1.00  0.00     0.040 A 
ATOM     72  F   UNL A   1      38.939  29.606  27.149  1.00  0.00    -0.206 F 
ATOM     73  C   UNL A   1      36.169  30.244  29.370  1.00  0.00     0.006 A 
ENDBRANCH  45  66
BRANCH  57  74
ATOM     74  C   UNL A   1      44.051  27.943  32.407  1.00  0.00     0.057 A 
ATOM     75  C   UNL A   1      43.844  26.558  32.309  1.00  0.00     0.134 A 
ATOM     76  C   UNL A   1      44.205  28.464  33.697  1.00  0.00     0.134 A 
ATOM     77  F   UNL A   1      43.791  25.941  31.121  1.00  0.00    -0.206 F 
ATOM     78  C   UNL A   1      43.733  25.746  33.444  1.00  0.00     0.040 A 
ATOM     79  C   UNL A   1      44.135  27.659  34.835  1.00  0.00     0.040 A 
ATOM     80  F   UNL A   1      44.462  29.771  33.872  1.00  0.00    -0.206 F 
ATOM     81  C   UNL A   1      43.882  26.296  34.713  1.00  0.00     0.006 A 
ENDBRANCH  57  74
ENDBRANCH  31  32
ENDBRANCH  23  26
ENDBRANCH  21  22
ENDBRANCH   1  21
TORSDOF 12
ENDMDL
MODEL 2
REMARK VINA RESULT:     -11.0      2.908      7.346
REMARK SMILES CC(=O)Nc1c(C)nn([C@H](C)C(=O)NCCCNC(=O)c2ccc(-c3c4nc(c(-c5c(F)cccc5F)c5ccc([nH]5)c(-c5c(F)cccc5F)c5nc(c(-c6c(F)cccc6F)c6ccc3[nH]6)C=C5)C=C4)cc2)c1C
REMARK SMILES IDX 16 1 15 2 14 3 12 4 13 5 10 7 11 8 9 9 5 10 6 11 75 12 7 13
REMARK SMILES IDX 8 14 76 15 4 16 1 17 2 18 3 19 17 21 18 22 19 23 20 25 21 26
REMARK SMILES IDX 22 27 74 28 23 29 73 30 24 31 25 32 26 33 67 34 27 35 72 36
REMARK SMILES IDX 66 37 68 38 28 39 71 40 65 41 64 42 29 44 55 45 38 46 54 47
REMARK SMILES IDX 39 48 42 49 53 50 69 51 40 52 41 53 52 55 70 56 43 57 30 58
REMARK SMILES IDX 31 59 36 60 32 61 33 62 35 63 37 64 34 65 56 66 57 67 62 68
REMARK SMILES IDX 58 69 59 70 61 71 63 72 60 73 44 74 45 75 50 76 46 77 47 78
REMARK SMILES IDX 49 79 51 80 48 81
REMARK H PARENT 14 6 4 20 18 24 68 43 42 54
REMARK Flexibility Score: inf
ROOT
ATOM      1  C   UNL A   1      33.728  28.773  27.251  1.00  0.00     0.042 C 
ENDROOT
BRANCH   1   2
ATOM      2  C   UNL A   1      32.974  29.672  26.280  1.00  0.00     0.117 C 
BRANCH   2   3
ATOM      3  N   UNL A   1      33.469  29.600  24.911  1.00  0.00    -0.354 N 
ATOM      4  C   UNL A   1      32.957  28.915  23.844  1.00  0.00     0.244 C 
ATOM      5  O   UNL A   1      33.452  29.145  22.734  1.00  0.00    -0.273 OA
ATOM      6  H   UNL A   1      34.286  30.118  24.729  1.00  0.00     0.163 HD
BRANCH   4   7
ATOM      7  C   UNL A   1      31.888  27.839  24.001  1.00  0.00     0.193 C 
ATOM      8  C   UNL A   1      31.103  27.609  22.707  1.00  0.00     0.044 C 
BRANCH   7   9
ATOM      9  N   UNL A   1      32.380  26.595  24.601  1.00  0.00    -0.255 N 
ATOM     10  C   UNL A   1      32.504  24.492  25.228  1.00  0.00     0.085 A 
ATOM     11  C   UNL A   1      33.784  25.045  24.975  1.00  0.00     0.083 A 
ATOM     12  C   UNL A   1      31.625  25.554  25.100  1.00  0.00     0.060 A 
ATOM     13  C   UNL A   1      35.117  24.393  24.964  1.00  0.00     0.071 C 
ATOM     14  N   UNL A   1      33.697  26.326  24.624  1.00  0.00    -0.175 NA
ATOM     15  C   UNL A   1      30.200  25.732  25.478  1.00  0.00     0.069 C 
BRANCH  10  16
ATOM     16  N   UNL A   1      32.248  23.197  25.628  1.00  0.00    -0.323 N 
ATOM     17  C   UNL A   1      32.240  22.130  23.389  1.00  0.00     0.114 C 
ATOM     18  C   UNL A   1      31.944  22.107  24.867  1.00  0.00     0.221 C 
ATOM     19  O   UNL A   1      31.528  21.082  25.413  1.00  0.00    -0.275 OA
ATOM     20  H   UNL A   1      32.289  23.039  26.600  1.00  0.00     0.170 HD
ENDBRANCH  10  16
ENDBRANCH   7   9
ENDBRANCH   4   7
ENDBRANCH   2   3
ENDBRANCH   1   2
BRANCH   1  21
ATOM     21  C   UNL A   1      35.161  29.212  27.467  1.00  0.00     0.118 C 
BRANCH  21  22
ATOM     22  N   UNL A   1      35.358  29.961  28.708  1.00  0.00    -0.352 N 
ATOM     23  C   UNL A   1      36.414  29.858  29.587  1.00  0.00     0.251 C 
ATOM     24  H   UNL A   1      34.656  30.613  28.941  1.00  0.00     0.163 HD
ATOM     25  O   UNL A   1      36.325  30.267  30.742  1.00  0.00    -0.269 OA
BRANCH  23  26
ATOM     26  C   UNL A   1      37.653  29.219  29.113  1.00  0.00     0.039 A 
ATOM     27  C   UNL A   1      38.332  29.712  28.000  1.00  0.00     0.014 A 
ATOM     28  C   UNL A   1      38.176  28.170  29.866  1.00  0.00     0.014 A 
ATOM     29  C   UNL A   1      39.596  29.206  27.717  1.00  0.00     0.010 A 
ATOM     30  C   UNL A   1      39.485  27.790  29.682  1.00  0.00     0.010 A 
ATOM     31  C   UNL A   1      40.192  28.274  28.590  1.00  0.00    -0.014 A 
BRANCH  31  32
ATOM     32  C   UNL A   1      41.605  27.932  28.435  1.00  0.00     0.031 A 
ATOM     33  C   UNL A   1      41.844  26.682  27.665  1.00  0.00     0.074 A 
ATOM     34  C   UNL A   1      42.639  28.725  28.796  1.00  0.00     0.049 A 
ATOM     35  N   UNL A   1      42.269  25.557  28.135  1.00  0.00    -0.248 NA
ATOM     36  C   UNL A   1      41.421  26.616  26.257  1.00  0.00     0.031 C 
ATOM     37  C   UNL A   1      42.604  30.100  29.302  1.00  0.00     0.029 A 
ATOM     38  N   UNL A   1      43.978  28.484  28.696  1.00  0.00    -0.354 N 
ATOM     39  C   UNL A   1      42.394  24.707  27.043  1.00  0.00     0.074 A 
ATOM     40  C   UNL A   1      41.686  25.340  25.960  1.00  0.00     0.031 C 
ATOM     41  C   UNL A   1      43.839  30.644  29.231  1.00  0.00     0.029 A 
ATOM     42  C   UNL A   1      44.781  29.610  28.847  1.00  0.00     0.049 A 
ATOM     43  H   UNL A   1      44.346  27.586  28.531  1.00  0.00     0.167 HD
ATOM     44  C   UNL A   1      43.305  23.696  27.060  1.00  0.00     0.037 A 
ATOM     45  C   UNL A   1      46.123  29.695  28.662  1.00  0.00     0.037 A 
ATOM     46  C   UNL A   1      43.731  23.404  28.411  1.00  0.00     0.049 A 
ATOM     47  C   UNL A   1      46.673  28.322  28.765  1.00  0.00     0.074 A 
ATOM     48  C   UNL A   1      43.078  23.089  29.590  1.00  0.00     0.029 A 
ATOM     49  N   UNL A   1      44.989  23.804  28.790  1.00  0.00    -0.354 N 
ATOM     50  N   UNL A   1      46.729  27.646  29.878  1.00  0.00    -0.248 NA
ATOM     51  C   UNL A   1      46.740  27.528  27.549  1.00  0.00     0.031 C 
ATOM     52  C   UNL A   1      43.783  23.805  30.603  1.00  0.00     0.029 A 
ATOM     53  C   UNL A   1      44.868  24.438  29.999  1.00  0.00     0.049 A 
ATOM     54  H   UNL A   1      45.823  23.662  28.287  1.00  0.00     0.167 HD
ATOM     55  C   UNL A   1      46.353  26.362  29.519  1.00  0.00     0.074 A 
ATOM     56  C   UNL A   1      46.474  26.325  28.062  1.00  0.00     0.031 C 
ATOM     57  C   UNL A   1      45.699  25.549  30.399  1.00  0.00     0.037 A 
BRANCH  44  58
ATOM     58  C   UNL A   1      44.128  23.290  25.859  1.00  0.00     0.057 A 
ATOM     59  C   UNL A   1      44.289  21.921  25.579  1.00  0.00     0.134 A 
ATOM     60  C   UNL A   1      45.020  24.148  25.182  1.00  0.00     0.134 A 
ATOM     61  F   UNL A   1      43.507  21.002  26.165  1.00  0.00    -0.206 F 
ATOM     62  C   UNL A   1      45.325  21.437  24.771  1.00  0.00     0.040 A 
ATOM     63  C   UNL A   1      46.025  23.677  24.333  1.00  0.00     0.040 A 
ATOM     64  F   UNL A   1      45.044  25.469  25.380  1.00  0.00    -0.206 F 
ATOM     65  C   UNL A   1      46.206  22.316  24.156  1.00  0.00     0.006 A 
ENDBRANCH  44  58
BRANCH  45  66
ATOM     66  C   UNL A   1      46.940  30.829  28.171  1.00  0.00     0.057 A 
ATOM     67  C   UNL A   1      46.624  31.483  26.971  1.00  0.00     0.134 A 
ATOM     68  C   UNL A   1      47.864  31.484  29.003  1.00  0.00     0.134 A 
ATOM     69  F   UNL A   1      45.727  30.959  26.122  1.00  0.00    -0.206 F 
ATOM     70  C   UNL A   1      47.161  32.734  26.636  1.00  0.00     0.040 A 
ATOM     71  C   UNL A   1      48.414  32.729  28.677  1.00  0.00     0.040 A 
ATOM     72  F   UNL A   1      48.193  30.985  30.203  1.00  0.00    -0.206 F 
ATOM     73  C   UNL A   1      48.049  33.367  27.498  1.00  0.00     0.006 A 
ENDBRANCH  45  66
BRANCH  57  74
ATOM     74  C   UNL A   1      45.656  25.957  31.848  1.00  0.00     0.057 A 
ATOM     75  C   UNL A   1      46.694  25.752  32.770  1.00  0.00     0.134 A 
ATOM     76  C   UNL A   1      44.553  26.691  32.298  1.00  0.00     0.134 A 
ATOM     77  F   UNL A   1      47.840  25.156  32.413  1.00  0.00    -0.206 F 
ATOM     78  C   UNL A   1      46.606  26.202  34.093  1.00  0.00     0.040 A 
ATOM     79  C   UNL A   1      44.469  27.179  33.603  1.00  0.00     0.040 A 
ATOM     80  F   UNL A   1      43.543  26.977  31.460  1.00  0.00    -0.206 F 
ATOM     81  C   UNL A   1      45.491  26.921  34.511  1.00  0.00     0.006 A 
ENDBRANCH  57  74
ENDBRANCH  31  32
ENDBRANCH  23  26
ENDBRANCH  21  22
ENDBRANCH   1  21
TORSDOF 12
ENDMDL
MODEL 3
REMARK VINA RESULT:     -10.9      3.211      8.172
REMARK SMILES CC(=O)Nc1c(C)nn([C@H](C)C(=O)NCCCNC(=O)c2ccc(-c3c4nc(c(-c5c(F)cccc5F)c5ccc([nH]5)c(-c5c(F)cccc5F)c5nc(c(-c6c(F)cccc6F)c6ccc3[nH]6)C=C5)C=C4)cc2)c1C
REMARK SMILES IDX 16 1 15 2 14 3 12 4 13 5 10 7 11 8 9 9 5 10 6 11 75 12 7 13
REMARK SMILES IDX 8 14 76 15 4 16 1 17 2 18 3 19 17 21 18 22 19 23 20 25 21 26
REMARK SMILES IDX 22 27 74 28 23 29 73 30 24 31 25 32 26 33 67 34 27 35 72 36
REMARK SMILES IDX 66 37 68 38 28 39 71 40 65 41 64 42 29 44 55 45 38 46 54 47
REMARK SMILES IDX 39 48 42 49 53 50 69 51 40 52 41 53 52 55 70 56 43 57 30 58
REMARK SMILES IDX 31 59 36 60 32 61 33 62 35 63 37 64 34 65 56 66 57 67 62 68
REMARK SMILES IDX 58 69 59 70 61 71 63 72 60 73 44 74 45 75 50 76 46 77 47 78
REMARK SMILES IDX 49 79 51 80 48 81
REMARK H PARENT 14 6 4 20 18 24 68 43 42 54
REMARK Flexibility Score: inf
ROOT
ATOM      1  C   UNL A   1      33.620  30.643  27.634  1.00  0.00     0.042 C 
ENDROOT
BRANCH   1   2
ATOM      2  C   UNL A   1      32.934  30.512  26.281  1.00  0.00     0.117 C 
BRANCH   2   3
ATOM      3  N   UNL A   1      33.675  29.699  25.325  1.00  0.00    -0.354 N 
ATOM      4  C   UNL A   1      33.205  28.950  24.283  1.00  0.00     0.244 C 
ATOM      5  O   UNL A   1      34.040  28.484  23.499  1.00  0.00    -0.273 OA
ATOM      6  H   UNL A   1      34.652  29.689  25.446  1.00  0.00     0.163 HD
BRANCH   4   7
ATOM      7  C   UNL A   1      31.727  28.609  24.123  1.00  0.00     0.193 C 
ATOM      8  C   UNL A   1      31.179  29.028  22.756  1.00  0.00     0.044 C 
BRANCH   7   9
ATOM      9  N   UNL A   1      31.395  27.225  24.473  1.00  0.00    -0.255 N 
ATOM     10  C   UNL A   1      30.476  25.489  25.460  1.00  0.00     0.085 A 
ATOM     11  C   UNL A   1      30.783  25.224  24.102  1.00  0.00     0.083 A 
ATOM     12  C   UNL A   1      30.998  26.748  25.705  1.00  0.00     0.060 A 
ATOM     13  C   UNL A   1      30.476  24.034  23.271  1.00  0.00     0.071 C 
ATOM     14  N   UNL A   1      31.365  26.273  23.524  1.00  0.00    -0.175 NA
ATOM     15  C   UNL A   1      31.254  27.505  26.957  1.00  0.00     0.069 C 
BRANCH  10  16
ATOM     16  N   UNL A   1      29.888  24.607  26.342  1.00  0.00    -0.323 N 
ATOM     17  C   UNL A   1      31.909  23.296  26.932  1.00  0.00     0.114 C 
ATOM     18  C   UNL A   1      30.414  23.487  26.917  1.00  0.00     0.221 C 
ATOM     19  O   UNL A   1      29.669  22.700  27.505  1.00  0.00    -0.275 OA
ATOM     20  H   UNL A   1      28.958  24.815  26.590  1.00  0.00     0.170 HD
ENDBRANCH  10  16
ENDBRANCH   7   9
ENDBRANCH   4   7
ENDBRANCH   2   3
ENDBRANCH   1   2
BRANCH   1  21
ATOM     21  C   UNL A   1      34.282  31.991  27.829  1.00  0.00     0.118 C 
BRANCH  21  22
ATOM     22  N   UNL A   1      34.295  32.435  29.223  1.00  0.00    -0.352 N 
ATOM     23  C   UNL A   1      35.141  32.012  30.225  1.00  0.00     0.251 C 
ATOM     24  H   UNL A   1      33.624  33.111  29.473  1.00  0.00     0.163 HD
ATOM     25  O   UNL A   1      34.862  32.181  31.410  1.00  0.00    -0.269 OA
BRANCH  23  26
ATOM     26  C   UNL A   1      36.385  31.326  29.842  1.00  0.00     0.039 A 
ATOM     27  C   UNL A   1      37.556  32.044  29.606  1.00  0.00     0.014 A 
ATOM     28  C   UNL A   1      36.382  29.932  29.815  1.00  0.00     0.014 A 
ATOM     29  C   UNL A   1      38.746  31.341  29.449  1.00  0.00     0.010 A 
ATOM     30  C   UNL A   1      37.576  29.250  29.823  1.00  0.00     0.010 A 
ATOM     31  C   UNL A   1      38.760  29.941  29.605  1.00  0.00    -0.014 A 
BRANCH  31  32
ATOM     32  C   UNL A   1      40.036  29.231  29.688  1.00  0.00     0.031 A 
ATOM     33  C   UNL A   1      40.548  29.067  31.075  1.00  0.00     0.074 A 
ATOM     34  C   UNL A   1      40.652  28.618  28.652  1.00  0.00     0.049 A 
ATOM     35  N   UNL A   1      41.564  29.669  31.597  1.00  0.00    -0.248 NA
ATOM     36  C   UNL A   1      39.765  28.278  32.040  1.00  0.00     0.031 C 
ATOM     37  C   UNL A   1      40.165  28.427  27.283  1.00  0.00     0.029 A 
ATOM     38  N   UNL A   1      41.838  27.945  28.638  1.00  0.00    -0.354 N 
ATOM     39  C   UNL A   1      41.694  29.158  32.883  1.00  0.00     0.074 A 
ATOM     40  C   UNL A   1      40.466  28.461  33.163  1.00  0.00     0.031 C 
ATOM     41  C   UNL A   1      40.920  27.497  26.657  1.00  0.00     0.029 A 
ATOM     42  C   UNL A   1      42.043  27.158  27.510  1.00  0.00     0.049 A 
ATOM     43  H   UNL A   1      42.496  28.011  29.367  1.00  0.00     0.167 HD
ATOM     44  C   UNL A   1      42.914  29.123  33.487  1.00  0.00     0.037 A 
ATOM     45  C   UNL A   1      43.057  26.282  27.290  1.00  0.00     0.037 A 
ATOM     46  C   UNL A   1      43.842  30.021  32.837  1.00  0.00     0.049 A 
ATOM     47  C   UNL A   1      44.169  26.653  28.198  1.00  0.00     0.074 A 
ATOM     48  C   UNL A   1      43.830  31.368  32.517  1.00  0.00     0.029 A 
ATOM     49  N   UNL A   1      44.828  29.471  32.053  1.00  0.00    -0.354 N 
ATOM     50  N   UNL A   1      44.886  27.732  28.061  1.00  0.00    -0.248 NA
ATOM     51  C   UNL A   1      44.185  26.057  29.524  1.00  0.00     0.031 C 
ATOM     52  C   UNL A   1      44.422  31.442  31.220  1.00  0.00     0.029 A 
ATOM     53  C   UNL A   1      44.837  30.158  30.868  1.00  0.00     0.049 A 
ATOM     54  H   UNL A   1      45.419  28.723  32.299  1.00  0.00     0.167 HD
ATOM     55  C   UNL A   1      45.038  28.209  29.352  1.00  0.00     0.074 A 
ATOM     56  C   UNL A   1      44.678  27.086  30.216  1.00  0.00     0.031 C 
ATOM     57  C   UNL A   1      45.154  29.547  29.599  1.00  0.00     0.037 A 
BRANCH  44  58
ATOM     58  C   UNL A   1      43.386  27.977  34.352  1.00  0.00     0.057 A 
ATOM     59  C   UNL A   1      43.333  26.670  33.835  1.00  0.00     0.134 A 
ATOM     60  C   UNL A   1      43.570  28.060  35.748  1.00  0.00     0.134 A 
ATOM     61  F   UNL A   1      43.155  26.456  32.522  1.00  0.00    -0.206 F 
ATOM     62  C   UNL A   1      43.354  25.536  34.656  1.00  0.00     0.040 A 
ATOM     63  C   UNL A   1      43.644  26.933  36.571  1.00  0.00     0.040 A 
ATOM     64  F   UNL A   1      43.581  29.222  36.409  1.00  0.00    -0.206 F 
ATOM     65  C   UNL A   1      43.496  25.667  36.030  1.00  0.00     0.006 A 
ENDBRANCH  44  58
BRANCH  45  66
ATOM     66  C   UNL A   1      43.059  25.010  26.531  1.00  0.00     0.057 A 
ATOM     67  C   UNL A   1      43.841  24.857  25.376  1.00  0.00     0.134 A 
ATOM     68  C   UNL A   1      42.529  23.828  27.074  1.00  0.00     0.134 A 
ATOM     69  F   UNL A   1      44.421  25.919  24.797  1.00  0.00    -0.206 F 
ATOM     70  C   UNL A   1      44.115  23.600  24.819  1.00  0.00     0.040 A 
ATOM     71  C   UNL A   1      42.789  22.567  26.524  1.00  0.00     0.040 A 
ATOM     72  F   UNL A   1      41.820  23.844  28.213  1.00  0.00    -0.206 F 
ATOM     73  C   UNL A   1      43.600  22.449  25.403  1.00  0.00     0.006 A 
ENDBRANCH  45  66
BRANCH  57  74
ATOM     74  C   UNL A   1      45.408  30.466  28.434  1.00  0.00     0.057 A 
ATOM     75  C   UNL A   1      44.409  31.038  27.631  1.00  0.00     0.134 A 
ATOM     76  C   UNL A   1      46.723  30.876  28.186  1.00  0.00     0.134 A 
ATOM     77  F   UNL A   1      43.109  30.797  27.853  1.00  0.00    -0.206 F 
ATOM     78  C   UNL A   1      44.714  31.925  26.592  1.00  0.00     0.040 A 
ATOM     79  C   UNL A   1      47.037  31.790  27.179  1.00  0.00     0.040 A 
ATOM     80  F   UNL A   1      47.729  30.417  28.948  1.00  0.00    -0.206 F 
ATOM     81  C   UNL A   1      46.033  32.306  26.366  1.00  0.00     0.006 A 
ENDBRANCH  57  74
ENDBRANCH  31  32
ENDBRANCH  23  26
ENDBRANCH  21  22
ENDBRANCH   1  21
TORSDOF 12
ENDMDL
