MODEL 1
REMARK VINA RESULT:     -10.4      0.000      0.000
REMARK SMILES CCN(C(=O)C[NH2+][C@@](C)(C(=O)NCCCNC(=O)c1ccc(-c2c3nc(c(-c4c(F)cccc4F)c4ccc([nH]4)c(-c4c(F)cccc4F)c4nc(c(-c5c(F)cccc5F)c5ccc2[nH]5)C=C4)C=C3)cc1)C(F)(F)F)C1CC1
REMARK SMILES IDX 10 1 11 2 12 3 8 5 9 6 7 7 6 10 4 11 5 12 3 13 2 14 1 15
REMARK SMILES IDX 77 16 78 17 79 18 73 19 74 20 75 21 76 22 13 23 14 24 15 25
REMARK SMILES IDX 16 26 17 27 18 29 19 30 20 31 72 32 21 33 71 34 22 35 23 36
REMARK SMILES IDX 24 37 65 38 25 39 70 40 64 41 66 42 26 43 69 44 63 45 62 46
REMARK SMILES IDX 27 48 53 49 36 50 52 51 37 52 40 53 51 54 67 55 38 56 39 57
REMARK SMILES IDX 50 59 68 60 41 61 28 62 29 63 34 64 30 65 31 66 33 67 35 68
REMARK SMILES IDX 32 69 54 70 55 71 60 72 56 73 57 74 59 75 61 76 58 77 42 78
REMARK SMILES IDX 43 79 48 80 44 81 45 82 47 83 49 84 46 85
REMARK H PARENT 12 4 7 8 7 9 16 28 66 47 40 58
REMARK Flexibility Score: inf
ROOT
ATOM      1  C   UNL A   1      34.171  21.115  26.307  1.00  0.00     0.290 C 
ATOM      2  O   UNL A   1      33.946  21.365  27.495  1.00  0.00    -0.267 OA
ATOM      3  N   UNL A   1      35.496  21.017  25.987  1.00  0.00    -0.350 N 
ATOM      4  H   UNL A   1      36.091  21.096  26.766  1.00  0.00     0.163 HD
ENDROOT
BRANCH   1   5
ATOM      5  C   UNL A   1      33.040  20.925  25.262  1.00  0.00     0.268 C 
ATOM      6  C   UNL A   1      33.460  21.568  23.925  1.00  0.00     0.101 C 
BRANCH   5   7
ATOM      7  N   UNL A   1      31.792  21.541  25.836  1.00  0.00    -0.318 N 
ATOM      8  H   UNL A   1      31.021  20.888  25.691  1.00  0.00     0.347 HD
ATOM      9  H   UNL A   1      31.989  21.721  26.820  1.00  0.00     0.347 HD
BRANCH   7  10
ATOM     10  C   UNL A   1      31.412  22.833  25.247  1.00  0.00     0.363 C 
BRANCH  10  11
ATOM     11  C   UNL A   1      31.579  23.936  26.308  1.00  0.00     0.277 C 
ATOM     12  O   UNL A   1      31.452  23.613  27.494  1.00  0.00    -0.268 OA
BRANCH  11  13
ATOM     13  N   UNL A   1      31.842  25.243  25.871  1.00  0.00    -0.335 N 
BRANCH  13  14
ATOM     14  C   UNL A   1      30.807  26.293  25.807  1.00  0.00     0.116 C 
ATOM     15  C   UNL A   1      30.136  26.350  24.441  1.00  0.00     0.027 C 
ENDBRANCH  13  14
BRANCH  13  16
ATOM     16  C   UNL A   1      33.182  25.695  25.509  1.00  0.00     0.085 C 
ATOM     17  C   UNL A   1      34.403  24.818  25.558  1.00  0.00     0.027 C 
ATOM     18  C   UNL A   1      33.878  25.306  24.234  1.00  0.00     0.027 C 
ENDBRANCH  13  16
ENDBRANCH  11  13
ENDBRANCH  10  11
ENDBRANCH   7  10
ENDBRANCH   5   7
BRANCH   5  19
ATOM     19  C   UNL A   1      32.964  19.384  25.012  1.00  0.00     0.453 C 
ATOM     20  F   UNL A   1      31.883  19.019  24.286  1.00  0.00    -0.164 F 
ATOM     21  F   UNL A   1      34.053  18.969  24.304  1.00  0.00    -0.164 F 
ATOM     22  F   UNL A   1      32.980  18.664  26.157  1.00  0.00    -0.164 F 
ENDBRANCH   5  19
ENDBRANCH   1   5
BRANCH   3  23
ATOM     23  C   UNL A   1      36.211  20.820  24.737  1.00  0.00     0.118 C 
BRANCH  23  24
ATOM     24  C   UNL A   1      37.384  19.859  24.894  1.00  0.00     0.042 C 
BRANCH  24  25
ATOM     25  C   UNL A   1      38.558  20.435  25.678  1.00  0.00     0.118 C 
BRANCH  25  26
ATOM     26  N   UNL A   1      39.671  19.501  25.787  1.00  0.00    -0.352 N 
ATOM     27  C   UNL A   1      40.986  19.716  26.109  1.00  0.00     0.251 C 
ATOM     28  H   UNL A   1      39.441  18.562  25.598  1.00  0.00     0.163 HD
ATOM     29  O   UNL A   1      41.805  18.811  25.945  1.00  0.00    -0.269 OA
BRANCH  27  30
ATOM     30  C   UNL A   1      41.436  21.021  26.636  1.00  0.00     0.039 A 
ATOM     31  C   UNL A   1      41.990  21.952  25.752  1.00  0.00     0.014 A 
ATOM     32  C   UNL A   1      41.348  21.320  27.998  1.00  0.00     0.014 A 
ATOM     33  C   UNL A   1      42.394  23.203  26.224  1.00  0.00     0.010 A 
ATOM     34  C   UNL A   1      41.673  22.594  28.453  1.00  0.00     0.010 A 
ATOM     35  C   UNL A   1      42.206  23.547  27.572  1.00  0.00    -0.014 A 
BRANCH  35  36
ATOM     36  C   UNL A   1      42.551  24.898  28.079  1.00  0.00     0.031 A 
ATOM     37  C   UNL A   1      43.961  25.218  28.491  1.00  0.00     0.074 A 
ATOM     38  C   UNL A   1      41.576  25.810  28.254  1.00  0.00     0.049 A 
ATOM     39  N   UNL A   1      44.437  26.310  29.034  1.00  0.00    -0.248 NA
ATOM     40  C   UNL A   1      44.962  24.158  28.299  1.00  0.00     0.031 C 
ATOM     41  C   UNL A   1      40.158  25.598  27.958  1.00  0.00     0.029 A 
ATOM     42  N   UNL A   1      41.627  27.091  28.744  1.00  0.00    -0.354 N 
ATOM     43  C   UNL A   1      45.781  26.057  29.273  1.00  0.00     0.074 A 
ATOM     44  C   UNL A   1      46.035  24.694  28.859  1.00  0.00     0.031 C 
ATOM     45  C   UNL A   1      39.475  26.713  28.264  1.00  0.00     0.029 A 
ATOM     46  C   UNL A   1      40.399  27.704  28.808  1.00  0.00     0.049 A 
ATOM     47  H   UNL A   1      42.463  27.528  29.024  1.00  0.00     0.167 HD
ATOM     48  C   UNL A   1      46.724  26.892  29.772  1.00  0.00     0.037 A 
ATOM     49  C   UNL A   1      40.053  28.922  29.261  1.00  0.00     0.037 A 
ATOM     50  C   UNL A   1      46.475  28.258  30.152  1.00  0.00     0.049 A 
ATOM     51  C   UNL A   1      41.119  29.845  29.780  1.00  0.00     0.074 A 
ATOM     52  C   UNL A   1      47.380  29.215  30.578  1.00  0.00     0.029 A 
ATOM     53  N   UNL A   1      45.225  28.861  30.157  1.00  0.00    -0.354 N 
ATOM     54  N   UNL A   1      42.405  29.627  29.915  1.00  0.00    -0.248 NA
ATOM     55  C   UNL A   1      40.689  31.186  30.199  1.00  0.00     0.031 C 
ATOM     56  C   UNL A   1      46.671  30.381  30.885  1.00  0.00     0.029 A 
ATOM     57  C   UNL A   1      45.330  30.167  30.606  1.00  0.00     0.049 A 
ATOM     58  H   UNL A   1      44.387  28.423  29.882  1.00  0.00     0.167 HD
ATOM     59  C   UNL A   1      42.941  30.805  30.417  1.00  0.00     0.074 A 
ATOM     60  C   UNL A   1      41.842  31.740  30.548  1.00  0.00     0.031 C 
ATOM     61  C   UNL A   1      44.227  31.085  30.739  1.00  0.00     0.037 A 
BRANCH  48  62
ATOM     62  C   UNL A   1      48.111  26.342  29.942  1.00  0.00     0.057 A 
ATOM     63  C   UNL A   1      49.081  26.449  28.936  1.00  0.00     0.134 A 
ATOM     64  C   UNL A   1      48.484  25.702  31.132  1.00  0.00     0.134 A 
ATOM     65  F   UNL A   1      48.787  27.039  27.768  1.00  0.00    -0.206 F 
ATOM     66  C   UNL A   1      50.359  25.907  29.092  1.00  0.00     0.040 A 
ATOM     67  C   UNL A   1      49.767  25.182  31.311  1.00  0.00     0.040 A 
ATOM     68  F   UNL A   1      47.608  25.571  32.139  1.00  0.00    -0.206 F 
ATOM     69  C   UNL A   1      50.706  25.275  30.284  1.00  0.00     0.006 A 
ENDBRANCH  48  62
BRANCH  49  70
ATOM     70  C   UNL A   1      38.630  29.338  29.223  1.00  0.00     0.057 A 
ATOM     71  C   UNL A   1      37.822  29.255  30.362  1.00  0.00     0.134 A 
ATOM     72  C   UNL A   1      38.056  29.863  28.059  1.00  0.00     0.134 A 
ATOM     73  F   UNL A   1      38.313  28.747  31.502  1.00  0.00    -0.206 F 
ATOM     74  C   UNL A   1      36.490  29.672  30.344  1.00  0.00     0.040 A 
ATOM     75  C   UNL A   1      36.732  30.304  28.033  1.00  0.00     0.040 A 
ATOM     76  F   UNL A   1      38.782  29.978  26.937  1.00  0.00    -0.206 F 
ATOM     77  C   UNL A   1      35.944  30.206  29.178  1.00  0.00     0.006 A 
ENDBRANCH  49  70
BRANCH  61  78
ATOM     78  C   UNL A   1      44.521  32.464  31.251  1.00  0.00     0.057 A 
ATOM     79  C   UNL A   1      44.509  32.761  32.620  1.00  0.00     0.134 A 
ATOM     80  C   UNL A   1      44.857  33.497  30.368  1.00  0.00     0.134 A 
ATOM     81  F   UNL A   1      44.181  31.820  33.517  1.00  0.00    -0.206 F 
ATOM     82  C   UNL A   1      44.803  34.042  33.090  1.00  0.00     0.040 A 
ATOM     83  C   UNL A   1      45.178  34.776  30.827  1.00  0.00     0.040 A 
ATOM     84  F   UNL A   1      44.895  33.277  29.045  1.00  0.00    -0.206 F 
ATOM     85  C   UNL A   1      45.146  35.052  32.192  1.00  0.00     0.006 A 
ENDBRANCH  61  78
ENDBRANCH  35  36
ENDBRANCH  27  30
ENDBRANCH  25  26
ENDBRANCH  24  25
ENDBRANCH  23  24
ENDBRANCH   3  23
TORSDOF 17
ENDMDL
MODEL 2
REMARK VINA RESULT:     -10.3      1.825      2.456
REMARK SMILES CCN(C(=O)C[NH2+][C@@](C)(C(=O)NCCCNC(=O)c1ccc(-c2c3nc(c(-c4c(F)cccc4F)c4ccc([nH]4)c(-c4c(F)cccc4F)c4nc(c(-c5c(F)cccc5F)c5ccc2[nH]5)C=C4)C=C3)cc1)C(F)(F)F)C1CC1
REMARK SMILES IDX 10 1 11 2 12 3 8 5 9 6 7 7 6 10 4 11 5 12 3 13 2 14 1 15
REMARK SMILES IDX 77 16 78 17 79 18 73 19 74 20 75 21 76 22 13 23 14 24 15 25
REMARK SMILES IDX 16 26 17 27 18 29 19 30 20 31 72 32 21 33 71 34 22 35 23 36
REMARK SMILES IDX 24 37 65 38 25 39 70 40 64 41 66 42 26 43 69 44 63 45 62 46
REMARK SMILES IDX 27 48 53 49 36 50 52 51 37 52 40 53 51 54 67 55 38 56 39 57
REMARK SMILES IDX 50 59 68 60 41 61 28 62 29 63 34 64 30 65 31 66 33 67 35 68
REMARK SMILES IDX 32 69 54 70 55 71 60 72 56 73 57 74 59 75 61 76 58 77 42 78
REMARK SMILES IDX 43 79 48 80 44 81 45 82 47 83 49 84 46 85
REMARK H PARENT 12 4 7 8 7 9 16 28 66 47 40 58
REMARK Flexibility Score: inf
ROOT
ATOM      1  C   UNL A   1      33.935  19.988  25.066  1.00  0.00     0.290 C 
ATOM      2  O   UNL A   1      33.145  19.041  25.123  1.00  0.00    -0.267 OA
ATOM      3  N   UNL A   1      35.252  19.627  25.001  1.00  0.00    -0.350 N 
ATOM      4  H   UNL A   1      35.387  18.654  24.944  1.00  0.00     0.163 HD
ENDROOT
BRANCH   1   5
ATOM      5  C   UNL A   1      33.471  21.468  25.063  1.00  0.00     0.268 C 
ATOM      6  C   UNL A   1      31.931  21.525  25.009  1.00  0.00     0.101 C 
BRANCH   5   7
ATOM      7  N   UNL A   1      34.119  22.138  23.881  1.00  0.00    -0.318 N 
ATOM      8  H   UNL A   1      34.613  22.965  24.217  1.00  0.00     0.347 HD
ATOM      9  H   UNL A   1      34.735  21.443  23.461  1.00  0.00     0.347 HD
BRANCH   7  10
ATOM     10  C   UNL A   1      33.190  22.560  22.823  1.00  0.00     0.363 C 
BRANCH  10  11
ATOM     11  C   UNL A   1      33.247  24.093  22.687  1.00  0.00     0.277 C 
ATOM     12  O   UNL A   1      33.566  24.558  21.588  1.00  0.00    -0.268 OA
BRANCH  11  13
ATOM     13  N   UNL A   1      32.957  24.871  23.818  1.00  0.00    -0.335 N 
BRANCH  13  14
ATOM     14  C   UNL A   1      33.996  25.562  24.606  1.00  0.00     0.116 C 
ATOM     15  C   UNL A   1      33.452  26.085  25.930  1.00  0.00     0.027 C 
ENDBRANCH  13  14
BRANCH  13  16
ATOM     16  C   UNL A   1      31.592  25.122  24.268  1.00  0.00     0.085 C 
ATOM     17  C   UNL A   1      30.670  26.125  23.630  1.00  0.00     0.027 C 
ATOM     18  C   UNL A   1      30.370  24.653  23.528  1.00  0.00     0.027 C 
ENDBRANCH  13  16
ENDBRANCH  11  13
ENDBRANCH  10  11
ENDBRANCH   7  10
ENDBRANCH   5   7
BRANCH   5  19
ATOM     19  C   UNL A   1      33.891  22.035  26.458  1.00  0.00     0.453 C 
ATOM     20  F   UNL A   1      35.064  22.707  26.424  1.00  0.00    -0.164 F 
ATOM     21  F   UNL A   1      32.958  22.924  26.903  1.00  0.00    -0.164 F 
ATOM     22  F   UNL A   1      33.967  21.080  27.413  1.00  0.00    -0.164 F 
ENDBRANCH   5  19
ENDBRANCH   1   5
BRANCH   3  23
ATOM     23  C   UNL A   1      36.496  20.379  24.998  1.00  0.00     0.118 C 
BRANCH  23  24
ATOM     24  C   UNL A   1      37.717  19.465  25.028  1.00  0.00     0.042 C 
BRANCH  24  25
ATOM     25  C   UNL A   1      38.980  20.135  25.557  1.00  0.00     0.118 C 
BRANCH  25  26
ATOM     26  N   UNL A   1      40.065  19.187  25.779  1.00  0.00    -0.352 N 
ATOM     27  C   UNL A   1      41.390  19.400  26.061  1.00  0.00     0.251 C 
ATOM     28  H   UNL A   1      39.803  18.240  25.717  1.00  0.00     0.163 HD
ATOM     29  O   UNL A   1      42.177  18.455  26.011  1.00  0.00    -0.269 OA
BRANCH  27  30
ATOM     30  C   UNL A   1      41.885  20.748  26.410  1.00  0.00     0.039 A 
ATOM     31  C   UNL A   1      42.241  21.624  25.380  1.00  0.00     0.014 A 
ATOM     32  C   UNL A   1      42.037  21.140  27.742  1.00  0.00     0.014 A 
ATOM     33  C   UNL A   1      42.683  22.913  25.686  1.00  0.00     0.010 A 
ATOM     34  C   UNL A   1      42.398  22.449  28.044  1.00  0.00     0.010 A 
ATOM     35  C   UNL A   1      42.732  23.348  27.020  1.00  0.00    -0.014 A 
BRANCH  35  36
ATOM     36  C   UNL A   1      43.119  24.738  27.365  1.00  0.00     0.031 A 
ATOM     37  C   UNL A   1      44.564  25.154  27.333  1.00  0.00     0.074 A 
ATOM     38  C   UNL A   1      42.181  25.601  27.795  1.00  0.00     0.049 A 
ATOM     39  N   UNL A   1      45.104  26.294  27.680  1.00  0.00    -0.248 NA
ATOM     40  C   UNL A   1      45.532  24.143  26.882  1.00  0.00     0.031 C 
ATOM     41  C   UNL A   1      40.755  25.298  27.938  1.00  0.00     0.029 A 
ATOM     42  N   UNL A   1      42.287  26.904  28.213  1.00  0.00    -0.354 N 
ATOM     43  C   UNL A   1      46.473  26.128  27.518  1.00  0.00     0.074 A 
ATOM     44  C   UNL A   1      46.684  24.763  27.086  1.00  0.00     0.031 C 
ATOM     45  C   UNL A   1      40.119  26.386  28.401  1.00  0.00     0.029 A 
ATOM     46  C   UNL A   1      41.094  27.450  28.620  1.00  0.00     0.049 A 
ATOM     47  H   UNL A   1      43.138  27.399  28.221  1.00  0.00     0.167 HD
ATOM     48  C   UNL A   1      47.463  27.036  27.693  1.00  0.00     0.037 A 
ATOM     49  C   UNL A   1      40.817  28.667  29.121  1.00  0.00     0.037 A 
ATOM     50  C   UNL A   1      47.246  28.402  28.092  1.00  0.00     0.049 A 
ATOM     51  C   UNL A   1      41.923  29.670  29.276  1.00  0.00     0.074 A 
ATOM     52  C   UNL A   1      48.170  29.426  28.205  1.00  0.00     0.029 A 
ATOM     53  N   UNL A   1      46.016  28.934  28.450  1.00  0.00    -0.354 N 
ATOM     54  N   UNL A   1      43.204  29.530  29.031  1.00  0.00    -0.248 NA
ATOM     55  C   UNL A   1      41.547  31.004  29.767  1.00  0.00     0.031 C 
ATOM     56  C   UNL A   1      47.507  30.564  28.676  1.00  0.00     0.029 A 
ATOM     57  C   UNL A   1      46.161  30.263  28.812  1.00  0.00     0.049 A 
ATOM     58  H   UNL A   1      45.165  28.439  28.447  1.00  0.00     0.167 HD
ATOM     59  C   UNL A   1      43.784  30.758  29.319  1.00  0.00     0.074 A 
ATOM     60  C   UNL A   1      42.712  31.637  29.744  1.00  0.00     0.031 C 
ATOM     61  C   UNL A   1      45.086  31.124  29.239  1.00  0.00     0.037 A 
BRANCH  48  62
ATOM     62  C   UNL A   1      48.873  26.571  27.461  1.00  0.00     0.057 A 
ATOM     63  C   UNL A   1      49.451  26.563  26.184  1.00  0.00     0.134 A 
ATOM     64  C   UNL A   1      49.665  26.133  28.530  1.00  0.00     0.134 A 
ATOM     65  F   UNL A   1      48.744  26.960  25.115  1.00  0.00    -0.206 F 
ATOM     66  C   UNL A   1      50.752  26.101  25.974  1.00  0.00     0.040 A 
ATOM     67  C   UNL A   1      50.976  25.697  28.337  1.00  0.00     0.040 A 
ATOM     68  F   UNL A   1      49.178  26.122  29.780  1.00  0.00    -0.206 F 
ATOM     69  C   UNL A   1      51.520  25.669  27.053  1.00  0.00     0.006 A 
ENDBRANCH  48  62
BRANCH  49  70
ATOM     70  C   UNL A   1      39.420  29.002  29.494  1.00  0.00     0.057 A 
ATOM     71  C   UNL A   1      38.517  29.489  28.543  1.00  0.00     0.134 A 
ATOM     72  C   UNL A   1      38.947  28.806  30.797  1.00  0.00     0.134 A 
ATOM     73  F   UNL A   1      38.917  29.711  27.283  1.00  0.00    -0.206 F 
ATOM     74  C   UNL A   1      37.192  29.778  28.877  1.00  0.00     0.040 A 
ATOM     75  C   UNL A   1      37.620  29.070  31.138  1.00  0.00     0.040 A 
ATOM     76  F   UNL A   1      39.762  28.331  31.750  1.00  0.00    -0.206 F 
ATOM     77  C   UNL A   1      36.739  29.561  30.176  1.00  0.00     0.006 A 
ENDBRANCH  49  70
BRANCH  61  78
ATOM     78  C   UNL A   1      45.425  32.539  29.603  1.00  0.00     0.057 A 
ATOM     79  C   UNL A   1      45.829  32.892  30.897  1.00  0.00     0.134 A 
ATOM     80  C   UNL A   1      45.384  33.554  28.639  1.00  0.00     0.134 A 
ATOM     81  F   UNL A   1      45.875  31.969  31.870  1.00  0.00    -0.206 F 
ATOM     82  C   UNL A   1      46.162  34.208  31.224  1.00  0.00     0.040 A 
ATOM     83  C   UNL A   1      45.739  34.868  28.946  1.00  0.00     0.040 A 
ATOM     84  F   UNL A   1      45.014  33.282  27.379  1.00  0.00    -0.206 F 
ATOM     85  C   UNL A   1      46.124  35.198  30.244  1.00  0.00     0.006 A 
ENDBRANCH  61  78
ENDBRANCH  35  36
ENDBRANCH  27  30
ENDBRANCH  25  26
ENDBRANCH  24  25
ENDBRANCH  23  24
ENDBRANCH   3  23
TORSDOF 17
ENDMDL
MODEL 3
REMARK VINA RESULT:     -10.2      1.592      6.577
REMARK SMILES CCN(C(=O)C[NH2+][C@@](C)(C(=O)NCCCNC(=O)c1ccc(-c2c3nc(c(-c4c(F)cccc4F)c4ccc([nH]4)c(-c4c(F)cccc4F)c4nc(c(-c5c(F)cccc5F)c5ccc2[nH]5)C=C4)C=C3)cc1)C(F)(F)F)C1CC1
REMARK SMILES IDX 10 1 11 2 12 3 8 5 9 6 7 7 6 10 4 11 5 12 3 13 2 14 1 15
REMARK SMILES IDX 77 16 78 17 79 18 73 19 74 20 75 21 76 22 13 23 14 24 15 25
REMARK SMILES IDX 16 26 17 27 18 29 19 30 20 31 72 32 21 33 71 34 22 35 23 36
REMARK SMILES IDX 24 37 65 38 25 39 70 40 64 41 66 42 26 43 69 44 63 45 62 46
REMARK SMILES IDX 27 48 53 49 36 50 52 51 37 52 40 53 51 54 67 55 38 56 39 57
REMARK SMILES IDX 50 59 68 60 41 61 28 62 29 63 34 64 30 65 31 66 33 67 35 68
REMARK SMILES IDX 32 69 54 70 55 71 60 72 56 73 57 74 59 75 61 76 58 77 42 78
REMARK SMILES IDX 43 79 48 80 44 81 45 82 47 83 49 84 46 85
REMARK H PARENT 12 4 7 8 7 9 16 28 66 47 40 58
REMARK Flexibility Score: inf
ROOT
ATOM      1  C   UNL A   1      33.959  20.211  25.079  1.00  0.00     0.290 C 
ATOM      2  O   UNL A   1      33.187  19.249  25.065  1.00  0.00    -0.267 OA
ATOM      3  N   UNL A   1      35.282  19.881  24.984  1.00  0.00    -0.350 N 
ATOM      4  H   UNL A   1      35.434  18.917  24.853  1.00  0.00     0.163 HD
ENDROOT
BRANCH   1   5
ATOM      5  C   UNL A   1      33.469  21.679  25.191  1.00  0.00     0.268 C 
ATOM      6  C   UNL A   1      31.943  21.731  24.975  1.00  0.00     0.101 C 
BRANCH   5   7
ATOM      7  N   UNL A   1      34.227  22.483  24.169  1.00  0.00    -0.318 N 
ATOM      8  H   UNL A   1      35.224  22.370  24.353  1.00  0.00     0.347 HD
ATOM      9  H   UNL A   1      33.943  22.127  23.256  1.00  0.00     0.347 HD
BRANCH   7  10
ATOM     10  C   UNL A   1      33.924  23.921  24.163  1.00  0.00     0.363 C 
BRANCH  10  11
ATOM     11  C   UNL A   1      33.376  24.313  22.779  1.00  0.00     0.277 C 
ATOM     12  O   UNL A   1      33.559  23.524  21.846  1.00  0.00    -0.268 OA
BRANCH  11  13
ATOM     13  N   UNL A   1      32.721  25.547  22.649  1.00  0.00    -0.335 N 
BRANCH  13  14
ATOM     14  C   UNL A   1      33.379  26.753  22.108  1.00  0.00     0.116 C 
ATOM     15  C   UNL A   1      33.451  27.873  23.138  1.00  0.00     0.027 C 
ENDBRANCH  13  14
BRANCH  13  16
ATOM     16  C   UNL A   1      31.310  25.725  22.972  1.00  0.00     0.085 C 
ATOM     17  C   UNL A   1      30.385  24.596  23.338  1.00  0.00     0.027 C 
ATOM     18  C   UNL A   1      30.755  25.632  24.367  1.00  0.00     0.027 C 
ENDBRANCH  13  16
ENDBRANCH  11  13
ENDBRANCH  10  11
ENDBRANCH   7  10
ENDBRANCH   5   7
BRANCH   5  19
ATOM     19  C   UNL A   1      33.725  22.087  26.677  1.00  0.00     0.453 C 
ATOM     20  F   UNL A   1      33.776  21.027  27.516  1.00  0.00    -0.164 F 
ATOM     21  F   UNL A   1      34.929  22.717  26.791  1.00  0.00    -0.164 F 
ATOM     22  F   UNL A   1      32.810  22.966  27.146  1.00  0.00    -0.164 F 
ENDBRANCH   5  19
ENDBRANCH   1   5
BRANCH   3  23
ATOM     23  C   UNL A   1      36.512  20.652  25.037  1.00  0.00     0.118 C 
BRANCH  23  24
ATOM     24  C   UNL A   1      37.749  19.764  24.952  1.00  0.00     0.042 C 
BRANCH  24  25
ATOM     25  C   UNL A   1      38.955  20.306  25.711  1.00  0.00     0.118 C 
BRANCH  25  26
ATOM     26  N   UNL A   1      40.040  19.337  25.806  1.00  0.00    -0.352 N 
ATOM     27  C   UNL A   1      41.368  19.511  26.096  1.00  0.00     0.251 C 
ATOM     28  H   UNL A   1      39.775  18.404  25.631  1.00  0.00     0.163 HD
ATOM     29  O   UNL A   1      42.152  18.578  25.924  1.00  0.00    -0.269 OA
BRANCH  27  30
ATOM     30  C   UNL A   1      41.871  20.806  26.601  1.00  0.00     0.039 A 
ATOM     31  C   UNL A   1      42.300  21.768  25.681  1.00  0.00     0.014 A 
ATOM     32  C   UNL A   1      41.958  21.064  27.971  1.00  0.00     0.014 A 
ATOM     33  C   UNL A   1      42.751  23.010  26.134  1.00  0.00     0.010 A 
ATOM     34  C   UNL A   1      42.329  22.328  28.418  1.00  0.00     0.010 A 
ATOM     35  C   UNL A   1      42.736  23.312  27.505  1.00  0.00    -0.014 A 
BRANCH  35  36
ATOM     36  C   UNL A   1      43.133  24.652  28.005  1.00  0.00     0.031 A 
ATOM     37  C   UNL A   1      42.090  25.696  28.291  1.00  0.00     0.074 A 
ATOM     38  C   UNL A   1      44.439  24.959  28.116  1.00  0.00     0.049 A 
ATOM     39  N   UNL A   1      42.245  26.944  28.652  1.00  0.00    -0.248 NA
ATOM     40  C   UNL A   1      40.686  25.293  28.114  1.00  0.00     0.031 C 
ATOM     41  C   UNL A   1      45.549  24.056  27.803  1.00  0.00     0.029 A 
ATOM     42  N   UNL A   1      45.055  26.123  28.502  1.00  0.00    -0.354 N 
ATOM     43  C   UNL A   1      40.966  27.481  28.717  1.00  0.00     0.074 A 
ATOM     44  C   UNL A   1      40.050  26.436  28.314  1.00  0.00     0.031 C 
ATOM     45  C   UNL A   1      46.709  24.697  28.018  1.00  0.00     0.029 A 
ATOM     46  C   UNL A   1      46.426  26.062  28.451  1.00  0.00     0.049 A 
ATOM     47  H   UNL A   1      44.561  26.925  28.788  1.00  0.00     0.167 HD
ATOM     48  C   UNL A   1      40.588  28.724  29.098  1.00  0.00     0.037 A 
ATOM     49  C   UNL A   1      47.352  27.002  28.712  1.00  0.00     0.037 A 
ATOM     50  C   UNL A   1      41.500  29.750  29.530  1.00  0.00     0.049 A 
ATOM     51  C   UNL A   1      46.913  28.364  29.166  1.00  0.00     0.074 A 
ATOM     52  C   UNL A   1      41.212  31.009  30.027  1.00  0.00     0.029 A 
ATOM     53  N   UNL A   1      42.883  29.636  29.510  1.00  0.00    -0.354 N 
ATOM     54  N   UNL A   1      45.696  28.831  29.313  1.00  0.00    -0.248 NA
ATOM     55  C   UNL A   1      47.971  29.327  29.500  1.00  0.00     0.031 C 
ATOM     56  C   UNL A   1      42.420  31.674  30.263  1.00  0.00     0.029 A 
ATOM     57  C   UNL A   1      43.462  30.812  29.958  1.00  0.00     0.049 A 
ATOM     58  H   UNL A   1      43.379  28.837  29.220  1.00  0.00     0.167 HD
ATOM     59  C   UNL A   1      45.841  30.133  29.773  1.00  0.00     0.074 A 
ATOM     60  C   UNL A   1      47.264  30.377  29.895  1.00  0.00     0.031 C 
ATOM     61  C   UNL A   1      44.881  31.044  30.067  1.00  0.00     0.037 A 
BRANCH  48  62
ATOM     62  C   UNL A   1      39.120  29.041  29.056  1.00  0.00     0.057 A 
ATOM     63  C   UNL A   1      38.485  29.465  27.880  1.00  0.00     0.134 A 
ATOM     64  C   UNL A   1      38.329  28.912  30.205  1.00  0.00     0.134 A 
ATOM     65  F   UNL A   1      39.187  29.619  26.747  1.00  0.00    -0.206 F 
ATOM     66  C   UNL A   1      37.126  29.786  27.859  1.00  0.00     0.040 A 
ATOM     67  C   UNL A   1      36.964  29.203  30.189  1.00  0.00     0.040 A 
ATOM     68  F   UNL A   1      38.870  28.504  31.363  1.00  0.00    -0.206 F 
ATOM     69  C   UNL A   1      36.361  29.652  29.014  1.00  0.00     0.006 A 
ENDBRANCH  48  62
BRANCH  49  70
ATOM     70  C   UNL A   1      48.791  26.669  28.566  1.00  0.00     0.057 A 
ATOM     71  C   UNL A   1      49.479  26.945  27.380  1.00  0.00     0.134 A 
ATOM     72  C   UNL A   1      49.518  26.103  29.621  1.00  0.00     0.134 A 
ATOM     73  F   UNL A   1      48.832  27.472  26.331  1.00  0.00    -0.206 F 
ATOM     74  C   UNL A   1      50.839  26.663  27.244  1.00  0.00     0.040 A 
ATOM     75  C   UNL A   1      50.883  25.837  29.505  1.00  0.00     0.040 A 
ATOM     76  F   UNL A   1      48.916  25.826  30.787  1.00  0.00    -0.206 F 
ATOM     77  C   UNL A   1      51.547  26.115  28.312  1.00  0.00     0.006 A 
ENDBRANCH  49  70
BRANCH  61  78
ATOM     78  C   UNL A   1      45.336  32.384  30.565  1.00  0.00     0.057 A 
ATOM     79  C   UNL A   1      45.560  33.457  29.694  1.00  0.00     0.134 A 
ATOM     80  C   UNL A   1      45.515  32.613  31.935  1.00  0.00     0.134 A 
ATOM     81  F   UNL A   1      45.419  33.299  28.369  1.00  0.00    -0.206 F 
ATOM     82  C   UNL A   1      45.964  34.707  30.166  1.00  0.00     0.040 A 
ATOM     83  C   UNL A   1      45.894  33.865  32.422  1.00  0.00     0.040 A 
ATOM     84  F   UNL A   1      45.310  31.629  32.823  1.00  0.00    -0.206 F 
ATOM     85  C   UNL A   1      46.124  34.915  31.535  1.00  0.00     0.006 A 
ENDBRANCH  61  78
ENDBRANCH  35  36
ENDBRANCH  27  30
ENDBRANCH  25  26
ENDBRANCH  24  25
ENDBRANCH  23  24
ENDBRANCH   3  23
TORSDOF 17
ENDMDL
