MODEL 1
REMARK VINA RESULT:     -13.5      0.000      0.000
REMARK SMILES Cc1cnn(C2(C(=O)NCCCNC(=O)c3ccc(-c4c5nc(c(-c6c(F)cccc6F)c6ccc([nH]6)c(-c6c(F)cccc6F)c6nc(c(-c7c(F)cccc7F)c7ccc4[nH]7)C=C6)C=C5)cc3)CCN(C(=O)c3cc4ccccc4[nH]3)CC2)c1
REMARK SMILES IDX 11 1 10 2 9 3 7 4 8 5 6 7 70 8 85 9 71 10 84 11 72 12 73 13
REMARK SMILES IDX 74 14 5 15 1 16 2 17 3 18 86 19 4 20 75 21 76 22 83 23 77 24
REMARK SMILES IDX 82 25 78 27 81 28 79 29 80 30 12 31 13 32 14 33 15 35 16 36
REMARK SMILES IDX 17 37 69 38 18 39 68 40 19 41 20 42 21 43 62 44 22 45 67 46
REMARK SMILES IDX 61 47 63 48 23 49 66 50 60 51 59 52 24 54 50 55 33 56 49 57
REMARK SMILES IDX 34 58 37 59 48 60 64 61 35 62 36 63 47 65 65 66 38 67 25 68
REMARK SMILES IDX 26 69 31 70 27 71 28 72 30 73 32 74 29 75 51 76 52 77 57 78
REMARK SMILES IDX 53 79 54 80 56 81 58 82 55 83 39 84 40 85 45 86 41 87 42 88
REMARK SMILES IDX 44 89 46 90 43 91
REMARK H PARENT 9 6 83 26 13 34 63 53 37 64
REMARK Flexibility Score: inf
ROOT
ATOM      1  C   UNL A   1      31.607  31.631  26.621  1.00  0.00     0.042 C 
ENDROOT
BRANCH   1   2
ATOM      2  C   UNL A   1      31.960  30.350  25.863  1.00  0.00     0.117 C 
BRANCH   2   3
ATOM      3  N   UNL A   1      31.703  29.146  26.641  1.00  0.00    -0.354 N 
ATOM      4  C   UNL A   1      31.437  27.841  26.302  1.00  0.00     0.248 C 
ATOM      5  O   UNL A   1      31.083  27.166  27.271  1.00  0.00    -0.272 OA
ATOM      6  H   UNL A   1      31.722  29.299  27.613  1.00  0.00     0.163 HD
BRANCH   4   7
ATOM      7  C   UNL A   1      31.564  27.336  24.821  1.00  0.00     0.144 C 
ATOM      8  C   UNL A   1      33.078  27.402  24.469  1.00  0.00     0.062 C 
ATOM      9  C   UNL A   1      30.910  25.927  24.771  1.00  0.00     0.062 C 
ATOM     10  C   UNL A   1      33.581  26.305  23.545  1.00  0.00     0.123 C 
ATOM     11  C   UNL A   1      31.588  24.914  23.856  1.00  0.00     0.123 C 
ATOM     12  N   UNL A   1      33.041  25.005  23.905  1.00  0.00    -0.337 N 
ATOM     13  C   UNL A   1      33.925  23.991  24.303  1.00  0.00     0.270 C 
ATOM     14  O   UNL A   1      35.077  24.251  24.634  1.00  0.00    -0.267 OA
BRANCH   7  15
ATOM     15  N   UNL A   1      30.832  28.182  23.825  1.00  0.00    -0.257 N 
ATOM     16  C   UNL A   1      27.927  29.694  22.172  1.00  0.00     0.048 C 
ATOM     17  C   UNL A   1      29.227  29.205  22.679  1.00  0.00    -0.013 A 
ATOM     18  C   UNL A   1      30.507  29.458  22.156  1.00  0.00     0.138 A 
ATOM     19  C   UNL A   1      29.472  28.408  23.778  1.00  0.00     0.113 A 
ATOM     20  N   UNL A   1      31.468  28.879  22.869  1.00  0.00    -0.180 NA
ENDBRANCH   7  15
BRANCH  13  21
ATOM     21  C   UNL A   1      33.429  22.631  24.377  1.00  0.00     0.105 A 
ATOM     22  C   UNL A   1      33.257  21.773  25.449  1.00  0.00     0.042 A 
ATOM     23  N   UNL A   1      32.946  21.957  23.273  1.00  0.00    -0.351 N 
ATOM     24  C   UNL A   1      32.948  20.487  24.941  1.00  0.00     0.000 A 
ATOM     25  C   UNL A   1      32.715  20.635  23.576  1.00  0.00     0.046 A 
ATOM     26  H   UNL A   1      32.789  22.366  22.391  1.00  0.00     0.167 HD
ATOM     27  C   UNL A   1      32.858  19.209  25.519  1.00  0.00     0.010 A 
ATOM     28  C   UNL A   1      32.328  19.564  22.761  1.00  0.00     0.026 A 
ATOM     29  C   UNL A   1      32.534  18.118  24.708  1.00  0.00     0.001 A 
ATOM     30  C   UNL A   1      32.253  18.298  23.356  1.00  0.00     0.002 A 
ENDBRANCH  13  21
ENDBRANCH   4   7
ENDBRANCH   2   3
ENDBRANCH   1   2
BRANCH   1  31
ATOM     31  C   UNL A   1      32.818  32.294  27.247  1.00  0.00     0.118 C 
BRANCH  31  32
ATOM     32  N   UNL A   1      32.549  33.637  27.760  1.00  0.00    -0.352 N 
ATOM     33  C   UNL A   1      33.168  34.270  28.826  1.00  0.00     0.251 C 
ATOM     34  H   UNL A   1      31.850  34.151  27.294  1.00  0.00     0.163 HD
ATOM     35  O   UNL A   1      32.627  35.205  29.399  1.00  0.00    -0.269 OA
BRANCH  33  36
ATOM     36  C   UNL A   1      34.509  33.804  29.237  1.00  0.00     0.039 A 
ATOM     37  C   UNL A   1      34.697  32.911  30.293  1.00  0.00     0.014 A 
ATOM     38  C   UNL A   1      35.601  34.266  28.506  1.00  0.00     0.014 A 
ATOM     39  C   UNL A   1      35.995  32.479  30.572  1.00  0.00     0.010 A 
ATOM     40  C   UNL A   1      36.823  33.661  28.625  1.00  0.00     0.010 A 
ATOM     41  C   UNL A   1      37.058  32.852  29.720  1.00  0.00    -0.014 A 
BRANCH  41  42
ATOM     42  C   UNL A   1      38.371  32.213  29.792  1.00  0.00     0.031 A 
ATOM     43  C   UNL A   1      38.272  30.813  29.313  1.00  0.00     0.074 A 
ATOM     44  C   UNL A   1      39.538  32.851  30.064  1.00  0.00     0.049 A 
ATOM     45  N   UNL A   1      38.172  29.768  30.062  1.00  0.00    -0.248 NA
ATOM     46  C   UNL A   1      37.949  30.549  27.898  1.00  0.00     0.031 C 
ATOM     47  C   UNL A   1      39.751  34.286  30.292  1.00  0.00     0.029 A 
ATOM     48  N   UNL A   1      40.818  32.357  30.141  1.00  0.00    -0.354 N 
ATOM     49  C   UNL A   1      38.131  28.693  29.186  1.00  0.00     0.074 A 
ATOM     50  C   UNL A   1      37.714  29.234  27.924  1.00  0.00     0.031 C 
ATOM     51  C   UNL A   1      41.075  34.576  30.257  1.00  0.00     0.029 A 
ATOM     52  C   UNL A   1      41.827  33.340  30.162  1.00  0.00     0.049 A 
ATOM     53  H   UNL A   1      41.015  31.393  30.177  1.00  0.00     0.167 HD
ATOM     54  C   UNL A   1      38.850  27.578  29.493  1.00  0.00     0.037 A 
ATOM     55  C   UNL A   1      43.177  33.139  30.132  1.00  0.00     0.037 A 
ATOM     56  C   UNL A   1      39.228  27.620  30.894  1.00  0.00     0.049 A 
ATOM     57  C   UNL A   1      43.403  31.756  30.598  1.00  0.00     0.074 A 
ATOM     58  C   UNL A   1      38.580  27.639  32.111  1.00  0.00     0.029 A 
ATOM     59  N   UNL A   1      40.467  28.166  31.093  1.00  0.00    -0.354 N 
ATOM     60  N   UNL A   1      43.188  31.368  31.821  1.00  0.00    -0.248 NA
ATOM     61  C   UNL A   1      43.436  30.706  29.594  1.00  0.00     0.031 C 
ATOM     62  C   UNL A   1      39.390  28.447  32.971  1.00  0.00     0.029 A 
ATOM     63  C   UNL A   1      40.553  28.806  32.291  1.00  0.00     0.049 A 
ATOM     64  H   UNL A   1      41.207  28.103  30.447  1.00  0.00     0.167 HD
ATOM     65  C   UNL A   1      42.575  30.137  31.677  1.00  0.00     0.074 A 
ATOM     66  C   UNL A   1      42.884  29.721  30.306  1.00  0.00     0.031 C 
ATOM     67  C   UNL A   1      41.611  29.753  32.568  1.00  0.00     0.037 A 
BRANCH  54  68
ATOM     68  C   UNL A   1      39.721  26.829  28.487  1.00  0.00     0.057 A 
ATOM     69  C   UNL A   1      40.609  27.581  27.692  1.00  0.00     0.134 A 
ATOM     70  C   UNL A   1      39.501  25.511  28.030  1.00  0.00     0.134 A 
ATOM     71  F   UNL A   1      40.895  28.856  27.998  1.00  0.00    -0.206 F 
ATOM     72  C   UNL A   1      41.158  27.091  26.498  1.00  0.00     0.040 A 
ATOM     73  C   UNL A   1      40.079  24.999  26.863  1.00  0.00     0.040 A 
ATOM     74  F   UNL A   1      38.648  24.666  28.614  1.00  0.00    -0.206 F 
ATOM     75  C   UNL A   1      40.887  25.798  26.076  1.00  0.00     0.006 A 
ENDBRANCH  54  68
BRANCH  55  76
ATOM     76  C   UNL A   1      44.287  33.901  29.487  1.00  0.00     0.057 A 
ATOM     77  C   UNL A   1      44.436  33.951  28.085  1.00  0.00     0.134 A 
ATOM     78  C   UNL A   1      45.009  34.867  30.203  1.00  0.00     0.134 A 
ATOM     79  F   UNL A   1      43.759  33.103  27.295  1.00  0.00    -0.206 F 
ATOM     80  C   UNL A   1      45.216  34.925  27.439  1.00  0.00     0.040 A 
ATOM     81  C   UNL A   1      45.792  35.845  29.570  1.00  0.00     0.040 A 
ATOM     82  F   UNL A   1      44.899  34.957  31.535  1.00  0.00    -0.206 F 
ATOM     83  C   UNL A   1      45.885  35.889  28.184  1.00  0.00     0.006 A 
ENDBRANCH  55  76
BRANCH  67  84
ATOM     84  C   UNL A   1      41.566  30.456  33.897  1.00  0.00     0.057 A 
ATOM     85  C   UNL A   1      40.801  31.595  34.190  1.00  0.00     0.134 A 
ATOM     86  C   UNL A   1      42.256  29.865  34.961  1.00  0.00     0.134 A 
ATOM     87  F   UNL A   1      40.043  32.185  33.256  1.00  0.00    -0.206 F 
ATOM     88  C   UNL A   1      40.757  32.136  35.481  1.00  0.00     0.040 A 
ATOM     89  C   UNL A   1      42.192  30.373  36.258  1.00  0.00     0.040 A 
ATOM     90  F   UNL A   1      42.975  28.749  34.761  1.00  0.00    -0.206 F 
ATOM     91  C   UNL A   1      41.449  31.519  36.520  1.00  0.00     0.006 A 
ENDBRANCH  67  84
ENDBRANCH  41  42
ENDBRANCH  33  36
ENDBRANCH  31  32
ENDBRANCH   1  31
TORSDOF 12
ENDMDL
MODEL 2
REMARK VINA RESULT:     -13.5      3.535      8.844
REMARK SMILES Cc1cnn(C2(C(=O)NCCCNC(=O)c3ccc(-c4c5nc(c(-c6c(F)cccc6F)c6ccc([nH]6)c(-c6c(F)cccc6F)c6nc(c(-c7c(F)cccc7F)c7ccc4[nH]7)C=C6)C=C5)cc3)CCN(C(=O)c3cc4ccccc4[nH]3)CC2)c1
REMARK SMILES IDX 11 1 10 2 9 3 7 4 8 5 6 7 70 8 85 9 71 10 84 11 72 12 73 13
REMARK SMILES IDX 74 14 5 15 1 16 2 17 3 18 86 19 4 20 75 21 76 22 83 23 77 24
REMARK SMILES IDX 82 25 78 27 81 28 79 29 80 30 12 31 13 32 14 33 15 35 16 36
REMARK SMILES IDX 17 37 69 38 18 39 68 40 19 41 20 42 21 43 62 44 22 45 67 46
REMARK SMILES IDX 61 47 63 48 23 49 66 50 60 51 59 52 24 54 50 55 33 56 49 57
REMARK SMILES IDX 34 58 37 59 48 60 64 61 35 62 36 63 47 65 65 66 38 67 25 68
REMARK SMILES IDX 26 69 31 70 27 71 28 72 30 73 32 74 29 75 51 76 52 77 57 78
REMARK SMILES IDX 53 79 54 80 56 81 58 82 55 83 39 84 40 85 45 86 41 87 42 88
REMARK SMILES IDX 44 89 46 90 43 91
REMARK H PARENT 9 6 83 26 13 34 63 53 37 64
REMARK Flexibility Score: inf
ROOT
ATOM      1  C   UNL A   1      37.033  20.374  24.962  1.00  0.00     0.042 C 
ENDROOT
BRANCH   1   2
ATOM      2  C   UNL A   1      36.084  21.562  24.798  1.00  0.00     0.117 C 
BRANCH   2   3
ATOM      3  N   UNL A   1      35.595  22.072  26.072  1.00  0.00    -0.354 N 
ATOM      4  C   UNL A   1      34.346  22.406  26.540  1.00  0.00     0.248 C 
ATOM      5  O   UNL A   1      34.390  22.989  27.624  1.00  0.00    -0.272 OA
ATOM      6  H   UNL A   1      36.307  22.206  26.738  1.00  0.00     0.163 HD
BRANCH   4   7
ATOM      7  C   UNL A   1      33.049  22.076  25.721  1.00  0.00     0.144 C 
ATOM      8  C   UNL A   1      31.866  22.165  26.727  1.00  0.00     0.062 C 
ATOM      9  C   UNL A   1      33.008  23.070  24.527  1.00  0.00     0.062 C 
ATOM     10  C   UNL A   1      30.561  22.695  26.156  1.00  0.00     0.123 C 
ATOM     11  C   UNL A   1      31.625  23.573  24.131  1.00  0.00     0.123 C 
ATOM     12  N   UNL A   1      30.778  23.838  25.286  1.00  0.00    -0.337 N 
ATOM     13  C   UNL A   1      30.214  25.074  25.639  1.00  0.00     0.270 C 
ATOM     14  O   UNL A   1      29.808  25.281  26.777  1.00  0.00    -0.267 OA
BRANCH   7  15
ATOM     15  N   UNL A   1      33.036  20.699  25.130  1.00  0.00    -0.257 N 
ATOM     16  C   UNL A   1      32.460  18.130  22.575  1.00  0.00     0.048 C 
ATOM     17  C   UNL A   1      32.772  18.986  23.740  1.00  0.00    -0.013 A 
ATOM     18  C   UNL A   1      33.241  18.587  25.003  1.00  0.00     0.138 A 
ATOM     19  C   UNL A   1      32.684  20.359  23.840  1.00  0.00     0.113 A 
ATOM     20  N   UNL A   1      33.438  19.618  25.818  1.00  0.00    -0.180 NA
ENDBRANCH   7  15
BRANCH  13  21
ATOM     21  C   UNL A   1      30.178  26.127  24.643  1.00  0.00     0.105 A 
ATOM     22  C   UNL A   1      31.190  26.822  24.006  1.00  0.00     0.042 A 
ATOM     23  N   UNL A   1      28.999  26.583  24.089  1.00  0.00    -0.351 N 
ATOM     24  C   UNL A   1      30.605  27.895  23.288  1.00  0.00     0.000 A 
ATOM     25  C   UNL A   1      29.227  27.700  23.318  1.00  0.00     0.046 A 
ATOM     26  H   UNL A   1      28.117  26.167  24.225  1.00  0.00     0.167 HD
ATOM     27  C   UNL A   1      31.126  29.020  22.626  1.00  0.00     0.010 A 
ATOM     28  C   UNL A   1      28.335  28.552  22.655  1.00  0.00     0.026 A 
ATOM     29  C   UNL A   1      30.245  29.915  22.012  1.00  0.00     0.001 A 
ATOM     30  C   UNL A   1      28.874  29.671  22.010  1.00  0.00     0.002 A 
ENDBRANCH  13  21
ENDBRANCH   4   7
ENDBRANCH   2   3
ENDBRANCH   1   2
BRANCH   1  31
ATOM     31  C   UNL A   1      38.428  20.792  25.385  1.00  0.00     0.118 C 
BRANCH  31  32
ATOM     32  N   UNL A   1      39.344  19.667  25.572  1.00  0.00    -0.352 N 
ATOM     33  C   UNL A   1      40.700  19.723  25.850  1.00  0.00     0.251 C 
ATOM     34  H   UNL A   1      38.952  18.767  25.493  1.00  0.00     0.163 HD
ATOM     35  O   UNL A   1      41.428  18.770  25.614  1.00  0.00    -0.269 OA
BRANCH  33  36
ATOM     36  C   UNL A   1      41.240  20.955  26.463  1.00  0.00     0.039 A 
ATOM     37  C   UNL A   1      41.689  22.033  25.699  1.00  0.00     0.014 A 
ATOM     38  C   UNL A   1      41.260  21.023  27.855  1.00  0.00     0.014 A 
ATOM     39  C   UNL A   1      42.127  23.180  26.366  1.00  0.00     0.010 A 
ATOM     40  C   UNL A   1      41.459  22.221  28.488  1.00  0.00     0.010 A 
ATOM     41  C   UNL A   1      41.997  23.270  27.769  1.00  0.00    -0.014 A 
BRANCH  41  42
ATOM     42  C   UNL A   1      42.171  24.533  28.485  1.00  0.00     0.031 A 
ATOM     43  C   UNL A   1      41.010  25.418  28.225  1.00  0.00     0.074 A 
ATOM     44  C   UNL A   1      43.140  24.786  29.401  1.00  0.00     0.049 A 
ATOM     45  N   UNL A   1      40.974  26.378  27.365  1.00  0.00    -0.248 NA
ATOM     46  C   UNL A   1      39.676  25.034  28.727  1.00  0.00     0.031 C 
ATOM     47  C   UNL A   1      44.171  23.868  29.903  1.00  0.00     0.029 A 
ATOM     48  N   UNL A   1      43.386  25.920  30.138  1.00  0.00    -0.354 N 
ATOM     49  C   UNL A   1      39.708  26.934  27.490  1.00  0.00     0.074 A 
ATOM     50  C   UNL A   1      38.896  25.920  28.100  1.00  0.00     0.031 C 
ATOM     51  C   UNL A   1      44.774  24.392  30.998  1.00  0.00     0.029 A 
ATOM     52  C   UNL A   1      44.296  25.746  31.198  1.00  0.00     0.049 A 
ATOM     53  H   UNL A   1      42.958  26.785  29.940  1.00  0.00     0.167 HD
ATOM     54  C   UNL A   1      39.591  28.290  27.470  1.00  0.00     0.037 A 
ATOM     55  C   UNL A   1      44.645  26.664  32.147  1.00  0.00     0.037 A 
ATOM     56  C   UNL A   1      40.812  28.871  26.943  1.00  0.00     0.049 A 
ATOM     57  C   UNL A   1      44.326  27.990  31.581  1.00  0.00     0.074 A 
ATOM     58  C   UNL A   1      41.516  28.832  25.758  1.00  0.00     0.029 A 
ATOM     59  N   UNL A   1      41.702  29.216  27.924  1.00  0.00    -0.354 N 
ATOM     60  N   UNL A   1      44.967  28.514  30.576  1.00  0.00    -0.248 NA
ATOM     61  C   UNL A   1      43.004  28.532  31.843  1.00  0.00     0.031 C 
ATOM     62  C   UNL A   1      42.897  28.917  26.123  1.00  0.00     0.029 A 
ATOM     63  C   UNL A   1      42.991  29.112  27.500  1.00  0.00     0.049 A 
ATOM     64  H   UNL A   1      41.440  29.504  28.829  1.00  0.00     0.167 HD
ATOM     65  C   UNL A   1      43.969  29.069  29.797  1.00  0.00     0.074 A 
ATOM     66  C   UNL A   1      42.811  29.176  30.690  1.00  0.00     0.031 C 
ATOM     67  C   UNL A   1      44.093  29.067  28.436  1.00  0.00     0.037 A 
BRANCH  54  68
ATOM     68  C   UNL A   1      38.729  29.078  28.453  1.00  0.00     0.057 A 
ATOM     69  C   UNL A   1      38.884  28.813  29.829  1.00  0.00     0.134 A 
ATOM     70  C   UNL A   1      37.562  29.803  28.126  1.00  0.00     0.134 A 
ATOM     71  F   UNL A   1      39.938  28.116  30.281  1.00  0.00    -0.206 F 
ATOM     72  C   UNL A   1      37.916  29.162  30.782  1.00  0.00     0.040 A 
ATOM     73  C   UNL A   1      36.611  30.193  29.076  1.00  0.00     0.040 A 
ATOM     74  F   UNL A   1      37.210  30.097  26.871  1.00  0.00    -0.206 F 
ATOM     75  C   UNL A   1      36.770  29.847  30.405  1.00  0.00     0.006 A 
ENDBRANCH  54  68
BRANCH  55  76
ATOM     76  C   UNL A   1      44.965  26.529  33.598  1.00  0.00     0.057 A 
ATOM     77  C   UNL A   1      46.190  26.981  34.132  1.00  0.00     0.134 A 
ATOM     78  C   UNL A   1      43.956  26.274  34.539  1.00  0.00     0.134 A 
ATOM     79  F   UNL A   1      47.214  27.297  33.324  1.00  0.00    -0.206 F 
ATOM     80  C   UNL A   1      46.382  27.206  35.506  1.00  0.00     0.040 A 
ATOM     81  C   UNL A   1      44.135  26.496  35.914  1.00  0.00     0.040 A 
ATOM     82  F   UNL A   1      42.732  25.900  34.146  1.00  0.00    -0.206 F 
ATOM     83  C   UNL A   1      45.343  26.979  36.402  1.00  0.00     0.006 A 
ENDBRANCH  55  76
BRANCH  67  84
ATOM     84  C   UNL A   1      45.469  28.877  27.858  1.00  0.00     0.057 A 
ATOM     85  C   UNL A   1      46.038  27.646  27.498  1.00  0.00     0.134 A 
ATOM     86  C   UNL A   1      46.203  30.029  27.552  1.00  0.00     0.134 A 
ATOM     87  F   UNL A   1      45.380  26.494  27.678  1.00  0.00    -0.206 F 
ATOM     88  C   UNL A   1      47.298  27.572  26.890  1.00  0.00     0.040 A 
ATOM     89  C   UNL A   1      47.441  29.970  26.915  1.00  0.00     0.040 A 
ATOM     90  F   UNL A   1      45.700  31.242  27.831  1.00  0.00    -0.206 F 
ATOM     91  C   UNL A   1      47.999  28.738  26.591  1.00  0.00     0.006 A 
ENDBRANCH  67  84
ENDBRANCH  41  42
ENDBRANCH  33  36
ENDBRANCH  31  32
ENDBRANCH   1  31
TORSDOF 12
ENDMDL
MODEL 3
REMARK VINA RESULT:     -13.1      2.801      7.756
REMARK SMILES Cc1cnn(C2(C(=O)NCCCNC(=O)c3ccc(-c4c5nc(c(-c6c(F)cccc6F)c6ccc([nH]6)c(-c6c(F)cccc6F)c6nc(c(-c7c(F)cccc7F)c7ccc4[nH]7)C=C6)C=C5)cc3)CCN(C(=O)c3cc4ccccc4[nH]3)CC2)c1
REMARK SMILES IDX 11 1 10 2 9 3 7 4 8 5 6 7 70 8 85 9 71 10 84 11 72 12 73 13
REMARK SMILES IDX 74 14 5 15 1 16 2 17 3 18 86 19 4 20 75 21 76 22 83 23 77 24
REMARK SMILES IDX 82 25 78 27 81 28 79 29 80 30 12 31 13 32 14 33 15 35 16 36
REMARK SMILES IDX 17 37 69 38 18 39 68 40 19 41 20 42 21 43 62 44 22 45 67 46
REMARK SMILES IDX 61 47 63 48 23 49 66 50 60 51 59 52 24 54 50 55 33 56 49 57
REMARK SMILES IDX 34 58 37 59 48 60 64 61 35 62 36 63 47 65 65 66 38 67 25 68
REMARK SMILES IDX 26 69 31 70 27 71 28 72 30 73 32 74 29 75 51 76 52 77 57 78
REMARK SMILES IDX 53 79 54 80 56 81 58 82 55 83 39 84 40 85 45 86 41 87 42 88
REMARK SMILES IDX 44 89 46 90 43 91
REMARK H PARENT 9 6 83 26 13 34 63 53 37 64
REMARK Flexibility Score: inf
ROOT
ATOM      1  C   UNL A   1      37.388  21.719  24.466  1.00  0.00     0.042 C 
ENDROOT
BRANCH   1   2
ATOM      2  C   UNL A   1      35.866  21.836  24.564  1.00  0.00     0.117 C 
BRANCH   2   3
ATOM      3  N   UNL A   1      35.416  22.238  25.891  1.00  0.00    -0.354 N 
ATOM      4  C   UNL A   1      34.178  22.476  26.436  1.00  0.00     0.248 C 
ATOM      5  O   UNL A   1      34.247  22.991  27.554  1.00  0.00    -0.272 OA
ATOM      6  H   UNL A   1      36.153  22.366  26.530  1.00  0.00     0.163 HD
BRANCH   4   7
ATOM      7  C   UNL A   1      32.859  22.131  25.658  1.00  0.00     0.144 C 
ATOM      8  C   UNL A   1      31.707  22.210  26.700  1.00  0.00     0.062 C 
ATOM      9  C   UNL A   1      32.771  23.123  24.465  1.00  0.00     0.062 C 
ATOM     10  C   UNL A   1      30.380  22.727  26.169  1.00  0.00     0.123 C 
ATOM     11  C   UNL A   1      31.372  23.612  24.111  1.00  0.00     0.123 C 
ATOM     12  N   UNL A   1      30.558  23.870  25.291  1.00  0.00    -0.337 N 
ATOM     13  C   UNL A   1      29.993  25.101  25.659  1.00  0.00     0.270 C 
ATOM     14  O   UNL A   1      29.620  25.306  26.809  1.00  0.00    -0.267 OA
BRANCH   7  15
ATOM     15  N   UNL A   1      32.842  20.753  25.069  1.00  0.00    -0.257 N 
ATOM     16  C   UNL A   1      32.319  18.191  22.498  1.00  0.00     0.048 C 
ATOM     17  C   UNL A   1      32.599  19.043  23.673  1.00  0.00    -0.013 A 
ATOM     18  C   UNL A   1      33.007  18.638  24.955  1.00  0.00     0.138 A 
ATOM     19  C   UNL A   1      32.536  20.418  23.767  1.00  0.00     0.113 A 
ATOM     20  N   UNL A   1      33.192  19.666  25.776  1.00  0.00    -0.180 NA
ENDBRANCH   7  15
BRANCH  13  21
ATOM     21  C   UNL A   1      29.916  26.152  24.664  1.00  0.00     0.105 A 
ATOM     22  C   UNL A   1      30.900  26.877  24.016  1.00  0.00     0.042 A 
ATOM     23  N   UNL A   1      28.719  26.572  24.120  1.00  0.00    -0.351 N 
ATOM     24  C   UNL A   1      30.277  27.931  23.304  1.00  0.00     0.000 A 
ATOM     25  C   UNL A   1      28.905  27.695  23.347  1.00  0.00     0.046 A 
ATOM     26  H   UNL A   1      27.851  26.130  24.266  1.00  0.00     0.167 HD
ATOM     27  C   UNL A   1      30.757  29.072  22.637  1.00  0.00     0.010 A 
ATOM     28  C   UNL A   1      27.982  28.520  22.693  1.00  0.00     0.026 A 
ATOM     29  C   UNL A   1      29.844  29.939  22.031  1.00  0.00     0.001 A 
ATOM     30  C   UNL A   1      28.481  29.654  22.042  1.00  0.00     0.002 A 
ENDBRANCH  13  21
ENDBRANCH   4   7
ENDBRANCH   2   3
ENDBRANCH   1   2
BRANCH   1  31
ATOM     31  C   UNL A   1      38.107  22.499  25.549  1.00  0.00     0.118 C 
BRANCH  31  32
ATOM     32  N   UNL A   1      38.901  21.660  26.446  1.00  0.00    -0.352 N 
ATOM     33  C   UNL A   1      40.024  22.028  27.169  1.00  0.00     0.251 C 
ATOM     34  H   UNL A   1      38.602  20.727  26.549  1.00  0.00     0.163 HD
ATOM     35  O   UNL A   1      40.814  21.186  27.571  1.00  0.00    -0.269 OA
BRANCH  33  36
ATOM     36  C   UNL A   1      40.230  23.462  27.463  1.00  0.00     0.039 A 
ATOM     37  C   UNL A   1      39.205  24.402  27.346  1.00  0.00     0.014 A 
ATOM     38  C   UNL A   1      41.495  23.852  27.897  1.00  0.00     0.014 A 
ATOM     39  C   UNL A   1      39.477  25.725  27.702  1.00  0.00     0.010 A 
ATOM     40  C   UNL A   1      41.684  25.082  28.467  1.00  0.00     0.010 A 
ATOM     41  C   UNL A   1      40.724  26.057  28.277  1.00  0.00    -0.014 A 
BRANCH  41  42
ATOM     42  C   UNL A   1      40.962  27.347  28.922  1.00  0.00     0.031 A 
ATOM     43  C   UNL A   1      42.174  27.976  28.347  1.00  0.00     0.074 A 
ATOM     44  C   UNL A   1      40.105  27.966  29.773  1.00  0.00     0.049 A 
ATOM     45  N   UNL A   1      43.353  27.954  28.869  1.00  0.00    -0.248 NA
ATOM     46  C   UNL A   1      42.170  28.407  26.936  1.00  0.00     0.031 C 
ATOM     47  C   UNL A   1      38.766  27.524  30.188  1.00  0.00     0.029 A 
ATOM     48  N   UNL A   1      40.218  29.173  30.419  1.00  0.00    -0.354 N 
ATOM     49  C   UNL A   1      44.152  28.685  28.001  1.00  0.00     0.074 A 
ATOM     50  C   UNL A   1      43.464  28.680  26.741  1.00  0.00     0.031 C 
ATOM     51  C   UNL A   1      38.114  28.530  30.819  1.00  0.00     0.029 A 
ATOM     52  C   UNL A   1      39.025  29.644  31.002  1.00  0.00     0.049 A 
ATOM     53  H   UNL A   1      41.067  29.671  30.470  1.00  0.00     0.167 HD
ATOM     54  C   UNL A   1      45.057  29.554  28.528  1.00  0.00     0.037 A 
ATOM     55  C   UNL A   1      38.823  30.848  31.612  1.00  0.00     0.037 A 
ATOM     56  C   UNL A   1      45.248  29.256  29.935  1.00  0.00     0.049 A 
ATOM     57  C   UNL A   1      40.154  31.340  32.018  1.00  0.00     0.074 A 
ATOM     58  C   UNL A   1      45.708  28.194  30.686  1.00  0.00     0.029 A 
ATOM     59  N   UNL A   1      44.438  29.999  30.750  1.00  0.00    -0.354 N 
ATOM     60  N   UNL A   1      40.870  30.781  32.951  1.00  0.00    -0.248 NA
ATOM     61  C   UNL A   1      40.878  32.175  31.076  1.00  0.00     0.031 C 
ATOM     62  C   UNL A   1      44.934  28.205  31.890  1.00  0.00     0.029 A 
ATOM     63  C   UNL A   1      44.108  29.328  31.887  1.00  0.00     0.049 A 
ATOM     64  H   UNL A   1      44.131  30.911  30.539  1.00  0.00     0.167 HD
ATOM     65  C   UNL A   1      42.152  30.781  32.432  1.00  0.00     0.074 A 
ATOM     66  C   UNL A   1      42.120  31.772  31.353  1.00  0.00     0.031 C 
ATOM     67  C   UNL A   1      42.995  29.743  32.714  1.00  0.00     0.037 A 
BRANCH  54  68
ATOM     68  C   UNL A   1      45.264  30.976  28.011  1.00  0.00     0.057 A 
ATOM     69  C   UNL A   1      44.129  31.801  27.872  1.00  0.00     0.134 A 
ATOM     70  C   UNL A   1      46.415  31.450  27.345  1.00  0.00     0.134 A 
ATOM     71  F   UNL A   1      42.960  31.463  28.438  1.00  0.00    -0.206 F 
ATOM     72  C   UNL A   1      44.120  32.948  27.067  1.00  0.00     0.040 A 
ATOM     73  C   UNL A   1      46.427  32.617  26.573  1.00  0.00     0.040 A 
ATOM     74  F   UNL A   1      47.569  30.779  27.310  1.00  0.00    -0.206 F 
ATOM     75  C   UNL A   1      45.270  33.355  26.407  1.00  0.00     0.006 A 
ENDBRANCH  54  68
BRANCH  55  76
ATOM     76  C   UNL A   1      37.646  31.765  31.645  1.00  0.00     0.057 A 
ATOM     77  C   UNL A   1      37.124  32.346  30.469  1.00  0.00     0.134 A 
ATOM     78  C   UNL A   1      36.803  31.817  32.766  1.00  0.00     0.134 A 
ATOM     79  F   UNL A   1      37.823  32.317  29.324  1.00  0.00    -0.206 F 
ATOM     80  C   UNL A   1      35.835  32.902  30.404  1.00  0.00     0.040 A 
ATOM     81  C   UNL A   1      35.513  32.369  32.714  1.00  0.00     0.040 A 
ATOM     82  F   UNL A   1      37.164  31.244  33.921  1.00  0.00    -0.206 F 
ATOM     83  C   UNL A   1      35.017  32.898  31.528  1.00  0.00     0.006 A 
ENDBRANCH  55  76
BRANCH  67  84
ATOM     84  C   UNL A   1      42.676  28.884  33.906  1.00  0.00     0.057 A 
ATOM     85  C   UNL A   1      41.873  27.733  33.889  1.00  0.00     0.134 A 
ATOM     86  C   UNL A   1      43.316  29.192  35.112  1.00  0.00     0.134 A 
ATOM     87  F   UNL A   1      41.282  27.312  32.764  1.00  0.00    -0.206 F 
ATOM     88  C   UNL A   1      41.695  26.947  35.035  1.00  0.00     0.040 A 
ATOM     89  C   UNL A   1      43.176  28.398  36.249  1.00  0.00     0.040 A 
ATOM     90  F   UNL A   1      44.132  30.256  35.188  1.00  0.00    -0.206 F 
ATOM     91  C   UNL A   1      42.355  27.277  36.217  1.00  0.00     0.006 A 
ENDBRANCH  67  84
ENDBRANCH  41  42
ENDBRANCH  33  36
ENDBRANCH  31  32
ENDBRANCH   1  31
TORSDOF 12
ENDMDL
