MODEL 1
REMARK VINA RESULT:     -11.5      0.000      0.000
REMARK SMILES Cc1nc(/C=C/C(=O)N2CCC[C@@H]2C(=O)NCCCNC(=O)c2ccc(-c3c4nc(c(-c5c(F)cccc5F)c5ccc([nH]5)c(-c5c(F)cccc5F)c5nc(c(-c6c(F)cccc6F)c6ccc3[nH]6)C=C5)C=C4)cc2)cs1
REMARK SMILES IDX 17 1 16 2 14 3 15 4 13 6 9 7 10 8 11 9 12 10 7 11 8 12 6 13
REMARK SMILES IDX 5 14 4 15 1 16 2 17 3 18 78 19 77 20 18 21 19 22 20 23 21 24
REMARK SMILES IDX 22 26 23 27 24 28 76 29 25 30 75 31 26 32 27 33 28 34 69 35
REMARK SMILES IDX 29 36 74 37 68 38 70 39 30 40 73 41 67 42 66 43 31 45 57 46
REMARK SMILES IDX 40 47 56 48 41 49 44 50 55 51 71 52 42 53 43 54 54 56 72 57
REMARK SMILES IDX 45 58 32 59 33 60 38 61 34 62 35 63 37 64 39 65 36 66 58 67
REMARK SMILES IDX 59 68 64 69 60 70 61 71 63 72 65 73 62 74 46 75 47 76 52 77
REMARK SMILES IDX 48 78 49 79 51 80 53 81 50 82
REMARK H PARENT 16 5 20 25 70 44 44 55
REMARK Flexibility Score: inf
ROOT
ATOM      1  C   UNL A   1      36.560  20.487  25.000  1.00  0.00     0.117 C 
ENDROOT
BRANCH   1   2
ATOM      2  N   UNL A   1      36.684  21.559  24.041  1.00  0.00    -0.354 N 
ATOM      3  C   UNL A   1      35.932  22.683  23.868  1.00  0.00     0.242 C 
ATOM      4  O   UNL A   1      36.137  23.324  22.830  1.00  0.00    -0.273 OA
ATOM      5  H   UNL A   1      37.434  21.464  23.410  1.00  0.00     0.163 HD
BRANCH   3   6
ATOM      6  C   UNL A   1      34.736  23.042  24.781  1.00  0.00     0.174 C 
ATOM      7  N   UNL A   1      33.402  23.061  24.177  1.00  0.00    -0.327 N 
ATOM      8  C   UNL A   1      32.648  24.211  24.649  1.00  0.00     0.121 C 
ATOM      9  C   UNL A   1      33.714  25.259  24.897  1.00  0.00     0.024 C 
ATOM     10  C   UNL A   1      34.921  24.451  25.373  1.00  0.00     0.037 C 
BRANCH   7  11
ATOM     11  C   UNL A   1      32.906  21.926  23.585  1.00  0.00     0.247 C 
ATOM     12  O   UNL A   1      32.390  21.933  22.468  1.00  0.00    -0.270 OA
BRANCH  11  13
ATOM     13  C   UNL A   1      32.868  20.651  24.350  1.00  0.00     0.073 C 
ATOM     14  C   UNL A   1      32.904  19.449  23.755  1.00  0.00     0.035 C 
BRANCH  14  15
ATOM     15  C   UNL A   1      33.102  18.177  24.360  1.00  0.00     0.074 A 
ATOM     16  C   UNL A   1      35.688  15.824  25.376  1.00  0.00     0.079 C 
ATOM     17  C   UNL A   1      34.442  16.589  25.095  1.00  0.00     0.090 A 
ATOM     18  N   UNL A   1      34.406  17.738  24.454  1.00  0.00    -0.242 NA
ATOM     19  S   UNL A   1      32.920  15.988  25.622  1.00  0.00    -0.127 S 
ATOM     20  C   UNL A   1      32.153  17.368  24.944  1.00  0.00     0.095 A 
ENDBRANCH  14  15
ENDBRANCH  11  13
ENDBRANCH   7  11
ENDBRANCH   3   6
ENDBRANCH   1   2
BRANCH   1  21
ATOM     21  C   UNL A   1      37.761  19.556  24.983  1.00  0.00     0.042 C 
BRANCH  21  22
ATOM     22  C   UNL A   1      38.949  20.099  25.755  1.00  0.00     0.118 C 
BRANCH  22  23
ATOM     23  N   UNL A   1      40.035  19.129  25.850  1.00  0.00    -0.352 N 
ATOM     24  C   UNL A   1      41.379  19.327  26.020  1.00  0.00     0.251 C 
ATOM     25  H   UNL A   1      39.759  18.187  25.783  1.00  0.00     0.163 HD
ATOM     26  O   UNL A   1      42.156  18.383  25.877  1.00  0.00    -0.269 OA
BRANCH  24  27
ATOM     27  C   UNL A   1      41.907  20.662  26.365  1.00  0.00     0.039 A 
ATOM     28  C   UNL A   1      42.072  20.996  27.714  1.00  0.00     0.014 A 
ATOM     29  C   UNL A   1      42.200  21.602  25.373  1.00  0.00     0.014 A 
ATOM     30  C   UNL A   1      42.564  22.255  28.061  1.00  0.00     0.010 A 
ATOM     31  C   UNL A   1      42.780  22.818  25.716  1.00  0.00     0.010 A 
ATOM     32  C   UNL A   1      42.940  23.168  27.063  1.00  0.00    -0.014 A 
BRANCH  32  33
ATOM     33  C   UNL A   1      43.442  24.521  27.403  1.00  0.00     0.031 A 
ATOM     34  C   UNL A   1      42.476  25.583  27.851  1.00  0.00     0.074 A 
ATOM     35  C   UNL A   1      44.748  24.811  27.253  1.00  0.00     0.049 A 
ATOM     36  N   UNL A   1      42.695  26.845  28.119  1.00  0.00    -0.248 NA
ATOM     37  C   UNL A   1      41.065  25.181  27.982  1.00  0.00     0.031 C 
ATOM     38  C   UNL A   1      45.774  23.881  26.779  1.00  0.00     0.029 A 
ATOM     39  N   UNL A   1      45.432  25.978  27.475  1.00  0.00    -0.354 N 
ATOM     40  C   UNL A   1      41.452  27.388  28.421  1.00  0.00     0.074 A 
ATOM     41  C   UNL A   1      40.476  26.336  28.250  1.00  0.00     0.031 C 
ATOM     42  C   UNL A   1      46.962  24.508  26.769  1.00  0.00     0.029 A 
ATOM     43  C   UNL A   1      46.776  25.889  27.205  1.00  0.00     0.049 A 
ATOM     44  H   UNL A   1      45.002  26.802  27.799  1.00  0.00     0.167 HD
ATOM     45  C   UNL A   1      41.153  28.644  28.829  1.00  0.00     0.037 A 
ATOM     46  C   UNL A   1      47.745  26.817  27.300  1.00  0.00     0.037 A 
ATOM     47  C   UNL A   1      42.133  29.677  29.038  1.00  0.00     0.049 A 
ATOM     48  C   UNL A   1      47.395  28.194  27.791  1.00  0.00     0.074 A 
ATOM     49  C   UNL A   1      41.944  30.966  29.505  1.00  0.00     0.029 A 
ATOM     50  N   UNL A   1      43.492  29.531  28.799  1.00  0.00    -0.354 N 
ATOM     51  N   UNL A   1      46.225  28.678  28.128  1.00  0.00    -0.248 NA
ATOM     52  C   UNL A   1      48.504  29.148  27.927  1.00  0.00     0.031 C 
ATOM     53  C   UNL A   1      43.186  31.610  29.520  1.00  0.00     0.029 A 
ATOM     54  C   UNL A   1      44.153  30.709  29.103  1.00  0.00     0.049 A 
ATOM     55  H   UNL A   1      43.922  28.712  28.464  1.00  0.00     0.167 HD
ATOM     56  C   UNL A   1      46.460  29.982  28.549  1.00  0.00     0.074 A 
ATOM     57  C   UNL A   1      47.886  30.207  28.432  1.00  0.00     0.031 C 
ATOM     58  C   UNL A   1      45.576  30.907  28.996  1.00  0.00     0.037 A 
BRANCH  45  59
ATOM     59  C   UNL A   1      39.708  28.960  29.080  1.00  0.00     0.057 A 
ATOM     60  C   UNL A   1      38.850  29.372  28.051  1.00  0.00     0.134 A 
ATOM     61  C   UNL A   1      39.164  28.844  30.365  1.00  0.00     0.134 A 
ATOM     62  F   UNL A   1      39.311  29.517  26.800  1.00  0.00    -0.206 F 
ATOM     63  C   UNL A   1      37.512  29.688  28.297  1.00  0.00     0.040 A 
ATOM     64  C   UNL A   1      37.821  29.131  30.618  1.00  0.00     0.040 A 
ATOM     65  F   UNL A   1      39.927  28.452  31.397  1.00  0.00    -0.206 F 
ATOM     66  C   UNL A   1      36.993  29.563  29.584  1.00  0.00     0.006 A 
ENDBRANCH  45  59
BRANCH  46  67
ATOM     67  C   UNL A   1      49.147  26.459  26.969  1.00  0.00     0.057 A 
ATOM     68  C   UNL A   1      49.654  26.660  25.680  1.00  0.00     0.134 A 
ATOM     69  C   UNL A   1      50.010  25.914  27.926  1.00  0.00     0.134 A 
ATOM     70  F   UNL A   1      48.869  27.166  24.718  1.00  0.00    -0.206 F 
ATOM     71  C   UNL A   1      50.965  26.314  25.348  1.00  0.00     0.040 A 
ATOM     72  C   UNL A   1      51.329  25.584  27.614  1.00  0.00     0.040 A 
ATOM     73  F   UNL A   1      49.586  25.707  29.181  1.00  0.00    -0.206 F 
ATOM     74  C   UNL A   1      51.808  25.779  26.320  1.00  0.00     0.006 A 
ENDBRANCH  46  67
BRANCH  58  75
ATOM     75  C   UNL A   1      46.133  32.227  29.438  1.00  0.00     0.057 A 
ATOM     76  C   UNL A   1      46.256  33.311  28.562  1.00  0.00     0.134 A 
ATOM     77  C   UNL A   1      46.518  32.421  30.771  1.00  0.00     0.134 A 
ATOM     78  F   UNL A   1      45.916  33.185  27.270  1.00  0.00    -0.206 F 
ATOM     79  C   UNL A   1      46.769  34.537  28.990  1.00  0.00     0.040 A 
ATOM     80  C   UNL A   1      47.008  33.648  31.216  1.00  0.00     0.040 A 
ATOM     81  F   UNL A   1      46.416  31.423  31.663  1.00  0.00    -0.206 F 
ATOM     82  C   UNL A   1      47.141  34.709  30.322  1.00  0.00     0.006 A 
ENDBRANCH  58  75
ENDBRANCH  32  33
ENDBRANCH  24  27
ENDBRANCH  22  23
ENDBRANCH  21  22
ENDBRANCH   1  21
TORSDOF 13
ENDMDL
MODEL 2
REMARK VINA RESULT:     -11.5      6.202     11.054
REMARK SMILES Cc1nc(/C=C/C(=O)N2CCC[C@@H]2C(=O)NCCCNC(=O)c2ccc(-c3c4nc(c(-c5c(F)cccc5F)c5ccc([nH]5)c(-c5c(F)cccc5F)c5nc(c(-c6c(F)cccc6F)c6ccc3[nH]6)C=C5)C=C4)cc2)cs1
REMARK SMILES IDX 17 1 16 2 14 3 15 4 13 6 9 7 10 8 11 9 12 10 7 11 8 12 6 13
REMARK SMILES IDX 5 14 4 15 1 16 2 17 3 18 78 19 77 20 18 21 19 22 20 23 21 24
REMARK SMILES IDX 22 26 23 27 24 28 76 29 25 30 75 31 26 32 27 33 28 34 69 35
REMARK SMILES IDX 29 36 74 37 68 38 70 39 30 40 73 41 67 42 66 43 31 45 57 46
REMARK SMILES IDX 40 47 56 48 41 49 44 50 55 51 71 52 42 53 43 54 54 56 72 57
REMARK SMILES IDX 45 58 32 59 33 60 38 61 34 62 35 63 37 64 39 65 36 66 58 67
REMARK SMILES IDX 59 68 64 69 60 70 61 71 63 72 65 73 62 74 46 75 47 76 52 77
REMARK SMILES IDX 48 78 49 79 51 80 53 81 50 82
REMARK H PARENT 16 5 20 25 70 44 44 55
REMARK Flexibility Score: inf
ROOT
ATOM      1  C   UNL A   1      31.500  30.658  25.844  1.00  0.00     0.117 C 
ENDROOT
BRANCH   1   2
ATOM      2  N   UNL A   1      31.431  29.590  26.814  1.00  0.00    -0.354 N 
ATOM      3  C   UNL A   1      31.761  28.272  26.706  1.00  0.00     0.242 C 
ATOM      4  O   UNL A   1      31.400  27.540  27.634  1.00  0.00    -0.273 OA
ATOM      5  H   UNL A   1      31.092  29.859  27.700  1.00  0.00     0.163 HD
BRANCH   3   6
ATOM      6  C   UNL A   1      32.353  27.658  25.415  1.00  0.00     0.174 C 
ATOM      7  N   UNL A   1      31.529  26.698  24.679  1.00  0.00    -0.327 N 
ATOM      8  C   UNL A   1      32.336  25.575  24.231  1.00  0.00     0.121 C 
ATOM      9  C   UNL A   1      33.405  25.455  25.299  1.00  0.00     0.024 C 
ATOM     10  C   UNL A   1      33.654  26.899  25.734  1.00  0.00     0.037 C 
BRANCH   7  11
ATOM     11  C   UNL A   1      30.297  27.078  24.208  1.00  0.00     0.247 C 
ATOM     12  O   UNL A   1      29.304  26.356  24.293  1.00  0.00    -0.270 OA
BRANCH  11  13
ATOM     13  C   UNL A   1      30.156  28.353  23.454  1.00  0.00     0.073 C 
ATOM     14  C   UNL A   1      28.973  28.806  23.013  1.00  0.00     0.035 C 
BRANCH  14  15
ATOM     15  C   UNL A   1      28.667  30.093  22.491  1.00  0.00     0.074 A 
ATOM     16  C   UNL A   1      29.091  33.652  23.126  1.00  0.00     0.079 C 
ATOM     17  C   UNL A   1      28.792  32.290  22.607  1.00  0.00     0.090 A 
ATOM     18  N   UNL A   1      29.076  31.174  23.242  1.00  0.00    -0.242 NA
ATOM     19  S   UNL A   1      28.029  32.095  21.077  1.00  0.00    -0.127 S 
ATOM     20  C   UNL A   1      28.085  30.390  21.278  1.00  0.00     0.095 A 
ENDBRANCH  14  15
ENDBRANCH  11  13
ENDBRANCH   7  11
ENDBRANCH   3   6
ENDBRANCH   1   2
BRANCH   1  21
ATOM     21  C   UNL A   1      31.361  32.029  26.483  1.00  0.00     0.042 C 
BRANCH  21  22
ATOM     22  C   UNL A   1      32.596  32.460  27.250  1.00  0.00     0.118 C 
BRANCH  22  23
ATOM     23  N   UNL A   1      32.553  33.871  27.618  1.00  0.00    -0.352 N 
ATOM     24  C   UNL A   1      33.266  34.555  28.564  1.00  0.00     0.251 C 
ATOM     25  H   UNL A   1      31.912  34.415  27.106  1.00  0.00     0.163 HD
ATOM     26  O   UNL A   1      32.942  35.707  28.857  1.00  0.00    -0.269 OA
BRANCH  24  27
ATOM     27  C   UNL A   1      34.417  33.926  29.243  1.00  0.00     0.039 A 
ATOM     28  C   UNL A   1      35.711  34.338  28.905  1.00  0.00     0.014 A 
ATOM     29  C   UNL A   1      34.234  32.903  30.178  1.00  0.00     0.014 A 
ATOM     30  C   UNL A   1      36.811  33.752  29.531  1.00  0.00     0.010 A 
ATOM     31  C   UNL A   1      35.324  32.388  30.869  1.00  0.00     0.010 A 
ATOM     32  C   UNL A   1      36.625  32.785  30.531  1.00  0.00    -0.014 A 
BRANCH  32  33
ATOM     33  C   UNL A   1      37.776  32.128  31.195  1.00  0.00     0.031 A 
ATOM     34  C   UNL A   1      38.513  31.024  30.487  1.00  0.00     0.074 A 
ATOM     35  C   UNL A   1      38.119  32.478  32.449  1.00  0.00     0.049 A 
ATOM     36  N   UNL A   1      39.491  30.270  30.918  1.00  0.00    -0.248 NA
ATOM     37  C   UNL A   1      38.066  30.702  29.120  1.00  0.00     0.031 C 
ATOM     38  C   UNL A   1      37.450  33.497  33.259  1.00  0.00     0.029 A 
ATOM     39  N   UNL A   1      39.113  32.003  33.265  1.00  0.00    -0.354 N 
ATOM     40  C   UNL A   1      39.755  29.371  29.891  1.00  0.00     0.074 A 
ATOM     41  C   UNL A   1      38.800  29.636  28.839  1.00  0.00     0.031 C 
ATOM     42  C   UNL A   1      38.069  33.588  34.447  1.00  0.00     0.029 A 
ATOM     43  C   UNL A   1      39.155  32.614  34.494  1.00  0.00     0.049 A 
ATOM     44  H   UNL A   1      39.739  31.292  32.995  1.00  0.00     0.167 HD
ATOM     45  C   UNL A   1      40.722  28.426  29.820  1.00  0.00     0.037 A 
ATOM     46  C   UNL A   1      39.978  32.410  35.539  1.00  0.00     0.037 A 
ATOM     47  C   UNL A   1      41.697  28.194  30.852  1.00  0.00     0.049 A 
ATOM     48  C   UNL A   1      41.068  31.381  35.423  1.00  0.00     0.074 A 
ATOM     49  C   UNL A   1      42.755  27.302  30.857  1.00  0.00     0.029 A 
ATOM     50  N   UNL A   1      41.735  28.869  32.063  1.00  0.00    -0.354 N 
ATOM     51  N   UNL A   1      41.343  30.578  34.424  1.00  0.00    -0.248 NA
ATOM     52  C   UNL A   1      41.970  31.242  36.574  1.00  0.00     0.031 C 
ATOM     53  C   UNL A   1      43.416  27.415  32.085  1.00  0.00     0.029 A 
ATOM     54  C   UNL A   1      42.795  28.408  32.827  1.00  0.00     0.049 A 
ATOM     55  H   UNL A   1      41.103  29.570  32.339  1.00  0.00     0.167 HD
ATOM     56  C   UNL A   1      42.469  29.862  34.811  1.00  0.00     0.074 A 
ATOM     57  C   UNL A   1      42.830  30.333  36.133  1.00  0.00     0.031 C 
ATOM     58  C   UNL A   1      43.146  28.904  34.133  1.00  0.00     0.037 A 
BRANCH  45  59
ATOM     59  C   UNL A   1      40.771  27.584  28.579  1.00  0.00     0.057 A 
ATOM     60  C   UNL A   1      40.036  26.396  28.461  1.00  0.00     0.134 A 
ATOM     61  C   UNL A   1      41.556  27.968  27.485  1.00  0.00     0.134 A 
ATOM     62  F   UNL A   1      39.276  25.964  29.478  1.00  0.00    -0.206 F 
ATOM     63  C   UNL A   1      40.106  25.604  27.313  1.00  0.00     0.040 A 
ATOM     64  C   UNL A   1      41.612  27.198  26.321  1.00  0.00     0.040 A 
ATOM     65  F   UNL A   1      42.282  29.095  27.528  1.00  0.00    -0.206 F 
ATOM     66  C   UNL A   1      40.892  26.008  26.236  1.00  0.00     0.006 A 
ENDBRANCH  45  59
BRANCH  46  67
ATOM     67  C   UNL A   1      39.832  33.230  36.767  1.00  0.00     0.057 A 
ATOM     68  C   UNL A   1      38.916  32.875  37.764  1.00  0.00     0.134 A 
ATOM     69  C   UNL A   1      40.601  34.381  36.976  1.00  0.00     0.134 A 
ATOM     70  F   UNL A   1      38.142  31.791  37.613  1.00  0.00    -0.206 F 
ATOM     71  C   UNL A   1      38.756  33.645  38.917  1.00  0.00     0.040 A 
ATOM     72  C   UNL A   1      40.467  35.147  38.133  1.00  0.00     0.040 A 
ATOM     73  F   UNL A   1      41.503  34.767  36.061  1.00  0.00    -0.206 F 
ATOM     74  C   UNL A   1      39.538  34.783  39.106  1.00  0.00     0.006 A 
ENDBRANCH  46  67
BRANCH  58  75
ATOM     75  C   UNL A   1      44.372  28.340  34.787  1.00  0.00     0.057 A 
ATOM     76  C   UNL A   1      45.634  28.924  34.626  1.00  0.00     0.134 A 
ATOM     77  C   UNL A   1      44.278  27.215  35.617  1.00  0.00     0.134 A 
ATOM     78  F   UNL A   1      45.793  29.996  33.834  1.00  0.00    -0.206 F 
ATOM     79  C   UNL A   1      46.766  28.393  35.247  1.00  0.00     0.040 A 
ATOM     80  C   UNL A   1      45.397  26.691  36.263  1.00  0.00     0.040 A 
ATOM     81  F   UNL A   1      43.096  26.615  35.819  1.00  0.00    -0.206 F 
ATOM     82  C   UNL A   1      46.647  27.277  36.073  1.00  0.00     0.006 A 
ENDBRANCH  58  75
ENDBRANCH  32  33
ENDBRANCH  24  27
ENDBRANCH  22  23
ENDBRANCH  21  22
ENDBRANCH   1  21
TORSDOF 13
ENDMDL
MODEL 3
REMARK VINA RESULT:     -11.4      1.397      1.870
REMARK SMILES Cc1nc(/C=C/C(=O)N2CCC[C@@H]2C(=O)NCCCNC(=O)c2ccc(-c3c4nc(c(-c5c(F)cccc5F)c5ccc([nH]5)c(-c5c(F)cccc5F)c5nc(c(-c6c(F)cccc6F)c6ccc3[nH]6)C=C5)C=C4)cc2)cs1
REMARK SMILES IDX 17 1 16 2 14 3 15 4 13 6 9 7 10 8 11 9 12 10 7 11 8 12 6 13
REMARK SMILES IDX 5 14 4 15 1 16 2 17 3 18 78 19 77 20 18 21 19 22 20 23 21 24
REMARK SMILES IDX 22 26 23 27 24 28 76 29 25 30 75 31 26 32 27 33 28 34 69 35
REMARK SMILES IDX 29 36 74 37 68 38 70 39 30 40 73 41 67 42 66 43 31 45 57 46
REMARK SMILES IDX 40 47 56 48 41 49 44 50 55 51 71 52 42 53 43 54 54 56 72 57
REMARK SMILES IDX 45 58 32 59 33 60 38 61 34 62 35 63 37 64 39 65 36 66 58 67
REMARK SMILES IDX 59 68 64 69 60 70 61 71 63 72 65 73 62 74 46 75 47 76 52 77
REMARK SMILES IDX 48 78 49 79 51 80 53 81 50 82
REMARK H PARENT 16 5 20 25 70 44 44 55
REMARK Flexibility Score: inf
ROOT
ATOM      1  C   UNL A   1      36.391  20.679  25.083  1.00  0.00     0.117 C 
ENDROOT
BRANCH   1   2
ATOM      2  N   UNL A   1      36.350  21.695  24.057  1.00  0.00    -0.354 N 
ATOM      3  C   UNL A   1      35.571  22.807  23.944  1.00  0.00     0.242 C 
ATOM      4  O   UNL A   1      35.602  23.388  22.852  1.00  0.00    -0.273 OA
ATOM      5  H   UNL A   1      36.990  21.563  23.320  1.00  0.00     0.163 HD
BRANCH   3   6
ATOM      6  C   UNL A   1      34.534  23.220  25.015  1.00  0.00     0.174 C 
ATOM      7  N   UNL A   1      33.126  23.262  24.617  1.00  0.00    -0.327 N 
ATOM      8  C   UNL A   1      32.479  24.442  25.167  1.00  0.00     0.121 C 
ATOM      9  C   UNL A   1      33.594  25.466  25.226  1.00  0.00     0.024 C 
ATOM     10  C   UNL A   1      34.839  24.636  25.537  1.00  0.00     0.037 C 
BRANCH   7  11
ATOM     11  C   UNL A   1      32.519  22.129  24.135  1.00  0.00     0.247 C 
ATOM     12  O   UNL A   1      31.659  22.161  23.256  1.00  0.00    -0.270 OA
BRANCH  11  13
ATOM     13  C   UNL A   1      32.806  20.812  24.767  1.00  0.00     0.073 C 
ATOM     14  C   UNL A   1      32.713  19.653  24.098  1.00  0.00     0.035 C 
BRANCH  14  15
ATOM     15  C   UNL A   1      33.170  18.369  24.503  1.00  0.00     0.074 A 
ATOM     16  C   UNL A   1      32.050  15.217  25.940  1.00  0.00     0.079 C 
ATOM     17  C   UNL A   1      32.775  16.363  25.325  1.00  0.00     0.090 A 
ATOM     18  N   UNL A   1      32.231  17.533  25.068  1.00  0.00    -0.242 NA
ATOM     19  S   UNL A   1      34.433  16.208  24.894  1.00  0.00    -0.127 S 
ATOM     20  C   UNL A   1      34.423  17.826  24.318  1.00  0.00     0.095 A 
ENDBRANCH  14  15
ENDBRANCH  11  13
ENDBRANCH   7  11
ENDBRANCH   3   6
ENDBRANCH   1   2
BRANCH   1  21
ATOM     21  C   UNL A   1      37.618  19.791  24.968  1.00  0.00     0.042 C 
BRANCH  21  22
ATOM     22  C   UNL A   1      38.883  20.450  25.484  1.00  0.00     0.118 C 
BRANCH  22  23
ATOM     23  N   UNL A   1      39.958  19.487  25.700  1.00  0.00    -0.352 N 
ATOM     24  C   UNL A   1      41.247  19.686  26.117  1.00  0.00     0.251 C 
ATOM     25  H   UNL A   1      39.721  18.550  25.518  1.00  0.00     0.163 HD
ATOM     26  O   UNL A   1      42.059  18.764  26.046  1.00  0.00    -0.269 OA
BRANCH  24  27
ATOM     27  C   UNL A   1      41.675  20.998  26.645  1.00  0.00     0.039 A 
ATOM     28  C   UNL A   1      41.591  21.233  28.021  1.00  0.00     0.014 A 
ATOM     29  C   UNL A   1      42.117  22.011  25.789  1.00  0.00     0.014 A 
ATOM     30  C   UNL A   1      41.986  22.468  28.539  1.00  0.00     0.010 A 
ATOM     31  C   UNL A   1      42.599  23.204  26.315  1.00  0.00     0.010 A 
ATOM     32  C   UNL A   1      42.510  23.456  27.691  1.00  0.00    -0.014 A 
BRANCH  32  33
ATOM     33  C   UNL A   1      42.913  24.785  28.210  1.00  0.00     0.031 A 
ATOM     34  C   UNL A   1      41.868  25.840  28.446  1.00  0.00     0.074 A 
ATOM     35  C   UNL A   1      44.215  25.062  28.409  1.00  0.00     0.049 A 
ATOM     36  N   UNL A   1      42.015  27.085  28.819  1.00  0.00    -0.248 NA
ATOM     37  C   UNL A   1      40.469  25.452  28.196  1.00  0.00     0.031 C 
ATOM     38  C   UNL A   1      45.326  24.139  28.169  1.00  0.00     0.029 A 
ATOM     39  N   UNL A   1      44.824  26.209  28.852  1.00  0.00    -0.354 N 
ATOM     40  C   UNL A   1      40.738  27.633  28.820  1.00  0.00     0.074 A 
ATOM     41  C   UNL A   1      39.835  26.603  28.359  1.00  0.00     0.031 C 
ATOM     42  C   UNL A   1      46.479  24.749  28.490  1.00  0.00     0.029 A 
ATOM     43  C   UNL A   1      46.191  26.111  28.928  1.00  0.00     0.049 A 
ATOM     44  H   UNL A   1      44.327  27.024  29.094  1.00  0.00     0.167 HD
ATOM     45  C   UNL A   1      40.349  28.874  29.197  1.00  0.00     0.037 A 
ATOM     46  C   UNL A   1      47.107  27.020  29.309  1.00  0.00     0.037 A 
ATOM     47  C   UNL A   1      41.246  29.882  29.696  1.00  0.00     0.049 A 
ATOM     48  C   UNL A   1      46.648  28.379  29.758  1.00  0.00     0.074 A 
ATOM     49  C   UNL A   1      40.948  31.151  30.158  1.00  0.00     0.029 A 
ATOM     50  N   UNL A   1      42.620  29.727  29.803  1.00  0.00    -0.354 N 
ATOM     51  N   UNL A   1      45.432  28.865  29.810  1.00  0.00    -0.248 NA
ATOM     52  C   UNL A   1      47.689  29.310  30.216  1.00  0.00     0.031 C 
ATOM     53  C   UNL A   1      42.147  31.777  30.518  1.00  0.00     0.029 A 
ATOM     54  C   UNL A   1      43.186  30.881  30.319  1.00  0.00     0.049 A 
ATOM     55  H   UNL A   1      43.119  28.918  29.551  1.00  0.00     0.167 HD
ATOM     56  C   UNL A   1      45.556  30.145  30.336  1.00  0.00     0.074 A 
ATOM     57  C   UNL A   1      46.965  30.355  30.596  1.00  0.00     0.031 C 
ATOM     58  C   UNL A   1      44.590  31.062  30.586  1.00  0.00     0.037 A 
BRANCH  45  59
ATOM     59  C   UNL A   1      38.888  29.199  29.087  1.00  0.00     0.057 A 
ATOM     60  C   UNL A   1      38.303  29.582  27.872  1.00  0.00     0.134 A 
ATOM     61  C   UNL A   1      38.052  29.121  30.208  1.00  0.00     0.134 A 
ATOM     62  F   UNL A   1      39.051  29.691  26.764  1.00  0.00    -0.206 F 
ATOM     63  C   UNL A   1      36.948  29.908  27.783  1.00  0.00     0.040 A 
ATOM     64  C   UNL A   1      36.690  29.418  30.126  1.00  0.00     0.040 A 
ATOM     65  F   UNL A   1      38.544  28.757  31.402  1.00  0.00    -0.206 F 
ATOM     66  C   UNL A   1      36.137  29.820  28.912  1.00  0.00     0.006 A 
ENDBRANCH  45  59
BRANCH  46  67
ATOM     67  C   UNL A   1      48.546  26.658  29.328  1.00  0.00     0.057 A 
ATOM     68  C   UNL A   1      49.120  26.050  30.452  1.00  0.00     0.134 A 
ATOM     69  C   UNL A   1      49.379  26.905  28.231  1.00  0.00     0.134 A 
ATOM     70  F   UNL A   1      48.374  25.801  31.538  1.00  0.00    -0.206 F 
ATOM     71  C   UNL A   1      50.474  25.717  30.491  1.00  0.00     0.040 A 
ATOM     72  C   UNL A   1      50.730  26.558  28.249  1.00  0.00     0.040 A 
ATOM     73  F   UNL A   1      48.887  27.476  27.122  1.00  0.00    -0.206 F 
ATOM     74  C   UNL A   1      51.283  25.967  29.384  1.00  0.00     0.006 A 
ENDBRANCH  46  67
BRANCH  58  75
ATOM     75  C   UNL A   1      45.019  32.353  31.216  1.00  0.00     0.057 A 
ATOM     76  C   UNL A   1      45.385  33.467  30.452  1.00  0.00     0.134 A 
ATOM     77  C   UNL A   1      45.033  32.490  32.611  1.00  0.00     0.134 A 
ATOM     78  F   UNL A   1      45.404  33.396  29.112  1.00  0.00    -0.206 F 
ATOM     79  C   UNL A   1      45.776  34.665  31.052  1.00  0.00     0.040 A 
ATOM     80  C   UNL A   1      45.397  33.690  33.221  1.00  0.00     0.040 A 
ATOM     81  F   UNL A   1      44.684  31.462  33.400  1.00  0.00    -0.206 F 
ATOM     82  C   UNL A   1      45.776  34.780  32.441  1.00  0.00     0.006 A 
ENDBRANCH  58  75
ENDBRANCH  32  33
ENDBRANCH  24  27
ENDBRANCH  22  23
ENDBRANCH  21  22
ENDBRANCH   1  21
TORSDOF 13
ENDMDL
