MODEL 1
REMARK VINA RESULT:     -11.5      0.000      0.000
REMARK SMILES O=C(NCCCNC(=O)[C@H]1C=C[C@H](NS(=O)(=O)c2ccc(F)c(F)c2F)C1)c1ccc(-c2c3nc(c(-c4c(F)cccc4F)c4ccc([nH]4)c(-c4c(F)cccc4F)c4nc(c(-c5c(F)cccc5F)c5ccc2[nH]5)C=C4)C=C3)cc1
REMARK SMILES IDX 5 1 4 2 3 3 1 4 2 5 28 7 29 8 81 9 30 10 80 11 31 12 32 13
REMARK SMILES IDX 33 14 74 15 34 16 79 17 73 18 75 19 35 20 78 21 72 22 71 23
REMARK SMILES IDX 36 25 62 26 45 27 61 28 46 29 49 30 60 31 76 32 47 33 48 34
REMARK SMILES IDX 59 36 77 37 50 38 37 39 38 40 43 41 39 42 40 43 42 44 44 45
REMARK SMILES IDX 41 46 63 47 64 48 69 49 65 50 66 51 68 52 70 53 67 54 51 55
REMARK SMILES IDX 52 56 57 57 53 58 54 59 56 60 58 61 55 62 6 63 7 64 8 65
REMARK SMILES IDX 9 67 10 68 11 69 27 70 12 71 13 72 14 73 15 75 16 76 17 77
REMARK SMILES IDX 18 78 19 79 25 80 20 81 23 82 26 83 21 84 24 85 22 86
REMARK H PARENT 3 6 75 24 49 35 7 66 14 74
REMARK Flexibility Score: inf
ROOT
ATOM      1  C   UNL A   1      33.180  35.324  28.877  1.00  0.00     0.042 C 
ENDROOT
BRANCH   1   2
ATOM      2  C   UNL A   1      33.283  36.575  29.745  1.00  0.00     0.118 C 
BRANCH   2   3
ATOM      3  N   UNL A   1      32.416  36.539  30.915  1.00  0.00    -0.352 N 
ATOM      4  O   UNL A   1      31.496  35.852  32.836  1.00  0.00    -0.269 OA
ATOM      5  C   UNL A   1      32.480  35.847  32.098  1.00  0.00     0.251 C 
ATOM      6  H   UNL A   1      31.630  37.127  30.842  1.00  0.00     0.163 HD
BRANCH   5   7
ATOM      7  C   UNL A   1      33.681  35.082  32.503  1.00  0.00     0.039 A 
ATOM      8  C   UNL A   1      34.961  35.630  32.440  1.00  0.00     0.014 A 
ATOM      9  C   UNL A   1      33.510  33.804  33.056  1.00  0.00     0.014 A 
ATOM     10  C   UNL A   1      36.070  34.858  32.781  1.00  0.00     0.010 A 
ATOM     11  C   UNL A   1      34.617  33.063  33.485  1.00  0.00     0.010 A 
ATOM     12  C   UNL A   1      35.912  33.570  33.317  1.00  0.00    -0.014 A 
BRANCH  12  13
ATOM     13  C   UNL A   1      37.117  32.805  33.735  1.00  0.00     0.031 A 
ATOM     14  C   UNL A   1      37.730  31.769  32.834  1.00  0.00     0.074 A 
ATOM     15  C   UNL A   1      37.693  33.091  34.919  1.00  0.00     0.049 A 
ATOM     16  N   UNL A   1      38.832  31.079  33.004  1.00  0.00    -0.248 NA
ATOM     17  C   UNL A   1      37.016  31.458  31.588  1.00  0.00     0.031 C 
ATOM     18  C   UNL A   1      37.179  34.056  35.893  1.00  0.00     0.029 A 
ATOM     19  N   UNL A   1      38.850  32.628  35.490  1.00  0.00    -0.354 N 
ATOM     20  C   UNL A   1      38.928  30.238  31.902  1.00  0.00     0.074 A 
ATOM     21  C   UNL A   1      37.765  30.489  31.079  1.00  0.00     0.031 C 
ATOM     22  C   UNL A   1      38.053  34.166  36.906  1.00  0.00     0.029 A 
ATOM     23  C   UNL A   1      39.160  33.246  36.678  1.00  0.00     0.049 A 
ATOM     24  H   UNL A   1      39.406  31.920  35.088  1.00  0.00     0.167 HD
ATOM     25  C   UNL A   1      39.903  29.347  31.600  1.00  0.00     0.037 A 
ATOM     26  C   UNL A   1      40.222  33.096  37.491  1.00  0.00     0.037 A 
ATOM     27  C   UNL A   1      41.076  29.119  32.403  1.00  0.00     0.049 A 
ATOM     28  C   UNL A   1      41.294  32.111  37.124  1.00  0.00     0.074 A 
ATOM     29  C   UNL A   1      42.143  28.273  32.151  1.00  0.00     0.029 A 
ATOM     30  N   UNL A   1      41.337  29.740  33.615  1.00  0.00    -0.354 N 
ATOM     31  N   UNL A   1      41.391  31.357  36.057  1.00  0.00    -0.248 NA
ATOM     32  C   UNL A   1      42.399  31.954  38.079  1.00  0.00     0.031 C 
ATOM     33  C   UNL A   1      43.033  28.357  33.229  1.00  0.00     0.029 A 
ATOM     34  C   UNL A   1      42.537  29.282  34.133  1.00  0.00     0.049 A 
ATOM     35  H   UNL A   1      40.754  30.408  34.044  1.00  0.00     0.167 HD
ATOM     36  C   UNL A   1      42.572  30.644  36.205  1.00  0.00     0.074 A 
ATOM     37  C   UNL A   1      43.167  31.071  37.455  1.00  0.00     0.031 C 
ATOM     38  C   UNL A   1      43.113  29.715  35.379  1.00  0.00     0.037 A 
BRANCH  25  39
ATOM     39  C   UNL A   1      39.734  28.536  30.349  1.00  0.00     0.057 A 
ATOM     40  C   UNL A   1      40.222  28.974  29.111  1.00  0.00     0.134 A 
ATOM     41  C   UNL A   1      39.107  27.284  30.392  1.00  0.00     0.134 A 
ATOM     42  F   UNL A   1      40.819  30.169  29.000  1.00  0.00    -0.206 F 
ATOM     43  C   UNL A   1      40.075  28.203  27.956  1.00  0.00     0.040 A 
ATOM     44  C   UNL A   1      38.972  26.495  29.248  1.00  0.00     0.040 A 
ATOM     45  F   UNL A   1      38.622  26.804  31.547  1.00  0.00    -0.206 F 
ATOM     46  C   UNL A   1      39.453  26.957  28.024  1.00  0.00     0.006 A 
ENDBRANCH  25  39
BRANCH  26  47
ATOM     47  C   UNL A   1      40.331  33.918  38.720  1.00  0.00     0.057 A 
ATOM     48  C   UNL A   1      39.754  33.495  39.923  1.00  0.00     0.134 A 
ATOM     49  C   UNL A   1      41.026  35.133  38.727  1.00  0.00     0.134 A 
ATOM     50  F   UNL A   1      39.062  32.348  39.973  1.00  0.00    -0.206 F 
ATOM     51  C   UNL A   1      39.858  34.254  41.088  1.00  0.00     0.040 A 
ATOM     52  C   UNL A   1      41.157  35.891  39.890  1.00  0.00     0.040 A 
ATOM     53  F   UNL A   1      41.605  35.587  37.605  1.00  0.00    -0.206 F 
ATOM     54  C   UNL A   1      40.568  35.454  41.075  1.00  0.00     0.006 A 
ENDBRANCH  26  47
BRANCH  38  55
ATOM     55  C   UNL A   1      44.419  29.115  35.801  1.00  0.00     0.057 A 
ATOM     56  C   UNL A   1      44.476  27.938  36.558  1.00  0.00     0.134 A 
ATOM     57  C   UNL A   1      45.631  29.713  35.436  1.00  0.00     0.134 A 
ATOM     58  F   UNL A   1      43.348  27.328  36.952  1.00  0.00    -0.206 F 
ATOM     59  C   UNL A   1      45.694  27.386  36.955  1.00  0.00     0.040 A 
ATOM     60  C   UNL A   1      46.856  29.160  35.810  1.00  0.00     0.040 A 
ATOM     61  F   UNL A   1      45.643  30.840  34.708  1.00  0.00    -0.206 F 
ATOM     62  C   UNL A   1      46.890  27.997  36.577  1.00  0.00     0.006 A 
ENDBRANCH  38  55
ENDBRANCH  12  13
ENDBRANCH   5   7
ENDBRANCH   2   3
ENDBRANCH   1   2
BRANCH   1  63
ATOM     63  C   UNL A   1      34.393  35.050  27.998  1.00  0.00     0.117 C 
BRANCH  63  64
ATOM     64  N   UNL A   1      35.582  34.666  28.732  1.00  0.00    -0.356 N 
ATOM     65  C   UNL A   1      36.391  33.577  28.633  1.00  0.00     0.226 C 
ATOM     66  H   UNL A   1      35.851  35.308  29.427  1.00  0.00     0.163 HD
ATOM     67  O   UNL A   1      37.414  33.587  29.323  1.00  0.00    -0.274 OA
BRANCH  65  68
ATOM     68  C   UNL A   1      35.973  32.344  27.826  1.00  0.00     0.103 C 
ATOM     69  C   UNL A   1      36.847  31.124  27.800  1.00  0.00    -0.016 C 
ATOM     70  C   UNL A   1      34.696  31.724  28.430  1.00  0.00     0.042 C 
ATOM     71  C   UNL A   1      36.110  30.002  27.810  1.00  0.00    -0.011 C 
ATOM     72  C   UNL A   1      34.641  30.286  27.927  1.00  0.00     0.093 C 
BRANCH  72  73
ATOM     73  N   UNL A   1      34.073  30.106  26.589  1.00  0.00    -0.204 NA
ATOM     74  H   UNL A   1      34.571  29.325  26.163  1.00  0.00     0.142 HD
BRANCH  73  75
ATOM     75  S   UNL A   1      32.427  29.795  26.395  1.00  0.00     0.244 S 
ATOM     76  O   UNL A   1      32.042  28.983  27.525  1.00  0.00    -0.207 OA
ATOM     77  O   UNL A   1      31.779  31.049  26.095  1.00  0.00    -0.207 OA
BRANCH  75  78
ATOM     78  C   UNL A   1      32.443  28.724  24.992  1.00  0.00     0.121 A 
ATOM     79  C   UNL A   1      33.583  27.931  24.773  1.00  0.00     0.028 A 
ATOM     80  C   UNL A   1      31.404  28.737  24.070  1.00  0.00     0.181 A 
ATOM     81  C   UNL A   1      33.695  27.195  23.594  1.00  0.00     0.044 A 
ATOM     82  C   UNL A   1      31.527  28.006  22.893  1.00  0.00     0.195 A 
ATOM     83  F   UNL A   1      30.301  29.470  24.262  1.00  0.00    -0.202 F 
ATOM     84  C   UNL A   1      32.671  27.251  22.653  1.00  0.00     0.161 A 
ATOM     85  F   UNL A   1      30.554  28.049  21.973  1.00  0.00    -0.200 F 
ATOM     86  F   UNL A   1      32.809  26.583  21.501  1.00  0.00    -0.204 F 
ENDBRANCH  75  78
ENDBRANCH  73  75
ENDBRANCH  72  73
ENDBRANCH  65  68
ENDBRANCH  63  64
ENDBRANCH   1  63
TORSDOF 13
ENDMDL
MODEL 2
REMARK VINA RESULT:     -11.4      5.750     10.456
REMARK SMILES O=C(NCCCNC(=O)[C@H]1C=C[C@H](NS(=O)(=O)c2ccc(F)c(F)c2F)C1)c1ccc(-c2c3nc(c(-c4c(F)cccc4F)c4ccc([nH]4)c(-c4c(F)cccc4F)c4nc(c(-c5c(F)cccc5F)c5ccc2[nH]5)C=C4)C=C3)cc1
REMARK SMILES IDX 5 1 4 2 3 3 1 4 2 5 28 7 29 8 81 9 30 10 80 11 31 12 32 13
REMARK SMILES IDX 33 14 74 15 34 16 79 17 73 18 75 19 35 20 78 21 72 22 71 23
REMARK SMILES IDX 36 25 62 26 45 27 61 28 46 29 49 30 60 31 76 32 47 33 48 34
REMARK SMILES IDX 59 36 77 37 50 38 37 39 38 40 43 41 39 42 40 43 42 44 44 45
REMARK SMILES IDX 41 46 63 47 64 48 69 49 65 50 66 51 68 52 70 53 67 54 51 55
REMARK SMILES IDX 52 56 57 57 53 58 54 59 56 60 58 61 55 62 6 63 7 64 8 65
REMARK SMILES IDX 9 67 10 68 11 69 27 70 12 71 13 72 14 73 15 75 16 76 17 77
REMARK SMILES IDX 18 78 19 79 25 80 20 81 23 82 26 83 21 84 24 85 22 86
REMARK H PARENT 3 6 75 24 49 35 7 66 14 74
REMARK Flexibility Score: inf
ROOT
ATOM      1  C   UNL A   1      38.218  19.632  24.789  1.00  0.00     0.042 C 
ENDROOT
BRANCH   1   2
ATOM      2  C   UNL A   1      39.138  19.763  25.999  1.00  0.00     0.118 C 
BRANCH   2   3
ATOM      3  N   UNL A   1      40.443  19.146  25.802  1.00  0.00    -0.352 N 
ATOM      4  O   UNL A   1      42.647  18.935  25.482  1.00  0.00    -0.269 OA
ATOM      5  C   UNL A   1      41.724  19.627  25.905  1.00  0.00     0.251 C 
ATOM      6  H   UNL A   1      40.396  18.197  25.545  1.00  0.00     0.163 HD
BRANCH   5   7
ATOM      7  C   UNL A   1      42.025  20.954  26.488  1.00  0.00     0.039 A 
ATOM      8  C   UNL A   1      42.202  22.086  25.694  1.00  0.00     0.014 A 
ATOM      9  C   UNL A   1      42.036  21.089  27.885  1.00  0.00     0.014 A 
ATOM     10  C   UNL A   1      42.537  23.306  26.280  1.00  0.00     0.010 A 
ATOM     11  C   UNL A   1      42.282  22.334  28.475  1.00  0.00     0.010 A 
ATOM     12  C   UNL A   1      42.570  23.448  27.676  1.00  0.00    -0.014 A 
BRANCH  12  13
ATOM     13  C   UNL A   1      42.862  24.783  28.262  1.00  0.00     0.031 A 
ATOM     14  C   UNL A   1      44.274  25.211  28.554  1.00  0.00     0.074 A 
ATOM     15  C   UNL A   1      41.843  25.636  28.481  1.00  0.00     0.049 A 
ATOM     16  N   UNL A   1      44.711  26.372  28.978  1.00  0.00    -0.248 NA
ATOM     17  C   UNL A   1      45.332  24.210  28.357  1.00  0.00     0.031 C 
ATOM     18  C   UNL A   1      40.427  25.330  28.263  1.00  0.00     0.029 A 
ATOM     19  N   UNL A   1      41.839  26.942  28.900  1.00  0.00    -0.354 N 
ATOM     20  C   UNL A   1      46.086  26.233  29.120  1.00  0.00     0.074 A 
ATOM     21  C   UNL A   1      46.410  24.871  28.757  1.00  0.00     0.031 C 
ATOM     22  C   UNL A   1      39.700  26.436  28.480  1.00  0.00     0.029 A 
ATOM     23  C   UNL A   1      40.588  27.513  28.900  1.00  0.00     0.049 A 
ATOM     24  H   UNL A   1      42.652  27.425  29.175  1.00  0.00     0.167 HD
ATOM     25  C   UNL A   1      46.995  27.160  29.507  1.00  0.00     0.037 A 
ATOM     26  C   UNL A   1      40.199  28.767  29.196  1.00  0.00     0.037 A 
ATOM     27  C   UNL A   1      46.677  28.525  29.840  1.00  0.00     0.049 A 
ATOM     28  C   UNL A   1      41.230  29.777  29.608  1.00  0.00     0.074 A 
ATOM     29  C   UNL A   1      47.538  29.550  30.194  1.00  0.00     0.029 A 
ATOM     30  N   UNL A   1      45.396  29.055  29.859  1.00  0.00    -0.354 N 
ATOM     31  N   UNL A   1      42.530  29.641  29.694  1.00  0.00    -0.248 NA
ATOM     32  C   UNL A   1      40.736  31.112  29.971  1.00  0.00     0.031 C 
ATOM     33  C   UNL A   1      46.773  30.692  30.461  1.00  0.00     0.029 A 
ATOM     34  C   UNL A   1      45.440  30.387  30.238  1.00  0.00     0.049 A 
ATOM     35  H   UNL A   1      44.576  28.557  29.636  1.00  0.00     0.167 HD
ATOM     36  C   UNL A   1      43.012  30.874  30.109  1.00  0.00     0.074 A 
ATOM     37  C   UNL A   1      41.867  31.751  30.238  1.00  0.00     0.031 C 
ATOM     38  C   UNL A   1      44.291  31.244  30.364  1.00  0.00     0.037 A 
BRANCH  25  39
ATOM     39  C   UNL A   1      48.426  26.724  29.607  1.00  0.00     0.057 A 
ATOM     40  C   UNL A   1      49.323  26.868  28.540  1.00  0.00     0.134 A 
ATOM     41  C   UNL A   1      48.924  26.185  30.801  1.00  0.00     0.134 A 
ATOM     42  F   UNL A   1      48.905  27.365  27.366  1.00  0.00    -0.206 F 
ATOM     43  C   UNL A   1      50.657  26.475  28.651  1.00  0.00     0.040 A 
ATOM     44  C   UNL A   1      50.262  25.806  30.930  1.00  0.00     0.040 A 
ATOM     45  F   UNL A   1      48.120  26.024  31.863  1.00  0.00    -0.206 F 
ATOM     46  C   UNL A   1      51.132  25.947  29.851  1.00  0.00     0.006 A 
ENDBRANCH  25  39
BRANCH  26  47
ATOM     47  C   UNL A   1      38.769  29.139  29.088  1.00  0.00     0.057 A 
ATOM     48  C   UNL A   1      38.219  29.541  27.865  1.00  0.00     0.134 A 
ATOM     49  C   UNL A   1      37.914  29.088  30.195  1.00  0.00     0.134 A 
ATOM     50  F   UNL A   1      38.993  29.624  26.773  1.00  0.00    -0.206 F 
ATOM     51  C   UNL A   1      36.873  29.884  27.747  1.00  0.00     0.040 A 
ATOM     52  C   UNL A   1      36.561  29.407  30.087  1.00  0.00     0.040 A 
ATOM     53  F   UNL A   1      38.382  28.706  31.393  1.00  0.00    -0.206 F 
ATOM     54  C   UNL A   1      36.037  29.811  28.860  1.00  0.00     0.006 A 
ENDBRANCH  26  47
BRANCH  38  55
ATOM     55  C   UNL A   1      44.511  32.663  30.791  1.00  0.00     0.057 A 
ATOM     56  C   UNL A   1      44.707  33.689  29.858  1.00  0.00     0.134 A 
ATOM     57  C   UNL A   1      44.513  33.008  32.147  1.00  0.00     0.134 A 
ATOM     58  F   UNL A   1      44.731  33.418  28.544  1.00  0.00    -0.206 F 
ATOM     59  C   UNL A   1      44.918  35.008  30.260  1.00  0.00     0.040 A 
ATOM     60  C   UNL A   1      44.703  34.327  32.561  1.00  0.00     0.040 A 
ATOM     61  F   UNL A   1      44.326  32.072  33.090  1.00  0.00    -0.206 F 
ATOM     62  C   UNL A   1      44.913  35.330  31.617  1.00  0.00     0.006 A 
ENDBRANCH  38  55
ENDBRANCH  12  13
ENDBRANCH   5   7
ENDBRANCH   2   3
ENDBRANCH   1   2
BRANCH   1  63
ATOM     63  C   UNL A   1      37.236  20.781  24.601  1.00  0.00     0.117 C 
BRANCH  63  64
ATOM     64  N   UNL A   1      37.721  22.059  25.082  1.00  0.00    -0.356 N 
ATOM     65  C   UNL A   1      37.067  23.143  25.581  1.00  0.00     0.226 C 
ATOM     66  H   UNL A   1      38.699  22.161  25.039  1.00  0.00     0.163 HD
ATOM     67  O   UNL A   1      37.771  24.052  26.027  1.00  0.00    -0.274 OA
BRANCH  65  68
ATOM     68  C   UNL A   1      35.548  23.286  25.449  1.00  0.00     0.103 C 
ATOM     69  C   UNL A   1      34.645  22.796  26.544  1.00  0.00    -0.016 C 
ATOM     70  C   UNL A   1      35.155  24.777  25.451  1.00  0.00     0.042 C 
ATOM     71  C   UNL A   1      33.599  23.620  26.713  1.00  0.00    -0.011 C 
ATOM     72  C   UNL A   1      33.678  24.829  25.827  1.00  0.00     0.093 C 
BRANCH  72  73
ATOM     73  N   UNL A   1      32.738  24.601  24.727  1.00  0.00    -0.204 NA
ATOM     74  H   UNL A   1      31.898  24.194  25.139  1.00  0.00     0.142 HD
BRANCH  73  75
ATOM     75  S   UNL A   1      32.230  25.884  23.758  1.00  0.00     0.244 S 
ATOM     76  O   UNL A   1      33.281  26.090  22.790  1.00  0.00    -0.207 OA
ATOM     77  O   UNL A   1      30.866  25.620  23.364  1.00  0.00    -0.207 OA
BRANCH  75  78
ATOM     78  C   UNL A   1      32.325  27.231  24.894  1.00  0.00     0.121 A 
ATOM     79  C   UNL A   1      33.348  28.179  24.718  1.00  0.00     0.028 A 
ATOM     80  C   UNL A   1      31.479  27.302  25.993  1.00  0.00     0.181 A 
ATOM     81  C   UNL A   1      33.550  29.164  25.684  1.00  0.00     0.044 A 
ATOM     82  C   UNL A   1      31.692  28.282  26.956  1.00  0.00     0.195 A 
ATOM     83  F   UNL A   1      30.488  26.422  26.177  1.00  0.00    -0.202 F 
ATOM     84  C   UNL A   1      32.729  29.198  26.807  1.00  0.00     0.161 A 
ATOM     85  F   UNL A   1      30.915  28.330  28.047  1.00  0.00    -0.200 F 
ATOM     86  F   UNL A   1      32.962  30.114  27.756  1.00  0.00    -0.204 F 
ENDBRANCH  75  78
ENDBRANCH  73  75
ENDBRANCH  72  73
ENDBRANCH  65  68
ENDBRANCH  63  64
ENDBRANCH   1  63
TORSDOF 13
ENDMDL
MODEL 3
REMARK VINA RESULT:     -11.4      3.774      9.257
REMARK SMILES O=C(NCCCNC(=O)[C@H]1C=C[C@H](NS(=O)(=O)c2ccc(F)c(F)c2F)C1)c1ccc(-c2c3nc(c(-c4c(F)cccc4F)c4ccc([nH]4)c(-c4c(F)cccc4F)c4nc(c(-c5c(F)cccc5F)c5ccc2[nH]5)C=C4)C=C3)cc1
REMARK SMILES IDX 5 1 4 2 3 3 1 4 2 5 28 7 29 8 81 9 30 10 80 11 31 12 32 13
REMARK SMILES IDX 33 14 74 15 34 16 79 17 73 18 75 19 35 20 78 21 72 22 71 23
REMARK SMILES IDX 36 25 62 26 45 27 61 28 46 29 49 30 60 31 76 32 47 33 48 34
REMARK SMILES IDX 59 36 77 37 50 38 37 39 38 40 43 41 39 42 40 43 42 44 44 45
REMARK SMILES IDX 41 46 63 47 64 48 69 49 65 50 66 51 68 52 70 53 67 54 51 55
REMARK SMILES IDX 52 56 57 57 53 58 54 59 56 60 58 61 55 62 6 63 7 64 8 65
REMARK SMILES IDX 9 67 10 68 11 69 27 70 12 71 13 72 14 73 15 75 16 76 17 77
REMARK SMILES IDX 18 78 19 79 25 80 20 81 23 82 26 83 21 84 24 85 22 86
REMARK H PARENT 3 6 75 24 49 35 7 66 14 74
REMARK Flexibility Score: inf
ROOT
ATOM      1  C   UNL A   1      35.166  33.807  28.149  1.00  0.00     0.042 C 
ENDROOT
BRANCH   1   2
ATOM      2  C   UNL A   1      34.310  32.792  28.901  1.00  0.00     0.118 C 
BRANCH   2   3
ATOM      3  N   UNL A   1      33.843  31.697  28.062  1.00  0.00    -0.352 N 
ATOM      4  O   UNL A   1      33.879  29.897  26.732  1.00  0.00    -0.269 OA
ATOM      5  C   UNL A   1      34.449  30.555  27.600  1.00  0.00     0.251 C 
ATOM      6  H   UNL A   1      32.908  31.795  27.768  1.00  0.00     0.163 HD
BRANCH   5   7
ATOM      7  C   UNL A   1      35.770  30.105  28.097  1.00  0.00     0.039 A 
ATOM      8  C   UNL A   1      36.949  30.376  27.406  1.00  0.00     0.014 A 
ATOM      9  C   UNL A   1      35.838  29.474  29.348  1.00  0.00     0.014 A 
ATOM     10  C   UNL A   1      38.165  29.889  27.881  1.00  0.00     0.010 A 
ATOM     11  C   UNL A   1      37.071  29.065  29.870  1.00  0.00     0.010 A 
ATOM     12  C   UNL A   1      38.243  29.237  29.123  1.00  0.00    -0.014 A 
BRANCH  12  13
ATOM     13  C   UNL A   1      39.571  28.795  29.627  1.00  0.00     0.031 A 
ATOM     14  C   UNL A   1      40.166  29.390  30.874  1.00  0.00     0.074 A 
ATOM     15  C   UNL A   1      40.219  27.808  28.978  1.00  0.00     0.049 A 
ATOM     16  N   UNL A   1      41.267  29.055  31.500  1.00  0.00    -0.248 NA
ATOM     17  C   UNL A   1      39.441  30.508  31.494  1.00  0.00     0.031 C 
ATOM     18  C   UNL A   1      39.759  27.169  27.743  1.00  0.00     0.029 A 
ATOM     19  N   UNL A   1      41.380  27.145  29.282  1.00  0.00    -0.354 N 
ATOM     20  C   UNL A   1      41.379  29.934  32.571  1.00  0.00     0.074 A 
ATOM     21  C   UNL A   1      40.245  30.830  32.498  1.00  0.00     0.031 C 
ATOM     22  C   UNL A   1      40.589  26.161  27.435  1.00  0.00     0.029 A 
ATOM     23  C   UNL A   1      41.664  26.114  28.419  1.00  0.00     0.049 A 
ATOM     24  H   UNL A   1      41.956  27.385  30.044  1.00  0.00     0.167 HD
ATOM     25  C   UNL A   1      42.334  29.982  33.530  1.00  0.00     0.037 A 
ATOM     26  C   UNL A   1      42.672  25.222  28.422  1.00  0.00     0.037 A 
ATOM     27  C   UNL A   1      43.446  29.072  33.620  1.00  0.00     0.049 A 
ATOM     28  C   UNL A   1      43.707  25.290  29.506  1.00  0.00     0.074 A 
ATOM     29  C   UNL A   1      44.435  29.011  34.587  1.00  0.00     0.029 A 
ATOM     30  N   UNL A   1      43.716  28.063  32.709  1.00  0.00    -0.354 N 
ATOM     31  N   UNL A   1      43.773  26.099  30.535  1.00  0.00    -0.248 NA
ATOM     32  C   UNL A   1      44.812  24.325  29.425  1.00  0.00     0.031 C 
ATOM     33  C   UNL A   1      45.324  27.986  34.241  1.00  0.00     0.029 A 
ATOM     34  C   UNL A   1      44.867  27.385  33.079  1.00  0.00     0.049 A 
ATOM     35  H   UNL A   1      43.169  27.857  31.916  1.00  0.00     0.167 HD
ATOM     36  C   UNL A   1      44.918  25.735  31.229  1.00  0.00     0.074 A 
ATOM     37  C   UNL A   1      45.504  24.618  30.516  1.00  0.00     0.031 C 
ATOM     38  C   UNL A   1      45.438  26.279  32.356  1.00  0.00     0.037 A 
BRANCH  25  39
ATOM     39  C   UNL A   1      42.226  31.069  34.558  1.00  0.00     0.057 A 
ATOM     40  C   UNL A   1      42.784  32.338  34.357  1.00  0.00     0.134 A 
ATOM     41  C   UNL A   1      41.520  30.854  35.750  1.00  0.00     0.134 A 
ATOM     42  F   UNL A   1      43.483  32.603  33.243  1.00  0.00    -0.206 F 
ATOM     43  C   UNL A   1      42.662  33.348  35.313  1.00  0.00     0.040 A 
ATOM     44  C   UNL A   1      41.374  31.863  36.704  1.00  0.00     0.040 A 
ATOM     45  F   UNL A   1      40.957  29.663  36.003  1.00  0.00    -0.206 F 
ATOM     46  C   UNL A   1      41.950  33.113  36.489  1.00  0.00     0.006 A 
ENDBRANCH  25  39
BRANCH  26  47
ATOM     47  C   UNL A   1      42.733  24.175  27.375  1.00  0.00     0.057 A 
ATOM     48  C   UNL A   1      42.211  22.896  27.604  1.00  0.00     0.134 A 
ATOM     49  C   UNL A   1      43.296  24.428  26.119  1.00  0.00     0.134 A 
ATOM     50  F   UNL A   1      41.673  22.591  28.794  1.00  0.00    -0.206 F 
ATOM     51  C   UNL A   1      42.252  21.905  26.625  1.00  0.00     0.040 A 
ATOM     52  C   UNL A   1      43.325  23.453  25.123  1.00  0.00     0.040 A 
ATOM     53  F   UNL A   1      43.808  25.636  25.839  1.00  0.00    -0.206 F 
ATOM     54  C   UNL A   1      42.805  22.185  25.376  1.00  0.00     0.006 A 
ENDBRANCH  26  47
BRANCH  38  55
ATOM     55  C   UNL A   1      46.694  25.660  32.888  1.00  0.00     0.057 A 
ATOM     56  C   UNL A   1      46.660  24.634  33.841  1.00  0.00     0.134 A 
ATOM     57  C   UNL A   1      47.947  26.085  32.435  1.00  0.00     0.134 A 
ATOM     58  F   UNL A   1      45.489  24.194  34.326  1.00  0.00    -0.206 F 
ATOM     59  C   UNL A   1      47.832  24.064  34.339  1.00  0.00     0.040 A 
ATOM     60  C   UNL A   1      49.126  25.510  32.911  1.00  0.00     0.040 A 
ATOM     61  F   UNL A   1      48.046  27.062  31.520  1.00  0.00    -0.206 F 
ATOM     62  C   UNL A   1      49.071  24.502  33.870  1.00  0.00     0.006 A 
ENDBRANCH  38  55
ENDBRANCH  12  13
ENDBRANCH   5   7
ENDBRANCH   2   3
ENDBRANCH   1   2
BRANCH   1  63
ATOM     63  C   UNL A   1      34.815  35.265  28.415  1.00  0.00     0.117 C 
BRANCH  63  64
ATOM     64  N   UNL A   1      33.475  35.468  28.929  1.00  0.00    -0.356 N 
ATOM     65  C   UNL A   1      33.030  35.940  30.124  1.00  0.00     0.226 C 
ATOM     66  H   UNL A   1      32.761  35.218  28.300  1.00  0.00     0.163 HD
ATOM     67  O   UNL A   1      31.813  36.114  30.227  1.00  0.00    -0.274 OA
BRANCH  65  68
ATOM     68  C   UNL A   1      33.973  36.096  31.321  1.00  0.00     0.103 C 
ATOM     69  C   UNL A   1      33.650  37.069  32.418  1.00  0.00    -0.016 C 
ATOM     70  C   UNL A   1      34.003  34.792  32.145  1.00  0.00     0.042 C 
ATOM     71  C   UNL A   1      33.994  36.576  33.618  1.00  0.00    -0.011 C 
ATOM     72  C   UNL A   1      34.521  35.173  33.528  1.00  0.00     0.093 C 
BRANCH  72  73
ATOM     73  N   UNL A   1      35.977  35.265  33.654  1.00  0.00    -0.204 NA
ATOM     74  H   UNL A   1      36.165  35.988  34.348  1.00  0.00     0.142 HD
BRANCH  73  75
ATOM     75  S   UNL A   1      36.883  33.915  34.102  1.00  0.00     0.244 S 
ATOM     76  O   UNL A   1      37.511  34.259  35.356  1.00  0.00    -0.207 OA
ATOM     77  O   UNL A   1      36.034  32.755  33.962  1.00  0.00    -0.207 OA
BRANCH  75  78
ATOM     78  C   UNL A   1      38.158  33.935  32.882  1.00  0.00     0.121 A 
ATOM     79  C   UNL A   1      39.458  34.283  33.285  1.00  0.00     0.028 A 
ATOM     80  C   UNL A   1      37.869  33.716  31.541  1.00  0.00     0.181 A 
ATOM     81  C   UNL A   1      40.453  34.463  32.325  1.00  0.00     0.044 A 
ATOM     82  C   UNL A   1      38.864  33.905  30.589  1.00  0.00     0.195 A 
ATOM     83  F   UNL A   1      36.642  33.369  31.133  1.00  0.00    -0.202 F 
ATOM     84  C   UNL A   1      40.144  34.288  30.979  1.00  0.00     0.161 A 
ATOM     85  F   UNL A   1      38.586  33.746  29.288  1.00  0.00    -0.200 F 
ATOM     86  F   UNL A   1      41.091  34.514  30.059  1.00  0.00    -0.204 F 
ENDBRANCH  75  78
ENDBRANCH  73  75
ENDBRANCH  72  73
ENDBRANCH  65  68
ENDBRANCH  63  64
ENDBRANCH   1  63
TORSDOF 13
ENDMDL
