MODEL 1
REMARK VINA RESULT:     -13.7      0.000      0.000
REMARK SMILES Cc1cc(C(=O)NCCCNC(=O)c2ccc(-c3c4nc(c(-c5c(F)cccc5F)c5ccc([nH]5)c(-c5c(F)cccc5F)c5nc(c(-c6c(F)cccc6F)c6ccc3[nH]6)C=C5)C=C4)cc2)ccc1NC(=O)N1C[C@@H](C)[C@H](C)C1
REMARK SMILES IDX 9 1 8 2 7 3 5 4 6 5 4 7 1 8 2 9 3 10 70 11 69 12 68 13 71 14
REMARK SMILES IDX 72 15 73 17 74 18 75 19 80 20 76 21 78 22 77 23 79 24 10 25
REMARK SMILES IDX 11 26 12 27 13 29 14 30 15 31 67 32 16 33 66 34 17 35 18 36
REMARK SMILES IDX 19 37 60 38 20 39 65 40 59 41 61 42 21 43 64 44 58 45 57 46
REMARK SMILES IDX 22 48 48 49 31 50 47 51 32 52 35 53 46 54 62 55 33 56 34 57
REMARK SMILES IDX 45 59 63 60 36 61 23 62 24 63 29 64 25 65 26 66 28 67 30 68
REMARK SMILES IDX 27 69 49 70 50 71 55 72 51 73 52 74 54 75 56 76 53 77 37 78
REMARK SMILES IDX 38 79 43 80 39 81 40 82 42 83 44 84 41 85
REMARK H PARENT 7 6 71 16 11 28 61 47 35 58
REMARK Flexibility Score: inf
ROOT
ATOM      1  C   UNL A   1      39.292  21.451  26.106  1.00  0.00     0.042 C 
ENDROOT
BRANCH   1   2
ATOM      2  C   UNL A   1      37.900  21.212  25.517  1.00  0.00     0.118 C 
BRANCH   2   3
ATOM      3  N   UNL A   1      37.678  21.897  24.245  1.00  0.00    -0.352 N 
ATOM      4  C   UNL A   1      36.572  22.594  23.790  1.00  0.00     0.251 C 
ATOM      5  O   UNL A   1      36.675  23.307  22.796  1.00  0.00    -0.269 OA
ATOM      6  H   UNL A   1      38.432  21.856  23.613  1.00  0.00     0.163 HD
BRANCH   4   7
ATOM      7  C   UNL A   1      35.274  22.525  24.507  1.00  0.00     0.040 A 
ATOM      8  C   UNL A   1      32.173  20.338  24.548  1.00  0.00     0.046 C 
ATOM      9  C   UNL A   1      33.052  21.536  24.788  1.00  0.00    -0.027 A 
ATOM     10  C   UNL A   1      34.337  21.536  24.195  1.00  0.00     0.019 A 
ATOM     11  C   UNL A   1      32.700  22.607  25.628  1.00  0.00     0.045 A 
ATOM     12  C   UNL A   1      33.712  23.454  26.082  1.00  0.00     0.027 A 
ATOM     13  C   UNL A   1      34.991  23.387  25.554  1.00  0.00     0.016 A 
BRANCH  11  14
ATOM     14  N   UNL A   1      31.374  22.820  26.056  1.00  0.00    -0.308 N 
ATOM     15  C   UNL A   1      30.751  24.015  26.309  1.00  0.00     0.321 C 
ATOM     16  H   UNL A   1      30.828  22.012  26.188  1.00  0.00     0.171 HD
ATOM     17  O   UNL A   1      29.897  24.073  27.194  1.00  0.00    -0.248 OA
ATOM     18  N   UNL A   1      31.094  25.109  25.548  1.00  0.00    -0.324 N 
ATOM     19  C   UNL A   1      30.968  26.459  26.064  1.00  0.00     0.125 C 
ATOM     20  C   UNL A   1      31.205  25.105  24.093  1.00  0.00     0.125 C 
ATOM     21  C   UNL A   1      30.809  27.353  24.835  1.00  0.00     0.010 C 
ATOM     22  C   UNL A   1      31.511  26.558  23.718  1.00  0.00     0.010 C 
ATOM     23  C   UNL A   1      31.393  28.743  25.037  1.00  0.00     0.010 C 
ATOM     24  C   UNL A   1      31.030  26.939  22.322  1.00  0.00     0.010 C 
ENDBRANCH  11  14
ENDBRANCH   4   7
ENDBRANCH   2   3
ENDBRANCH   1   2
BRANCH   1  25
ATOM     25  C   UNL A   1      39.556  22.873  26.570  1.00  0.00     0.118 C 
BRANCH  25  26
ATOM     26  N   UNL A   1      40.962  23.270  26.535  1.00  0.00    -0.352 N 
ATOM     27  C   UNL A   1      41.489  24.551  26.667  1.00  0.00     0.251 C 
ATOM     28  H   UNL A   1      41.614  22.544  26.401  1.00  0.00     0.163 HD
ATOM     29  O   UNL A   1      42.686  24.739  26.719  1.00  0.00    -0.269 OA
BRANCH  27  30
ATOM     30  C   UNL A   1      40.529  25.662  26.885  1.00  0.00     0.039 A 
ATOM     31  C   UNL A   1      40.821  26.878  26.267  1.00  0.00     0.014 A 
ATOM     32  C   UNL A   1      39.629  25.595  27.944  1.00  0.00     0.014 A 
ATOM     33  C   UNL A   1      40.458  28.057  26.908  1.00  0.00     0.010 A 
ATOM     34  C   UNL A   1      39.350  26.760  28.633  1.00  0.00     0.010 A 
ATOM     35  C   UNL A   1      39.840  27.981  28.158  1.00  0.00    -0.014 A 
BRANCH  35  36
ATOM     36  C   UNL A   1      39.771  29.124  29.063  1.00  0.00     0.031 A 
ATOM     37  C   UNL A   1      38.724  30.144  28.884  1.00  0.00     0.074 A 
ATOM     38  C   UNL A   1      40.668  29.278  30.063  1.00  0.00     0.049 A 
ATOM     39  N   UNL A   1      38.872  31.388  29.193  1.00  0.00    -0.248 NA
ATOM     40  C   UNL A   1      37.428  29.835  28.302  1.00  0.00     0.031 C 
ATOM     41  C   UNL A   1      40.635  30.270  31.134  1.00  0.00     0.029 A 
ATOM     42  N   UNL A   1      41.933  28.692  30.173  1.00  0.00    -0.354 N 
ATOM     43  C   UNL A   1      37.635  31.981  29.119  1.00  0.00     0.074 A 
ATOM     44  C   UNL A   1      36.785  30.990  28.493  1.00  0.00     0.031 C 
ATOM     45  C   UNL A   1      41.883  30.457  31.587  1.00  0.00     0.029 A 
ATOM     46  C   UNL A   1      42.774  29.668  30.759  1.00  0.00     0.049 A 
ATOM     47  H   UNL A   1      42.188  27.781  29.897  1.00  0.00     0.167 HD
ATOM     48  C   UNL A   1      37.432  33.192  29.715  1.00  0.00     0.037 A 
ATOM     49  C   UNL A   1      43.872  30.131  30.095  1.00  0.00     0.037 A 
ATOM     50  C   UNL A   1      38.658  33.714  30.325  1.00  0.00     0.049 A 
ATOM     51  C   UNL A   1      43.808  31.600  29.733  1.00  0.00     0.074 A 
ATOM     52  C   UNL A   1      39.151  33.757  31.620  1.00  0.00     0.029 A 
ATOM     53  N   UNL A   1      39.724  34.049  29.509  1.00  0.00    -0.354 N 
ATOM     54  N   UNL A   1      42.839  32.405  30.075  1.00  0.00    -0.248 NA
ATOM     55  C   UNL A   1      44.787  32.251  28.860  1.00  0.00     0.031 C 
ATOM     56  C   UNL A   1      40.523  34.133  31.568  1.00  0.00     0.029 A 
ATOM     57  C   UNL A   1      40.866  34.317  30.242  1.00  0.00     0.049 A 
ATOM     58  H   UNL A   1      39.675  34.090  28.527  1.00  0.00     0.167 HD
ATOM     59  C   UNL A   1      43.005  33.610  29.442  1.00  0.00     0.074 A 
ATOM     60  C   UNL A   1      44.241  33.466  28.697  1.00  0.00     0.031 C 
ATOM     61  C   UNL A   1      42.096  34.625  29.531  1.00  0.00     0.037 A 
BRANCH  48  62
ATOM     62  C   UNL A   1      36.056  33.763  29.968  1.00  0.00     0.057 A 
ATOM     63  C   UNL A   1      35.254  34.224  28.908  1.00  0.00     0.134 A 
ATOM     64  C   UNL A   1      35.484  33.934  31.242  1.00  0.00     0.134 A 
ATOM     65  F   UNL A   1      35.586  34.016  27.629  1.00  0.00    -0.206 F 
ATOM     66  C   UNL A   1      34.059  34.928  29.107  1.00  0.00     0.040 A 
ATOM     67  C   UNL A   1      34.323  34.690  31.461  1.00  0.00     0.040 A 
ATOM     68  F   UNL A   1      35.993  33.329  32.323  1.00  0.00    -0.206 F 
ATOM     69  C   UNL A   1      33.614  35.208  30.389  1.00  0.00     0.006 A 
ENDBRANCH  48  62
BRANCH  49  70
ATOM     70  C   UNL A   1      44.518  29.062  29.290  1.00  0.00     0.057 A 
ATOM     71  C   UNL A   1      45.290  28.104  29.976  1.00  0.00     0.134 A 
ATOM     72  C   UNL A   1      44.047  28.716  28.023  1.00  0.00     0.134 A 
ATOM     73  F   UNL A   1      45.788  28.382  31.191  1.00  0.00    -0.206 F 
ATOM     74  C   UNL A   1      45.436  26.801  29.498  1.00  0.00     0.040 A 
ATOM     75  C   UNL A   1      44.215  27.423  27.522  1.00  0.00     0.040 A 
ATOM     76  F   UNL A   1      43.305  29.576  27.310  1.00  0.00    -0.206 F 
ATOM     77  C   UNL A   1      44.856  26.446  28.285  1.00  0.00     0.006 A 
ENDBRANCH  49  70
BRANCH  61  78
ATOM     78  C   UNL A   1      42.300  35.989  28.923  1.00  0.00     0.057 A 
ATOM     79  C   UNL A   1      41.808  36.334  27.655  1.00  0.00     0.134 A 
ATOM     80  C   UNL A   1      43.107  36.968  29.540  1.00  0.00     0.134 A 
ATOM     81  F   UNL A   1      41.117  35.454  26.915  1.00  0.00    -0.206 F 
ATOM     82  C   UNL A   1      42.031  37.590  27.078  1.00  0.00     0.040 A 
ATOM     83  C   UNL A   1      43.379  38.206  28.952  1.00  0.00     0.040 A 
ATOM     84  F   UNL A   1      43.656  36.773  30.747  1.00  0.00    -0.206 F 
ATOM     85  C   UNL A   1      42.825  38.531  27.724  1.00  0.00     0.006 A 
ENDBRANCH  61  78
ENDBRANCH  35  36
ENDBRANCH  27  30
ENDBRANCH  25  26
ENDBRANCH   1  25
TORSDOF 11
ENDMDL
MODEL 2
REMARK VINA RESULT:     -13.6      3.624      9.497
REMARK SMILES Cc1cc(C(=O)NCCCNC(=O)c2ccc(-c3c4nc(c(-c5c(F)cccc5F)c5ccc([nH]5)c(-c5c(F)cccc5F)c5nc(c(-c6c(F)cccc6F)c6ccc3[nH]6)C=C5)C=C4)cc2)ccc1NC(=O)N1C[C@@H](C)[C@H](C)C1
REMARK SMILES IDX 9 1 8 2 7 3 5 4 6 5 4 7 1 8 2 9 3 10 70 11 69 12 68 13 71 14
REMARK SMILES IDX 72 15 73 17 74 18 75 19 80 20 76 21 78 22 77 23 79 24 10 25
REMARK SMILES IDX 11 26 12 27 13 29 14 30 15 31 67 32 16 33 66 34 17 35 18 36
REMARK SMILES IDX 19 37 60 38 20 39 65 40 59 41 61 42 21 43 64 44 58 45 57 46
REMARK SMILES IDX 22 48 48 49 31 50 47 51 32 52 35 53 46 54 62 55 33 56 34 57
REMARK SMILES IDX 45 59 63 60 36 61 23 62 24 63 29 64 25 65 26 66 28 67 30 68
REMARK SMILES IDX 27 69 49 70 50 71 55 72 51 73 52 74 54 75 56 76 53 77 37 78
REMARK SMILES IDX 38 79 43 80 39 81 40 82 42 83 44 84 41 85
REMARK H PARENT 7 6 71 16 11 28 61 47 35 58
REMARK Flexibility Score: inf
ROOT
ATOM      1  C   UNL A   1      33.653  31.860  27.626  1.00  0.00     0.042 C 
ENDROOT
BRANCH   1   2
ATOM      2  C   UNL A   1      32.585  31.108  26.830  1.00  0.00     0.118 C 
BRANCH   2   3
ATOM      3  N   UNL A   1      31.994  29.985  27.558  1.00  0.00    -0.352 N 
ATOM      4  C   UNL A   1      31.784  28.678  27.159  1.00  0.00     0.251 C 
ATOM      5  O   UNL A   1      31.506  27.827  28.000  1.00  0.00    -0.269 OA
ATOM      6  H   UNL A   1      31.702  30.193  28.475  1.00  0.00     0.163 HD
BRANCH   4   7
ATOM      7  C   UNL A   1      31.928  28.277  25.737  1.00  0.00     0.040 A 
ATOM      8  C   UNL A   1      29.876  28.373  22.546  1.00  0.00     0.046 C 
ATOM      9  C   UNL A   1      30.962  27.973  23.507  1.00  0.00    -0.027 A 
ATOM     10  C   UNL A   1      30.877  28.460  24.834  1.00  0.00     0.019 A 
ATOM     11  C   UNL A   1      32.088  27.215  23.142  1.00  0.00     0.045 A 
ATOM     12  C   UNL A   1      33.200  27.229  23.985  1.00  0.00     0.027 A 
ATOM     13  C   UNL A   1      33.129  27.787  25.252  1.00  0.00     0.016 A 
BRANCH  11  14
ATOM     14  N   UNL A   1      32.142  26.485  21.937  1.00  0.00    -0.308 N 
ATOM     15  C   UNL A   1      32.813  25.316  21.688  1.00  0.00     0.321 C 
ATOM     16  H   UNL A   1      31.635  26.860  21.181  1.00  0.00     0.171 HD
ATOM     17  O   UNL A   1      33.278  25.115  20.566  1.00  0.00    -0.248 OA
ATOM     18  N   UNL A   1      32.930  24.395  22.705  1.00  0.00    -0.324 N 
ATOM     19  C   UNL A   1      34.040  23.463  22.759  1.00  0.00     0.125 C 
ATOM     20  C   UNL A   1      31.830  23.960  23.560  1.00  0.00     0.125 C 
ATOM     21  C   UNL A   1      33.532  22.268  23.563  1.00  0.00     0.010 C 
ATOM     22  C   UNL A   1      32.433  22.876  24.456  1.00  0.00     0.010 C 
ATOM     23  C   UNL A   1      34.632  21.579  24.356  1.00  0.00     0.010 C 
ATOM     24  C   UNL A   1      31.415  21.846  24.934  1.00  0.00     0.010 C 
ENDBRANCH  11  14
ENDBRANCH   4   7
ENDBRANCH   2   3
ENDBRANCH   1   2
BRANCH   1  25
ATOM     25  C   UNL A   1      34.753  30.989  28.206  1.00  0.00     0.118 C 
BRANCH  25  26
ATOM     26  N   UNL A   1      35.681  31.692  29.089  1.00  0.00    -0.352 N 
ATOM     27  C   UNL A   1      36.921  31.254  29.544  1.00  0.00     0.251 C 
ATOM     28  H   UNL A   1      35.393  32.580  29.401  1.00  0.00     0.163 HD
ATOM     29  O   UNL A   1      37.644  31.975  30.198  1.00  0.00    -0.269 OA
BRANCH  27  30
ATOM     30  C   UNL A   1      37.386  29.923  29.076  1.00  0.00     0.039 A 
ATOM     31  C   UNL A   1      37.604  28.953  30.054  1.00  0.00     0.014 A 
ATOM     32  C   UNL A   1      37.935  29.795  27.804  1.00  0.00     0.014 A 
ATOM     33  C   UNL A   1      38.621  28.025  29.859  1.00  0.00     0.010 A 
ATOM     34  C   UNL A   1      39.007  28.939  27.644  1.00  0.00     0.010 A 
ATOM     35  C   UNL A   1      39.402  28.116  28.705  1.00  0.00    -0.014 A 
BRANCH  35  36
ATOM     36  C   UNL A   1      40.699  27.457  28.589  1.00  0.00     0.031 A 
ATOM     37  C   UNL A   1      40.770  26.009  28.330  1.00  0.00     0.074 A 
ATOM     38  C   UNL A   1      41.850  28.151  28.733  1.00  0.00     0.049 A 
ATOM     39  N   UNL A   1      41.725  25.250  28.749  1.00  0.00    -0.248 NA
ATOM     40  C   UNL A   1      39.734  25.297  27.599  1.00  0.00     0.031 C 
ATOM     41  C   UNL A   1      43.208  27.670  28.491  1.00  0.00     0.029 A 
ATOM     42  N   UNL A   1      42.028  29.389  29.360  1.00  0.00    -0.354 N 
ATOM     43  C   UNL A   1      41.588  24.032  28.126  1.00  0.00     0.074 A 
ATOM     44  C   UNL A   1      40.296  24.092  27.477  1.00  0.00     0.031 C 
ATOM     45  C   UNL A   1      44.063  28.410  29.212  1.00  0.00     0.029 A 
ATOM     46  C   UNL A   1      43.279  29.325  30.019  1.00  0.00     0.049 A 
ATOM     47  H   UNL A   1      41.407  30.153  29.345  1.00  0.00     0.167 HD
ATOM     48  C   UNL A   1      42.638  23.160  28.115  1.00  0.00     0.037 A 
ATOM     49  C   UNL A   1      43.361  29.472  31.373  1.00  0.00     0.037 A 
ATOM     50  C   UNL A   1      43.787  23.677  28.863  1.00  0.00     0.049 A 
ATOM     51  C   UNL A   1      43.846  28.239  32.106  1.00  0.00     0.074 A 
ATOM     52  C   UNL A   1      44.980  24.286  28.503  1.00  0.00     0.029 A 
ATOM     53  N   UNL A   1      43.671  23.860  30.229  1.00  0.00    -0.354 N 
ATOM     54  N   UNL A   1      44.233  27.137  31.524  1.00  0.00    -0.248 NA
ATOM     55  C   UNL A   1      43.826  28.119  33.565  1.00  0.00     0.031 C 
ATOM     56  C   UNL A   1      45.581  24.826  29.675  1.00  0.00     0.029 A 
ATOM     57  C   UNL A   1      44.754  24.549  30.746  1.00  0.00     0.049 A 
ATOM     58  H   UNL A   1      42.911  23.542  30.766  1.00  0.00     0.167 HD
ATOM     59  C   UNL A   1      44.437  26.169  32.475  1.00  0.00     0.074 A 
ATOM     60  C   UNL A   1      44.175  26.834  33.737  1.00  0.00     0.031 C 
ATOM     61  C   UNL A   1      44.760  24.880  32.162  1.00  0.00     0.037 A 
BRANCH  48  62
ATOM     62  C   UNL A   1      42.700  21.961  27.197  1.00  0.00     0.057 A 
ATOM     63  C   UNL A   1      41.880  20.838  27.411  1.00  0.00     0.134 A 
ATOM     64  C   UNL A   1      43.585  21.831  26.111  1.00  0.00     0.134 A 
ATOM     65  F   UNL A   1      40.892  20.847  28.314  1.00  0.00    -0.206 F 
ATOM     66  C   UNL A   1      42.033  19.637  26.706  1.00  0.00     0.040 A 
ATOM     67  C   UNL A   1      43.794  20.618  25.438  1.00  0.00     0.040 A 
ATOM     68  F   UNL A   1      44.246  22.887  25.618  1.00  0.00    -0.206 F 
ATOM     69  C   UNL A   1      43.027  19.507  25.749  1.00  0.00     0.006 A 
ENDBRANCH  48  62
BRANCH  49  70
ATOM     70  C   UNL A   1      42.367  30.455  31.879  1.00  0.00     0.057 A 
ATOM     71  C   UNL A   1      41.185  29.950  32.455  1.00  0.00     0.134 A 
ATOM     72  C   UNL A   1      42.734  31.760  32.209  1.00  0.00     0.134 A 
ATOM     73  F   UNL A   1      40.767  28.708  32.163  1.00  0.00    -0.206 F 
ATOM     74  C   UNL A   1      40.498  30.649  33.449  1.00  0.00     0.040 A 
ATOM     75  C   UNL A   1      42.033  32.479  33.181  1.00  0.00     0.040 A 
ATOM     76  F   UNL A   1      43.847  32.308  31.701  1.00  0.00    -0.206 F 
ATOM     77  C   UNL A   1      40.952  31.901  33.846  1.00  0.00     0.006 A 
ENDBRANCH  49  70
BRANCH  61  78
ATOM     78  C   UNL A   1      45.080  23.824  33.188  1.00  0.00     0.057 A 
ATOM     79  C   UNL A   1      44.142  22.873  33.616  1.00  0.00     0.134 A 
ATOM     80  C   UNL A   1      46.312  23.803  33.876  1.00  0.00     0.134 A 
ATOM     81  F   UNL A   1      42.896  22.855  33.119  1.00  0.00    -0.206 F 
ATOM     82  C   UNL A   1      44.433  21.916  34.596  1.00  0.00     0.040 A 
ATOM     83  C   UNL A   1      46.597  22.885  34.891  1.00  0.00     0.040 A 
ATOM     84  F   UNL A   1      47.300  24.660  33.584  1.00  0.00    -0.206 F 
ATOM     85  C   UNL A   1      45.663  21.923  35.243  1.00  0.00     0.006 A 
ENDBRANCH  61  78
ENDBRANCH  35  36
ENDBRANCH  27  30
ENDBRANCH  25  26
ENDBRANCH   1  25
TORSDOF 11
ENDMDL
MODEL 3
REMARK VINA RESULT:     -13.3      3.894      9.351
REMARK SMILES Cc1cc(C(=O)NCCCNC(=O)c2ccc(-c3c4nc(c(-c5c(F)cccc5F)c5ccc([nH]5)c(-c5c(F)cccc5F)c5nc(c(-c6c(F)cccc6F)c6ccc3[nH]6)C=C5)C=C4)cc2)ccc1NC(=O)N1C[C@@H](C)[C@H](C)C1
REMARK SMILES IDX 9 1 8 2 7 3 5 4 6 5 4 7 1 8 2 9 3 10 70 11 69 12 68 13 71 14
REMARK SMILES IDX 72 15 73 17 74 18 75 19 80 20 76 21 78 22 77 23 79 24 10 25
REMARK SMILES IDX 11 26 12 27 13 29 14 30 15 31 67 32 16 33 66 34 17 35 18 36
REMARK SMILES IDX 19 37 60 38 20 39 65 40 59 41 61 42 21 43 64 44 58 45 57 46
REMARK SMILES IDX 22 48 48 49 31 50 47 51 32 52 35 53 46 54 62 55 33 56 34 57
REMARK SMILES IDX 45 59 63 60 36 61 23 62 24 63 29 64 25 65 26 66 28 67 30 68
REMARK SMILES IDX 27 69 49 70 50 71 55 72 51 73 52 74 54 75 56 76 53 77 37 78
REMARK SMILES IDX 38 79 43 80 39 81 40 82 42 83 44 84 41 85
REMARK H PARENT 7 6 71 16 11 28 61 47 35 58
REMARK Flexibility Score: inf
ROOT
ATOM      1  C   UNL A   1      33.175  30.419  26.885  1.00  0.00     0.042 C 
ENDROOT
BRANCH   1   2
ATOM      2  C   UNL A   1      32.987  29.619  25.594  1.00  0.00     0.118 C 
BRANCH   2   3
ATOM      3  N   UNL A   1      31.825  30.036  24.811  1.00  0.00    -0.352 N 
ATOM      4  C   UNL A   1      30.863  29.275  24.170  1.00  0.00     0.251 C 
ATOM      5  O   UNL A   1      29.831  29.811  23.779  1.00  0.00    -0.269 OA
ATOM      6  H   UNL A   1      31.708  31.010  24.727  1.00  0.00     0.163 HD
BRANCH   4   7
ATOM      7  C   UNL A   1      31.041  27.813  23.984  1.00  0.00     0.040 A 
ATOM      8  C   UNL A   1      32.852  25.459  21.622  1.00  0.00     0.046 C 
ATOM      9  C   UNL A   1      31.872  25.925  22.664  1.00  0.00    -0.027 A 
ATOM     10  C   UNL A   1      31.797  27.315  22.918  1.00  0.00     0.019 A 
ATOM     11  C   UNL A   1      31.094  25.057  23.448  1.00  0.00     0.045 A 
ATOM     12  C   UNL A   1      30.524  25.552  24.622  1.00  0.00     0.027 A 
ATOM     13  C   UNL A   1      30.532  26.909  24.902  1.00  0.00     0.016 A 
BRANCH  11  14
ATOM     14  N   UNL A   1      30.912  23.700  23.110  1.00  0.00    -0.308 N 
ATOM     15  C   UNL A   1      31.819  22.676  23.215  1.00  0.00     0.321 C 
ATOM     16  H   UNL A   1      30.027  23.457  22.756  1.00  0.00     0.171 HD
ATOM     17  O   UNL A   1      31.792  21.762  22.390  1.00  0.00    -0.248 OA
ATOM     18  N   UNL A   1      32.721  22.700  24.254  1.00  0.00    -0.324 N 
ATOM     19  C   UNL A   1      34.016  22.056  24.147  1.00  0.00     0.125 C 
ATOM     20  C   UNL A   1      32.374  22.967  25.646  1.00  0.00     0.125 C 
ATOM     21  C   UNL A   1      34.432  21.734  25.581  1.00  0.00     0.010 C 
ATOM     22  C   UNL A   1      33.684  22.789  26.419  1.00  0.00     0.010 C 
ATOM     23  C   UNL A   1      35.940  21.772  25.781  1.00  0.00     0.010 C 
ATOM     24  C   UNL A   1      33.481  22.366  27.869  1.00  0.00     0.010 C 
ENDBRANCH  11  14
ENDBRANCH   4   7
ENDBRANCH   2   3
ENDBRANCH   1   2
BRANCH   1  25
ATOM     25  C   UNL A   1      34.241  29.880  27.823  1.00  0.00     0.118 C 
BRANCH  25  26
ATOM     26  N   UNL A   1      34.890  30.896  28.649  1.00  0.00    -0.352 N 
ATOM     27  C   UNL A   1      36.188  30.883  29.151  1.00  0.00     0.251 C 
ATOM     28  H   UNL A   1      34.343  31.682  28.878  1.00  0.00     0.163 HD
ATOM     29  O   UNL A   1      36.644  31.837  29.746  1.00  0.00    -0.269 OA
BRANCH  27  30
ATOM     30  C   UNL A   1      37.039  29.716  28.807  1.00  0.00     0.039 A 
ATOM     31  C   UNL A   1      37.323  28.818  29.835  1.00  0.00     0.014 A 
ATOM     32  C   UNL A   1      37.808  29.744  27.648  1.00  0.00     0.014 A 
ATOM     33  C   UNL A   1      38.555  28.175  29.840  1.00  0.00     0.010 A 
ATOM     34  C   UNL A   1      39.070  29.183  27.694  1.00  0.00     0.010 A 
ATOM     35  C   UNL A   1      39.472  28.471  28.829  1.00  0.00    -0.014 A 
BRANCH  35  36
ATOM     36  C   UNL A   1      40.892  28.156  28.950  1.00  0.00     0.031 A 
ATOM     37  C   UNL A   1      41.430  26.928  28.343  1.00  0.00     0.074 A 
ATOM     38  C   UNL A   1      41.732  28.970  29.630  1.00  0.00     0.049 A 
ATOM     39  N   UNL A   1      42.435  26.272  28.816  1.00  0.00    -0.248 NA
ATOM     40  C   UNL A   1      40.840  26.321  27.160  1.00  0.00     0.031 C 
ATOM     41  C   UNL A   1      43.187  28.874  29.703  1.00  0.00     0.029 A 
ATOM     42  N   UNL A   1      41.399  29.928  30.593  1.00  0.00    -0.354 N 
ATOM     43  C   UNL A   1      42.799  25.339  27.875  1.00  0.00     0.074 A 
ATOM     44  C   UNL A   1      41.733  25.364  26.896  1.00  0.00     0.031 C 
ATOM     45  C   UNL A   1      43.602  29.474  30.828  1.00  0.00     0.029 A 
ATOM     46  C   UNL A   1      42.425  29.887  31.567  1.00  0.00     0.049 A 
ATOM     47  H   UNL A   1      40.608  30.515  30.593  1.00  0.00     0.167 HD
ATOM     48  C   UNL A   1      44.025  24.744  27.956  1.00  0.00     0.037 A 
ATOM     49  C   UNL A   1      42.142  29.576  32.864  1.00  0.00     0.037 A 
ATOM     50  C   UNL A   1      44.771  25.187  29.136  1.00  0.00     0.049 A 
ATOM     51  C   UNL A   1      42.770  28.286  33.347  1.00  0.00     0.074 A 
ATOM     52  C   UNL A   1      45.792  26.102  29.347  1.00  0.00     0.029 A 
ATOM     53  N   UNL A   1      44.291  24.867  30.393  1.00  0.00    -0.354 N 
ATOM     54  N   UNL A   1      43.579  27.546  32.639  1.00  0.00    -0.248 NA
ATOM     55  C   UNL A   1      42.444  27.673  34.636  1.00  0.00     0.031 C 
ATOM     56  C   UNL A   1      45.923  26.315  30.749  1.00  0.00     0.029 A 
ATOM     57  C   UNL A   1      44.981  25.534  31.390  1.00  0.00     0.049 A 
ATOM     58  H   UNL A   1      43.548  24.242  30.558  1.00  0.00     0.167 HD
ATOM     59  C   UNL A   1      43.821  26.371  33.305  1.00  0.00     0.074 A 
ATOM     60  C   UNL A   1      43.092  26.501  34.553  1.00  0.00     0.031 C 
ATOM     61  C   UNL A   1      44.560  25.356  32.770  1.00  0.00     0.037 A 
BRANCH  48  62
ATOM     62  C   UNL A   1      44.638  23.968  26.814  1.00  0.00     0.057 A 
ATOM     63  C   UNL A   1      44.266  22.635  26.557  1.00  0.00     0.134 A 
ATOM     64  C   UNL A   1      45.641  24.462  25.959  1.00  0.00     0.134 A 
ATOM     65  F   UNL A   1      43.236  22.057  27.186  1.00  0.00    -0.206 F 
ATOM     66  C   UNL A   1      44.937  21.820  25.636  1.00  0.00     0.040 A 
ATOM     67  C   UNL A   1      46.363  23.643  25.078  1.00  0.00     0.040 A 
ATOM     68  F   UNL A   1      45.926  25.769  25.900  1.00  0.00    -0.206 F 
ATOM     69  C   UNL A   1      46.023  22.308  24.928  1.00  0.00     0.006 A 
ENDBRANCH  48  62
BRANCH  49  70
ATOM     70  C   UNL A   1      40.820  30.113  33.281  1.00  0.00     0.057 A 
ATOM     71  C   UNL A   1      40.707  31.505  33.459  1.00  0.00     0.134 A 
ATOM     72  C   UNL A   1      39.642  29.396  33.070  1.00  0.00     0.134 A 
ATOM     73  F   UNL A   1      41.801  32.249  33.684  1.00  0.00    -0.206 F 
ATOM     74  C   UNL A   1      39.498  32.174  33.258  1.00  0.00     0.040 A 
ATOM     75  C   UNL A   1      38.421  30.055  32.898  1.00  0.00     0.040 A 
ATOM     76  F   UNL A   1      39.670  28.068  32.892  1.00  0.00    -0.206 F 
ATOM     77  C   UNL A   1      38.359  31.448  32.931  1.00  0.00     0.006 A 
ENDBRANCH  49  70
BRANCH  61  78
ATOM     78  C   UNL A   1      44.917  24.097  33.517  1.00  0.00     0.057 A 
ATOM     79  C   UNL A   1      43.959  23.146  33.903  1.00  0.00     0.134 A 
ATOM     80  C   UNL A   1      46.225  23.852  33.984  1.00  0.00     0.134 A 
ATOM     81  F   UNL A   1      42.659  23.315  33.616  1.00  0.00    -0.206 F 
ATOM     82  C   UNL A   1      44.290  21.996  34.629  1.00  0.00     0.040 A 
ATOM     83  C   UNL A   1      46.559  22.733  34.752  1.00  0.00     0.040 A 
ATOM     84  F   UNL A   1      47.242  24.679  33.704  1.00  0.00    -0.206 F 
ATOM     85  C   UNL A   1      45.594  21.788  35.062  1.00  0.00     0.006 A 
ENDBRANCH  61  78
ENDBRANCH  35  36
ENDBRANCH  27  30
ENDBRANCH  25  26
ENDBRANCH   1  25
TORSDOF 11
ENDMDL
