MODEL 1
REMARK VINA RESULT:     -12.4      0.000      0.000
REMARK SMILES CC(C)c1ccc2c(c1)c(SC(C)(C)C)c(CC(C)(C)C(=O)NCCCNC(=O)c1ccc(-c3c4nc(c(-c5c(F)cccc5F)c5ccc([nH]5)c(-c5c(F)cccc5F)c5nc(c(-c6c(F)cccc6F)c6ccc3[nH]6)C=C5)C=C4)cc1)n2Cc1ccc(Cl)cc1
REMARK SMILES IDX 24 1 23 2 21 3 22 4 18 6 19 7 20 8 17 9 16 10 4 11 5 12 9 13
REMARK SMILES IDX 6 14 8 15 7 16 10 17 84 18 2 19 1 20 3 21 11 22 12 23 13 24
REMARK SMILES IDX 14 25 15 26 85 27 86 28 87 29 92 30 88 31 91 32 89 33 90 34
REMARK SMILES IDX 25 35 26 36 27 37 28 38 29 40 30 41 31 42 83 43 32 44 82 45
REMARK SMILES IDX 33 46 34 47 35 48 76 49 36 50 81 51 75 52 77 53 37 54 80 55
REMARK SMILES IDX 74 56 73 57 38 59 64 60 47 61 63 62 48 63 51 64 62 65 78 66
REMARK SMILES IDX 49 67 50 68 61 70 79 71 52 72 39 73 40 74 45 75 41 76 42 77
REMARK SMILES IDX 44 78 46 79 43 80 65 81 66 82 71 83 67 84 68 85 70 86 72 87
REMARK SMILES IDX 69 88 53 89 54 90 59 91 55 92 56 93 58 94 60 95 57 96
REMARK H PARENT 23 5 27 39 77 58 51 69
REMARK Flexibility Score: inf
ROOT
ATOM      1  C   UNL A   1      32.269  29.667  25.728  1.00  0.00     0.117 C 
ENDROOT
BRANCH   1   2
ATOM      2  N   UNL A   1      31.269  28.622  25.908  1.00  0.00    -0.356 N 
ATOM      3  C   UNL A   1      31.429  27.292  26.172  1.00  0.00     0.226 C 
ATOM      4  O   UNL A   1      30.433  26.699  26.615  1.00  0.00    -0.275 OA
ATOM      5  H   UNL A   1      30.334  28.921  25.827  1.00  0.00     0.163 HD
BRANCH   3   6
ATOM      6  C   UNL A   1      32.829  26.697  26.142  1.00  0.00     0.049 C 
ATOM      7  C   UNL A   1      32.459  25.337  26.796  1.00  0.00     0.022 C 
ATOM      8  C   UNL A   1      33.781  27.707  26.849  1.00  0.00     0.022 C 
BRANCH   6   9
ATOM      9  C   UNL A   1      33.541  26.496  24.769  1.00  0.00     0.071 C 
BRANCH   9  10
ATOM     10  C   UNL A   1      33.587  25.129  24.243  1.00  0.00     0.034 A 
ATOM     11  C   UNL A   1      33.042  20.558  23.824  1.00  0.00    -0.045 A 
ATOM     12  C   UNL A   1      32.061  20.999  22.931  1.00  0.00     0.006 A 
ATOM     13  C   UNL A   1      33.915  21.509  24.387  1.00  0.00     0.015 A 
ATOM     14  C   UNL A   1      31.879  22.357  22.648  1.00  0.00     0.027 A 
ATOM     15  C   UNL A   1      33.749  22.899  24.142  1.00  0.00     0.014 A 
ATOM     16  C   UNL A   1      32.700  23.295  23.296  1.00  0.00     0.050 A 
ATOM     17  C   UNL A   1      34.418  24.087  24.625  1.00  0.00     0.037 A 
ATOM     18  N   UNL A   1      32.685  24.685  23.279  1.00  0.00    -0.339 N 
BRANCH  11  19
ATOM     19  C   UNL A   1      33.131  19.075  24.154  1.00  0.00     0.013 C 
ATOM     20  C   UNL A   1      32.722  18.815  25.602  1.00  0.00     0.012 C 
ATOM     21  C   UNL A   1      32.332  18.185  23.194  1.00  0.00     0.012 C 
ENDBRANCH  11  19
BRANCH  17  22
ATOM     22  S   UNL A   1      35.815  23.978  25.732  1.00  0.00    -0.118 SA
BRANCH  22  23
ATOM     23  C   UNL A   1      37.258  22.840  25.340  1.00  0.00     0.012 C 
ATOM     24  C   UNL A   1      38.542  23.397  25.963  1.00  0.00     0.023 C 
ATOM     25  C   UNL A   1      37.260  21.306  25.545  1.00  0.00     0.023 C 
ATOM     26  C   UNL A   1      37.337  22.931  23.790  1.00  0.00     0.023 C 
ENDBRANCH  22  23
ENDBRANCH  17  22
BRANCH  18  27
ATOM     27  C   UNL A   1      31.979  25.503  22.251  1.00  0.00     0.158 C 
BRANCH  27  28
ATOM     28  C   UNL A   1      30.856  26.433  22.696  1.00  0.00    -0.028 A 
ATOM     29  C   UNL A   1      29.757  25.952  23.437  1.00  0.00     0.007 A 
ATOM     30  C   UNL A   1      30.861  27.799  22.365  1.00  0.00     0.007 A 
ATOM     31  C   UNL A   1      28.610  26.730  23.629  1.00  0.00     0.021 A 
ATOM     32  C   UNL A   1      29.737  28.603  22.620  1.00  0.00     0.021 A 
ATOM     33  C   UNL A   1      28.594  28.046  23.191  1.00  0.00     0.041 A 
ATOM     34  Cl  UNL A   1      27.147  28.970  23.320  1.00  0.00    -0.084 Cl
ENDBRANCH  27  28
ENDBRANCH  18  27
ENDBRANCH   9  10
ENDBRANCH   6   9
ENDBRANCH   3   6
ENDBRANCH   1   2
BRANCH   1  35
ATOM     35  C   UNL A   1      32.276  30.646  26.879  1.00  0.00     0.042 C 
BRANCH  35  36
ATOM     36  C   UNL A   1      33.661  31.246  27.074  1.00  0.00     0.118 C 
BRANCH  36  37
ATOM     37  N   UNL A   1      33.846  31.811  28.397  1.00  0.00    -0.352 N 
ATOM     38  C   UNL A   1      34.879  31.833  29.285  1.00  0.00     0.251 C 
ATOM     39  H   UNL A   1      33.048  32.284  28.726  1.00  0.00     0.163 HD
ATOM     40  O   UNL A   1      34.670  32.409  30.358  1.00  0.00    -0.269 OA
BRANCH  38  41
ATOM     41  C   UNL A   1      36.173  31.136  29.088  1.00  0.00     0.039 A 
ATOM     42  C   UNL A   1      36.324  29.772  28.840  1.00  0.00     0.014 A 
ATOM     43  C   UNL A   1      37.322  31.922  29.279  1.00  0.00     0.014 A 
ATOM     44  C   UNL A   1      37.557  29.167  28.992  1.00  0.00     0.010 A 
ATOM     45  C   UNL A   1      38.571  31.335  29.361  1.00  0.00     0.010 A 
ATOM     46  C   UNL A   1      38.663  29.949  29.308  1.00  0.00    -0.014 A 
BRANCH  46  47
ATOM     47  C   UNL A   1      39.929  29.267  29.499  1.00  0.00     0.031 A 
ATOM     48  C   UNL A   1      40.369  29.201  30.920  1.00  0.00     0.074 A 
ATOM     49  C   UNL A   1      40.569  28.687  28.465  1.00  0.00     0.049 A 
ATOM     50  N   UNL A   1      41.442  29.687  31.455  1.00  0.00    -0.248 NA
ATOM     51  C   UNL A   1      39.403  28.670  31.898  1.00  0.00     0.031 C 
ATOM     52  C   UNL A   1      40.090  28.513  27.090  1.00  0.00     0.029 A 
ATOM     53  N   UNL A   1      41.760  28.035  28.454  1.00  0.00    -0.354 N 
ATOM     54  C   UNL A   1      41.380  29.346  32.808  1.00  0.00     0.074 A 
ATOM     55  C   UNL A   1      40.040  28.888  33.049  1.00  0.00     0.031 C 
ATOM     56  C   UNL A   1      40.862  27.602  26.459  1.00  0.00     0.029 A 
ATOM     57  C   UNL A   1      41.962  27.241  27.333  1.00  0.00     0.049 A 
ATOM     58  H   UNL A   1      42.421  28.116  29.179  1.00  0.00     0.167 HD
ATOM     59  C   UNL A   1      42.508  29.236  33.562  1.00  0.00     0.037 A 
ATOM     60  C   UNL A   1      42.928  26.302  27.183  1.00  0.00     0.037 A 
ATOM     61  C   UNL A   1      43.600  29.957  32.959  1.00  0.00     0.049 A 
ATOM     62  C   UNL A   1      43.971  26.567  28.203  1.00  0.00     0.074 A 
ATOM     63  C   UNL A   1      43.877  31.283  32.693  1.00  0.00     0.029 A 
ATOM     64  N   UNL A   1      44.498  29.231  32.217  1.00  0.00    -0.354 N 
ATOM     65  N   UNL A   1      44.754  27.610  28.175  1.00  0.00    -0.248 NA
ATOM     66  C   UNL A   1      43.824  25.934  29.505  1.00  0.00     0.031 C 
ATOM     67  C   UNL A   1      44.609  31.272  31.469  1.00  0.00     0.029 A 
ATOM     68  C   UNL A   1      44.781  29.942  31.083  1.00  0.00     0.049 A 
ATOM     69  H   UNL A   1      44.872  28.353  32.458  1.00  0.00     0.167 HD
ATOM     70  C   UNL A   1      44.852  28.016  29.499  1.00  0.00     0.074 A 
ATOM     71  C   UNL A   1      44.331  26.897  30.280  1.00  0.00     0.031 C 
ATOM     72  C   UNL A   1      45.077  29.327  29.811  1.00  0.00     0.037 A 
BRANCH  59  73
ATOM     73  C   UNL A   1      42.746  28.121  34.565  1.00  0.00     0.057 A 
ATOM     74  C   UNL A   1      42.507  28.219  35.952  1.00  0.00     0.134 A 
ATOM     75  C   UNL A   1      42.884  26.804  34.084  1.00  0.00     0.134 A 
ATOM     76  F   UNL A   1      42.363  29.385  36.587  1.00  0.00    -0.206 F 
ATOM     77  C   UNL A   1      42.310  27.102  36.769  1.00  0.00     0.040 A 
ATOM     78  C   UNL A   1      42.647  25.680  34.885  1.00  0.00     0.040 A 
ATOM     79  F   UNL A   1      43.157  26.566  32.791  1.00  0.00    -0.206 F 
ATOM     80  C   UNL A   1      42.331  25.828  36.228  1.00  0.00     0.006 A 
ENDBRANCH  59  73
BRANCH  60  81
ATOM     81  C   UNL A   1      42.834  25.024  26.446  1.00  0.00     0.057 A 
ATOM     82  C   UNL A   1      42.122  23.932  26.976  1.00  0.00     0.134 A 
ATOM     83  C   UNL A   1      43.639  24.755  25.334  1.00  0.00     0.134 A 
ATOM     84  F   UNL A   1      41.393  24.061  28.094  1.00  0.00    -0.206 F 
ATOM     85  C   UNL A   1      42.202  22.648  26.430  1.00  0.00     0.040 A 
ATOM     86  C   UNL A   1      43.733  23.470  24.778  1.00  0.00     0.040 A 
ATOM     87  F   UNL A   1      44.394  25.720  24.792  1.00  0.00    -0.206 F 
ATOM     88  C   UNL A   1      43.017  22.411  25.331  1.00  0.00     0.006 A 
ENDBRANCH  60  81
BRANCH  72  89
ATOM     89  C   UNL A   1      45.438  30.247  28.679  1.00  0.00     0.057 A 
ATOM     90  C   UNL A   1      46.785  30.533  28.442  1.00  0.00     0.134 A 
ATOM     91  C   UNL A   1      44.494  30.943  27.909  1.00  0.00     0.134 A 
ATOM     92  F   UNL A   1      47.740  29.953  29.186  1.00  0.00    -0.206 F 
ATOM     93  C   UNL A   1      47.179  31.451  27.467  1.00  0.00     0.040 A 
ATOM     94  C   UNL A   1      44.876  31.840  26.906  1.00  0.00     0.040 A 
ATOM     95  F   UNL A   1      43.182  30.814  28.140  1.00  0.00    -0.206 F 
ATOM     96  C   UNL A   1      46.225  32.098  26.686  1.00  0.00     0.006 A 
ENDBRANCH  72  89
ENDBRANCH  46  47
ENDBRANCH  38  41
ENDBRANCH  36  37
ENDBRANCH  35  36
ENDBRANCH   1  35
TORSDOF 17
ENDMDL
MODEL 2
REMARK VINA RESULT:     -11.7      1.910      5.705
REMARK SMILES CC(C)c1ccc2c(c1)c(SC(C)(C)C)c(CC(C)(C)C(=O)NCCCNC(=O)c1ccc(-c3c4nc(c(-c5c(F)cccc5F)c5ccc([nH]5)c(-c5c(F)cccc5F)c5nc(c(-c6c(F)cccc6F)c6ccc3[nH]6)C=C5)C=C4)cc1)n2Cc1ccc(Cl)cc1
REMARK SMILES IDX 24 1 23 2 21 3 22 4 18 6 19 7 20 8 17 9 16 10 4 11 5 12 9 13
REMARK SMILES IDX 6 14 8 15 7 16 10 17 84 18 2 19 1 20 3 21 11 22 12 23 13 24
REMARK SMILES IDX 14 25 15 26 85 27 86 28 87 29 92 30 88 31 91 32 89 33 90 34
REMARK SMILES IDX 25 35 26 36 27 37 28 38 29 40 30 41 31 42 83 43 32 44 82 45
REMARK SMILES IDX 33 46 34 47 35 48 76 49 36 50 81 51 75 52 77 53 37 54 80 55
REMARK SMILES IDX 74 56 73 57 38 59 64 60 47 61 63 62 48 63 51 64 62 65 78 66
REMARK SMILES IDX 49 67 50 68 61 70 79 71 52 72 39 73 40 74 45 75 41 76 42 77
REMARK SMILES IDX 44 78 46 79 43 80 65 81 66 82 71 83 67 84 68 85 70 86 72 87
REMARK SMILES IDX 69 88 53 89 54 90 59 91 55 92 56 93 58 94 60 95 57 96
REMARK H PARENT 23 5 27 39 77 58 51 69
REMARK Flexibility Score: inf
ROOT
ATOM      1  C   UNL A   1      34.419  30.181  26.884  1.00  0.00     0.117 C 
ENDROOT
BRANCH   1   2
ATOM      2  N   UNL A   1      33.097  30.076  26.277  1.00  0.00    -0.356 N 
ATOM      3  C   UNL A   1      32.422  28.975  25.834  1.00  0.00     0.226 C 
ATOM      4  O   UNL A   1      31.198  29.110  25.682  1.00  0.00    -0.275 OA
ATOM      5  H   UNL A   1      32.618  30.930  26.170  1.00  0.00     0.163 HD
BRANCH   3   6
ATOM      6  C   UNL A   1      33.141  27.635  25.792  1.00  0.00     0.049 C 
ATOM      7  C   UNL A   1      31.895  26.753  26.080  1.00  0.00     0.022 C 
ATOM      8  C   UNL A   1      34.331  27.713  26.794  1.00  0.00     0.022 C 
BRANCH   6   9
ATOM      9  C   UNL A   1      33.859  27.198  24.478  1.00  0.00     0.071 C 
BRANCH   9  10
ATOM     10  C   UNL A   1      33.657  25.813  24.044  1.00  0.00     0.034 A 
ATOM     11  C   UNL A   1      32.360  21.377  23.957  1.00  0.00    -0.045 A 
ATOM     12  C   UNL A   1      31.418  21.919  23.078  1.00  0.00     0.006 A 
ATOM     13  C   UNL A   1      33.403  22.204  24.418  1.00  0.00     0.015 A 
ATOM     14  C   UNL A   1      31.443  23.270  22.712  1.00  0.00     0.027 A 
ATOM     15  C   UNL A   1      33.451  23.585  24.087  1.00  0.00     0.014 A 
ATOM     16  C   UNL A   1      32.437  24.097  23.261  1.00  0.00     0.050 A 
ATOM     17  C   UNL A   1      34.328  24.674  24.461  1.00  0.00     0.037 A 
ATOM     18  N   UNL A   1      32.646  25.467  23.150  1.00  0.00    -0.339 N 
BRANCH  11  19
ATOM     19  C   UNL A   1      32.225  19.922  24.383  1.00  0.00     0.013 C 
ATOM     20  C   UNL A   1      32.555  18.984  23.224  1.00  0.00     0.012 C 
ATOM     21  C   UNL A   1      33.054  19.568  25.624  1.00  0.00     0.012 C 
ENDBRANCH  11  19
BRANCH  17  22
ATOM     22  S   UNL A   1      35.744  24.403  25.514  1.00  0.00    -0.118 SA
BRANCH  22  23
ATOM     23  C   UNL A   1      36.842  22.898  25.269  1.00  0.00     0.012 C 
ATOM     24  C   UNL A   1      38.225  23.160  25.875  1.00  0.00     0.023 C 
ATOM     25  C   UNL A   1      36.444  21.442  25.614  1.00  0.00     0.023 C 
ATOM     26  C   UNL A   1      36.948  22.816  23.720  1.00  0.00     0.023 C 
ENDBRANCH  22  23
ENDBRANCH  17  22
BRANCH  18  27
ATOM     27  C   UNL A   1      32.029  26.327  22.099  1.00  0.00     0.158 C 
BRANCH  27  28
ATOM     28  C   UNL A   1      30.958  27.331  22.508  1.00  0.00    -0.028 A 
ATOM     29  C   UNL A   1      29.799  26.925  23.200  1.00  0.00     0.007 A 
ATOM     30  C   UNL A   1      31.072  28.695  22.189  1.00  0.00     0.007 A 
ATOM     31  C   UNL A   1      28.702  27.781  23.353  1.00  0.00     0.021 A 
ATOM     32  C   UNL A   1      29.998  29.576  22.407  1.00  0.00     0.021 A 
ATOM     33  C   UNL A   1      28.797  29.098  22.926  1.00  0.00     0.041 A 
ATOM     34  Cl  UNL A   1      27.415  30.121  23.006  1.00  0.00    -0.084 Cl
ENDBRANCH  27  28
ENDBRANCH  18  27
ENDBRANCH   9  10
ENDBRANCH   6   9
ENDBRANCH   3   6
ENDBRANCH   1   2
BRANCH   1  35
ATOM     35  C   UNL A   1      34.583  31.466  27.661  1.00  0.00     0.042 C 
BRANCH  35  36
ATOM     36  C   UNL A   1      35.891  31.468  28.438  1.00  0.00     0.118 C 
BRANCH  36  37
ATOM     37  N   UNL A   1      35.756  30.899  29.765  1.00  0.00    -0.352 N 
ATOM     38  C   UNL A   1      36.490  30.020  30.502  1.00  0.00     0.251 C 
ATOM     39  H   UNL A   1      34.956  31.221  30.239  1.00  0.00     0.163 HD
ATOM     40  O   UNL A   1      36.053  29.741  31.623  1.00  0.00    -0.269 OA
BRANCH  38  41
ATOM     41  C   UNL A   1      37.701  29.318  30.012  1.00  0.00     0.039 A 
ATOM     42  C   UNL A   1      38.261  28.178  30.589  1.00  0.00     0.014 A 
ATOM     43  C   UNL A   1      38.374  29.938  28.946  1.00  0.00     0.014 A 
ATOM     44  C   UNL A   1      39.547  27.792  30.267  1.00  0.00     0.010 A 
ATOM     45  C   UNL A   1      39.634  29.514  28.566  1.00  0.00     0.010 A 
ATOM     46  C   UNL A   1      40.246  28.501  29.296  1.00  0.00    -0.014 A 
BRANCH  46  47
ATOM     47  C   UNL A   1      41.609  28.088  29.020  1.00  0.00     0.031 A 
ATOM     48  C   UNL A   1      41.711  26.776  28.324  1.00  0.00     0.074 A 
ATOM     49  C   UNL A   1      42.650  28.892  29.309  1.00  0.00     0.049 A 
ATOM     50  N   UNL A   1      42.293  25.693  28.726  1.00  0.00    -0.248 NA
ATOM     51  C   UNL A   1      40.917  26.604  27.095  1.00  0.00     0.031 C 
ATOM     52  C   UNL A   1      42.616  30.280  29.781  1.00  0.00     0.029 A 
ATOM     53  N   UNL A   1      43.979  28.662  29.145  1.00  0.00    -0.354 N 
ATOM     54  C   UNL A   1      42.106  24.759  27.705  1.00  0.00     0.074 A 
ATOM     55  C   UNL A   1      41.115  25.314  26.826  1.00  0.00     0.031 C 
ATOM     56  C   UNL A   1      43.838  30.836  29.628  1.00  0.00     0.029 A 
ATOM     57  C   UNL A   1      44.762  29.808  29.187  1.00  0.00     0.049 A 
ATOM     58  H   UNL A   1      44.354  27.763  29.007  1.00  0.00     0.167 HD
ATOM     59  C   UNL A   1      42.965  23.716  27.535  1.00  0.00     0.037 A 
ATOM     60  C   UNL A   1      46.060  29.903  28.806  1.00  0.00     0.037 A 
ATOM     61  C   UNL A   1      43.699  23.454  28.745  1.00  0.00     0.049 A 
ATOM     62  C   UNL A   1      46.614  28.528  28.763  1.00  0.00     0.074 A 
ATOM     63  C   UNL A   1      43.380  23.016  30.015  1.00  0.00     0.029 A 
ATOM     64  N   UNL A   1      44.967  23.971  28.836  1.00  0.00    -0.354 N 
ATOM     65  N   UNL A   1      46.810  27.799  29.826  1.00  0.00    -0.248 NA
ATOM     66  C   UNL A   1      46.500  27.790  27.513  1.00  0.00     0.031 C 
ATOM     67  C   UNL A   1      44.278  23.705  30.882  1.00  0.00     0.029 A 
ATOM     68  C   UNL A   1      45.126  24.483  30.094  1.00  0.00     0.049 A 
ATOM     69  H   UNL A   1      45.644  23.972  28.120  1.00  0.00     0.167 HD
ATOM     70  C   UNL A   1      46.421  26.519  29.456  1.00  0.00     0.074 A 
ATOM     71  C   UNL A   1      46.323  26.557  27.998  1.00  0.00     0.031 C 
ATOM     72  C   UNL A   1      45.939  25.640  30.385  1.00  0.00     0.037 A 
BRANCH  59  73
ATOM     73  C   UNL A   1      43.469  23.252  26.179  1.00  0.00     0.057 A 
ATOM     74  C   UNL A   1      44.244  24.032  25.296  1.00  0.00     0.134 A 
ATOM     75  C   UNL A   1      43.476  21.870  25.904  1.00  0.00     0.134 A 
ATOM     76  F   UNL A   1      44.346  25.361  25.394  1.00  0.00    -0.206 F 
ATOM     77  C   UNL A   1      45.046  23.475  24.296  1.00  0.00     0.040 A 
ATOM     78  C   UNL A   1      44.308  21.299  24.933  1.00  0.00     0.040 A 
ATOM     79  F   UNL A   1      42.747  21.016  26.639  1.00  0.00    -0.206 F 
ATOM     80  C   UNL A   1      45.119  22.102  24.143  1.00  0.00     0.006 A 
ENDBRANCH  59  73
BRANCH  60  81
ATOM     81  C   UNL A   1      46.731  31.057  28.172  1.00  0.00     0.057 A 
ATOM     82  C   UNL A   1      47.721  31.786  28.856  1.00  0.00     0.134 A 
ATOM     83  C   UNL A   1      46.250  31.629  26.988  1.00  0.00     0.134 A 
ATOM     84  F   UNL A   1      48.185  31.372  30.044  1.00  0.00    -0.206 F 
ATOM     85  C   UNL A   1      48.210  33.009  28.389  1.00  0.00     0.040 A 
ATOM     86  C   UNL A   1      46.727  32.858  26.511  1.00  0.00     0.040 A 
ATOM     87  F   UNL A   1      45.269  31.033  26.295  1.00  0.00    -0.206 F 
ATOM     88  C   UNL A   1      47.706  33.554  27.215  1.00  0.00     0.006 A 
ENDBRANCH  60  81
BRANCH  72  89
ATOM     89  C   UNL A   1      46.067  26.035  31.829  1.00  0.00     0.057 A 
ATOM     90  C   UNL A   1      45.025  26.741  32.433  1.00  0.00     0.134 A 
ATOM     91  C   UNL A   1      47.231  25.843  32.589  1.00  0.00     0.134 A 
ATOM     92  F   UNL A   1      43.907  27.018  31.743  1.00  0.00    -0.206 F 
ATOM     93  C   UNL A   1      45.123  27.218  33.742  1.00  0.00     0.040 A 
ATOM     94  C   UNL A   1      47.330  26.286  33.912  1.00  0.00     0.040 A 
ATOM     95  F   UNL A   1      48.319  25.273  32.058  1.00  0.00    -0.206 F 
ATOM     96  C   UNL A   1      46.272  26.979  34.491  1.00  0.00     0.006 A 
ENDBRANCH  72  89
ENDBRANCH  46  47
ENDBRANCH  38  41
ENDBRANCH  36  37
ENDBRANCH  35  36
ENDBRANCH   1  35
TORSDOF 17
ENDMDL
MODEL 3
REMARK VINA RESULT:     -11.6      1.650      2.172
REMARK SMILES CC(C)c1ccc2c(c1)c(SC(C)(C)C)c(CC(C)(C)C(=O)NCCCNC(=O)c1ccc(-c3c4nc(c(-c5c(F)cccc5F)c5ccc([nH]5)c(-c5c(F)cccc5F)c5nc(c(-c6c(F)cccc6F)c6ccc3[nH]6)C=C5)C=C4)cc1)n2Cc1ccc(Cl)cc1
REMARK SMILES IDX 24 1 23 2 21 3 22 4 18 6 19 7 20 8 17 9 16 10 4 11 5 12 9 13
REMARK SMILES IDX 6 14 8 15 7 16 10 17 84 18 2 19 1 20 3 21 11 22 12 23 13 24
REMARK SMILES IDX 14 25 15 26 85 27 86 28 87 29 92 30 88 31 91 32 89 33 90 34
REMARK SMILES IDX 25 35 26 36 27 37 28 38 29 40 30 41 31 42 83 43 32 44 82 45
REMARK SMILES IDX 33 46 34 47 35 48 76 49 36 50 81 51 75 52 77 53 37 54 80 55
REMARK SMILES IDX 74 56 73 57 38 59 64 60 47 61 63 62 48 63 51 64 62 65 78 66
REMARK SMILES IDX 49 67 50 68 61 70 79 71 52 72 39 73 40 74 45 75 41 76 42 77
REMARK SMILES IDX 44 78 46 79 43 80 65 81 66 82 71 83 67 84 68 85 70 86 72 87
REMARK SMILES IDX 69 88 53 89 54 90 59 91 55 92 56 93 58 94 60 95 57 96
REMARK H PARENT 23 5 27 39 77 58 51 69
REMARK Flexibility Score: inf
ROOT
ATOM      1  C   UNL A   1      33.988  30.441  27.236  1.00  0.00     0.117 C 
ENDROOT
BRANCH   1   2
ATOM      2  N   UNL A   1      32.778  30.318  26.433  1.00  0.00    -0.356 N 
ATOM      3  C   UNL A   1      32.224  29.217  25.847  1.00  0.00     0.226 C 
ATOM      4  O   UNL A   1      31.032  29.313  25.518  1.00  0.00    -0.275 OA
ATOM      5  H   UNL A   1      32.283  31.158  26.293  1.00  0.00     0.163 HD
BRANCH   3   6
ATOM      6  C   UNL A   1      33.000  27.907  25.855  1.00  0.00     0.049 C 
ATOM      7  C   UNL A   1      31.785  26.981  26.140  1.00  0.00     0.022 C 
ATOM      8  C   UNL A   1      34.163  28.061  26.879  1.00  0.00     0.022 C 
BRANCH   6   9
ATOM      9  C   UNL A   1      33.764  27.468  24.568  1.00  0.00     0.071 C 
BRANCH   9  10
ATOM     10  C   UNL A   1      33.606  26.071  24.151  1.00  0.00     0.034 A 
ATOM     11  C   UNL A   1      32.392  21.612  24.086  1.00  0.00    -0.045 A 
ATOM     12  C   UNL A   1      31.481  22.122  23.156  1.00  0.00     0.006 A 
ATOM     13  C   UNL A   1      33.399  22.465  24.579  1.00  0.00     0.015 A 
ATOM     14  C   UNL A   1      31.500  23.466  22.767  1.00  0.00     0.027 A 
ATOM     15  C   UNL A   1      33.437  23.841  24.225  1.00  0.00     0.014 A 
ATOM     16  C   UNL A   1      32.453  24.321  23.345  1.00  0.00     0.050 A 
ATOM     17  C   UNL A   1      34.277  24.952  24.618  1.00  0.00     0.037 A 
ATOM     18  N   UNL A   1      32.643  25.691  23.219  1.00  0.00    -0.339 N 
BRANCH  11  19
ATOM     19  C   UNL A   1      32.263  20.163  24.531  1.00  0.00     0.013 C 
ATOM     20  C   UNL A   1      32.525  19.210  23.366  1.00  0.00     0.012 C 
ATOM     21  C   UNL A   1      33.150  19.810  25.732  1.00  0.00     0.012 C 
ENDBRANCH  11  19
BRANCH  17  22
ATOM     22  S   UNL A   1      35.648  24.725  25.739  1.00  0.00    -0.118 SA
BRANCH  22  23
ATOM     23  C   UNL A   1      36.881  23.333  25.470  1.00  0.00     0.012 C 
ATOM     24  C   UNL A   1      38.221  23.693  26.120  1.00  0.00     0.023 C 
ATOM     25  C   UNL A   1      36.606  21.836  25.754  1.00  0.00     0.023 C 
ATOM     26  C   UNL A   1      37.029  23.318  23.923  1.00  0.00     0.023 C 
ENDBRANCH  22  23
ENDBRANCH  17  22
BRANCH  18  27
ATOM     27  C   UNL A   1      32.060  26.522  22.126  1.00  0.00     0.158 C 
BRANCH  27  28
ATOM     28  C   UNL A   1      30.944  27.504  22.465  1.00  0.00    -0.028 A 
ATOM     29  C   UNL A   1      29.782  27.085  23.145  1.00  0.00     0.007 A 
ATOM     30  C   UNL A   1      31.019  28.856  22.091  1.00  0.00     0.007 A 
ATOM     31  C   UNL A   1      28.653  27.907  23.235  1.00  0.00     0.021 A 
ATOM     32  C   UNL A   1      29.910  29.706  22.244  1.00  0.00     0.021 A 
ATOM     33  C   UNL A   1      28.713  29.208  22.755  1.00  0.00     0.041 A 
ATOM     34  Cl  UNL A   1      27.295  30.183  22.758  1.00  0.00    -0.084 Cl
ENDBRANCH  27  28
ENDBRANCH  18  27
ENDBRANCH   9  10
ENDBRANCH   6   9
ENDBRANCH   3   6
ENDBRANCH   1   2
BRANCH   1  35
ATOM     35  C   UNL A   1      34.058  31.770  27.952  1.00  0.00     0.042 C 
BRANCH  35  36
ATOM     36  C   UNL A   1      35.504  32.181  28.194  1.00  0.00     0.118 C 
BRANCH  36  37
ATOM     37  N   UNL A   1      35.783  32.450  29.592  1.00  0.00    -0.352 N 
ATOM     38  C   UNL A   1      36.713  32.000  30.480  1.00  0.00     0.251 C 
ATOM     39  H   UNL A   1      35.162  33.105  29.987  1.00  0.00     0.163 HD
ATOM     40  O   UNL A   1      36.639  32.447  31.629  1.00  0.00    -0.269 OA
BRANCH  38  41
ATOM     41  C   UNL A   1      37.722  30.955  30.183  1.00  0.00     0.039 A 
ATOM     42  C   UNL A   1      37.480  29.581  30.167  1.00  0.00     0.014 A 
ATOM     43  C   UNL A   1      39.040  31.412  30.014  1.00  0.00     0.014 A 
ATOM     44  C   UNL A   1      38.531  28.687  30.201  1.00  0.00     0.010 A 
ATOM     45  C   UNL A   1      40.096  30.521  29.974  1.00  0.00     0.010 A 
ATOM     46  C   UNL A   1      39.835  29.169  30.162  1.00  0.00    -0.014 A 
BRANCH  46  47
ATOM     47  C   UNL A   1      40.909  28.196  30.243  1.00  0.00     0.031 A 
ATOM     48  C   UNL A   1      41.503  28.067  31.602  1.00  0.00     0.074 A 
ATOM     49  C   UNL A   1      41.243  27.441  29.179  1.00  0.00     0.049 A 
ATOM     50  N   UNL A   1      42.724  28.283  31.972  1.00  0.00    -0.248 NA
ATOM     51  C   UNL A   1      40.575  27.828  32.721  1.00  0.00     0.031 C 
ATOM     52  C   UNL A   1      40.558  27.350  27.885  1.00  0.00     0.029 A 
ATOM     53  N   UNL A   1      42.225  26.509  29.067  1.00  0.00    -0.354 N 
ATOM     54  C   UNL A   1      42.760  28.012  33.341  1.00  0.00     0.074 A 
ATOM     55  C   UNL A   1      41.392  27.914  33.770  1.00  0.00     0.031 C 
ATOM     56  C   UNL A   1      40.992  26.254  27.225  1.00  0.00     0.029 A 
ATOM     57  C   UNL A   1      42.076  25.655  27.982  1.00  0.00     0.049 A 
ATOM     58  H   UNL A   1      42.976  26.444  29.699  1.00  0.00     0.167 HD
ATOM     59  C   UNL A   1      43.916  27.645  33.959  1.00  0.00     0.037 A 
ATOM     60  C   UNL A   1      42.752  24.498  27.777  1.00  0.00     0.037 A 
ATOM     61  C   UNL A   1      45.061  28.048  33.184  1.00  0.00     0.049 A 
ATOM     62  C   UNL A   1      43.954  24.524  28.645  1.00  0.00     0.074 A 
ATOM     63  C   UNL A   1      45.618  29.252  32.803  1.00  0.00     0.029 A 
ATOM     64  N   UNL A   1      45.647  27.096  32.388  1.00  0.00    -0.354 N 
ATOM     65  N   UNL A   1      44.958  25.335  28.457  1.00  0.00    -0.248 NA
ATOM     66  C   UNL A   1      43.829  23.990  29.993  1.00  0.00     0.031 C 
ATOM     67  C   UNL A   1      46.156  29.018  31.503  1.00  0.00     0.029 A 
ATOM     68  C   UNL A   1      45.944  27.676  31.185  1.00  0.00     0.049 A 
ATOM     69  H   UNL A   1      45.822  26.160  32.638  1.00  0.00     0.167 HD
ATOM     70  C   UNL A   1      45.328  25.745  29.730  1.00  0.00     0.074 A 
ATOM     71  C   UNL A   1      44.656  24.819  30.638  1.00  0.00     0.031 C 
ATOM     72  C   UNL A   1      45.908  26.966  29.929  1.00  0.00     0.037 A 
BRANCH  59  73
ATOM     73  C   UNL A   1      44.003  26.539  34.996  1.00  0.00     0.057 A 
ATOM     74  C   UNL A   1      43.874  25.162  34.721  1.00  0.00     0.134 A 
ATOM     75  C   UNL A   1      44.580  26.837  36.247  1.00  0.00     0.134 A 
ATOM     76  F   UNL A   1      43.338  24.691  33.591  1.00  0.00    -0.206 F 
ATOM     77  C   UNL A   1      44.378  24.168  35.565  1.00  0.00     0.040 A 
ATOM     78  C   UNL A   1      45.126  25.851  37.079  1.00  0.00     0.040 A 
ATOM     79  F   UNL A   1      44.724  28.107  36.657  1.00  0.00    -0.206 F 
ATOM     80  C   UNL A   1      45.049  24.512  36.725  1.00  0.00     0.006 A 
ENDBRANCH  59  73
BRANCH  60  81
ATOM     81  C   UNL A   1      42.250  23.263  27.140  1.00  0.00     0.057 A 
ATOM     82  C   UNL A   1      41.492  22.328  27.870  1.00  0.00     0.134 A 
ATOM     83  C   UNL A   1      42.705  22.844  25.885  1.00  0.00     0.134 A 
ATOM     84  F   UNL A   1      41.084  22.594  29.119  1.00  0.00    -0.206 F 
ATOM     85  C   UNL A   1      41.199  21.053  27.378  1.00  0.00     0.040 A 
ATOM     86  C   UNL A   1      42.423  21.566  25.381  1.00  0.00     0.040 A 
ATOM     87  F   UNL A   1      43.478  23.647  25.140  1.00  0.00    -0.206 F 
ATOM     88  C   UNL A   1      41.673  20.664  26.132  1.00  0.00     0.006 A 
ENDBRANCH  60  81
BRANCH  72  89
ATOM     89  C   UNL A   1      46.331  27.729  28.705  1.00  0.00     0.057 A 
ATOM     90  C   UNL A   1      47.664  27.665  28.294  1.00  0.00     0.134 A 
ATOM     91  C   UNL A   1      45.491  28.609  28.006  1.00  0.00     0.134 A 
ATOM     92  F   UNL A   1      48.540  26.895  28.959  1.00  0.00    -0.206 F 
ATOM     93  C   UNL A   1      48.139  28.424  27.223  1.00  0.00     0.040 A 
ATOM     94  C   UNL A   1      45.945  29.349  26.910  1.00  0.00     0.040 A 
ATOM     95  F   UNL A   1      44.227  28.815  28.396  1.00  0.00    -0.206 F 
ATOM     96  C   UNL A   1      47.276  29.258  26.517  1.00  0.00     0.006 A 
ENDBRANCH  72  89
ENDBRANCH  46  47
ENDBRANCH  38  41
ENDBRANCH  36  37
ENDBRANCH  35  36
ENDBRANCH   1  35
TORSDOF 17
ENDMDL
