MODEL 1
REMARK VINA RESULT:     -11.1      0.000      0.000
REMARK SMILES CC(=O)Oc1ccccc1C(=O)NCCCNC(=O)c1ccc(-c2c3nc(c(-c4c(F)cccc4F)c4ccc([nH]4)c(-c4c(F)cccc4F)c4nc(c(-c5c(F)cccc5F)c5ccc2[nH]5)C=C4)C=C3)cc1
REMARK SMILES IDX 15 1 14 2 13 3 11 4 12 5 10 7 5 8 6 9 7 10 9 11 8 12 4 13
REMARK SMILES IDX 2 14 1 15 3 16 16 17 17 18 18 19 19 21 20 22 21 23 73 24
REMARK SMILES IDX 22 25 72 26 23 27 24 28 25 29 66 30 26 31 71 32 65 33 67 34
REMARK SMILES IDX 27 35 70 36 64 37 63 38 28 40 54 41 37 42 53 43 38 44 41 45
REMARK SMILES IDX 52 46 68 47 39 48 40 49 51 51 69 52 42 53 29 54 30 55 35 56
REMARK SMILES IDX 31 57 32 58 34 59 36 60 33 61 55 62 56 63 61 64 57 65 58 66
REMARK SMILES IDX 60 67 62 68 59 69 43 70 44 71 49 72 45 73 46 74 48 75 50 76
REMARK SMILES IDX 47 77
REMARK H PARENT 13 6 17 20 67 39 41 50
REMARK Flexibility Score: inf
ROOT
ATOM      1  C   UNL A   1      37.812  19.644  25.001  1.00  0.00     0.042 C 
ENDROOT
BRANCH   1   2
ATOM      2  C   UNL A   1      36.719  20.650  24.755  1.00  0.00     0.118 C 
BRANCH   2   3
ATOM      3  N   UNL A   1      35.836  20.960  25.836  1.00  0.00    -0.352 N 
ATOM      4  C   UNL A   1      34.464  21.061  25.826  1.00  0.00     0.255 C 
ATOM      5  O   UNL A   1      33.940  21.199  26.937  1.00  0.00    -0.269 OA
ATOM      6  H   UNL A   1      36.269  21.121  26.704  1.00  0.00     0.163 HD
BRANCH   4   7
ATOM      7  C   UNL A   1      33.584  21.119  24.601  1.00  0.00     0.082 A 
ATOM      8  C   UNL A   1      32.827  20.130  23.946  1.00  0.00     0.143 A 
ATOM      9  C   UNL A   1      32.142  20.405  22.748  1.00  0.00     0.048 A 
ATOM     10  C   UNL A   1      32.154  21.682  22.197  1.00  0.00     0.004 A 
ATOM     11  C   UNL A   1      33.551  22.411  24.022  1.00  0.00     0.018 A 
ATOM     12  C   UNL A   1      32.852  22.690  22.842  1.00  0.00     0.001 A 
BRANCH   8  13
ATOM     13  O   UNL A   1      32.789  18.759  24.265  1.00  0.00    -0.426 OA
BRANCH  13  14
ATOM     14  C   UNL A   1      33.497  17.826  23.519  1.00  0.00     0.308 C 
ATOM     15  C   UNL A   1      34.777  17.505  24.251  1.00  0.00     0.139 C 
ATOM     16  O   UNL A   1      33.141  17.328  22.460  1.00  0.00    -0.252 OA
ENDBRANCH  13  14
ENDBRANCH   8  13
ENDBRANCH   4   7
ENDBRANCH   2   3
ENDBRANCH   1   2
BRANCH   1  17
ATOM     17  C   UNL A   1      39.030  20.145  25.750  1.00  0.00     0.118 C 
BRANCH  17  18
ATOM     18  N   UNL A   1      40.130  19.186  25.867  1.00  0.00    -0.352 N 
ATOM     19  C   UNL A   1      41.474  19.341  26.126  1.00  0.00     0.251 C 
ATOM     20  H   UNL A   1      39.856  18.249  25.736  1.00  0.00     0.163 HD
ATOM     21  O   UNL A   1      42.213  18.360  26.074  1.00  0.00    -0.269 OA
BRANCH  19  22
ATOM     22  C   UNL A   1      42.050  20.673  26.420  1.00  0.00     0.039 A 
ATOM     23  C   UNL A   1      42.374  21.537  25.368  1.00  0.00     0.014 A 
ATOM     24  C   UNL A   1      42.259  21.087  27.730  1.00  0.00     0.014 A 
ATOM     25  C   UNL A   1      42.789  22.844  25.644  1.00  0.00     0.010 A 
ATOM     26  C   UNL A   1      42.499  22.424  28.002  1.00  0.00     0.010 A 
ATOM     27  C   UNL A   1      42.791  23.317  26.965  1.00  0.00    -0.014 A 
BRANCH  27  28
ATOM     28  C   UNL A   1      43.129  24.720  27.315  1.00  0.00     0.031 A 
ATOM     29  C   UNL A   1      44.567  25.171  27.272  1.00  0.00     0.074 A 
ATOM     30  C   UNL A   1      42.170  25.549  27.773  1.00  0.00     0.049 A 
ATOM     31  N   UNL A   1      45.096  26.297  27.680  1.00  0.00    -0.248 NA
ATOM     32  C   UNL A   1      45.552  24.206  26.753  1.00  0.00     0.031 C 
ATOM     33  C   UNL A   1      40.753  25.211  27.929  1.00  0.00     0.029 A 
ATOM     34  N   UNL A   1      42.246  26.849  28.208  1.00  0.00    -0.354 N 
ATOM     35  C   UNL A   1      46.466  26.154  27.499  1.00  0.00     0.074 A 
ATOM     36  C   UNL A   1      46.696  24.811  27.024  1.00  0.00     0.031 C 
ATOM     37  C   UNL A   1      40.090  26.283  28.387  1.00  0.00     0.029 A 
ATOM     38  C   UNL A   1      41.038  27.370  28.604  1.00  0.00     0.049 A 
ATOM     39  H   UNL A   1      43.087  27.359  28.233  1.00  0.00     0.167 HD
ATOM     40  C   UNL A   1      47.445  27.073  27.674  1.00  0.00     0.037 A 
ATOM     41  C   UNL A   1      40.734  28.587  29.094  1.00  0.00     0.037 A 
ATOM     42  C   UNL A   1      47.201  28.426  28.096  1.00  0.00     0.049 A 
ATOM     43  C   UNL A   1      41.834  29.600  29.261  1.00  0.00     0.074 A 
ATOM     44  C   UNL A   1      48.106  29.463  28.230  1.00  0.00     0.029 A 
ATOM     45  N   UNL A   1      45.956  28.928  28.444  1.00  0.00    -0.354 N 
ATOM     46  N   UNL A   1      43.116  29.476  29.013  1.00  0.00    -0.248 NA
ATOM     47  C   UNL A   1      41.444  30.923  29.767  1.00  0.00     0.031 C 
ATOM     48  C   UNL A   1      47.415  30.581  28.705  1.00  0.00     0.029 A 
ATOM     49  C   UNL A   1      46.072  30.256  28.812  1.00  0.00     0.049 A 
ATOM     50  H   UNL A   1      45.116  28.416  28.430  1.00  0.00     0.167 HD
ATOM     51  C   UNL A   1      43.680  30.711  29.302  1.00  0.00     0.074 A 
ATOM     52  C   UNL A   1      42.598  31.574  29.731  1.00  0.00     0.031 C 
ATOM     53  C   UNL A   1      44.976  31.099  29.221  1.00  0.00     0.037 A 
BRANCH  40  54
ATOM     54  C   UNL A   1      48.857  26.646  27.393  1.00  0.00     0.057 A 
ATOM     55  C   UNL A   1      49.690  26.129  28.396  1.00  0.00     0.134 A 
ATOM     56  C   UNL A   1      49.389  26.735  26.101  1.00  0.00     0.134 A 
ATOM     57  F   UNL A   1      49.250  26.030  29.661  1.00  0.00    -0.206 F 
ATOM     58  C   UNL A   1      51.007  25.750  28.132  1.00  0.00     0.040 A 
ATOM     59  C   UNL A   1      50.694  26.328  25.816  1.00  0.00     0.040 A 
ATOM     60  F   UNL A   1      48.649  27.215  25.090  1.00  0.00    -0.206 F 
ATOM     61  C   UNL A   1      51.510  25.841  26.836  1.00  0.00     0.006 A 
ENDBRANCH  40  54
BRANCH  41  62
ATOM     62  C   UNL A   1      39.327  28.928  29.428  1.00  0.00     0.057 A 
ATOM     63  C   UNL A   1      38.470  29.471  28.463  1.00  0.00     0.134 A 
ATOM     64  C   UNL A   1      38.804  28.725  30.711  1.00  0.00     0.134 A 
ATOM     65  F   UNL A   1      38.915  29.703  27.219  1.00  0.00    -0.206 F 
ATOM     66  C   UNL A   1      37.153  29.824  28.766  1.00  0.00     0.040 A 
ATOM     67  C   UNL A   1      37.481  29.047  31.021  1.00  0.00     0.040 A 
ATOM     68  F   UNL A   1      39.567  28.196  31.678  1.00  0.00    -0.206 F 
ATOM     69  C   UNL A   1      36.654  29.607  30.049  1.00  0.00     0.006 A 
ENDBRANCH  41  62
BRANCH  53  70
ATOM     70  C   UNL A   1      45.290  32.527  29.558  1.00  0.00     0.057 A 
ATOM     71  C   UNL A   1      45.693  32.913  30.842  1.00  0.00     0.134 A 
ATOM     72  C   UNL A   1      45.237  33.516  28.569  1.00  0.00     0.134 A 
ATOM     73  F   UNL A   1      45.753  32.015  31.836  1.00  0.00    -0.206 F 
ATOM     74  C   UNL A   1      46.012  34.240  31.135  1.00  0.00     0.040 A 
ATOM     75  C   UNL A   1      45.583  34.840  28.842  1.00  0.00     0.040 A 
ATOM     76  F   UNL A   1      44.869  33.209  27.315  1.00  0.00    -0.206 F 
ATOM     77  C   UNL A   1      45.966  35.205  30.131  1.00  0.00     0.006 A 
ENDBRANCH  53  70
ENDBRANCH  27  28
ENDBRANCH  19  22
ENDBRANCH  17  18
ENDBRANCH   1  17
TORSDOF 12
ENDMDL
MODEL 2
REMARK VINA RESULT:     -11.0      0.687      6.615
REMARK SMILES CC(=O)Oc1ccccc1C(=O)NCCCNC(=O)c1ccc(-c2c3nc(c(-c4c(F)cccc4F)c4ccc([nH]4)c(-c4c(F)cccc4F)c4nc(c(-c5c(F)cccc5F)c5ccc2[nH]5)C=C4)C=C3)cc1
REMARK SMILES IDX 15 1 14 2 13 3 11 4 12 5 10 7 5 8 6 9 7 10 9 11 8 12 4 13
REMARK SMILES IDX 2 14 1 15 3 16 16 17 17 18 18 19 19 21 20 22 21 23 73 24
REMARK SMILES IDX 22 25 72 26 23 27 24 28 25 29 66 30 26 31 71 32 65 33 67 34
REMARK SMILES IDX 27 35 70 36 64 37 63 38 28 40 54 41 37 42 53 43 38 44 41 45
REMARK SMILES IDX 52 46 68 47 39 48 40 49 51 51 69 52 42 53 29 54 30 55 35 56
REMARK SMILES IDX 31 57 32 58 34 59 36 60 33 61 55 62 56 63 61 64 57 65 58 66
REMARK SMILES IDX 60 67 62 68 59 69 43 70 44 71 49 72 45 73 46 74 48 75 50 76
REMARK SMILES IDX 47 77
REMARK H PARENT 13 6 17 20 67 39 41 50
REMARK Flexibility Score: inf
ROOT
ATOM      1  C   UNL A   1      37.633  19.924  25.103  1.00  0.00     0.042 C 
ENDROOT
BRANCH   1   2
ATOM      2  C   UNL A   1      36.609  21.019  24.963  1.00  0.00     0.118 C 
BRANCH   2   3
ATOM      3  N   UNL A   1      35.631  21.159  25.997  1.00  0.00    -0.352 N 
ATOM      4  C   UNL A   1      34.261  21.064  25.906  1.00  0.00     0.255 C 
ATOM      5  O   UNL A   1      33.661  21.084  26.986  1.00  0.00    -0.269 OA
ATOM      6  H   UNL A   1      35.986  21.348  26.894  1.00  0.00     0.163 HD
BRANCH   4   7
ATOM      7  C   UNL A   1      33.454  21.041  24.631  1.00  0.00     0.082 A 
ATOM      8  C   UNL A   1      32.758  20.004  23.983  1.00  0.00     0.143 A 
ATOM      9  C   UNL A   1      32.138  20.205  22.736  1.00  0.00     0.048 A 
ATOM     10  C   UNL A   1      32.153  21.453  22.125  1.00  0.00     0.004 A 
ATOM     11  C   UNL A   1      33.425  22.303  23.989  1.00  0.00     0.018 A 
ATOM     12  C   UNL A   1      32.789  22.509  22.759  1.00  0.00     0.001 A 
BRANCH   8  13
ATOM     13  O   UNL A   1      32.733  18.649  24.365  1.00  0.00    -0.426 OA
BRANCH  13  14
ATOM     14  C   UNL A   1      33.457  17.690  23.669  1.00  0.00     0.308 C 
ATOM     15  C   UNL A   1      34.847  17.628  24.255  1.00  0.00     0.139 C 
ATOM     16  O   UNL A   1      33.041  16.995  22.753  1.00  0.00    -0.252 OA
ENDBRANCH  13  14
ENDBRANCH   8  13
ENDBRANCH   4   7
ENDBRANCH   2   3
ENDBRANCH   1   2
BRANCH   1  17
ATOM     17  C   UNL A   1      39.012  20.348  25.565  1.00  0.00     0.118 C 
BRANCH  17  18
ATOM     18  N   UNL A   1      39.966  19.257  25.770  1.00  0.00    -0.352 N 
ATOM     19  C   UNL A   1      41.301  19.241  26.110  1.00  0.00     0.251 C 
ATOM     20  H   UNL A   1      39.579  18.361  25.640  1.00  0.00     0.163 HD
ATOM     21  O   UNL A   1      41.905  18.170  26.124  1.00  0.00    -0.269 OA
BRANCH  19  22
ATOM     22  C   UNL A   1      42.030  20.493  26.413  1.00  0.00     0.039 A 
ATOM     23  C   UNL A   1      42.494  21.298  25.366  1.00  0.00     0.014 A 
ATOM     24  C   UNL A   1      42.248  20.892  27.727  1.00  0.00     0.014 A 
ATOM     25  C   UNL A   1      43.060  22.546  25.648  1.00  0.00     0.010 A 
ATOM     26  C   UNL A   1      42.645  22.191  27.997  1.00  0.00     0.010 A 
ATOM     27  C   UNL A   1      43.080  23.029  26.964  1.00  0.00    -0.014 A 
BRANCH  27  28
ATOM     28  C   UNL A   1      43.580  24.383  27.316  1.00  0.00     0.031 A 
ATOM     29  C   UNL A   1      42.609  25.437  27.782  1.00  0.00     0.074 A 
ATOM     30  C   UNL A   1      44.876  24.694  27.113  1.00  0.00     0.049 A 
ATOM     31  N   UNL A   1      42.807  26.713  27.993  1.00  0.00    -0.248 NA
ATOM     32  C   UNL A   1      41.212  25.011  27.984  1.00  0.00     0.031 C 
ATOM     33  C   UNL A   1      45.902  23.784  26.598  1.00  0.00     0.029 A 
ATOM     34  N   UNL A   1      45.550  25.875  27.302  1.00  0.00    -0.354 N 
ATOM     35  C   UNL A   1      41.562  27.238  28.314  1.00  0.00     0.074 A 
ATOM     36  C   UNL A   1      40.602  26.166  28.191  1.00  0.00     0.031 C 
ATOM     37  C   UNL A   1      47.079  24.427  26.548  1.00  0.00     0.029 A 
ATOM     38  C   UNL A   1      46.884  25.806  26.980  1.00  0.00     0.049 A 
ATOM     39  H   UNL A   1      45.119  26.693  27.637  1.00  0.00     0.167 HD
ATOM     40  C   UNL A   1      41.248  28.492  28.715  1.00  0.00     0.037 A 
ATOM     41  C   UNL A   1      47.840  26.754  27.023  1.00  0.00     0.037 A 
ATOM     42  C   UNL A   1      42.217  29.540  28.887  1.00  0.00     0.049 A 
ATOM     43  C   UNL A   1      47.473  28.135  27.491  1.00  0.00     0.074 A 
ATOM     44  C   UNL A   1      42.024  30.823  29.363  1.00  0.00     0.029 A 
ATOM     45  N   UNL A   1      43.567  29.416  28.594  1.00  0.00    -0.354 N 
ATOM     46  N   UNL A   1      46.304  28.599  27.865  1.00  0.00    -0.248 NA
ATOM     47  C   UNL A   1      48.559  29.124  27.552  1.00  0.00     0.031 C 
ATOM     48  C   UNL A   1      43.250  31.493  29.314  1.00  0.00     0.029 A 
ATOM     49  C   UNL A   1      44.217  30.608  28.860  1.00  0.00     0.049 A 
ATOM     50  H   UNL A   1      43.998  28.602  28.248  1.00  0.00     0.167 HD
ATOM     51  C   UNL A   1      46.519  29.920  28.235  1.00  0.00     0.074 A 
ATOM     52  C   UNL A   1      47.933  30.179  28.052  1.00  0.00     0.031 C 
ATOM     53  C   UNL A   1      45.629  30.837  28.685  1.00  0.00     0.037 A 
BRANCH  40  54
ATOM     54  C   UNL A   1      39.804  28.788  29.008  1.00  0.00     0.057 A 
ATOM     55  C   UNL A   1      38.915  29.212  28.010  1.00  0.00     0.134 A 
ATOM     56  C   UNL A   1      39.289  28.629  30.301  1.00  0.00     0.134 A 
ATOM     57  F   UNL A   1      39.345  29.399  26.752  1.00  0.00    -0.206 F 
ATOM     58  C   UNL A   1      37.580  29.501  28.293  1.00  0.00     0.040 A 
ATOM     59  C   UNL A   1      37.947  28.882  30.590  1.00  0.00     0.040 A 
ATOM     60  F   UNL A   1      40.080  28.221  31.305  1.00  0.00    -0.206 F 
ATOM     61  C   UNL A   1      37.090  29.328  29.585  1.00  0.00     0.006 A 
ENDBRANCH  40  54
BRANCH  41  62
ATOM     62  C   UNL A   1      49.238  26.423  26.646  1.00  0.00     0.057 A 
ATOM     63  C   UNL A   1      50.127  25.881  27.583  1.00  0.00     0.134 A 
ATOM     64  C   UNL A   1      49.724  26.639  25.350  1.00  0.00     0.134 A 
ATOM     65  F   UNL A   1      49.727  25.663  28.845  1.00  0.00    -0.206 F 
ATOM     66  C   UNL A   1      51.452  25.590  27.255  1.00  0.00     0.040 A 
ATOM     67  C   UNL A   1      51.039  26.327  25.000  1.00  0.00     0.040 A 
ATOM     68  F   UNL A   1      48.922  27.144  24.402  1.00  0.00    -0.206 F 
ATOM     69  C   UNL A   1      51.910  25.809  25.957  1.00  0.00     0.006 A 
ENDBRANCH  41  62
BRANCH  53  70
ATOM     70  C   UNL A   1      46.162  32.190  29.054  1.00  0.00     0.057 A 
ATOM     71  C   UNL A   1      46.650  32.469  30.336  1.00  0.00     0.134 A 
ATOM     72  C   UNL A   1      46.234  33.209  28.096  1.00  0.00     0.134 A 
ATOM     73  F   UNL A   1      46.599  31.538  31.301  1.00  0.00    -0.206 F 
ATOM     74  C   UNL A   1      47.173  33.723  30.658  1.00  0.00     0.040 A 
ATOM     75  C   UNL A   1      46.782  34.456  28.398  1.00  0.00     0.040 A 
ATOM     76  F   UNL A   1      45.794  33.002  26.845  1.00  0.00    -0.206 F 
ATOM     77  C   UNL A   1      47.247  34.717  29.685  1.00  0.00     0.006 A 
ENDBRANCH  53  70
ENDBRANCH  27  28
ENDBRANCH  19  22
ENDBRANCH  17  18
ENDBRANCH   1  17
TORSDOF 12
ENDMDL
MODEL 3
REMARK VINA RESULT:     -11.0      5.794      9.595
REMARK SMILES CC(=O)Oc1ccccc1C(=O)NCCCNC(=O)c1ccc(-c2c3nc(c(-c4c(F)cccc4F)c4ccc([nH]4)c(-c4c(F)cccc4F)c4nc(c(-c5c(F)cccc5F)c5ccc2[nH]5)C=C4)C=C3)cc1
REMARK SMILES IDX 15 1 14 2 13 3 11 4 12 5 10 7 5 8 6 9 7 10 9 11 8 12 4 13
REMARK SMILES IDX 2 14 1 15 3 16 16 17 17 18 18 19 19 21 20 22 21 23 73 24
REMARK SMILES IDX 22 25 72 26 23 27 24 28 25 29 66 30 26 31 71 32 65 33 67 34
REMARK SMILES IDX 27 35 70 36 64 37 63 38 28 40 54 41 37 42 53 43 38 44 41 45
REMARK SMILES IDX 52 46 68 47 39 48 40 49 51 51 69 52 42 53 29 54 30 55 35 56
REMARK SMILES IDX 31 57 32 58 34 59 36 60 33 61 55 62 56 63 61 64 57 65 58 66
REMARK SMILES IDX 60 67 62 68 59 69 43 70 44 71 49 72 45 73 46 74 48 75 50 76
REMARK SMILES IDX 47 77
REMARK H PARENT 13 6 17 20 67 39 41 50
REMARK Flexibility Score: inf
ROOT
ATOM      1  C   UNL A   1      31.385  31.465  26.913  1.00  0.00     0.042 C 
ENDROOT
BRANCH   1   2
ATOM      2  C   UNL A   1      31.936  30.069  26.789  1.00  0.00     0.118 C 
BRANCH   2   3
ATOM      3  N   UNL A   1      32.747  29.767  25.650  1.00  0.00    -0.352 N 
ATOM      4  C   UNL A   1      32.362  29.283  24.422  1.00  0.00     0.255 C 
ATOM      5  O   UNL A   1      33.254  29.250  23.567  1.00  0.00    -0.269 OA
ATOM      6  H   UNL A   1      33.711  29.929  25.761  1.00  0.00     0.163 HD
BRANCH   4   7
ATOM      7  C   UNL A   1      31.008  28.713  24.075  1.00  0.00     0.082 A 
ATOM      8  C   UNL A   1      30.478  27.416  24.206  1.00  0.00     0.143 A 
ATOM      9  C   UNL A   1      29.194  27.096  23.726  1.00  0.00     0.048 A 
ATOM     10  C   UNL A   1      28.388  28.068  23.146  1.00  0.00     0.004 A 
ATOM     11  C   UNL A   1      30.146  29.680  23.502  1.00  0.00     0.018 A 
ATOM     12  C   UNL A   1      28.861  29.367  23.044  1.00  0.00     0.001 A 
BRANCH   8  13
ATOM     13  O   UNL A   1      31.172  26.270  24.641  1.00  0.00    -0.426 OA
BRANCH  13  14
ATOM     14  C   UNL A   1      31.645  26.164  25.942  1.00  0.00     0.308 C 
ATOM     15  C   UNL A   1      33.129  25.891  25.885  1.00  0.00     0.139 C 
ATOM     16  O   UNL A   1      30.986  26.292  26.963  1.00  0.00    -0.252 OA
ENDBRANCH  13  14
ENDBRANCH   8  13
ENDBRANCH   4   7
ENDBRANCH   2   3
ENDBRANCH   1   2
BRANCH   1  17
ATOM     17  C   UNL A   1      32.303  32.591  26.488  1.00  0.00     0.118 C 
BRANCH  17  18
ATOM     18  N   UNL A   1      32.180  33.826  27.263  1.00  0.00    -0.352 N 
ATOM     19  C   UNL A   1      32.939  34.367  28.278  1.00  0.00     0.251 C 
ATOM     20  H   UNL A   1      31.404  34.378  27.011  1.00  0.00     0.163 HD
ATOM     21  O   UNL A   1      32.555  35.392  28.835  1.00  0.00    -0.269 OA
BRANCH  19  22
ATOM     22  C   UNL A   1      34.183  33.709  28.739  1.00  0.00     0.039 A 
ATOM     23  C   UNL A   1      35.398  34.404  28.685  1.00  0.00     0.014 A 
ATOM     24  C   UNL A   1      34.162  32.414  29.242  1.00  0.00     0.014 A 
ATOM     25  C   UNL A   1      36.547  33.838  29.245  1.00  0.00     0.010 A 
ATOM     26  C   UNL A   1      35.251  31.929  29.948  1.00  0.00     0.010 A 
ATOM     27  C   UNL A   1      36.467  32.622  29.940  1.00  0.00    -0.014 A 
BRANCH  27  28
ATOM     28  C   UNL A   1      37.630  32.016  30.636  1.00  0.00     0.031 A 
ATOM     29  C   UNL A   1      38.436  30.946  29.945  1.00  0.00     0.074 A 
ATOM     30  C   UNL A   1      37.893  32.344  31.917  1.00  0.00     0.049 A 
ATOM     31  N   UNL A   1      39.387  30.184  30.423  1.00  0.00    -0.248 NA
ATOM     32  C   UNL A   1      38.087  30.651  28.544  1.00  0.00     0.031 C 
ATOM     33  C   UNL A   1      37.143  33.313  32.720  1.00  0.00     0.029 A 
ATOM     34  N   UNL A   1      38.859  31.883  32.776  1.00  0.00    -0.354 N 
ATOM     35  C   UNL A   1      39.718  29.308  29.397  1.00  0.00     0.074 A 
ATOM     36  C   UNL A   1      38.814  29.573  28.302  1.00  0.00     0.031 C 
ATOM     37  C   UNL A   1      37.699  33.402  33.938  1.00  0.00     0.029 A 
ATOM     38  C   UNL A   1      38.812  32.463  34.022  1.00  0.00     0.049 A 
ATOM     39  H   UNL A   1      39.523  31.203  32.524  1.00  0.00     0.167 HD
ATOM     40  C   UNL A   1      40.710  28.389  29.353  1.00  0.00     0.037 A 
ATOM     41  C   UNL A   1      39.578  32.253  35.109  1.00  0.00     0.037 A 
ATOM     42  C   UNL A   1      41.640  28.168  30.427  1.00  0.00     0.049 A 
ATOM     43  C   UNL A   1      40.690  31.243  35.031  1.00  0.00     0.074 A 
ATOM     44  C   UNL A   1      42.732  27.322  30.462  1.00  0.00     0.029 A 
ATOM     45  N   UNL A   1      41.586  28.810  31.656  1.00  0.00    -0.354 N 
ATOM     46  N   UNL A   1      41.040  30.474  34.027  1.00  0.00    -0.248 NA
ATOM     47  C   UNL A   1      41.518  31.076  36.233  1.00  0.00     0.031 C 
ATOM     48  C   UNL A   1      43.313  27.415  31.730  1.00  0.00     0.029 A 
ATOM     49  C   UNL A   1      42.616  28.362  32.464  1.00  0.00     0.049 A 
ATOM     50  H   UNL A   1      40.916  29.483  31.914  1.00  0.00     0.167 HD
ATOM     51  C   UNL A   1      42.145  29.757  34.464  1.00  0.00     0.074 A 
ATOM     52  C   UNL A   1      42.416  30.193  35.819  1.00  0.00     0.031 C 
ATOM     53  C   UNL A   1      42.873  28.823  33.806  1.00  0.00     0.037 A 
BRANCH  40  54
ATOM     54  C   UNL A   1      40.848  27.573  28.099  1.00  0.00     0.057 A 
ATOM     55  C   UNL A   1      40.213  26.331  27.948  1.00  0.00     0.134 A 
ATOM     56  C   UNL A   1      41.608  28.040  27.020  1.00  0.00     0.134 A 
ATOM     57  F   UNL A   1      39.480  25.817  28.948  1.00  0.00    -0.206 F 
ATOM     58  C   UNL A   1      40.358  25.571  26.787  1.00  0.00     0.040 A 
ATOM     59  C   UNL A   1      41.734  27.304  25.840  1.00  0.00     0.040 A 
ATOM     60  F   UNL A   1      42.240  29.222  27.091  1.00  0.00    -0.206 F 
ATOM     61  C   UNL A   1      41.114  26.061  25.725  1.00  0.00     0.006 A 
ENDBRANCH  40  54
BRANCH  41  62
ATOM     62  C   UNL A   1      39.346  33.037  36.349  1.00  0.00     0.057 A 
ATOM     63  C   UNL A   1      38.493  32.562  37.352  1.00  0.00     0.134 A 
ATOM     64  C   UNL A   1      39.963  34.276  36.565  1.00  0.00     0.134 A 
ATOM     65  F   UNL A   1      37.861  31.388  37.200  1.00  0.00    -0.206 F 
ATOM     66  C   UNL A   1      38.241  33.297  38.512  1.00  0.00     0.040 A 
ATOM     67  C   UNL A   1      39.742  35.010  37.732  1.00  0.00     0.040 A 
ATOM     68  F   UNL A   1      40.802  34.784  35.650  1.00  0.00    -0.206 F 
ATOM     69  C   UNL A   1      38.871  34.525  38.705  1.00  0.00     0.006 A 
ENDBRANCH  41  62
BRANCH  53  70
ATOM     70  C   UNL A   1      44.056  28.242  34.522  1.00  0.00     0.057 A 
ATOM     71  C   UNL A   1      43.968  27.051  35.253  1.00  0.00     0.134 A 
ATOM     72  C   UNL A   1      45.311  28.857  34.433  1.00  0.00     0.134 A 
ATOM     73  F   UNL A   1      42.792  26.419  35.385  1.00  0.00    -0.206 F 
ATOM     74  C   UNL A   1      45.084  26.504  35.889  1.00  0.00     0.040 A 
ATOM     75  C   UNL A   1      46.440  28.304  35.039  1.00  0.00     0.040 A 
ATOM     76  F   UNL A   1      45.465  29.995  33.737  1.00  0.00    -0.206 F 
ATOM     77  C   UNL A   1      46.325  27.127  35.774  1.00  0.00     0.006 A 
ENDBRANCH  53  70
ENDBRANCH  27  28
ENDBRANCH  19  22
ENDBRANCH  17  18
ENDBRANCH   1  17
TORSDOF 12
ENDMDL
