MODEL 1
REMARK VINA RESULT:     -12.6      0.000      0.000
REMARK SMILES Cc1c(CC(=O)NCCCNC(=O)c2ccc(-c3c4nc(c(-c5c(F)cccc5F)c5ccc([nH]5)c(-c5c(F)cccc5F)c5nc(c(-c6c(F)cccc6F)c6ccc3[nH]6)C=C5)C=C4)cc2)c2cc(O)ccc2n1C(=O)c1ccc(Cl)cc1
REMARK SMILES IDX 8 1 7 2 5 3 6 4 4 6 3 7 1 8 2 9 75 10 68 11 74 12 69 13
REMARK SMILES IDX 73 14 70 15 72 16 76 17 77 18 78 19 79 20 84 21 80 22 83 23
REMARK SMILES IDX 81 24 82 25 71 26 9 28 10 29 11 30 12 31 13 33 14 34 15 35
REMARK SMILES IDX 67 36 16 37 66 38 17 39 18 40 19 41 60 42 20 43 65 44 59 45
REMARK SMILES IDX 61 46 21 47 64 48 58 49 57 50 22 52 48 53 31 54 47 55 32 56
REMARK SMILES IDX 35 57 46 58 62 59 33 60 34 61 45 63 63 64 36 65 23 66 24 67
REMARK SMILES IDX 29 68 25 69 26 70 28 71 30 72 27 73 49 74 50 75 55 76 51 77
REMARK SMILES IDX 52 78 54 79 56 80 53 81 37 82 38 83 43 84 39 85 40 86 42 87
REMARK SMILES IDX 44 88 41 89
REMARK H PARENT 7 5 71 27 11 32 61 51 35 62
REMARK Flexibility Score: inf
ROOT
ATOM      1  C   UNL A   1      32.362  29.934  26.896  1.00  0.00     0.117 C 
ENDROOT
BRANCH   1   2
ATOM      2  N   UNL A   1      31.730  29.423  25.694  1.00  0.00    -0.356 N 
ATOM      3  C   UNL A   1      31.352  28.153  25.380  1.00  0.00     0.224 C 
ATOM      4  O   UNL A   1      30.860  27.957  24.267  1.00  0.00    -0.275 OA
ATOM      5  H   UNL A   1      31.545  30.097  25.001  1.00  0.00     0.163 HD
BRANCH   3   6
ATOM      6  C   UNL A   1      31.472  27.035  26.401  1.00  0.00     0.138 C 
BRANCH   6   7
ATOM      7  C   UNL A   1      32.179  25.814  25.886  1.00  0.00    -0.009 A 
ATOM      8  C   UNL A   1      34.429  26.861  25.115  1.00  0.00     0.065 C 
ATOM      9  C   UNL A   1      33.450  25.746  25.329  1.00  0.00     0.028 A 
ATOM     10  N   UNL A   1      33.716  24.419  24.961  1.00  0.00    -0.280 N 
ATOM     11  C   UNL A   1      31.673  24.484  25.946  1.00  0.00     0.008 A 
ATOM     12  C   UNL A   1      32.656  23.627  25.439  1.00  0.00     0.057 A 
ATOM     13  C   UNL A   1      30.460  23.939  26.427  1.00  0.00     0.056 A 
ATOM     14  C   UNL A   1      32.457  22.228  25.490  1.00  0.00     0.031 A 
ATOM     15  C   UNL A   1      30.255  22.563  26.398  1.00  0.00     0.116 A 
ATOM     16  C   UNL A   1      31.243  21.711  25.946  1.00  0.00     0.048 A 
BRANCH  10  17
ATOM     17  C   UNL A   1      34.864  23.967  24.243  1.00  0.00     0.262 C 
ATOM     18  O   UNL A   1      34.917  24.145  23.024  1.00  0.00    -0.268 OA
BRANCH  17  19
ATOM     19  C   UNL A   1      36.038  23.322  24.849  1.00  0.00     0.040 A 
ATOM     20  C   UNL A   1      36.862  24.012  25.747  1.00  0.00     0.015 A 
ATOM     21  C   UNL A   1      36.355  22.023  24.436  1.00  0.00     0.015 A 
ATOM     22  C   UNL A   1      38.066  23.430  26.149  1.00  0.00     0.021 A 
ATOM     23  C   UNL A   1      37.555  21.446  24.847  1.00  0.00     0.021 A 
ATOM     24  C   UNL A   1      38.417  22.162  25.679  1.00  0.00     0.041 A 
ATOM     25  Cl  UNL A   1      39.946  21.491  26.095  1.00  0.00    -0.084 Cl
ENDBRANCH  17  19
ENDBRANCH  10  17
BRANCH  15  26
ATOM     26  O   UNL A   1      29.060  22.087  26.848  1.00  0.00    -0.508 OA
ATOM     27  H   UNL A   1      28.274  22.263  26.367  1.00  0.00     0.293 HD
ENDBRANCH  15  26
ENDBRANCH   6   7
ENDBRANCH   3   6
ENDBRANCH   1   2
BRANCH   1  28
ATOM     28  C   UNL A   1      33.841  30.250  26.675  1.00  0.00     0.042 C 
BRANCH  28  29
ATOM     29  C   UNL A   1      34.782  29.351  27.481  1.00  0.00     0.118 C 
BRANCH  29  30
ATOM     30  N   UNL A   1      35.133  29.869  28.791  1.00  0.00    -0.352 N 
ATOM     31  C   UNL A   1      36.280  29.936  29.528  1.00  0.00     0.251 C 
ATOM     32  H   UNL A   1      34.361  30.267  29.257  1.00  0.00     0.163 HD
ATOM     33  O   UNL A   1      36.222  30.589  30.573  1.00  0.00    -0.269 OA
BRANCH  31  34
ATOM     34  C   UNL A   1      37.532  29.202  29.216  1.00  0.00     0.039 A 
ATOM     35  C   UNL A   1      38.137  28.255  30.041  1.00  0.00     0.014 A 
ATOM     36  C   UNL A   1      38.193  29.595  28.036  1.00  0.00     0.014 A 
ATOM     37  C   UNL A   1      39.443  27.858  29.802  1.00  0.00     0.010 A 
ATOM     38  C   UNL A   1      39.486  29.172  27.770  1.00  0.00     0.010 A 
ATOM     39  C   UNL A   1      40.131  28.371  28.703  1.00  0.00    -0.014 A 
BRANCH  39  40
ATOM     40  C   UNL A   1      41.526  27.986  28.544  1.00  0.00     0.031 A 
ATOM     41  C   UNL A   1      41.726  26.691  27.842  1.00  0.00     0.074 A 
ATOM     42  C   UNL A   1      42.540  28.782  28.938  1.00  0.00     0.049 A 
ATOM     43  N   UNL A   1      42.250  25.602  28.302  1.00  0.00    -0.248 NA
ATOM     44  C   UNL A   1      41.135  26.550  26.502  1.00  0.00     0.031 C 
ATOM     45  C   UNL A   1      42.476  30.170  29.402  1.00  0.00     0.029 A 
ATOM     46  N   UNL A   1      43.877  28.533  28.914  1.00  0.00    -0.354 N 
ATOM     47  C   UNL A   1      42.234  24.695  27.242  1.00  0.00     0.074 A 
ATOM     48  C   UNL A   1      41.394  25.272  26.228  1.00  0.00     0.031 C 
ATOM     49  C   UNL A   1      43.717  30.704  29.384  1.00  0.00     0.029 A 
ATOM     50  C   UNL A   1      44.671  29.665  29.040  1.00  0.00     0.049 A 
ATOM     51  H   UNL A   1      44.251  27.627  28.815  1.00  0.00     0.167 HD
ATOM     52  C   UNL A   1      43.110  23.653  27.188  1.00  0.00     0.037 A 
ATOM     53  C   UNL A   1      46.004  29.741  28.799  1.00  0.00     0.037 A 
ATOM     54  C   UNL A   1      43.653  23.359  28.489  1.00  0.00     0.049 A 
ATOM     55  C   UNL A   1      46.546  28.360  28.826  1.00  0.00     0.074 A 
ATOM     56  C   UNL A   1      43.127  22.957  29.702  1.00  0.00     0.029 A 
ATOM     57  N   UNL A   1      44.925  23.795  28.766  1.00  0.00    -0.354 N 
ATOM     58  N   UNL A   1      46.637  27.640  29.908  1.00  0.00    -0.248 NA
ATOM     59  C   UNL A   1      46.546  27.610  27.577  1.00  0.00     0.031 C 
ATOM     60  C   UNL A   1      43.912  23.626  30.685  1.00  0.00     0.029 A 
ATOM     61  C   UNL A   1      44.900  24.350  30.017  1.00  0.00     0.049 A 
ATOM     62  H   UNL A   1      45.709  23.721  28.176  1.00  0.00     0.167 HD
ATOM     63  C   UNL A   1      46.274  26.360  29.516  1.00  0.00     0.074 A 
ATOM     64  C   UNL A   1      46.305  26.385  28.055  1.00  0.00     0.031 C 
ATOM     65  C   UNL A   1      45.702  25.487  30.397  1.00  0.00     0.037 A 
BRANCH  52  66
ATOM     66  C   UNL A   1      43.789  23.189  25.916  1.00  0.00     0.057 A 
ATOM     67  C   UNL A   1      44.644  23.989  25.131  1.00  0.00     0.134 A 
ATOM     68  C   UNL A   1      43.865  21.808  25.656  1.00  0.00     0.134 A 
ATOM     69  F   UNL A   1      44.720  25.317  25.263  1.00  0.00    -0.206 F 
ATOM     70  C   UNL A   1      45.556  23.454  24.218  1.00  0.00     0.040 A 
ATOM     71  C   UNL A   1      44.810  21.258  24.779  1.00  0.00     0.040 A 
ATOM     72  F   UNL A   1      43.091  20.936  26.320  1.00  0.00    -0.206 F 
ATOM     73  C   UNL A   1      45.673  22.082  24.072  1.00  0.00     0.006 A 
ENDBRANCH  52  66
BRANCH  53  74
ATOM     74  C   UNL A   1      46.764  30.880  28.234  1.00  0.00     0.057 A 
ATOM     75  C   UNL A   1      47.622  31.656  29.034  1.00  0.00     0.134 A 
ATOM     76  C   UNL A   1      46.472  31.398  26.965  1.00  0.00     0.134 A 
ATOM     77  F   UNL A   1      47.900  31.303  30.297  1.00  0.00    -0.206 F 
ATOM     78  C   UNL A   1      48.155  32.874  28.601  1.00  0.00     0.040 A 
ATOM     79  C   UNL A   1      46.995  32.621  26.521  1.00  0.00     0.040 A 
ATOM     80  F   UNL A   1      45.625  30.757  26.147  1.00  0.00    -0.206 F 
ATOM     81  C   UNL A   1      47.833  33.368  27.345  1.00  0.00     0.006 A 
ENDBRANCH  53  74
BRANCH  65  82
ATOM     82  C   UNL A   1      45.693  25.870  31.849  1.00  0.00     0.057 A 
ATOM     83  C   UNL A   1      44.592  26.565  32.357  1.00  0.00     0.134 A 
ATOM     84  C   UNL A   1      46.788  25.696  32.709  1.00  0.00     0.134 A 
ATOM     85  F   UNL A   1      43.535  26.824  31.572  1.00  0.00    -0.206 F 
ATOM     86  C   UNL A   1      44.569  27.052  33.666  1.00  0.00     0.040 A 
ATOM     87  C   UNL A   1      46.766  26.150  34.031  1.00  0.00     0.040 A 
ATOM     88  F   UNL A   1      47.925  25.137  32.278  1.00  0.00    -0.206 F 
ATOM     89  C   UNL A   1      45.655  26.835  34.512  1.00  0.00     0.006 A 
ENDBRANCH  65  82
ENDBRANCH  39  40
ENDBRANCH  31  34
ENDBRANCH  29  30
ENDBRANCH  28  29
ENDBRANCH   1  28
TORSDOF 14
ENDMDL
MODEL 2
REMARK VINA RESULT:     -12.4      2.486      6.620
REMARK SMILES Cc1c(CC(=O)NCCCNC(=O)c2ccc(-c3c4nc(c(-c5c(F)cccc5F)c5ccc([nH]5)c(-c5c(F)cccc5F)c5nc(c(-c6c(F)cccc6F)c6ccc3[nH]6)C=C5)C=C4)cc2)c2cc(O)ccc2n1C(=O)c1ccc(Cl)cc1
REMARK SMILES IDX 8 1 7 2 5 3 6 4 4 6 3 7 1 8 2 9 75 10 68 11 74 12 69 13
REMARK SMILES IDX 73 14 70 15 72 16 76 17 77 18 78 19 79 20 84 21 80 22 83 23
REMARK SMILES IDX 81 24 82 25 71 26 9 28 10 29 11 30 12 31 13 33 14 34 15 35
REMARK SMILES IDX 67 36 16 37 66 38 17 39 18 40 19 41 60 42 20 43 65 44 59 45
REMARK SMILES IDX 61 46 21 47 64 48 58 49 57 50 22 52 48 53 31 54 47 55 32 56
REMARK SMILES IDX 35 57 46 58 62 59 33 60 34 61 45 63 63 64 36 65 23 66 24 67
REMARK SMILES IDX 29 68 25 69 26 70 28 71 30 72 27 73 49 74 50 75 55 76 51 77
REMARK SMILES IDX 52 78 54 79 56 80 53 81 37 82 38 83 43 84 39 85 40 86 42 87
REMARK SMILES IDX 44 88 41 89
REMARK H PARENT 7 5 71 27 11 32 61 51 35 62
REMARK Flexibility Score: inf
ROOT
ATOM      1  C   UNL A   1      33.426  28.614  27.094  1.00  0.00     0.117 C 
ENDROOT
BRANCH   1   2
ATOM      2  N   UNL A   1      33.528  28.232  25.699  1.00  0.00    -0.356 N 
ATOM      3  C   UNL A   1      33.507  26.994  25.129  1.00  0.00     0.224 C 
ATOM      4  O   UNL A   1      33.649  26.921  23.906  1.00  0.00    -0.275 OA
ATOM      5  H   UNL A   1      33.626  28.981  25.067  1.00  0.00     0.163 HD
BRANCH   3   6
ATOM      6  C   UNL A   1      33.247  25.759  25.972  1.00  0.00     0.138 C 
BRANCH   6   7
ATOM      7  C   UNL A   1      33.513  24.466  25.257  1.00  0.00    -0.009 A 
ATOM      8  C   UNL A   1      31.131  23.919  24.371  1.00  0.00     0.065 C 
ATOM      9  C   UNL A   1      32.597  23.675  24.574  1.00  0.00     0.028 A 
ATOM     10  N   UNL A   1      33.256  22.544  24.071  1.00  0.00    -0.280 N 
ATOM     11  C   UNL A   1      34.792  23.857  25.104  1.00  0.00     0.008 A 
ATOM     12  C   UNL A   1      34.631  22.714  24.313  1.00  0.00     0.057 A 
ATOM     13  C   UNL A   1      36.084  24.213  25.553  1.00  0.00     0.056 A 
ATOM     14  C   UNL A   1      35.769  21.980  23.908  1.00  0.00     0.031 A 
ATOM     15  C   UNL A   1      37.181  23.433  25.204  1.00  0.00     0.116 A 
ATOM     16  C   UNL A   1      37.035  22.334  24.382  1.00  0.00     0.048 A 
BRANCH  10  17
ATOM     17  C   UNL A   1      32.633  21.436  23.422  1.00  0.00     0.262 C 
ATOM     18  O   UNL A   1      32.132  21.599  22.307  1.00  0.00    -0.268 OA
BRANCH  17  19
ATOM     19  C   UNL A   1      32.563  20.071  23.963  1.00  0.00     0.040 A 
ATOM     20  C   UNL A   1      32.663  19.831  25.339  1.00  0.00     0.015 A 
ATOM     21  C   UNL A   1      32.478  19.012  23.053  1.00  0.00     0.015 A 
ATOM     22  C   UNL A   1      32.785  18.515  25.792  1.00  0.00     0.021 A 
ATOM     23  C   UNL A   1      32.592  17.701  23.513  1.00  0.00     0.021 A 
ATOM     24  C   UNL A   1      32.772  17.460  24.876  1.00  0.00     0.041 A 
ATOM     25  Cl  UNL A   1      33.023  15.849  25.427  1.00  0.00    -0.084 Cl
ENDBRANCH  17  19
ENDBRANCH  10  17
BRANCH  15  26
ATOM     26  O   UNL A   1      38.404  23.802  25.682  1.00  0.00    -0.508 OA
ATOM     27  H   UNL A   1      39.159  23.750  25.128  1.00  0.00     0.293 HD
ENDBRANCH  15  26
ENDBRANCH   6   7
ENDBRANCH   3   6
ENDBRANCH   1   2
BRANCH   1  28
ATOM     28  C   UNL A   1      34.678  29.344  27.581  1.00  0.00     0.042 C 
BRANCH  28  29
ATOM     29  C   UNL A   1      34.560  30.868  27.504  1.00  0.00     0.118 C 
BRANCH  29  30
ATOM     30  N   UNL A   1      34.287  31.515  28.775  1.00  0.00    -0.352 N 
ATOM     31  C   UNL A   1      35.020  31.804  29.890  1.00  0.00     0.251 C 
ATOM     32  H   UNL A   1      33.352  31.817  28.850  1.00  0.00     0.163 HD
ATOM     33  O   UNL A   1      34.468  32.504  30.742  1.00  0.00    -0.269 OA
BRANCH  31  34
ATOM     34  C   UNL A   1      36.368  31.254  30.184  1.00  0.00     0.039 A 
ATOM     35  C   UNL A   1      37.574  31.917  29.960  1.00  0.00     0.014 A 
ATOM     36  C   UNL A   1      36.399  29.915  30.618  1.00  0.00     0.014 A 
ATOM     37  C   UNL A   1      38.767  31.213  29.981  1.00  0.00     0.010 A 
ATOM     38  C   UNL A   1      37.594  29.214  30.677  1.00  0.00     0.010 A 
ATOM     39  C   UNL A   1      38.761  29.850  30.275  1.00  0.00    -0.014 A 
BRANCH  39  40
ATOM     40  C   UNL A   1      40.030  29.141  30.201  1.00  0.00     0.031 A 
ATOM     41  C   UNL A   1      40.743  29.026  31.502  1.00  0.00     0.074 A 
ATOM     42  C   UNL A   1      40.473  28.577  29.061  1.00  0.00     0.049 A 
ATOM     43  N   UNL A   1      41.889  29.525  31.835  1.00  0.00    -0.248 NA
ATOM     44  C   UNL A   1      40.017  28.398  32.617  1.00  0.00     0.031 C 
ATOM     45  C   UNL A   1      39.754  28.403  27.796  1.00  0.00     0.029 A 
ATOM     46  N   UNL A   1      41.655  27.945  28.824  1.00  0.00    -0.354 N 
ATOM     47  C   UNL A   1      42.120  29.104  33.144  1.00  0.00     0.074 A 
ATOM     48  C   UNL A   1      40.875  28.566  33.622  1.00  0.00     0.031 C 
ATOM     49  C   UNL A   1      40.417  27.514  27.023  1.00  0.00     0.029 A 
ATOM     50  C   UNL A   1      41.665  27.164  27.676  1.00  0.00     0.049 A 
ATOM     51  H   UNL A   1      42.435  28.033  29.417  1.00  0.00     0.167 HD
ATOM     52  C   UNL A   1      43.383  29.012  33.646  1.00  0.00     0.037 A 
ATOM     53  C   UNL A   1      42.603  26.243  27.341  1.00  0.00     0.037 A 
ATOM     54  C   UNL A   1      44.308  29.811  32.883  1.00  0.00     0.049 A 
ATOM     55  C   UNL A   1      43.818  26.524  28.145  1.00  0.00     0.074 A 
ATOM     56  C   UNL A   1      44.435  31.156  32.597  1.00  0.00     0.029 A 
ATOM     57  N   UNL A   1      45.127  29.165  31.990  1.00  0.00    -0.354 N 
ATOM     58  N   UNL A   1      44.575  27.571  27.969  1.00  0.00    -0.248 NA
ATOM     59  C   UNL A   1      43.924  25.892  29.453  1.00  0.00     0.031 C 
ATOM     60  C   UNL A   1      44.921  31.204  31.257  1.00  0.00     0.029 A 
ATOM     61  C   UNL A   1      45.112  29.890  30.829  1.00  0.00     0.049 A 
ATOM     62  H   UNL A   1      45.631  28.336  32.155  1.00  0.00     0.167 HD
ATOM     63  C   UNL A   1      44.917  27.982  29.249  1.00  0.00     0.074 A 
ATOM     64  C   UNL A   1      44.553  26.865  30.119  1.00  0.00     0.031 C 
ATOM     65  C   UNL A   1      45.191  29.292  29.520  1.00  0.00     0.037 A 
BRANCH  52  66
ATOM     66  C   UNL A   1      43.852  27.887  34.544  1.00  0.00     0.057 A 
ATOM     67  C   UNL A   1      44.111  28.021  35.923  1.00  0.00     0.134 A 
ATOM     68  C   UNL A   1      43.712  26.560  34.094  1.00  0.00     0.134 A 
ATOM     69  F   UNL A   1      44.246  29.208  36.524  1.00  0.00    -0.206 F 
ATOM     70  C   UNL A   1      44.148  26.932  36.798  1.00  0.00     0.040 A 
ATOM     71  C   UNL A   1      43.699  25.466  34.970  1.00  0.00     0.040 A 
ATOM     72  F   UNL A   1      43.483  26.290  32.799  1.00  0.00    -0.206 F 
ATOM     73  C   UNL A   1      43.897  25.654  36.329  1.00  0.00     0.006 A 
ENDBRANCH  52  66
BRANCH  53  74
ATOM     74  C   UNL A   1      42.406  24.962  26.624  1.00  0.00     0.057 A 
ATOM     75  C   UNL A   1      41.674  23.907  27.198  1.00  0.00     0.134 A 
ATOM     76  C   UNL A   1      43.147  24.643  25.477  1.00  0.00     0.134 A 
ATOM     77  F   UNL A   1      41.000  24.074  28.345  1.00  0.00    -0.206 F 
ATOM     78  C   UNL A   1      41.679  22.613  26.667  1.00  0.00     0.040 A 
ATOM     79  C   UNL A   1      43.165  23.348  24.939  1.00  0.00     0.040 A 
ATOM     80  F   UNL A   1      43.916  25.568  24.885  1.00  0.00    -0.206 F 
ATOM     81  C   UNL A   1      42.436  22.326  25.540  1.00  0.00     0.006 A 
ENDBRANCH  53  74
BRANCH  65  82
ATOM     82  C   UNL A   1      45.338  30.228  28.354  1.00  0.00     0.057 A 
ATOM     83  C   UNL A   1      46.621  30.566  27.916  1.00  0.00     0.134 A 
ATOM     84  C   UNL A   1      44.263  30.902  27.754  1.00  0.00     0.134 A 
ATOM     85  F   UNL A   1      47.699  30.008  28.489  1.00  0.00    -0.206 F 
ATOM     86  C   UNL A   1      46.831  31.517  26.915  1.00  0.00     0.040 A 
ATOM     87  C   UNL A   1      44.457  31.833  26.729  1.00  0.00     0.040 A 
ATOM     88  F   UNL A   1      43.007  30.722  28.181  1.00  0.00    -0.206 F 
ATOM     89  C   UNL A   1      45.746  32.146  26.310  1.00  0.00     0.006 A 
ENDBRANCH  65  82
ENDBRANCH  39  40
ENDBRANCH  31  34
ENDBRANCH  29  30
ENDBRANCH  28  29
ENDBRANCH   1  28
TORSDOF 14
ENDMDL
MODEL 3
REMARK VINA RESULT:     -12.2      3.747      8.282
REMARK SMILES Cc1c(CC(=O)NCCCNC(=O)c2ccc(-c3c4nc(c(-c5c(F)cccc5F)c5ccc([nH]5)c(-c5c(F)cccc5F)c5nc(c(-c6c(F)cccc6F)c6ccc3[nH]6)C=C5)C=C4)cc2)c2cc(O)ccc2n1C(=O)c1ccc(Cl)cc1
REMARK SMILES IDX 8 1 7 2 5 3 6 4 4 6 3 7 1 8 2 9 75 10 68 11 74 12 69 13
REMARK SMILES IDX 73 14 70 15 72 16 76 17 77 18 78 19 79 20 84 21 80 22 83 23
REMARK SMILES IDX 81 24 82 25 71 26 9 28 10 29 11 30 12 31 13 33 14 34 15 35
REMARK SMILES IDX 67 36 16 37 66 38 17 39 18 40 19 41 60 42 20 43 65 44 59 45
REMARK SMILES IDX 61 46 21 47 64 48 58 49 57 50 22 52 48 53 31 54 47 55 32 56
REMARK SMILES IDX 35 57 46 58 62 59 33 60 34 61 45 63 63 64 36 65 23 66 24 67
REMARK SMILES IDX 29 68 25 69 26 70 28 71 30 72 27 73 49 74 50 75 55 76 51 77
REMARK SMILES IDX 52 78 54 79 56 80 53 81 37 82 38 83 43 84 39 85 40 86 42 87
REMARK SMILES IDX 44 88 41 89
REMARK H PARENT 7 5 71 27 11 32 61 51 35 62
REMARK Flexibility Score: inf
ROOT
ATOM      1  C   UNL A   1      36.978  23.484  25.181  1.00  0.00     0.117 C 
ENDROOT
BRANCH   1   2
ATOM      2  N   UNL A   1      35.711  23.340  25.871  1.00  0.00    -0.356 N 
ATOM      3  C   UNL A   1      34.549  24.035  25.715  1.00  0.00     0.224 C 
ATOM      4  O   UNL A   1      33.604  23.749  26.453  1.00  0.00    -0.275 OA
ATOM      5  H   UNL A   1      35.685  22.632  26.555  1.00  0.00     0.163 HD
BRANCH   3   6
ATOM      6  C   UNL A   1      34.412  25.076  24.618  1.00  0.00     0.138 C 
BRANCH   6   7
ATOM      7  C   UNL A   1      33.200  25.952  24.758  1.00  0.00    -0.009 A 
ATOM      8  C   UNL A   1      31.518  24.675  23.243  1.00  0.00     0.065 C 
ATOM      9  C   UNL A   1      31.959  25.777  24.160  1.00  0.00     0.028 A 
ATOM     10  N   UNL A   1      31.117  26.833  24.538  1.00  0.00    -0.280 N 
ATOM     11  C   UNL A   1      33.105  27.098  25.599  1.00  0.00     0.008 A 
ATOM     12  C   UNL A   1      31.798  27.589  25.509  1.00  0.00     0.057 A 
ATOM     13  C   UNL A   1      34.028  27.737  26.459  1.00  0.00     0.056 A 
ATOM     14  C   UNL A   1      31.397  28.662  26.337  1.00  0.00     0.031 A 
ATOM     15  C   UNL A   1      33.632  28.839  27.209  1.00  0.00     0.116 A 
ATOM     16  C   UNL A   1      32.330  29.295  27.162  1.00  0.00     0.048 A 
BRANCH  10  17
ATOM     17  C   UNL A   1      29.804  27.076  24.031  1.00  0.00     0.262 C 
ATOM     18  O   UNL A   1      28.884  26.328  24.369  1.00  0.00    -0.268 OA
BRANCH  17  19
ATOM     19  C   UNL A   1      29.434  28.189  23.146  1.00  0.00     0.040 A 
ATOM     20  C   UNL A   1      30.403  28.885  22.412  1.00  0.00     0.015 A 
ATOM     21  C   UNL A   1      28.093  28.587  23.124  1.00  0.00     0.015 A 
ATOM     22  C   UNL A   1      30.036  30.051  21.736  1.00  0.00     0.021 A 
ATOM     23  C   UNL A   1      27.732  29.747  22.441  1.00  0.00     0.021 A 
ATOM     24  C   UNL A   1      28.709  30.488  21.774  1.00  0.00     0.041 A 
ATOM     25  Cl  UNL A   1      28.280  31.977  21.025  1.00  0.00    -0.084 Cl
ENDBRANCH  17  19
ENDBRANCH  10  17
BRANCH  15  26
ATOM     26  O   UNL A   1      34.564  29.437  28.004  1.00  0.00    -0.508 OA
ATOM     27  H   UNL A   1      35.242  28.923  28.398  1.00  0.00     0.293 HD
ENDBRANCH  15  26
ENDBRANCH   6   7
ENDBRANCH   3   6
ENDBRANCH   1   2
BRANCH   1  28
ATOM     28  C   UNL A   1      38.087  23.968  26.115  1.00  0.00     0.042 C 
BRANCH  28  29
ATOM     29  C   UNL A   1      38.900  22.829  26.736  1.00  0.00     0.118 C 
BRANCH  29  30
ATOM     30  N   UNL A   1      40.188  22.599  26.107  1.00  0.00    -0.352 N 
ATOM     31  C   UNL A   1      41.402  23.223  26.133  1.00  0.00     0.251 C 
ATOM     32  H   UNL A   1      40.186  21.803  25.526  1.00  0.00     0.163 HD
ATOM     33  O   UNL A   1      42.328  22.644  25.562  1.00  0.00    -0.269 OA
BRANCH  31  34
ATOM     34  C   UNL A   1      41.647  24.575  26.699  1.00  0.00     0.039 A 
ATOM     35  C   UNL A   1      42.308  24.837  27.898  1.00  0.00     0.014 A 
ATOM     36  C   UNL A   1      41.057  25.646  25.999  1.00  0.00     0.014 A 
ATOM     37  C   UNL A   1      42.218  26.092  28.480  1.00  0.00     0.010 A 
ATOM     38  C   UNL A   1      40.996  26.913  26.558  1.00  0.00     0.010 A 
ATOM     39  C   UNL A   1      41.505  27.104  27.836  1.00  0.00    -0.014 A 
BRANCH  39  40
ATOM     40  C   UNL A   1      41.372  28.376  28.529  1.00  0.00     0.031 A 
ATOM     41  C   UNL A   1      42.474  29.338  28.260  1.00  0.00     0.074 A 
ATOM     42  C   UNL A   1      40.297  28.672  29.286  1.00  0.00     0.049 A 
ATOM     43  N   UNL A   1      43.337  29.821  29.093  1.00  0.00    -0.248 NA
ATOM     44  C   UNL A   1      42.735  29.692  26.856  1.00  0.00     0.031 C 
ATOM     45  C   UNL A   1      39.047  27.920  29.420  1.00  0.00     0.029 A 
ATOM     46  N   UNL A   1      40.064  29.782  30.038  1.00  0.00    -0.354 N 
ATOM     47  C   UNL A   1      44.131  30.697  28.352  1.00  0.00     0.074 A 
ATOM     48  C   UNL A   1      43.825  30.449  26.969  1.00  0.00     0.031 C 
ATOM     49  C   UNL A   1      38.114  28.705  30.004  1.00  0.00     0.029 A 
ATOM     50  C   UNL A   1      38.735  29.955  30.404  1.00  0.00     0.049 A 
ATOM     51  H   UNL A   1      40.775  30.409  30.301  1.00  0.00     0.167 HD
ATOM     52  C   UNL A   1      44.798  31.725  28.948  1.00  0.00     0.037 A 
ATOM     53  C   UNL A   1      38.186  31.081  30.924  1.00  0.00     0.037 A 
ATOM     54  C   UNL A   1      44.959  31.494  30.360  1.00  0.00     0.049 A 
ATOM     55  C   UNL A   1      39.292  31.917  31.455  1.00  0.00     0.074 A 
ATOM     56  C   UNL A   1      45.588  30.535  31.131  1.00  0.00     0.029 A 
ATOM     57  N   UNL A   1      44.125  32.166  31.218  1.00  0.00    -0.354 N 
ATOM     58  N   UNL A   1      39.996  31.601  32.506  1.00  0.00    -0.248 NA
ATOM     59  C   UNL A   1      39.923  32.862  30.544  1.00  0.00     0.031 C 
ATOM     60  C   UNL A   1      44.744  30.363  32.267  1.00  0.00     0.029 A 
ATOM     61  C   UNL A   1      43.685  31.263  32.148  1.00  0.00     0.049 A 
ATOM     62  H   UNL A   1      43.887  33.120  31.174  1.00  0.00     0.167 HD
ATOM     63  C   UNL A   1      41.298  31.953  32.180  1.00  0.00     0.074 A 
ATOM     64  C   UNL A   1      41.180  32.797  30.992  1.00  0.00     0.031 C 
ATOM     65  C   UNL A   1      42.364  31.297  32.725  1.00  0.00     0.037 A 
BRANCH  52  66
ATOM     66  C   UNL A   1      44.923  33.108  28.345  1.00  0.00     0.057 A 
ATOM     67  C   UNL A   1      46.067  33.585  27.673  1.00  0.00     0.134 A 
ATOM     68  C   UNL A   1      43.753  33.861  28.130  1.00  0.00     0.134 A 
ATOM     69  F   UNL A   1      47.256  32.978  27.743  1.00  0.00    -0.206 F 
ATOM     70  C   UNL A   1      46.032  34.672  26.796  1.00  0.00     0.040 A 
ATOM     71  C   UNL A   1      43.697  34.921  27.217  1.00  0.00     0.040 A 
ATOM     72  F   UNL A   1      42.598  33.527  28.727  1.00  0.00    -0.206 F 
ATOM     73  C   UNL A   1      44.836  35.316  26.531  1.00  0.00     0.006 A 
ENDBRANCH  52  66
BRANCH  53  74
ATOM     74  C   UNL A   1      36.824  31.618  30.701  1.00  0.00     0.057 A 
ATOM     75  C   UNL A   1      36.432  32.122  29.448  1.00  0.00     0.134 A 
ATOM     76  C   UNL A   1      35.961  31.892  31.771  1.00  0.00     0.134 A 
ATOM     77  F   UNL A   1      37.221  31.994  28.372  1.00  0.00    -0.206 F 
ATOM     78  C   UNL A   1      35.255  32.855  29.268  1.00  0.00     0.040 A 
ATOM     79  C   UNL A   1      34.782  32.634  31.605  1.00  0.00     0.040 A 
ATOM     80  F   UNL A   1      36.271  31.499  33.015  1.00  0.00    -0.206 F 
ATOM     81  C   UNL A   1      34.431  33.125  30.351  1.00  0.00     0.006 A 
ENDBRANCH  53  74
BRANCH  65  82
ATOM     82  C   UNL A   1      42.092  30.346  33.855  1.00  0.00     0.057 A 
ATOM     83  C   UNL A   1      42.332  30.767  35.166  1.00  0.00     0.134 A 
ATOM     84  C   UNL A   1      41.739  28.999  33.675  1.00  0.00     0.134 A 
ATOM     85  F   UNL A   1      42.735  32.025  35.408  1.00  0.00    -0.206 F 
ATOM     86  C   UNL A   1      42.211  29.898  36.253  1.00  0.00     0.040 A 
ATOM     87  C   UNL A   1      41.584  28.127  34.756  1.00  0.00     0.040 A 
ATOM     88  F   UNL A   1      41.594  28.480  32.449  1.00  0.00    -0.206 F 
ATOM     89  C   UNL A   1      41.824  28.576  36.050  1.00  0.00     0.006 A 
ENDBRANCH  65  82
ENDBRANCH  39  40
ENDBRANCH  31  34
ENDBRANCH  29  30
ENDBRANCH  28  29
ENDBRANCH   1  28
TORSDOF 14
ENDMDL
