MODEL 1
REMARK VINA RESULT:     -12.5      0.000      0.000
REMARK SMILES Cc1ccc(C(=O)/C(C#N)=C/c2ccccc2OCC(=O)NCCCNC(=O)c2ccc(-c3c4nc(c(-c5c(F)cccc5F)c5ccc([nH]5)c(-c5c(F)cccc5F)c5nc(c(-c6c(F)cccc6F)c6ccc3[nH]6)C=C5)C=C4)cc2)cc1F
REMARK SMILES IDX 20 1 21 2 22 3 19 5 18 6 17 7 12 8 13 9 14 10 16 11 15 12
REMARK SMILES IDX 11 13 8 14 6 15 7 16 5 17 1 18 2 19 3 20 84 21 4 22 83 23
REMARK SMILES IDX 85 24 9 25 10 26 23 27 24 28 25 29 26 30 27 31 28 33 29 34
REMARK SMILES IDX 30 35 82 36 31 37 81 38 32 39 33 40 34 41 75 42 35 43 80 44
REMARK SMILES IDX 74 45 76 46 36 47 79 48 73 49 72 50 37 52 63 53 46 54 62 55
REMARK SMILES IDX 47 56 50 57 61 58 77 59 48 60 49 61 60 63 78 64 51 65 38 66
REMARK SMILES IDX 39 67 44 68 40 69 41 70 43 71 45 72 42 73 64 74 65 75 70 76
REMARK SMILES IDX 66 77 67 78 69 79 71 80 68 81 52 82 53 83 58 84 54 85 55 86
REMARK SMILES IDX 57 87 59 88 56 89
REMARK H PARENT 22 4 26 32 76 51 50 62
REMARK Flexibility Score: inf
ROOT
ATOM      1  C   UNL A   1      34.368  22.132  26.537  1.00  0.00     0.257 C 
ATOM      2  O   UNL A   1      33.913  21.382  27.407  1.00  0.00    -0.271 OA
ATOM      3  N   UNL A   1      35.099  21.406  25.682  1.00  0.00    -0.353 N 
ATOM      4  H   UNL A   1      35.034  20.439  25.857  1.00  0.00     0.163 HD
ENDROOT
BRANCH   1   5
ATOM      5  C   UNL A   1      34.038  23.698  26.601  1.00  0.00     0.329 C 
BRANCH   5   6
ATOM      6  O   UNL A   1      32.786  24.364  26.488  1.00  0.00    -0.483 OA
BRANCH   6   7
ATOM      7  C   UNL A   1      31.958  24.757  25.454  1.00  0.00     0.127 A 
ATOM      8  C   UNL A   1      31.330  24.128  24.333  1.00  0.00     0.018 A 
ATOM      9  C   UNL A   1      30.320  24.819  23.604  1.00  0.00     0.012 A 
ATOM     10  C   UNL A   1      29.925  26.107  23.938  1.00  0.00     0.001 A 
ATOM     11  C   UNL A   1      31.572  26.089  25.703  1.00  0.00     0.047 A 
ATOM     12  C   UNL A   1      30.570  26.750  24.979  1.00  0.00     0.004 A 
BRANCH   8  13
ATOM     13  C   UNL A   1      31.363  22.716  23.887  1.00  0.00     0.035 C 
ATOM     14  C   UNL A   1      32.477  22.227  23.303  1.00  0.00     0.101 C 
BRANCH  14  15
ATOM     15  C   UNL A   1      32.235  20.864  22.627  1.00  0.00     0.203 C 
ATOM     16  O   UNL A   1      31.822  20.838  21.464  1.00  0.00    -0.288 OA
BRANCH  15  17
ATOM     17  C   UNL A   1      32.472  19.512  23.253  1.00  0.00     0.026 A 
ATOM     18  C   UNL A   1      34.002  15.974  25.215  1.00  0.00     0.047 C 
ATOM     19  C   UNL A   1      33.244  17.093  24.557  1.00  0.00    -0.015 A 
ATOM     20  C   UNL A   1      33.044  17.130  23.182  1.00  0.00     0.007 A 
ATOM     21  C   UNL A   1      32.775  18.187  25.278  1.00  0.00     0.126 A 
ATOM     22  C   UNL A   1      32.585  18.316  22.548  1.00  0.00     0.013 A 
ATOM     23  C   UNL A   1      32.396  19.381  24.644  1.00  0.00     0.051 A 
ATOM     24  F   UNL A   1      32.717  18.119  26.615  1.00  0.00    -0.207 F 
ENDBRANCH  15  17
ENDBRANCH  14  15
BRANCH  14  25
ATOM     25  C   UNL A   1      33.329  23.375  22.787  1.00  0.00     0.103 C 
ATOM     26  N   UNL A   1      34.036  24.328  22.359  1.00  0.00    -0.192 NA
ENDBRANCH  14  25
ENDBRANCH   8  13
ENDBRANCH   6   7
ENDBRANCH   5   6
ENDBRANCH   1   5
BRANCH   3  27
ATOM     27  C   UNL A   1      35.954  21.704  24.576  1.00  0.00     0.117 C 
BRANCH  27  28
ATOM     28  C   UNL A   1      37.428  21.460  24.846  1.00  0.00     0.042 C 
BRANCH  28  29
ATOM     29  C   UNL A   1      38.157  22.526  25.655  1.00  0.00     0.118 C 
BRANCH  29  30
ATOM     30  N   UNL A   1      39.534  22.187  25.934  1.00  0.00    -0.352 N 
ATOM     31  C   UNL A   1      40.567  23.039  26.206  1.00  0.00     0.251 C 
ATOM     32  H   UNL A   1      39.755  21.228  25.927  1.00  0.00     0.163 HD
ATOM     33  O   UNL A   1      41.724  22.675  26.096  1.00  0.00    -0.269 OA
BRANCH  31  34
ATOM     34  C   UNL A   1      40.254  24.368  26.759  1.00  0.00     0.039 A 
ATOM     35  C   UNL A   1      40.693  25.507  26.074  1.00  0.00     0.014 A 
ATOM     36  C   UNL A   1      39.711  24.455  28.047  1.00  0.00     0.014 A 
ATOM     37  C   UNL A   1      40.693  26.727  26.731  1.00  0.00     0.010 A 
ATOM     38  C   UNL A   1      39.598  25.670  28.648  1.00  0.00     0.010 A 
ATOM     39  C   UNL A   1      40.197  26.765  28.032  1.00  0.00    -0.014 A 
BRANCH  39  40
ATOM     40  C   UNL A   1      40.312  27.897  28.917  1.00  0.00     0.031 A 
ATOM     41  C   UNL A   1      39.304  28.943  28.830  1.00  0.00     0.074 A 
ATOM     42  C   UNL A   1      41.246  27.785  29.884  1.00  0.00     0.049 A 
ATOM     43  N   UNL A   1      39.518  30.169  29.134  1.00  0.00    -0.248 NA
ATOM     44  C   UNL A   1      37.959  28.690  28.320  1.00  0.00     0.031 C 
ATOM     45  C   UNL A   1      41.403  28.506  31.132  1.00  0.00     0.029 A 
ATOM     46  N   UNL A   1      42.378  26.965  29.825  1.00  0.00    -0.354 N 
ATOM     47  C   UNL A   1      38.276  30.752  29.246  1.00  0.00     0.074 A 
ATOM     48  C   UNL A   1      37.375  29.873  28.541  1.00  0.00     0.031 C 
ATOM     49  C   UNL A   1      42.665  28.328  31.573  1.00  0.00     0.029 A 
ATOM     50  C   UNL A   1      43.397  27.619  30.534  1.00  0.00     0.049 A 
ATOM     51  H   UNL A   1      42.446  26.093  29.372  1.00  0.00     0.167 HD
ATOM     52  C   UNL A   1      38.127  31.781  30.127  1.00  0.00     0.037 A 
ATOM     53  C   UNL A   1      44.461  28.107  29.821  1.00  0.00     0.037 A 
ATOM     54  C   UNL A   1      39.386  32.002  30.846  1.00  0.00     0.049 A 
ATOM     55  C   UNL A   1      44.477  29.621  29.763  1.00  0.00     0.074 A 
ATOM     56  C   UNL A   1      39.866  31.588  32.077  1.00  0.00     0.029 A 
ATOM     57  N   UNL A   1      40.487  32.424  30.135  1.00  0.00    -0.354 N 
ATOM     58  N   UNL A   1      43.492  30.376  30.168  1.00  0.00    -0.248 NA
ATOM     59  C   UNL A   1      45.571  30.404  29.195  1.00  0.00     0.031 C 
ATOM     60  C   UNL A   1      41.280  31.780  32.086  1.00  0.00     0.029 A 
ATOM     61  C   UNL A   1      41.650  32.314  30.863  1.00  0.00     0.049 A 
ATOM     62  H   UNL A   1      40.447  32.763  29.212  1.00  0.00     0.167 HD
ATOM     63  C   UNL A   1      43.773  31.688  29.915  1.00  0.00     0.074 A 
ATOM     64  C   UNL A   1      45.083  31.654  29.286  1.00  0.00     0.031 C 
ATOM     65  C   UNL A   1      42.898  32.692  30.220  1.00  0.00     0.037 A 
BRANCH  52  66
ATOM     66  C   UNL A   1      36.824  32.400  30.563  1.00  0.00     0.057 A 
ATOM     67  C   UNL A   1      36.335  33.545  29.901  1.00  0.00     0.134 A 
ATOM     68  C   UNL A   1      35.989  31.927  31.590  1.00  0.00     0.134 A 
ATOM     69  F   UNL A   1      36.961  34.070  28.840  1.00  0.00    -0.206 F 
ATOM     70  C   UNL A   1      35.164  34.208  30.281  1.00  0.00     0.040 A 
ATOM     71  C   UNL A   1      34.831  32.600  32.005  1.00  0.00     0.040 A 
ATOM     72  F   UNL A   1      36.212  30.758  32.204  1.00  0.00    -0.206 F 
ATOM     73  C   UNL A   1      34.416  33.751  31.352  1.00  0.00     0.006 A 
ENDBRANCH  52  66
BRANCH  53  74
ATOM     74  C   UNL A   1      44.806  27.193  28.680  1.00  0.00     0.057 A 
ATOM     75  C   UNL A   1      44.457  27.617  27.380  1.00  0.00     0.134 A 
ATOM     76  C   UNL A   1      45.862  26.279  28.783  1.00  0.00     0.134 A 
ATOM     77  F   UNL A   1      43.439  28.475  27.203  1.00  0.00    -0.206 F 
ATOM     78  C   UNL A   1      45.251  27.319  26.269  1.00  0.00     0.040 A 
ATOM     79  C   UNL A   1      46.644  25.950  27.670  1.00  0.00     0.040 A 
ATOM     80  F   UNL A   1      46.241  25.805  29.978  1.00  0.00    -0.206 F 
ATOM     81  C   UNL A   1      46.377  26.519  26.424  1.00  0.00     0.006 A 
ENDBRANCH  53  74
BRANCH  65  82
ATOM     82  C   UNL A   1      43.144  34.141  29.902  1.00  0.00     0.057 A 
ATOM     83  C   UNL A   1      43.299  34.605  28.592  1.00  0.00     0.134 A 
ATOM     84  C   UNL A   1      43.332  35.110  30.912  1.00  0.00     0.134 A 
ATOM     85  F   UNL A   1      43.254  33.763  27.549  1.00  0.00    -0.206 F 
ATOM     86  C   UNL A   1      43.530  35.955  28.304  1.00  0.00     0.040 A 
ATOM     87  C   UNL A   1      43.629  36.444  30.641  1.00  0.00     0.040 A 
ATOM     88  F   UNL A   1      43.207  34.825  32.216  1.00  0.00    -0.206 F 
ATOM     89  C   UNL A   1      43.700  36.879  29.330  1.00  0.00     0.006 A 
ENDBRANCH  65  82
ENDBRANCH  39  40
ENDBRANCH  31  34
ENDBRANCH  29  30
ENDBRANCH  28  29
ENDBRANCH  27  28
ENDBRANCH   3  27
TORSDOF 16
ENDMDL
MODEL 2
REMARK VINA RESULT:     -12.3      1.834      2.710
REMARK SMILES Cc1ccc(C(=O)/C(C#N)=C/c2ccccc2OCC(=O)NCCCNC(=O)c2ccc(-c3c4nc(c(-c5c(F)cccc5F)c5ccc([nH]5)c(-c5c(F)cccc5F)c5nc(c(-c6c(F)cccc6F)c6ccc3[nH]6)C=C5)C=C4)cc2)cc1F
REMARK SMILES IDX 20 1 21 2 22 3 19 5 18 6 17 7 12 8 13 9 14 10 16 11 15 12
REMARK SMILES IDX 11 13 8 14 6 15 7 16 5 17 1 18 2 19 3 20 84 21 4 22 83 23
REMARK SMILES IDX 85 24 9 25 10 26 23 27 24 28 25 29 26 30 27 31 28 33 29 34
REMARK SMILES IDX 30 35 82 36 31 37 81 38 32 39 33 40 34 41 75 42 35 43 80 44
REMARK SMILES IDX 74 45 76 46 36 47 79 48 73 49 72 50 37 52 63 53 46 54 62 55
REMARK SMILES IDX 47 56 50 57 61 58 77 59 48 60 49 61 60 63 78 64 51 65 38 66
REMARK SMILES IDX 39 67 44 68 40 69 41 70 43 71 45 72 42 73 64 74 65 75 70 76
REMARK SMILES IDX 66 77 67 78 69 79 71 80 68 81 52 82 53 83 58 84 54 85 55 86
REMARK SMILES IDX 57 87 59 88 56 89
REMARK H PARENT 22 4 26 32 76 51 50 62
REMARK Flexibility Score: inf
ROOT
ATOM      1  C   UNL A   1      34.731  22.248  26.587  1.00  0.00     0.257 C 
ATOM      2  O   UNL A   1      34.249  21.670  27.567  1.00  0.00    -0.271 OA
ATOM      3  N   UNL A   1      35.396  21.353  25.845  1.00  0.00    -0.353 N 
ATOM      4  H   UNL A   1      35.273  20.431  26.166  1.00  0.00     0.163 HD
ENDROOT
BRANCH   1   5
ATOM      5  C   UNL A   1      34.503  23.823  26.414  1.00  0.00     0.329 C 
BRANCH   5   6
ATOM      6  O   UNL A   1      33.289  24.565  26.391  1.00  0.00    -0.483 OA
BRANCH   6   7
ATOM      7  C   UNL A   1      32.304  24.833  25.460  1.00  0.00     0.127 A 
ATOM      8  C   UNL A   1      31.539  24.080  24.515  1.00  0.00     0.018 A 
ATOM      9  C   UNL A   1      30.409  24.674  23.881  1.00  0.00     0.012 A 
ATOM     10  C   UNL A   1      30.026  25.982  24.141  1.00  0.00     0.001 A 
ATOM     11  C   UNL A   1      31.915  26.177  25.630  1.00  0.00     0.047 A 
ATOM     12  C   UNL A   1      30.795  26.741  25.003  1.00  0.00     0.004 A 
BRANCH   8  13
ATOM     13  C   UNL A   1      31.552  22.630  24.212  1.00  0.00     0.035 C 
ATOM     14  C   UNL A   1      32.632  22.084  23.614  1.00  0.00     0.101 C 
BRANCH  14  15
ATOM     15  C   UNL A   1      32.357  20.660  23.095  1.00  0.00     0.203 C 
ATOM     16  O   UNL A   1      31.855  20.518  21.976  1.00  0.00    -0.288 OA
BRANCH  15  17
ATOM     17  C   UNL A   1      32.660  19.377  23.829  1.00  0.00     0.026 A 
ATOM     18  C   UNL A   1      32.755  15.395  25.514  1.00  0.00     0.047 C 
ATOM     19  C   UNL A   1      32.958  16.800  25.017  1.00  0.00    -0.015 A 
ATOM     20  C   UNL A   1      32.607  17.904  25.787  1.00  0.00     0.007 A 
ATOM     21  C   UNL A   1      33.430  17.065  23.736  1.00  0.00     0.126 A 
ATOM     22  C   UNL A   1      32.536  19.198  25.205  1.00  0.00     0.013 A 
ATOM     23  C   UNL A   1      33.285  18.330  23.144  1.00  0.00     0.051 A 
ATOM     24  F   UNL A   1      34.005  16.083  23.029  1.00  0.00    -0.207 F 
ENDBRANCH  15  17
ENDBRANCH  14  15
BRANCH  14  25
ATOM     25  C   UNL A   1      33.445  23.174  22.934  1.00  0.00     0.103 C 
ATOM     26  N   UNL A   1      34.119  24.078  22.370  1.00  0.00    -0.192 NA
ENDBRANCH  14  25
ENDBRANCH   8  13
ENDBRANCH   6   7
ENDBRANCH   5   6
ENDBRANCH   1   5
BRANCH   3  27
ATOM     27  C   UNL A   1      36.244  21.422  24.696  1.00  0.00     0.117 C 
BRANCH  27  28
ATOM     28  C   UNL A   1      37.623  20.825  24.904  1.00  0.00     0.042 C 
BRANCH  28  29
ATOM     29  C   UNL A   1      38.542  21.554  25.877  1.00  0.00     0.118 C 
BRANCH  29  30
ATOM     30  N   UNL A   1      39.893  21.041  25.879  1.00  0.00    -0.352 N 
ATOM     31  C   UNL A   1      41.055  21.743  26.037  1.00  0.00     0.251 C 
ATOM     32  H   UNL A   1      39.988  20.069  25.752  1.00  0.00     0.163 HD
ATOM     33  O   UNL A   1      42.124  21.269  25.694  1.00  0.00    -0.269 OA
BRANCH  31  34
ATOM     34  C   UNL A   1      41.006  23.032  26.747  1.00  0.00     0.039 A 
ATOM     35  C   UNL A   1      40.640  24.182  26.038  1.00  0.00     0.014 A 
ATOM     36  C   UNL A   1      41.519  23.109  28.047  1.00  0.00     0.014 A 
ATOM     37  C   UNL A   1      40.898  25.425  26.594  1.00  0.00     0.010 A 
ATOM     38  C   UNL A   1      41.661  24.324  28.643  1.00  0.00     0.010 A 
ATOM     39  C   UNL A   1      41.462  25.462  27.867  1.00  0.00    -0.014 A 
BRANCH  39  40
ATOM     40  C   UNL A   1      41.974  26.653  28.498  1.00  0.00     0.031 A 
ATOM     41  C   UNL A   1      41.038  27.721  28.815  1.00  0.00     0.074 A 
ATOM     42  C   UNL A   1      43.256  26.583  28.913  1.00  0.00     0.049 A 
ATOM     43  N   UNL A   1      41.362  28.958  28.882  1.00  0.00    -0.248 NA
ATOM     44  C   UNL A   1      39.614  27.474  29.025  1.00  0.00     0.031 C 
ATOM     45  C   UNL A   1      43.981  27.389  29.876  1.00  0.00     0.029 A 
ATOM     46  N   UNL A   1      44.231  25.725  28.392  1.00  0.00    -0.354 N 
ATOM     47  C   UNL A   1      40.318  29.588  29.521  1.00  0.00     0.074 A 
ATOM     48  C   UNL A   1      39.196  28.687  29.399  1.00  0.00     0.031 C 
ATOM     49  C   UNL A   1      45.302  27.204  29.680  1.00  0.00     0.029 A 
ATOM     50  C   UNL A   1      45.460  26.397  28.479  1.00  0.00     0.049 A 
ATOM     51  H   UNL A   1      44.082  24.821  28.032  1.00  0.00     0.167 HD
ATOM     52  C   UNL A   1      40.597  30.683  30.282  1.00  0.00     0.037 A 
ATOM     53  C   UNL A   1      46.055  26.797  27.311  1.00  0.00     0.037 A 
ATOM     54  C   UNL A   1      42.044  30.917  30.298  1.00  0.00     0.049 A 
ATOM     55  C   UNL A   1      46.030  28.302  27.131  1.00  0.00     0.074 A 
ATOM     56  C   UNL A   1      43.054  30.580  31.185  1.00  0.00     0.029 A 
ATOM     57  N   UNL A   1      42.673  31.249  29.120  1.00  0.00    -0.354 N 
ATOM     58  N   UNL A   1      45.349  29.115  27.892  1.00  0.00    -0.248 NA
ATOM     59  C   UNL A   1      46.718  29.005  26.052  1.00  0.00     0.031 C 
ATOM     60  C   UNL A   1      44.302  30.727  30.507  1.00  0.00     0.029 A 
ATOM     61  C   UNL A   1      44.043  31.157  29.217  1.00  0.00     0.049 A 
ATOM     62  H   UNL A   1      42.197  31.520  28.302  1.00  0.00     0.167 HD
ATOM     63  C   UNL A   1      45.467  30.395  27.431  1.00  0.00     0.074 A 
ATOM     64  C   UNL A   1      46.322  30.273  26.262  1.00  0.00     0.031 C 
ATOM     65  C   UNL A   1      44.835  31.446  28.032  1.00  0.00     0.037 A 
BRANCH  52  66
ATOM     66  C   UNL A   1      39.652  31.373  31.230  1.00  0.00     0.057 A 
ATOM     67  C   UNL A   1      38.630  32.204  30.724  1.00  0.00     0.134 A 
ATOM     68  C   UNL A   1      39.660  31.259  32.632  1.00  0.00     0.134 A 
ATOM     69  F   UNL A   1      38.424  32.349  29.409  1.00  0.00    -0.206 F 
ATOM     70  C   UNL A   1      37.750  32.920  31.540  1.00  0.00     0.040 A 
ATOM     71  C   UNL A   1      38.807  31.998  33.464  1.00  0.00     0.040 A 
ATOM     72  F   UNL A   1      40.447  30.382  33.267  1.00  0.00    -0.206 F 
ATOM     73  C   UNL A   1      37.849  32.839  32.918  1.00  0.00     0.006 A 
ENDBRANCH  52  66
BRANCH  53  74
ATOM     74  C   UNL A   1      45.824  25.791  26.220  1.00  0.00     0.057 A 
ATOM     75  C   UNL A   1      46.488  24.551  26.328  1.00  0.00     0.134 A 
ATOM     76  C   UNL A   1      44.650  25.813  25.457  1.00  0.00     0.134 A 
ATOM     77  F   UNL A   1      47.633  24.460  27.024  1.00  0.00    -0.206 F 
ATOM     78  C   UNL A   1      45.904  23.360  25.887  1.00  0.00     0.040 A 
ATOM     79  C   UNL A   1      44.074  24.628  24.984  1.00  0.00     0.040 A 
ATOM     80  F   UNL A   1      43.971  26.955  25.281  1.00  0.00    -0.206 F 
ATOM     81  C   UNL A   1      44.668  23.395  25.253  1.00  0.00     0.006 A 
ENDBRANCH  53  74
BRANCH  65  82
ATOM     82  C   UNL A   1      44.890  32.859  27.520  1.00  0.00     0.057 A 
ATOM     83  C   UNL A   1      44.270  33.250  26.330  1.00  0.00     0.134 A 
ATOM     84  C   UNL A   1      45.654  33.860  28.159  1.00  0.00     0.134 A 
ATOM     85  F   UNL A   1      43.606  32.364  25.571  1.00  0.00    -0.206 F 
ATOM     86  C   UNL A   1      44.327  34.567  25.858  1.00  0.00     0.040 A 
ATOM     87  C   UNL A   1      45.775  35.157  27.665  1.00  0.00     0.040 A 
ATOM     88  F   UNL A   1      46.300  33.646  29.314  1.00  0.00    -0.206 F 
ATOM     89  C   UNL A   1      45.085  35.524  26.524  1.00  0.00     0.006 A 
ENDBRANCH  65  82
ENDBRANCH  39  40
ENDBRANCH  31  34
ENDBRANCH  29  30
ENDBRANCH  28  29
ENDBRANCH  27  28
ENDBRANCH   3  27
TORSDOF 16
ENDMDL
MODEL 3
REMARK VINA RESULT:     -12.2      3.123      8.281
REMARK SMILES Cc1ccc(C(=O)/C(C#N)=C/c2ccccc2OCC(=O)NCCCNC(=O)c2ccc(-c3c4nc(c(-c5c(F)cccc5F)c5ccc([nH]5)c(-c5c(F)cccc5F)c5nc(c(-c6c(F)cccc6F)c6ccc3[nH]6)C=C5)C=C4)cc2)cc1F
REMARK SMILES IDX 20 1 21 2 22 3 19 5 18 6 17 7 12 8 13 9 14 10 16 11 15 12
REMARK SMILES IDX 11 13 8 14 6 15 7 16 5 17 1 18 2 19 3 20 84 21 4 22 83 23
REMARK SMILES IDX 85 24 9 25 10 26 23 27 24 28 25 29 26 30 27 31 28 33 29 34
REMARK SMILES IDX 30 35 82 36 31 37 81 38 32 39 33 40 34 41 75 42 35 43 80 44
REMARK SMILES IDX 74 45 76 46 36 47 79 48 73 49 72 50 37 52 63 53 46 54 62 55
REMARK SMILES IDX 47 56 50 57 61 58 77 59 48 60 49 61 60 63 78 64 51 65 38 66
REMARK SMILES IDX 39 67 44 68 40 69 41 70 43 71 45 72 42 73 64 74 65 75 70 76
REMARK SMILES IDX 66 77 67 78 69 79 71 80 68 81 52 82 53 83 58 84 54 85 55 86
REMARK SMILES IDX 57 87 59 88 56 89
REMARK H PARENT 22 4 26 32 76 51 50 62
REMARK Flexibility Score: inf
ROOT
ATOM      1  C   UNL A   1      31.565  25.713  26.501  1.00  0.00     0.257 C 
ATOM      2  O   UNL A   1      30.367  25.979  26.363  1.00  0.00    -0.271 OA
ATOM      3  N   UNL A   1      32.280  26.826  26.292  1.00  0.00    -0.353 N 
ATOM      4  H   UNL A   1      31.713  27.623  26.184  1.00  0.00     0.163 HD
ENDROOT
BRANCH   1   5
ATOM      5  C   UNL A   1      32.000  24.213  26.856  1.00  0.00     0.329 C 
BRANCH   5   6
ATOM      6  O   UNL A   1      32.754  23.284  26.086  1.00  0.00    -0.483 OA
BRANCH   6   7
ATOM      7  C   UNL A   1      32.473  22.310  25.147  1.00  0.00     0.127 A 
ATOM      8  C   UNL A   1      32.157  22.276  23.752  1.00  0.00     0.018 A 
ATOM      9  C   UNL A   1      32.173  21.036  23.050  1.00  0.00     0.012 A 
ATOM     10  C   UNL A   1      32.475  19.839  23.682  1.00  0.00     0.001 A 
ATOM     11  C   UNL A   1      32.699  21.058  25.753  1.00  0.00     0.047 A 
ATOM     12  C   UNL A   1      32.717  19.850  25.043  1.00  0.00     0.004 A 
BRANCH   8  13
ATOM     13  C   UNL A   1      32.030  23.381  22.773  1.00  0.00     0.035 C 
ATOM     14  C   UNL A   1      33.129  23.831  22.130  1.00  0.00     0.101 C 
BRANCH  14  15
ATOM     15  C   UNL A   1      32.877  25.165  21.402  1.00  0.00     0.203 C 
ATOM     16  O   UNL A   1      33.136  25.247  20.198  1.00  0.00    -0.288 OA
BRANCH  15  17
ATOM     17  C   UNL A   1      32.314  26.419  22.024  1.00  0.00     0.026 A 
ATOM     18  C   UNL A   1      31.068  29.671  24.587  1.00  0.00     0.047 C 
ATOM     19  C   UNL A   1      31.435  28.694  23.506  1.00  0.00    -0.015 A 
ATOM     20  C   UNL A   1      30.524  27.757  23.030  1.00  0.00     0.007 A 
ATOM     21  C   UNL A   1      32.723  28.623  22.984  1.00  0.00     0.126 A 
ATOM     22  C   UNL A   1      30.958  26.668  22.226  1.00  0.00     0.013 A 
ATOM     23  C   UNL A   1      33.163  27.506  22.256  1.00  0.00     0.051 A 
ATOM     24  F   UNL A   1      33.582  29.625  23.212  1.00  0.00    -0.207 F 
ENDBRANCH  15  17
ENDBRANCH  14  15
BRANCH  14  25
ATOM     25  C   UNL A   1      34.374  23.419  22.898  1.00  0.00     0.103 C 
ATOM     26  N   UNL A   1      35.407  23.077  23.535  1.00  0.00    -0.192 NA
ENDBRANCH  14  25
ENDBRANCH   8  13
ENDBRANCH   6   7
ENDBRANCH   5   6
ENDBRANCH   1   5
BRANCH   3  27
ATOM     27  C   UNL A   1      33.673  27.129  26.187  1.00  0.00     0.117 C 
BRANCH  27  28
ATOM     28  C   UNL A   1      34.010  28.593  26.403  1.00  0.00     0.042 C 
BRANCH  28  29
ATOM     29  C   UNL A   1      33.443  29.244  27.659  1.00  0.00     0.118 C 
BRANCH  29  30
ATOM     30  N   UNL A   1      33.885  30.607  27.844  1.00  0.00    -0.352 N 
ATOM     31  C   UNL A   1      35.016  31.042  28.475  1.00  0.00     0.251 C 
ATOM     32  H   UNL A   1      33.301  31.307  27.471  1.00  0.00     0.163 HD
ATOM     33  O   UNL A   1      35.115  32.194  28.858  1.00  0.00    -0.269 OA
BRANCH  31  34
ATOM     34  C   UNL A   1      36.164  30.124  28.571  1.00  0.00     0.039 A 
ATOM     35  C   UNL A   1      36.434  29.502  29.796  1.00  0.00     0.014 A 
ATOM     36  C   UNL A   1      37.068  30.057  27.504  1.00  0.00     0.014 A 
ATOM     37  C   UNL A   1      37.670  28.906  29.988  1.00  0.00     0.010 A 
ATOM     38  C   UNL A   1      38.232  29.368  27.651  1.00  0.00     0.010 A 
ATOM     39  C   UNL A   1      38.565  28.908  28.921  1.00  0.00    -0.014 A 
BRANCH  39  40
ATOM     40  C   UNL A   1      39.949  28.515  29.018  1.00  0.00     0.031 A 
ATOM     41  C   UNL A   1      40.316  27.176  28.580  1.00  0.00     0.074 A 
ATOM     42  C   UNL A   1      40.812  29.505  29.326  1.00  0.00     0.049 A 
ATOM     43  N   UNL A   1      41.314  26.522  29.046  1.00  0.00    -0.248 NA
ATOM     44  C   UNL A   1      39.528  26.431  27.603  1.00  0.00     0.031 C 
ATOM     45  C   UNL A   1      42.249  29.592  29.155  1.00  0.00     0.029 A 
ATOM     46  N   UNL A   1      40.484  30.683  30.008  1.00  0.00    -0.354 N 
ATOM     47  C   UNL A   1      41.526  25.482  28.169  1.00  0.00     0.074 A 
ATOM     48  C   UNL A   1      40.293  25.348  27.430  1.00  0.00     0.031 C 
ATOM     49  C   UNL A   1      42.716  30.580  29.945  1.00  0.00     0.029 A 
ATOM     50  C   UNL A   1      41.608  31.047  30.765  1.00  0.00     0.049 A 
ATOM     51  H   UNL A   1      39.626  31.164  29.964  1.00  0.00     0.167 HD
ATOM     52  C   UNL A   1      42.799  25.025  28.012  1.00  0.00     0.037 A 
ATOM     53  C   UNL A   1      41.518  30.950  32.130  1.00  0.00     0.037 A 
ATOM     54  C   UNL A   1      43.719  25.836  28.815  1.00  0.00     0.049 A 
ATOM     55  C   UNL A   1      42.363  29.824  32.690  1.00  0.00     0.074 A 
ATOM     56  C   UNL A   1      44.533  26.919  28.527  1.00  0.00     0.029 A 
ATOM     57  N   UNL A   1      43.598  25.810  30.186  1.00  0.00    -0.354 N 
ATOM     58  N   UNL A   1      42.953  28.921  31.956  1.00  0.00    -0.248 NA
ATOM     59  C   UNL A   1      42.567  29.591  34.117  1.00  0.00     0.031 C 
ATOM     60  C   UNL A   1      44.902  27.533  29.762  1.00  0.00     0.029 A 
ATOM     61  C   UNL A   1      44.314  26.818  30.791  1.00  0.00     0.049 A 
ATOM     62  H   UNL A   1      43.061  25.147  30.677  1.00  0.00     0.167 HD
ATOM     63  C   UNL A   1      43.572  28.001  32.753  1.00  0.00     0.074 A 
ATOM     64  C   UNL A   1      43.286  28.454  34.104  1.00  0.00     0.031 C 
ATOM     65  C   UNL A   1      44.248  26.930  32.239  1.00  0.00     0.037 A 
BRANCH  52  66
ATOM     66  C   UNL A   1      43.277  24.064  26.954  1.00  0.00     0.057 A 
ATOM     67  C   UNL A   1      43.736  24.556  25.714  1.00  0.00     0.134 A 
ATOM     68  C   UNL A   1      43.340  22.665  27.078  1.00  0.00     0.134 A 
ATOM     69  F   UNL A   1      43.829  25.868  25.465  1.00  0.00    -0.206 F 
ATOM     70  C   UNL A   1      44.143  23.728  24.664  1.00  0.00     0.040 A 
ATOM     71  C   UNL A   1      43.712  21.820  26.023  1.00  0.00     0.040 A 
ATOM     72  F   UNL A   1      43.108  22.045  28.241  1.00  0.00    -0.206 F 
ATOM     73  C   UNL A   1      44.112  22.351  24.806  1.00  0.00     0.006 A 
ENDBRANCH  52  66
BRANCH  53  74
ATOM     74  C   UNL A   1      40.140  31.317  32.604  1.00  0.00     0.057 A 
ATOM     75  C   UNL A   1      39.313  30.272  33.066  1.00  0.00     0.134 A 
ATOM     76  C   UNL A   1      39.864  32.602  33.087  1.00  0.00     0.134 A 
ATOM     77  F   UNL A   1      39.504  29.018  32.625  1.00  0.00    -0.206 F 
ATOM     78  C   UNL A   1      38.405  30.458  34.112  1.00  0.00     0.040 A 
ATOM     79  C   UNL A   1      38.934  32.802  34.114  1.00  0.00     0.040 A 
ATOM     80  F   UNL A   1      40.585  33.656  32.679  1.00  0.00    -0.206 F 
ATOM     81  C   UNL A   1      38.249  31.721  34.670  1.00  0.00     0.006 A 
ENDBRANCH  53  74
BRANCH  65  82
ATOM     82  C   UNL A   1      44.890  25.864  33.083  1.00  0.00     0.057 A 
ATOM     83  C   UNL A   1      44.157  25.059  33.960  1.00  0.00     0.134 A 
ATOM     84  C   UNL A   1      46.289  25.673  33.116  1.00  0.00     0.134 A 
ATOM     85  F   UNL A   1      42.833  25.219  34.104  1.00  0.00    -0.206 F 
ATOM     86  C   UNL A   1      44.762  24.070  34.744  1.00  0.00     0.040 A 
ATOM     87  C   UNL A   1      46.910  24.739  33.941  1.00  0.00     0.040 A 
ATOM     88  F   UNL A   1      47.128  26.360  32.328  1.00  0.00    -0.206 F 
ATOM     89  C   UNL A   1      46.143  23.910  34.739  1.00  0.00     0.006 A 
ENDBRANCH  65  82
ENDBRANCH  39  40
ENDBRANCH  31  34
ENDBRANCH  29  30
ENDBRANCH  28  29
ENDBRANCH  27  28
ENDBRANCH   3  27
TORSDOF 16
ENDMDL
