MODEL 1
REMARK VINA RESULT:     -12.0      0.000      0.000
REMARK SMILES CCCn1ncc(C(=O)N2CCC(C(=O)NCCCNC(=O)c3ccc(-c4c5nc(c(-c6c(F)cccc6F)c6ccc([nH]6)c(-c6c(F)cccc6F)c6nc(c(-c7c(F)cccc7F)c7ccc4[nH]7)C=C6)C=C5)cc3)CC2)c1C
REMARK SMILES IDX 17 1 16 2 14 3 15 4 13 6 8 7 9 8 10 9 11 10 78 11 12 12
REMARK SMILES IDX 77 13 7 14 4 15 5 16 79 17 6 18 80 19 3 20 2 21 1 22 18 23
REMARK SMILES IDX 19 24 20 25 21 26 22 28 23 29 24 30 76 31 25 32 75 33 26 34
REMARK SMILES IDX 27 35 28 36 69 37 29 38 74 39 68 40 70 41 30 42 73 43 67 44
REMARK SMILES IDX 66 45 31 47 57 48 40 49 56 50 41 51 44 52 55 53 71 54 42 55
REMARK SMILES IDX 43 56 54 58 72 59 45 60 32 61 33 62 38 63 34 64 35 65 37 66
REMARK SMILES IDX 39 67 36 68 58 69 59 70 64 71 60 72 61 73 63 74 65 75 62 76
REMARK SMILES IDX 46 77 47 78 52 79 48 80 49 81 51 82 53 83 50 84
REMARK H PARENT 16 5 20 27 70 46 44 57
REMARK Flexibility Score: inf
ROOT
ATOM      1  C   UNL A   1      37.508  23.040  25.799  1.00  0.00     0.117 C 
ENDROOT
BRANCH   1   2
ATOM      2  N   UNL A   1      36.174  22.622  26.229  1.00  0.00    -0.356 N 
ATOM      3  C   UNL A   1      34.940  23.123  25.932  1.00  0.00     0.223 C 
ATOM      4  O   UNL A   1      33.952  22.533  26.379  1.00  0.00    -0.275 OA
ATOM      5  H   UNL A   1      36.166  21.848  26.836  1.00  0.00     0.163 HD
BRANCH   3   6
ATOM      6  C   UNL A   1      34.769  24.381  25.091  1.00  0.00     0.082 C 
ATOM      7  C   UNL A   1      31.510  25.644  23.117  1.00  0.00     0.257 C 
ATOM      8  O   UNL A   1      31.080  24.558  22.733  1.00  0.00    -0.269 OA
ATOM      9  N   UNL A   1      32.822  25.791  23.549  1.00  0.00    -0.338 N 
ATOM     10  C   UNL A   1      33.881  25.119  22.828  1.00  0.00     0.120 C 
ATOM     11  C   UNL A   1      33.198  26.407  24.811  1.00  0.00     0.120 C 
ATOM     12  C   UNL A   1      34.454  23.985  23.642  1.00  0.00     0.035 C 
ATOM     13  C   UNL A   1      33.815  25.386  25.764  1.00  0.00     0.035 C 
BRANCH   7  14
ATOM     14  C   UNL A   1      30.749  26.881  22.983  1.00  0.00     0.080 A 
ATOM     15  N   UNL A   1      29.119  28.375  22.925  1.00  0.00    -0.269 N 
ATOM     16  N   UNL A   1      30.120  28.942  22.225  1.00  0.00    -0.180 NA
ATOM     17  C   UNL A   1      29.445  27.127  23.411  1.00  0.00     0.048 A 
ATOM     18  C   UNL A   1      31.095  28.043  22.264  1.00  0.00     0.149 A 
ATOM     19  C   UNL A   1      28.521  26.238  24.168  1.00  0.00     0.067 C 
BRANCH  15  20
ATOM     20  C   UNL A   1      27.847  29.075  22.949  1.00  0.00     0.144 C 
BRANCH  20  21
ATOM     21  C   UNL A   1      27.889  30.484  22.354  1.00  0.00     0.020 C 
ATOM     22  C   UNL A   1      27.641  31.593  23.370  1.00  0.00     0.006 C 
ENDBRANCH  20  21
ENDBRANCH  15  20
ENDBRANCH   7  14
ENDBRANCH   3   6
ENDBRANCH   1   2
BRANCH   1  23
ATOM     23  C   UNL A   1      38.480  21.884  25.563  1.00  0.00     0.042 C 
BRANCH  23  24
ATOM     24  C   UNL A   1      39.614  21.845  26.565  1.00  0.00     0.118 C 
BRANCH  24  25
ATOM     25  N   UNL A   1      40.937  21.917  25.946  1.00  0.00    -0.352 N 
ATOM     26  C   UNL A   1      41.758  23.031  25.850  1.00  0.00     0.251 C 
ATOM     27  H   UNL A   1      41.284  21.083  25.555  1.00  0.00     0.163 HD
ATOM     28  O   UNL A   1      42.681  23.080  25.064  1.00  0.00    -0.269 OA
BRANCH  26  29
ATOM     29  C   UNL A   1      41.453  24.172  26.734  1.00  0.00     0.039 A 
ATOM     30  C   UNL A   1      42.131  24.347  27.940  1.00  0.00     0.014 A 
ATOM     31  C   UNL A   1      40.555  25.125  26.266  1.00  0.00     0.014 A 
ATOM     32  C   UNL A   1      41.970  25.551  28.622  1.00  0.00     0.010 A 
ATOM     33  C   UNL A   1      40.535  26.368  26.848  1.00  0.00     0.010 A 
ATOM     34  C   UNL A   1      41.197  26.577  28.053  1.00  0.00    -0.014 A 
BRANCH  34  35
ATOM     35  C   UNL A   1      41.138  27.895  28.679  1.00  0.00     0.031 A 
ATOM     36  C   UNL A   1      42.237  28.835  28.323  1.00  0.00     0.074 A 
ATOM     37  C   UNL A   1      40.088  28.332  29.406  1.00  0.00     0.049 A 
ATOM     38  N   UNL A   1      43.192  29.255  29.087  1.00  0.00    -0.248 NA
ATOM     39  C   UNL A   1      42.348  29.291  26.930  1.00  0.00     0.031 C 
ATOM     40  C   UNL A   1      38.781  27.700  29.626  1.00  0.00     0.029 A 
ATOM     41  N   UNL A   1      39.956  29.520  30.056  1.00  0.00    -0.354 N 
ATOM     42  C   UNL A   1      43.924  30.172  28.336  1.00  0.00     0.074 A 
ATOM     43  C   UNL A   1      43.451  30.044  26.981  1.00  0.00     0.031 C 
ATOM     44  C   UNL A   1      37.925  28.599  30.159  1.00  0.00     0.029 A 
ATOM     45  C   UNL A   1      38.672  29.793  30.500  1.00  0.00     0.049 A 
ATOM     46  H   UNL A   1      40.711  30.135  30.199  1.00  0.00     0.167 HD
ATOM     47  C   UNL A   1      44.715  31.106  28.936  1.00  0.00     0.037 A 
ATOM     48  C   UNL A   1      38.247  30.920  31.114  1.00  0.00     0.037 A 
ATOM     49  C   UNL A   1      44.963  30.770  30.316  1.00  0.00     0.049 A 
ATOM     50  C   UNL A   1      39.438  31.587  31.687  1.00  0.00     0.074 A 
ATOM     51  C   UNL A   1      45.543  29.700  30.971  1.00  0.00     0.029 A 
ATOM     52  N   UNL A   1      44.249  31.443  31.278  1.00  0.00    -0.354 N 
ATOM     53  N   UNL A   1      40.133  31.106  32.680  1.00  0.00    -0.248 NA
ATOM     54  C   UNL A   1      40.123  32.575  30.868  1.00  0.00     0.031 C 
ATOM     55  C   UNL A   1      44.741  29.506  32.136  1.00  0.00     0.029 A 
ATOM     56  C   UNL A   1      43.765  30.504  32.151  1.00  0.00     0.049 A 
ATOM     57  H   UNL A   1      44.111  32.416  31.329  1.00  0.00     0.167 HD
ATOM     58  C   UNL A   1      41.452  31.387  32.358  1.00  0.00     0.074 A 
ATOM     59  C   UNL A   1      41.375  32.382  31.290  1.00  0.00     0.031 C 
ATOM     60  C   UNL A   1      42.472  30.588  32.788  1.00  0.00     0.037 A 
BRANCH  47  61
ATOM     61  C   UNL A   1      44.976  32.496  28.402  1.00  0.00     0.057 A 
ATOM     62  C   UNL A   1      46.304  32.902  28.161  1.00  0.00     0.134 A 
ATOM     63  C   UNL A   1      44.027  33.537  28.405  1.00  0.00     0.134 A 
ATOM     64  F   UNL A   1      47.305  32.009  28.136  1.00  0.00    -0.206 F 
ATOM     65  C   UNL A   1      46.668  34.247  28.024  1.00  0.00     0.040 A 
ATOM     66  C   UNL A   1      44.374  34.879  28.219  1.00  0.00     0.040 A 
ATOM     67  F   UNL A   1      42.737  33.330  28.688  1.00  0.00    -0.206 F 
ATOM     68  C   UNL A   1      45.701  35.244  28.063  1.00  0.00     0.006 A 
ENDBRANCH  47  61
BRANCH  48  69
ATOM     69  C   UNL A   1      36.930  31.581  31.013  1.00  0.00     0.057 A 
ATOM     70  C   UNL A   1      36.147  31.814  32.151  1.00  0.00     0.134 A 
ATOM     71  C   UNL A   1      36.540  32.252  29.840  1.00  0.00     0.134 A 
ATOM     72  F   UNL A   1      36.462  31.244  33.322  1.00  0.00    -0.206 F 
ATOM     73  C   UNL A   1      35.058  32.694  32.133  1.00  0.00     0.040 A 
ATOM     74  C   UNL A   1      35.452  33.128  29.808  1.00  0.00     0.040 A 
ATOM     75  F   UNL A   1      37.258  32.148  28.712  1.00  0.00    -0.206 F 
ATOM     76  C   UNL A   1      34.716  33.365  30.962  1.00  0.00     0.006 A 
ENDBRANCH  48  69
BRANCH  60  77
ATOM     77  C   UNL A   1      42.161  29.547  33.831  1.00  0.00     0.057 A 
ATOM     78  C   UNL A   1      41.790  28.225  33.539  1.00  0.00     0.134 A 
ATOM     79  C   UNL A   1      42.390  29.853  35.177  1.00  0.00     0.134 A 
ATOM     80  F   UNL A   1      41.644  27.807  32.277  1.00  0.00    -0.206 F 
ATOM     81  C   UNL A   1      41.613  27.268  34.543  1.00  0.00     0.040 A 
ATOM     82  C   UNL A   1      42.249  28.898  36.187  1.00  0.00     0.040 A 
ATOM     83  F   UNL A   1      42.803  31.081  35.529  1.00  0.00    -0.206 F 
ATOM     84  C   UNL A   1      41.849  27.602  35.873  1.00  0.00     0.006 A 
ENDBRANCH  60  77
ENDBRANCH  34  35
ENDBRANCH  26  29
ENDBRANCH  24  25
ENDBRANCH  23  24
ENDBRANCH   1  23
TORSDOF 13
ENDMDL
MODEL 2
REMARK VINA RESULT:     -12.0      2.972      8.260
REMARK SMILES CCCn1ncc(C(=O)N2CCC(C(=O)NCCCNC(=O)c3ccc(-c4c5nc(c(-c6c(F)cccc6F)c6ccc([nH]6)c(-c6c(F)cccc6F)c6nc(c(-c7c(F)cccc7F)c7ccc4[nH]7)C=C6)C=C5)cc3)CC2)c1C
REMARK SMILES IDX 17 1 16 2 14 3 15 4 13 6 8 7 9 8 10 9 11 10 78 11 12 12
REMARK SMILES IDX 77 13 7 14 4 15 5 16 79 17 6 18 80 19 3 20 2 21 1 22 18 23
REMARK SMILES IDX 19 24 20 25 21 26 22 28 23 29 24 30 76 31 25 32 75 33 26 34
REMARK SMILES IDX 27 35 28 36 69 37 29 38 74 39 68 40 70 41 30 42 73 43 67 44
REMARK SMILES IDX 66 45 31 47 57 48 40 49 56 50 41 51 44 52 55 53 71 54 42 55
REMARK SMILES IDX 43 56 54 58 72 59 45 60 32 61 33 62 38 63 34 64 35 65 37 66
REMARK SMILES IDX 39 67 36 68 58 69 59 70 64 71 60 72 61 73 63 74 65 75 62 76
REMARK SMILES IDX 46 77 47 78 52 79 48 80 49 81 51 82 53 83 50 84
REMARK H PARENT 16 5 20 27 70 46 44 57
REMARK Flexibility Score: inf
ROOT
ATOM      1  C   UNL A   1      32.148  29.973  25.751  1.00  0.00     0.117 C 
ENDROOT
BRANCH   1   2
ATOM      2  N   UNL A   1      33.175  29.701  24.747  1.00  0.00    -0.356 N 
ATOM      3  C   UNL A   1      33.437  28.579  24.015  1.00  0.00     0.223 C 
ATOM      4  O   UNL A   1      34.336  28.635  23.171  1.00  0.00    -0.275 OA
ATOM      5  H   UNL A   1      33.782  30.455  24.570  1.00  0.00     0.163 HD
BRANCH   3   6
ATOM      6  C   UNL A   1      32.666  27.284  24.233  1.00  0.00     0.082 C 
ATOM      7  C   UNL A   1      33.714  23.548  23.206  1.00  0.00     0.257 C 
ATOM      8  O   UNL A   1      34.267  23.786  22.134  1.00  0.00    -0.269 OA
ATOM      9  N   UNL A   1      32.859  24.468  23.800  1.00  0.00    -0.338 N 
ATOM     10  C   UNL A   1      31.931  25.205  22.971  1.00  0.00     0.120 C 
ATOM     11  C   UNL A   1      32.970  24.905  25.182  1.00  0.00     0.120 C 
ATOM     12  C   UNL A   1      32.330  26.657  22.874  1.00  0.00     0.035 C 
ATOM     13  C   UNL A   1      33.362  26.379  25.268  1.00  0.00     0.035 C 
BRANCH   7  14
ATOM     14  C   UNL A   1      33.765  22.235  23.840  1.00  0.00     0.080 A 
ATOM     15  N   UNL A   1      33.288  20.183  24.515  1.00  0.00    -0.269 N 
ATOM     16  N   UNL A   1      34.224  20.614  25.383  1.00  0.00    -0.180 NA
ATOM     17  C   UNL A   1      32.973  21.123  23.558  1.00  0.00     0.048 A 
ATOM     18  C   UNL A   1      34.507  21.844  24.973  1.00  0.00     0.149 A 
ATOM     19  C   UNL A   1      31.934  20.952  22.505  1.00  0.00     0.067 C 
BRANCH  15  20
ATOM     20  C   UNL A   1      32.675  18.895  24.786  1.00  0.00     0.144 C 
BRANCH  20  21
ATOM     21  C   UNL A   1      33.640  17.708  24.721  1.00  0.00     0.020 C 
ATOM     22  C   UNL A   1      33.950  17.242  23.303  1.00  0.00     0.006 C 
ENDBRANCH  20  21
ENDBRANCH  15  20
ENDBRANCH   7  14
ENDBRANCH   3   6
ENDBRANCH   1   2
BRANCH   1  23
ATOM     23  C   UNL A   1      32.679  30.062  27.182  1.00  0.00     0.042 C 
BRANCH  23  24
ATOM     24  C   UNL A   1      33.996  30.802  27.284  1.00  0.00     0.118 C 
BRANCH  24  25
ATOM     25  N   UNL A   1      34.035  31.766  28.383  1.00  0.00    -0.352 N 
ATOM     26  C   UNL A   1      34.976  31.841  29.399  1.00  0.00     0.251 C 
ATOM     27  H   UNL A   1      33.314  32.436  28.404  1.00  0.00     0.163 HD
ATOM     28  O   UNL A   1      34.765  32.457  30.422  1.00  0.00    -0.269 OA
BRANCH  26  29
ATOM     29  C   UNL A   1      36.248  31.120  29.195  1.00  0.00     0.039 A 
ATOM     30  C   UNL A   1      37.459  31.807  29.121  1.00  0.00     0.014 A 
ATOM     31  C   UNL A   1      36.206  29.730  29.200  1.00  0.00     0.014 A 
ATOM     32  C   UNL A   1      38.641  31.073  29.157  1.00  0.00     0.010 A 
ATOM     33  C   UNL A   1      37.365  29.026  29.409  1.00  0.00     0.010 A 
ATOM     34  C   UNL A   1      38.591  29.680  29.339  1.00  0.00    -0.014 A 
BRANCH  34  35
ATOM     35  C   UNL A   1      39.819  28.912  29.528  1.00  0.00     0.031 A 
ATOM     36  C   UNL A   1      40.292  28.775  30.934  1.00  0.00     0.074 A 
ATOM     37  C   UNL A   1      40.427  28.216  28.543  1.00  0.00     0.049 A 
ATOM     38  N   UNL A   1      41.339  29.312  31.469  1.00  0.00    -0.248 NA
ATOM     39  C   UNL A   1      39.454  28.032  31.887  1.00  0.00     0.031 C 
ATOM     40  C   UNL A   1      39.975  27.960  27.170  1.00  0.00     0.029 A 
ATOM     41  N   UNL A   1      41.586  27.507  28.612  1.00  0.00    -0.354 N 
ATOM     42  C   UNL A   1      41.404  28.833  32.775  1.00  0.00     0.074 A 
ATOM     43  C   UNL A   1      40.148  28.172  33.020  1.00  0.00     0.031 C 
ATOM     44  C   UNL A   1      40.726  26.982  26.619  1.00  0.00     0.029 A 
ATOM     45  C   UNL A   1      41.825  26.691  27.517  1.00  0.00     0.049 A 
ATOM     46  H   UNL A   1      42.204  27.569  29.376  1.00  0.00     0.167 HD
ATOM     47  C   UNL A   1      42.574  28.845  33.475  1.00  0.00     0.037 A 
ATOM     48  C   UNL A   1      42.860  25.836  27.353  1.00  0.00     0.037 A 
ATOM     49  C   UNL A   1      43.544  29.714  32.854  1.00  0.00     0.049 A 
ATOM     50  C   UNL A   1      43.943  26.273  28.264  1.00  0.00     0.074 A 
ATOM     51  C   UNL A   1      43.590  31.059  32.542  1.00  0.00     0.029 A 
ATOM     52  N   UNL A   1      44.542  29.132  32.110  1.00  0.00    -0.354 N 
ATOM     53  N   UNL A   1      44.614  27.380  28.117  1.00  0.00    -0.248 NA
ATOM     54  C   UNL A   1      43.984  25.691  29.597  1.00  0.00     0.031 C 
ATOM     55  C   UNL A   1      44.247  31.119  31.276  1.00  0.00     0.029 A 
ATOM     56  C   UNL A   1      44.614  29.819  30.926  1.00  0.00     0.049 A 
ATOM     57  H   UNL A   1      45.100  28.367  32.378  1.00  0.00     0.167 HD
ATOM     58  C   UNL A   1      44.791  27.861  29.406  1.00  0.00     0.074 A 
ATOM     59  C   UNL A   1      44.475  26.730  30.276  1.00  0.00     0.031 C 
ATOM     60  C   UNL A   1      44.901  29.199  29.653  1.00  0.00     0.037 A 
BRANCH  47  61
ATOM     61  C   UNL A   1      42.980  27.819  34.507  1.00  0.00     0.057 A 
ATOM     62  C   UNL A   1      43.310  26.515  34.087  1.00  0.00     0.134 A 
ATOM     63  C   UNL A   1      42.772  27.963  35.892  1.00  0.00     0.134 A 
ATOM     64  F   UNL A   1      43.530  26.241  32.792  1.00  0.00    -0.206 F 
ATOM     65  C   UNL A   1      43.339  25.425  34.966  1.00  0.00     0.040 A 
ATOM     66  C   UNL A   1      42.849  26.889  36.785  1.00  0.00     0.040 A 
ATOM     67  F   UNL A   1      42.383  29.118  36.443  1.00  0.00    -0.206 F 
ATOM     68  C   UNL A   1      43.097  25.609  36.321  1.00  0.00     0.006 A 
ENDBRANCH  47  61
BRANCH  48  69
ATOM     69  C   UNL A   1      42.874  24.532  26.659  1.00  0.00     0.057 A 
ATOM     70  C   UNL A   1      43.582  24.355  25.465  1.00  0.00     0.134 A 
ATOM     71  C   UNL A   1      42.429  23.363  27.300  1.00  0.00     0.134 A 
ATOM     72  F   UNL A   1      44.074  25.411  24.801  1.00  0.00    -0.206 F 
ATOM     73  C   UNL A   1      43.865  23.082  24.953  1.00  0.00     0.040 A 
ATOM     74  C   UNL A   1      42.700  22.087  26.797  1.00  0.00     0.040 A 
ATOM     75  F   UNL A   1      41.797  23.418  28.482  1.00  0.00    -0.206 F 
ATOM     76  C   UNL A   1      43.436  21.943  25.627  1.00  0.00     0.006 A 
ENDBRANCH  48  69
BRANCH  60  77
ATOM     77  C   UNL A   1      45.087  30.121  28.478  1.00  0.00     0.057 A 
ATOM     78  C   UNL A   1      44.034  30.733  27.780  1.00  0.00     0.134 A 
ATOM     79  C   UNL A   1      46.384  30.520  28.135  1.00  0.00     0.134 A 
ATOM     80  F   UNL A   1      42.758  30.494  28.101  1.00  0.00    -0.206 F 
ATOM     81  C   UNL A   1      44.264  31.664  26.762  1.00  0.00     0.040 A 
ATOM     82  C   UNL A   1      46.626  31.472  27.142  1.00  0.00     0.040 A 
ATOM     83  F   UNL A   1      47.441  30.021  28.795  1.00  0.00    -0.206 F 
ATOM     84  C   UNL A   1      45.564  32.040  26.443  1.00  0.00     0.006 A 
ENDBRANCH  60  77
ENDBRANCH  34  35
ENDBRANCH  26  29
ENDBRANCH  24  25
ENDBRANCH  23  24
ENDBRANCH   1  23
TORSDOF 13
ENDMDL
MODEL 3
REMARK VINA RESULT:     -11.8      2.458      3.666
REMARK SMILES CCCn1ncc(C(=O)N2CCC(C(=O)NCCCNC(=O)c3ccc(-c4c5nc(c(-c6c(F)cccc6F)c6ccc([nH]6)c(-c6c(F)cccc6F)c6nc(c(-c7c(F)cccc7F)c7ccc4[nH]7)C=C6)C=C5)cc3)CC2)c1C
REMARK SMILES IDX 17 1 16 2 14 3 15 4 13 6 8 7 9 8 10 9 11 10 78 11 12 12
REMARK SMILES IDX 77 13 7 14 4 15 5 16 79 17 6 18 80 19 3 20 2 21 1 22 18 23
REMARK SMILES IDX 19 24 20 25 21 26 22 28 23 29 24 30 76 31 25 32 75 33 26 34
REMARK SMILES IDX 27 35 28 36 69 37 29 38 74 39 68 40 70 41 30 42 73 43 67 44
REMARK SMILES IDX 66 45 31 47 57 48 40 49 56 50 41 51 44 52 55 53 71 54 42 55
REMARK SMILES IDX 43 56 54 58 72 59 45 60 32 61 33 62 38 63 34 64 35 65 37 66
REMARK SMILES IDX 39 67 36 68 58 69 59 70 64 71 60 72 61 73 63 74 65 75 62 76
REMARK SMILES IDX 46 77 47 78 52 79 48 80 49 81 51 82 53 83 50 84
REMARK H PARENT 16 5 20 27 70 46 44 57
REMARK Flexibility Score: inf
ROOT
ATOM      1  C   UNL A   1      39.548  19.801  25.761  1.00  0.00     0.117 C 
ENDROOT
BRANCH   1   2
ATOM      2  N   UNL A   1      39.517  21.215  26.130  1.00  0.00    -0.356 N 
ATOM      3  C   UNL A   1      38.595  22.188  25.875  1.00  0.00     0.223 C 
ATOM      4  O   UNL A   1      38.778  23.304  26.368  1.00  0.00    -0.275 OA
ATOM      5  H   UNL A   1      40.296  21.517  26.652  1.00  0.00     0.163 HD
BRANCH   3   6
ATOM      6  C   UNL A   1      37.380  21.925  24.995  1.00  0.00     0.082 C 
ATOM      7  C   UNL A   1      33.772  23.679  25.127  1.00  0.00     0.257 C 
ATOM      8  O   UNL A   1      33.660  23.807  26.345  1.00  0.00    -0.269 OA
ATOM      9  N   UNL A   1      34.694  22.800  24.574  1.00  0.00    -0.338 N 
ATOM     10  C   UNL A   1      34.881  21.501  25.180  1.00  0.00     0.120 C 
ATOM     11  C   UNL A   1      35.650  23.169  23.542  1.00  0.00     0.120 C 
ATOM     12  C   UNL A   1      36.224  21.412  25.864  1.00  0.00     0.035 C 
ATOM     13  C   UNL A   1      37.082  23.121  24.070  1.00  0.00     0.035 C 
BRANCH   7  14
ATOM     14  C   UNL A   1      32.841  24.291  24.186  1.00  0.00     0.080 A 
ATOM     15  N   UNL A   1      31.662  25.744  23.007  1.00  0.00    -0.269 N 
ATOM     16  N   UNL A   1      30.977  24.590  22.899  1.00  0.00    -0.180 NA
ATOM     17  C   UNL A   1      32.801  25.622  23.772  1.00  0.00     0.048 A 
ATOM     18  C   UNL A   1      31.688  23.722  23.606  1.00  0.00     0.149 A 
ATOM     19  C   UNL A   1      33.724  26.740  24.115  1.00  0.00     0.067 C 
BRANCH  15  20
ATOM     20  C   UNL A   1      31.053  26.933  22.436  1.00  0.00     0.144 C 
BRANCH  20  21
ATOM     21  C   UNL A   1      30.026  27.616  23.343  1.00  0.00     0.020 C 
ATOM     22  C   UNL A   1      30.358  29.068  23.669  1.00  0.00     0.006 C 
ENDBRANCH  20  21
ENDBRANCH  15  20
ENDBRANCH   7  14
ENDBRANCH   3   6
ENDBRANCH   1   2
BRANCH   1  23
ATOM     23  C   UNL A   1      40.931  19.157  25.864  1.00  0.00     0.042 C 
BRANCH  23  24
ATOM     24  C   UNL A   1      42.047  20.166  26.036  1.00  0.00     0.118 C 
BRANCH  24  25
ATOM     25  N   UNL A   1      43.318  19.728  25.462  1.00  0.00    -0.352 N 
ATOM     26  C   UNL A   1      44.335  20.530  24.964  1.00  0.00     0.251 C 
ATOM     27  H   UNL A   1      43.471  18.756  25.425  1.00  0.00     0.163 HD
ATOM     28  O   UNL A   1      45.199  20.089  24.237  1.00  0.00    -0.269 OA
BRANCH  26  29
ATOM     29  C   UNL A   1      44.313  21.957  25.340  1.00  0.00     0.039 A 
ATOM     30  C   UNL A   1      43.549  22.876  24.623  1.00  0.00     0.014 A 
ATOM     31  C   UNL A   1      44.985  22.326  26.500  1.00  0.00     0.014 A 
ATOM     32  C   UNL A   1      43.383  24.155  25.149  1.00  0.00     0.010 A 
ATOM     33  C   UNL A   1      44.680  23.523  27.097  1.00  0.00     0.010 A 
ATOM     34  C   UNL A   1      43.922  24.465  26.409  1.00  0.00    -0.014 A 
BRANCH  34  35
ATOM     35  C   UNL A   1      43.634  25.748  27.043  1.00  0.00     0.031 A 
ATOM     36  C   UNL A   1      44.569  26.861  26.717  1.00  0.00     0.074 A 
ATOM     37  C   UNL A   1      42.512  25.999  27.752  1.00  0.00     0.049 A 
ATOM     38  N   UNL A   1      45.427  27.424  27.503  1.00  0.00    -0.248 NA
ATOM     39  C   UNL A   1      44.630  27.343  25.329  1.00  0.00     0.031 C 
ATOM     40  C   UNL A   1      41.324  25.158  27.941  1.00  0.00     0.029 A 
ATOM     41  N   UNL A   1      42.175  27.142  28.408  1.00  0.00    -0.354 N 
ATOM     42  C   UNL A   1      46.012  28.457  26.774  1.00  0.00     0.074 A 
ATOM     43  C   UNL A   1      45.592  28.267  25.409  1.00  0.00     0.031 C 
ATOM     44  C   UNL A   1      40.322  25.897  28.463  1.00  0.00     0.029 A 
ATOM     45  C   UNL A   1      40.854  27.194  28.828  1.00  0.00     0.049 A 
ATOM     46  H   UNL A   1      42.815  27.872  28.571  1.00  0.00     0.167 HD
ATOM     47  C   UNL A   1      46.627  29.502  27.396  1.00  0.00     0.037 A 
ATOM     48  C   UNL A   1      40.238  28.230  29.442  1.00  0.00     0.037 A 
ATOM     49  C   UNL A   1      46.901  29.197  28.779  1.00  0.00     0.049 A 
ATOM     50  C   UNL A   1      41.293  29.078  30.044  1.00  0.00     0.074 A 
ATOM     51  C   UNL A   1      47.637  28.230  29.437  1.00  0.00     0.029 A 
ATOM     52  N   UNL A   1      46.068  29.733  29.731  1.00  0.00    -0.354 N 
ATOM     53  N   UNL A   1      42.038  28.707  31.047  1.00  0.00    -0.248 NA
ATOM     54  C   UNL A   1      41.820  30.174  29.246  1.00  0.00     0.031 C 
ATOM     55  C   UNL A   1      46.856  27.894  30.585  1.00  0.00     0.029 A 
ATOM     56  C   UNL A   1      45.729  28.718  30.587  1.00  0.00     0.049 A 
ATOM     57  H   UNL A   1      45.770  30.669  29.787  1.00  0.00     0.167 HD
ATOM     58  C   UNL A   1      43.299  29.206  30.754  1.00  0.00     0.074 A 
ATOM     59  C   UNL A   1      43.079  30.185  29.691  1.00  0.00     0.031 C 
ATOM     60  C   UNL A   1      44.428  28.581  31.199  1.00  0.00     0.037 A 
BRANCH  47  61
ATOM     61  C   UNL A   1      46.665  30.921  26.878  1.00  0.00     0.057 A 
ATOM     62  C   UNL A   1      47.887  31.623  26.884  1.00  0.00     0.134 A 
ATOM     63  C   UNL A   1      45.523  31.718  26.665  1.00  0.00     0.134 A 
ATOM     64  F   UNL A   1      49.050  30.982  27.081  1.00  0.00    -0.206 F 
ATOM     65  C   UNL A   1      47.957  33.017  26.776  1.00  0.00     0.040 A 
ATOM     66  C   UNL A   1      45.587  33.106  26.506  1.00  0.00     0.040 A 
ATOM     67  F   UNL A   1      44.283  31.219  26.702  1.00  0.00    -0.206 F 
ATOM     68  C   UNL A   1      46.801  33.766  26.596  1.00  0.00     0.006 A 
ENDBRANCH  47  61
BRANCH  48  69
ATOM     69  C   UNL A   1      38.833  28.666  29.319  1.00  0.00     0.057 A 
ATOM     70  C   UNL A   1      37.979  28.680  30.429  1.00  0.00     0.134 A 
ATOM     71  C   UNL A   1      38.379  29.346  28.175  1.00  0.00     0.134 A 
ATOM     72  F   UNL A   1      38.342  28.086  31.575  1.00  0.00    -0.206 F 
ATOM     73  C   UNL A   1      36.756  29.363  30.414  1.00  0.00     0.040 A 
ATOM     74  C   UNL A   1      37.159  30.027  28.146  1.00  0.00     0.040 A 
ATOM     75  F   UNL A   1      39.146  29.447  27.080  1.00  0.00    -0.206 F 
ATOM     76  C   UNL A   1      36.350  30.052  29.275  1.00  0.00     0.006 A 
ENDBRANCH  48  69
BRANCH  60  77
ATOM     77  C   UNL A   1      44.273  27.492  32.227  1.00  0.00     0.057 A 
ATOM     78  C   UNL A   1      44.186  26.125  31.921  1.00  0.00     0.134 A 
ATOM     79  C   UNL A   1      44.366  27.828  33.582  1.00  0.00     0.134 A 
ATOM     80  F   UNL A   1      44.192  25.695  30.654  1.00  0.00    -0.206 F 
ATOM     81  C   UNL A   1      44.148  25.145  32.918  1.00  0.00     0.040 A 
ATOM     82  C   UNL A   1      44.363  26.857  34.587  1.00  0.00     0.040 A 
ATOM     83  F   UNL A   1      44.510  29.111  33.952  1.00  0.00    -0.206 F 
ATOM     84  C   UNL A   1      44.243  25.510  34.257  1.00  0.00     0.006 A 
ENDBRANCH  60  77
ENDBRANCH  34  35
ENDBRANCH  26  29
ENDBRANCH  24  25
ENDBRANCH  23  24
ENDBRANCH   1  23
TORSDOF 13
ENDMDL
