MODEL 1
REMARK VINA RESULT:     -11.5      0.000      0.000
REMARK SMILES CC(C)[NH2+][C@@]1(C(=O)NCCCNC(=O)c2ccc(-c3c4nc(c(-c5c(F)cccc5F)c5ccc([nH]5)c(-c5c(F)cccc5F)c5nc(c(-c6c(F)cccc6F)c6ccc3[nH]6)C=C5)C=C4)cc2)CC[C@@H](Sc2ccncc2)C1
REMARK SMILES IDX 10 1 9 2 8 3 6 4 7 5 5 7 69 8 79 9 70 10 71 11 4 12 2 15
REMARK SMILES IDX 1 16 3 17 72 18 73 19 74 20 78 21 75 22 77 23 76 24 11 25
REMARK SMILES IDX 12 26 13 27 14 29 15 30 16 31 68 32 17 33 67 34 18 35 19 36
REMARK SMILES IDX 20 37 61 38 21 39 66 40 60 41 62 42 22 43 65 44 59 45 58 46
REMARK SMILES IDX 23 48 49 49 32 50 48 51 33 52 36 53 47 54 63 55 34 56 35 57
REMARK SMILES IDX 46 59 64 60 37 61 24 62 25 63 30 64 26 65 27 66 29 67 31 68
REMARK SMILES IDX 28 69 50 70 51 71 56 72 52 73 53 74 55 75 57 76 54 77 38 78
REMARK SMILES IDX 39 79 44 80 40 81 41 82 43 83 45 84 42 85
REMARK H PARENT 8 6 4 13 4 14 12 28 62 47 36 58
REMARK Flexibility Score: inf
ROOT
ATOM      1  C   UNL A   1      38.277  19.527  24.931  1.00  0.00     0.042 C 
ENDROOT
BRANCH   1   2
ATOM      2  C   UNL A   1      37.256  20.613  24.617  1.00  0.00     0.118 C 
BRANCH   2   3
ATOM      3  N   UNL A   1      37.582  21.844  25.291  1.00  0.00    -0.351 N 
ATOM      4  C   UNL A   1      36.850  22.921  25.659  1.00  0.00     0.281 C 
ATOM      5  O   UNL A   1      37.532  23.871  26.079  1.00  0.00    -0.268 OA
ATOM      6  H   UNL A   1      38.533  21.917  25.534  1.00  0.00     0.163 HD
BRANCH   4   7
ATOM      7  C   UNL A   1      35.270  23.062  25.574  1.00  0.00     0.176 C 
ATOM      8  C   UNL A   1      34.570  22.818  26.925  1.00  0.00     0.080 C 
ATOM      9  C   UNL A   1      34.644  22.052  24.596  1.00  0.00     0.094 C 
ATOM     10  C   UNL A   1      33.768  21.517  26.830  1.00  0.00     0.022 C 
ATOM     11  C   UNL A   1      33.979  20.957  25.427  1.00  0.00     0.058 C 
BRANCH   7  12
ATOM     12  N   UNL A   1      35.097  24.504  25.232  1.00  0.00    -0.332 N 
ATOM     13  H   UNL A   1      35.466  25.032  26.024  1.00  0.00     0.347 HD
ATOM     14  H   UNL A   1      35.572  24.567  24.330  1.00  0.00     0.347 HD
BRANCH  12  15
ATOM     15  C   UNL A   1      33.796  25.078  24.932  1.00  0.00     0.176 C 
ATOM     16  C   UNL A   1      33.654  26.340  25.791  1.00  0.00     0.075 C 
ATOM     17  C   UNL A   1      33.642  25.491  23.463  1.00  0.00     0.075 C 
ENDBRANCH  12  15
ENDBRANCH   7  12
BRANCH  11  18
ATOM     18  S   UNL A   1      32.507  20.195  24.614  1.00  0.00    -0.122 SA
BRANCH  18  19
ATOM     19  C   UNL A   1      32.926  18.461  24.607  1.00  0.00     0.011 A 
ATOM     20  C   UNL A   1      32.638  17.637  25.689  1.00  0.00     0.035 A 
ATOM     21  C   UNL A   1      33.563  17.918  23.492  1.00  0.00     0.035 A 
ATOM     22  C   UNL A   1      33.074  16.323  25.648  1.00  0.00     0.112 A 
ATOM     23  C   UNL A   1      33.948  16.590  23.541  1.00  0.00     0.112 A 
ATOM     24  N   UNL A   1      33.731  15.784  24.602  1.00  0.00    -0.265 NA
ENDBRANCH  18  19
ENDBRANCH  11  18
ENDBRANCH   4   7
ENDBRANCH   2   3
ENDBRANCH   1   2
BRANCH   1  25
ATOM     25  C   UNL A   1      39.280  19.956  25.994  1.00  0.00     0.118 C 
BRANCH  25  26
ATOM     26  N   UNL A   1      40.503  19.163  25.926  1.00  0.00    -0.352 N 
ATOM     27  C   UNL A   1      41.817  19.554  25.996  1.00  0.00     0.251 C 
ATOM     28  H   UNL A   1      40.364  18.195  25.813  1.00  0.00     0.163 HD
ATOM     29  O   UNL A   1      42.699  18.781  25.640  1.00  0.00    -0.269 OA
BRANCH  27  30
ATOM     30  C   UNL A   1      42.169  20.899  26.496  1.00  0.00     0.039 A 
ATOM     31  C   UNL A   1      42.554  21.884  25.583  1.00  0.00     0.014 A 
ATOM     32  C   UNL A   1      42.153  21.178  27.864  1.00  0.00     0.014 A 
ATOM     33  C   UNL A   1      42.860  23.168  26.039  1.00  0.00     0.010 A 
ATOM     34  C   UNL A   1      42.365  22.477  28.307  1.00  0.00     0.010 A 
ATOM     35  C   UNL A   1      42.729  23.483  27.401  1.00  0.00    -0.014 A 
BRANCH  35  36
ATOM     36  C   UNL A   1      42.977  24.853  27.911  1.00  0.00     0.031 A 
ATOM     37  C   UNL A   1      44.361  25.253  28.342  1.00  0.00     0.074 A 
ATOM     38  C   UNL A   1      41.942  25.701  28.068  1.00  0.00     0.049 A 
ATOM     39  N   UNL A   1      44.760  26.354  28.926  1.00  0.00    -0.248 NA
ATOM     40  C   UNL A   1      45.434  24.270  28.119  1.00  0.00     0.031 C 
ATOM     41  C   UNL A   1      40.548  25.409  27.730  1.00  0.00     0.029 A 
ATOM     42  N   UNL A   1      41.902  26.977  28.571  1.00  0.00    -0.354 N 
ATOM     43  C   UNL A   1      46.120  26.187  29.157  1.00  0.00     0.074 A 
ATOM     44  C   UNL A   1      46.467  24.858  28.704  1.00  0.00     0.031 C 
ATOM     45  C   UNL A   1      39.793  26.481  28.015  1.00  0.00     0.029 A 
ATOM     46  C   UNL A   1      40.638  27.517  28.599  1.00  0.00     0.049 A 
ATOM     47  H   UNL A   1      42.701  27.460  28.883  1.00  0.00     0.167 HD
ATOM     48  C   UNL A   1      47.004  27.070  29.678  1.00  0.00     0.037 A 
ATOM     49  C   UNL A   1      40.210  28.707  29.059  1.00  0.00     0.037 A 
ATOM     50  C   UNL A   1      46.655  28.401  30.099  1.00  0.00     0.049 A 
ATOM     51  C   UNL A   1      41.209  29.666  29.646  1.00  0.00     0.074 A 
ATOM     52  C   UNL A   1      47.486  29.399  30.577  1.00  0.00     0.029 A 
ATOM     53  N   UNL A   1      45.367  28.917  30.094  1.00  0.00    -0.354 N 
ATOM     54  N   UNL A   1      42.503  29.521  29.795  1.00  0.00    -0.248 NA
ATOM     55  C   UNL A   1      40.687  30.951  30.129  1.00  0.00     0.031 C 
ATOM     56  C   UNL A   1      46.694  30.502  30.908  1.00  0.00     0.029 A 
ATOM     57  C   UNL A   1      45.377  30.210  30.587  1.00  0.00     0.049 A 
ATOM     58  H   UNL A   1      44.567  28.435  29.786  1.00  0.00     0.167 HD
ATOM     59  C   UNL A   1      42.955  30.704  30.365  1.00  0.00     0.074 A 
ATOM     60  C   UNL A   1      41.797  31.561  30.519  1.00  0.00     0.031 C 
ATOM     61  C   UNL A   1      44.214  31.050  30.727  1.00  0.00     0.037 A 
BRANCH  48  62
ATOM     62  C   UNL A   1      48.431  26.625  29.816  1.00  0.00     0.057 A 
ATOM     63  C   UNL A   1      48.897  25.981  30.969  1.00  0.00     0.134 A 
ATOM     64  C   UNL A   1      49.343  26.813  28.770  1.00  0.00     0.134 A 
ATOM     65  F   UNL A   1      48.080  25.780  32.014  1.00  0.00    -0.206 F 
ATOM     66  C   UNL A   1      50.225  25.567  31.091  1.00  0.00     0.040 A 
ATOM     67  C   UNL A   1      50.666  26.378  28.867  1.00  0.00     0.040 A 
ATOM     68  F   UNL A   1      48.964  27.416  27.634  1.00  0.00    -0.206 F 
ATOM     69  C   UNL A   1      51.113  25.760  30.033  1.00  0.00     0.006 A 
ENDBRANCH  48  62
BRANCH  49  70
ATOM     70  C   UNL A   1      38.771  29.065  28.970  1.00  0.00     0.057 A 
ATOM     71  C   UNL A   1      38.221  29.544  27.776  1.00  0.00     0.134 A 
ATOM     72  C   UNL A   1      37.914  28.940  30.069  1.00  0.00     0.134 A 
ATOM     73  F   UNL A   1      38.994  29.701  26.692  1.00  0.00    -0.206 F 
ATOM     74  C   UNL A   1      36.875  29.906  27.683  1.00  0.00     0.040 A 
ATOM     75  C   UNL A   1      36.561  29.272  29.985  1.00  0.00     0.040 A 
ATOM     76  F   UNL A   1      38.377  28.478  31.241  1.00  0.00    -0.206 F 
ATOM     77  C   UNL A   1      36.040  29.765  28.789  1.00  0.00     0.006 A 
ENDBRANCH  49  70
BRANCH  61  78
ATOM     78  C   UNL A   1      44.412  32.423  31.300  1.00  0.00     0.057 A 
ATOM     79  C   UNL A   1      44.643  33.537  30.484  1.00  0.00     0.134 A 
ATOM     80  C   UNL A   1      44.312  32.639  32.680  1.00  0.00     0.134 A 
ATOM     81  F   UNL A   1      44.763  33.393  29.155  1.00  0.00    -0.206 F 
ATOM     82  C   UNL A   1      44.787  34.816  31.023  1.00  0.00     0.040 A 
ATOM     83  C   UNL A   1      44.425  33.917  33.228  1.00  0.00     0.040 A 
ATOM     84  F   UNL A   1      44.081  31.616  33.516  1.00  0.00    -0.206 F 
ATOM     85  C   UNL A   1      44.668  35.010  32.399  1.00  0.00     0.006 A 
ENDBRANCH  61  78
ENDBRANCH  35  36
ENDBRANCH  27  30
ENDBRANCH  25  26
ENDBRANCH   1  25
TORSDOF 14
ENDMDL
MODEL 2
REMARK VINA RESULT:     -11.4      1.754      6.514
REMARK SMILES CC(C)[NH2+][C@@]1(C(=O)NCCCNC(=O)c2ccc(-c3c4nc(c(-c5c(F)cccc5F)c5ccc([nH]5)c(-c5c(F)cccc5F)c5nc(c(-c6c(F)cccc6F)c6ccc3[nH]6)C=C5)C=C4)cc2)CC[C@@H](Sc2ccncc2)C1
REMARK SMILES IDX 10 1 9 2 8 3 6 4 7 5 5 7 69 8 79 9 70 10 71 11 4 12 2 15
REMARK SMILES IDX 1 16 3 17 72 18 73 19 74 20 78 21 75 22 77 23 76 24 11 25
REMARK SMILES IDX 12 26 13 27 14 29 15 30 16 31 68 32 17 33 67 34 18 35 19 36
REMARK SMILES IDX 20 37 61 38 21 39 66 40 60 41 62 42 22 43 65 44 59 45 58 46
REMARK SMILES IDX 23 48 49 49 32 50 48 51 33 52 36 53 47 54 63 55 34 56 35 57
REMARK SMILES IDX 46 59 64 60 37 61 24 62 25 63 30 64 26 65 27 66 29 67 31 68
REMARK SMILES IDX 28 69 50 70 51 71 56 72 52 73 53 74 55 75 57 76 54 77 38 78
REMARK SMILES IDX 39 79 44 80 40 81 41 82 43 83 45 84 42 85
REMARK H PARENT 8 6 4 13 4 14 12 28 62 47 36 58
REMARK Flexibility Score: inf
ROOT
ATOM      1  C   UNL A   1      38.232  19.526  25.001  1.00  0.00     0.042 C 
ENDROOT
BRANCH   1   2
ATOM      2  C   UNL A   1      37.249  20.630  24.627  1.00  0.00     0.118 C 
BRANCH   2   3
ATOM      3  N   UNL A   1      37.554  21.855  25.322  1.00  0.00    -0.351 N 
ATOM      4  C   UNL A   1      36.809  22.924  25.683  1.00  0.00     0.281 C 
ATOM      5  O   UNL A   1      37.477  23.874  26.128  1.00  0.00    -0.268 OA
ATOM      6  H   UNL A   1      38.499  21.929  25.587  1.00  0.00     0.163 HD
BRANCH   4   7
ATOM      7  C   UNL A   1      35.230  23.060  25.564  1.00  0.00     0.176 C 
ATOM      8  C   UNL A   1      34.502  22.814  26.898  1.00  0.00     0.080 C 
ATOM      9  C   UNL A   1      34.630  22.047  24.573  1.00  0.00     0.094 C 
ATOM     10  C   UNL A   1      33.706  21.510  26.787  1.00  0.00     0.022 C 
ATOM     11  C   UNL A   1      33.950  20.949  25.390  1.00  0.00     0.058 C 
BRANCH   7  12
ATOM     12  N   UNL A   1      35.060  24.501  25.217  1.00  0.00    -0.332 N 
ATOM     13  H   UNL A   1      35.404  25.030  26.018  1.00  0.00     0.347 HD
ATOM     14  H   UNL A   1      35.559  24.566  24.329  1.00  0.00     0.347 HD
BRANCH  12  15
ATOM     15  C   UNL A   1      33.765  25.068  24.880  1.00  0.00     0.176 C 
ATOM     16  C   UNL A   1      33.584  26.318  25.750  1.00  0.00     0.075 C 
ATOM     17  C   UNL A   1      33.656  25.499  23.412  1.00  0.00     0.075 C 
ENDBRANCH  12  15
ENDBRANCH   7  12
BRANCH  11  18
ATOM     18  S   UNL A   1      32.500  20.181  24.545  1.00  0.00    -0.122 SA
BRANCH  18  19
ATOM     19  C   UNL A   1      32.915  18.447  24.568  1.00  0.00     0.011 A 
ATOM     20  C   UNL A   1      32.528  17.619  25.616  1.00  0.00     0.035 A 
ATOM     21  C   UNL A   1      33.650  17.907  23.514  1.00  0.00     0.035 A 
ATOM     22  C   UNL A   1      32.964  16.305  25.610  1.00  0.00     0.112 A 
ATOM     23  C   UNL A   1      34.027  16.578  23.591  1.00  0.00     0.112 A 
ATOM     24  N   UNL A   1      33.712  15.769  24.625  1.00  0.00    -0.265 NA
ENDBRANCH  18  19
ENDBRANCH  11  18
ENDBRANCH   4   7
ENDBRANCH   2   3
ENDBRANCH   1   2
BRANCH   1  25
ATOM     25  C   UNL A   1      39.355  20.024  25.902  1.00  0.00     0.118 C 
BRANCH  25  26
ATOM     26  N   UNL A   1      40.414  19.029  26.034  1.00  0.00    -0.352 N 
ATOM     27  C   UNL A   1      41.774  19.189  26.124  1.00  0.00     0.251 C 
ATOM     28  H   UNL A   1      40.104  18.095  26.064  1.00  0.00     0.163 HD
ATOM     29  O   UNL A   1      42.512  18.226  25.948  1.00  0.00    -0.269 OA
BRANCH  27  30
ATOM     30  C   UNL A   1      42.349  20.516  26.428  1.00  0.00     0.039 A 
ATOM     31  C   UNL A   1      42.759  21.338  25.376  1.00  0.00     0.014 A 
ATOM     32  C   UNL A   1      42.516  20.934  27.751  1.00  0.00     0.014 A 
ATOM     33  C   UNL A   1      43.275  22.606  25.649  1.00  0.00     0.010 A 
ATOM     34  C   UNL A   1      42.941  22.228  28.018  1.00  0.00     0.010 A 
ATOM     35  C   UNL A   1      43.334  23.075  26.972  1.00  0.00    -0.014 A 
BRANCH  35  36
ATOM     36  C   UNL A   1      43.811  24.441  27.294  1.00  0.00     0.031 A 
ATOM     37  C   UNL A   1      42.827  25.500  27.709  1.00  0.00     0.074 A 
ATOM     38  C   UNL A   1      45.112  24.748  27.125  1.00  0.00     0.049 A 
ATOM     39  N   UNL A   1      43.023  26.777  27.914  1.00  0.00    -0.248 NA
ATOM     40  C   UNL A   1      41.429  25.072  27.884  1.00  0.00     0.031 C 
ATOM     41  C   UNL A   1      46.152  23.818  26.682  1.00  0.00     0.029 A 
ATOM     42  N   UNL A   1      45.778  25.936  27.290  1.00  0.00    -0.354 N 
ATOM     43  C   UNL A   1      41.775  27.306  28.220  1.00  0.00     0.074 A 
ATOM     44  C   UNL A   1      40.820  26.224  28.118  1.00  0.00     0.031 C 
ATOM     45  C   UNL A   1      47.327  24.464  26.630  1.00  0.00     0.029 A 
ATOM     46  C   UNL A   1      47.117  25.862  26.989  1.00  0.00     0.049 A 
ATOM     47  H   UNL A   1      45.339  26.763  27.595  1.00  0.00     0.167 HD
ATOM     48  C   UNL A   1      41.458  28.573  28.576  1.00  0.00     0.037 A 
ATOM     49  C   UNL A   1      48.063  26.819  26.989  1.00  0.00     0.037 A 
ATOM     50  C   UNL A   1      42.420  29.635  28.703  1.00  0.00     0.049 A 
ATOM     51  C   UNL A   1      47.684  28.222  27.375  1.00  0.00     0.074 A 
ATOM     52  C   UNL A   1      42.215  30.938  29.123  1.00  0.00     0.029 A 
ATOM     53  N   UNL A   1      43.770  29.516  28.407  1.00  0.00    -0.354 N 
ATOM     54  N   UNL A   1      46.513  28.693  27.728  1.00  0.00    -0.248 NA
ATOM     55  C   UNL A   1      48.757  29.225  27.361  1.00  0.00     0.031 C 
ATOM     56  C   UNL A   1      43.432  31.620  29.034  1.00  0.00     0.029 A 
ATOM     57  C   UNL A   1      44.405  30.729  28.609  1.00  0.00     0.049 A 
ATOM     58  H   UNL A   1      44.210  28.691  28.099  1.00  0.00     0.167 HD
ATOM     59  C   UNL A   1      46.711  30.040  28.003  1.00  0.00     0.074 A 
ATOM     60  C   UNL A   1      48.119  30.305  27.790  1.00  0.00     0.031 C 
ATOM     61  C   UNL A   1      45.810  30.972  28.397  1.00  0.00     0.037 A 
BRANCH  48  62
ATOM     62  C   UNL A   1      40.015  28.875  28.857  1.00  0.00     0.057 A 
ATOM     63  C   UNL A   1      39.118  29.217  27.837  1.00  0.00     0.134 A 
ATOM     64  C   UNL A   1      39.507  28.790  30.160  1.00  0.00     0.134 A 
ATOM     65  F   UNL A   1      39.540  29.328  26.568  1.00  0.00    -0.206 F 
ATOM     66  C   UNL A   1      37.776  29.495  28.105  1.00  0.00     0.040 A 
ATOM     67  C   UNL A   1      38.161  29.036  30.437  1.00  0.00     0.040 A 
ATOM     68  F   UNL A   1      40.308  28.460  31.184  1.00  0.00    -0.206 F 
ATOM     69  C   UNL A   1      37.292  29.398  29.409  1.00  0.00     0.006 A 
ENDBRANCH  48  62
BRANCH  49  70
ATOM     70  C   UNL A   1      49.462  26.481  26.624  1.00  0.00     0.057 A 
ATOM     71  C   UNL A   1      50.354  25.978  27.580  1.00  0.00     0.134 A 
ATOM     72  C   UNL A   1      49.944  26.651  25.322  1.00  0.00     0.134 A 
ATOM     73  F   UNL A   1      49.957  25.807  28.849  1.00  0.00    -0.206 F 
ATOM     74  C   UNL A   1      51.679  25.677  27.257  1.00  0.00     0.040 A 
ATOM     75  C   UNL A   1      51.258  26.329  24.978  1.00  0.00     0.040 A 
ATOM     76  F   UNL A   1      49.138  27.120  24.357  1.00  0.00    -0.206 F 
ATOM     77  C   UNL A   1      52.133  25.848  25.951  1.00  0.00     0.006 A 
ENDBRANCH  49  70
BRANCH  61  78
ATOM     78  C   UNL A   1      46.323  32.359  28.650  1.00  0.00     0.057 A 
ATOM     79  C   UNL A   1      46.334  33.337  27.647  1.00  0.00     0.134 A 
ATOM     80  C   UNL A   1      46.757  32.734  29.927  1.00  0.00     0.134 A 
ATOM     81  F   UNL A   1      45.943  33.035  26.400  1.00  0.00    -0.206 F 
ATOM     82  C   UNL A   1      46.776  34.636  27.903  1.00  0.00     0.040 A 
ATOM     83  C   UNL A   1      47.175  34.037  30.202  1.00  0.00     0.040 A 
ATOM     84  F   UNL A   1      46.762  31.848  30.934  1.00  0.00    -0.206 F 
ATOM     85  C   UNL A   1      47.190  34.991  29.186  1.00  0.00     0.006 A 
ENDBRANCH  61  78
ENDBRANCH  35  36
ENDBRANCH  27  30
ENDBRANCH  25  26
ENDBRANCH   1  25
TORSDOF 14
ENDMDL
MODEL 3
REMARK VINA RESULT:     -11.4      5.219     10.234
REMARK SMILES CC(C)[NH2+][C@@]1(C(=O)NCCCNC(=O)c2ccc(-c3c4nc(c(-c5c(F)cccc5F)c5ccc([nH]5)c(-c5c(F)cccc5F)c5nc(c(-c6c(F)cccc6F)c6ccc3[nH]6)C=C5)C=C4)cc2)CC[C@@H](Sc2ccncc2)C1
REMARK SMILES IDX 10 1 9 2 8 3 6 4 7 5 5 7 69 8 79 9 70 10 71 11 4 12 2 15
REMARK SMILES IDX 1 16 3 17 72 18 73 19 74 20 78 21 75 22 77 23 76 24 11 25
REMARK SMILES IDX 12 26 13 27 14 29 15 30 16 31 68 32 17 33 67 34 18 35 19 36
REMARK SMILES IDX 20 37 61 38 21 39 66 40 60 41 62 42 22 43 65 44 59 45 58 46
REMARK SMILES IDX 23 48 49 49 32 50 48 51 33 52 36 53 47 54 63 55 34 56 35 57
REMARK SMILES IDX 46 59 64 60 37 61 24 62 25 63 30 64 26 65 27 66 29 67 31 68
REMARK SMILES IDX 28 69 50 70 51 71 56 72 52 73 53 74 55 75 57 76 54 77 38 78
REMARK SMILES IDX 39 79 44 80 40 81 41 82 43 83 45 84 42 85
REMARK H PARENT 8 6 4 13 4 14 12 28 62 47 36 58
REMARK Flexibility Score: inf
ROOT
ATOM      1  C   UNL A   1      31.478  32.297  26.609  1.00  0.00     0.042 C 
ENDROOT
BRANCH   1   2
ATOM      2  C   UNL A   1      31.443  30.776  26.704  1.00  0.00     0.118 C 
BRANCH   2   3
ATOM      3  N   UNL A   1      32.726  30.250  27.093  1.00  0.00    -0.351 N 
ATOM      4  C   UNL A   1      33.425  29.151  26.729  1.00  0.00     0.281 C 
ATOM      5  O   UNL A   1      34.438  28.948  27.421  1.00  0.00    -0.268 OA
ATOM      6  H   UNL A   1      33.189  30.804  27.762  1.00  0.00     0.163 HD
BRANCH   4   7
ATOM      7  C   UNL A   1      33.054  28.139  25.561  1.00  0.00     0.176 C 
ATOM      8  C   UNL A   1      33.868  28.377  24.276  1.00  0.00     0.080 C 
ATOM      9  C   UNL A   1      31.578  28.248  25.141  1.00  0.00     0.094 C 
ATOM     10  C   UNL A   1      32.923  28.899  23.189  1.00  0.00     0.022 C 
ATOM     11  C   UNL A   1      31.531  28.989  23.806  1.00  0.00     0.058 C 
BRANCH   7  12
ATOM     12  N   UNL A   1      33.482  26.827  26.129  1.00  0.00    -0.332 N 
ATOM     13  H   UNL A   1      34.493  26.887  26.255  1.00  0.00     0.347 HD
ATOM     14  H   UNL A   1      32.884  26.745  26.951  1.00  0.00     0.347 HD
BRANCH  12  15
ATOM     15  C   UNL A   1      33.233  25.570  25.445  1.00  0.00     0.176 C 
ATOM     16  C   UNL A   1      34.585  24.861  25.302  1.00  0.00     0.075 C 
ATOM     17  C   UNL A   1      32.294  24.635  26.219  1.00  0.00     0.075 C 
ENDBRANCH  12  15
ENDBRANCH   7  12
BRANCH  11  18
ATOM     18  S   UNL A   1      30.118  28.493  22.727  1.00  0.00    -0.122 SA
BRANCH  18  19
ATOM     19  C   UNL A   1      29.238  30.028  22.514  1.00  0.00     0.011 A 
ATOM     20  C   UNL A   1      28.673  30.382  21.294  1.00  0.00     0.035 A 
ATOM     21  C   UNL A   1      29.117  30.902  23.594  1.00  0.00     0.035 A 
ATOM     22  C   UNL A   1      28.084  31.630  21.179  1.00  0.00     0.112 A 
ATOM     23  C   UNL A   1      28.499  32.122  23.384  1.00  0.00     0.112 A 
ATOM     24  N   UNL A   1      27.993  32.511  22.195  1.00  0.00    -0.265 NA
ENDBRANCH  18  19
ENDBRANCH  11  18
ENDBRANCH   4   7
ENDBRANCH   2   3
ENDBRANCH   1   2
BRANCH   1  25
ATOM     25  C   UNL A   1      32.731  32.893  27.236  1.00  0.00     0.118 C 
BRANCH  25  26
ATOM     26  N   UNL A   1      32.519  34.279  27.639  1.00  0.00    -0.352 N 
ATOM     27  C   UNL A   1      33.054  34.990  28.685  1.00  0.00     0.251 C 
ATOM     28  H   UNL A   1      31.894  34.786  27.072  1.00  0.00     0.163 HD
ATOM     29  O   UNL A   1      32.542  36.051  29.023  1.00  0.00    -0.269 OA
BRANCH  27  30
ATOM     30  C   UNL A   1      34.239  34.479  29.405  1.00  0.00     0.039 A 
ATOM     31  C   UNL A   1      34.069  33.879  30.655  1.00  0.00     0.014 A 
ATOM     32  C   UNL A   1      35.518  34.621  28.862  1.00  0.00     0.014 A 
ATOM     33  C   UNL A   1      35.177  33.364  31.331  1.00  0.00     0.010 A 
ATOM     34  C   UNL A   1      36.605  34.027  29.490  1.00  0.00     0.010 A 
ATOM     35  C   UNL A   1      36.448  33.400  30.734  1.00  0.00    -0.014 A 
BRANCH  35  36
ATOM     36  C   UNL A   1      37.635  32.801  31.391  1.00  0.00     0.031 A 
ATOM     37  C   UNL A   1      38.295  31.592  30.788  1.00  0.00     0.074 A 
ATOM     38  C   UNL A   1      38.059  33.291  32.572  1.00  0.00     0.049 A 
ATOM     39  N   UNL A   1      39.260  30.850  31.268  1.00  0.00    -0.248 NA
ATOM     40  C   UNL A   1      37.776  31.134  29.489  1.00  0.00     0.031 C 
ATOM     41  C   UNL A   1      37.470  34.431  33.278  1.00  0.00     0.029 A 
ATOM     42  N   UNL A   1      39.075  32.880  33.397  1.00  0.00    -0.354 N 
ATOM     43  C   UNL A   1      39.448  29.832  30.342  1.00  0.00     0.074 A 
ATOM     44  C   UNL A   1      38.461  30.016  29.302  1.00  0.00     0.031 C 
ATOM     45  C   UNL A   1      38.147  34.640  34.417  1.00  0.00     0.029 A 
ATOM     46  C   UNL A   1      39.185  33.624  34.547  1.00  0.00     0.049 A 
ATOM     47  H   UNL A   1      39.669  32.124  33.185  1.00  0.00     0.167 HD
ATOM     48  C   UNL A   1      40.376  28.846  30.347  1.00  0.00     0.037 A 
ATOM     49  C   UNL A   1      40.020  33.490  35.594  1.00  0.00     0.037 A 
ATOM     50  C   UNL A   1      41.374  28.688  31.372  1.00  0.00     0.049 A 
ATOM     51  C   UNL A   1      41.032  32.378  35.584  1.00  0.00     0.074 A 
ATOM     52  C   UNL A   1      42.402  27.765  31.439  1.00  0.00     0.029 A 
ATOM     53  N   UNL A   1      41.464  29.473  32.513  1.00  0.00    -0.354 N 
ATOM     54  N   UNL A   1      41.245  31.463  34.669  1.00  0.00    -0.248 NA
ATOM     55  C   UNL A   1      41.920  32.280  36.750  1.00  0.00     0.031 C 
ATOM     56  C   UNL A   1      43.085  27.960  32.643  1.00  0.00     0.029 A 
ATOM     57  C   UNL A   1      42.514  29.037  33.302  1.00  0.00     0.049 A 
ATOM     58  H   UNL A   1      40.869  30.227  32.728  1.00  0.00     0.167 HD
ATOM     59  C   UNL A   1      42.305  30.697  35.136  1.00  0.00     0.074 A 
ATOM     60  C   UNL A   1      42.701  31.266  36.407  1.00  0.00     0.031 C 
ATOM     61  C   UNL A   1      42.897  29.621  34.563  1.00  0.00     0.037 A 
BRANCH  48  62
ATOM     62  C   UNL A   1      40.356  27.868  29.209  1.00  0.00     0.057 A 
ATOM     63  C   UNL A   1      39.544  26.726  29.228  1.00  0.00     0.134 A 
ATOM     64  C   UNL A   1      41.135  28.085  28.066  1.00  0.00     0.134 A 
ATOM     65  F   UNL A   1      38.782  26.450  30.298  1.00  0.00    -0.206 F 
ATOM     66  C   UNL A   1      39.528  25.822  28.165  1.00  0.00     0.040 A 
ATOM     67  C   UNL A   1      41.106  27.204  26.983  1.00  0.00     0.040 A 
ATOM     68  F   UNL A   1      41.931  29.161  27.976  1.00  0.00    -0.206 F 
ATOM     69  C   UNL A   1      40.307  26.063  27.034  1.00  0.00     0.006 A 
ENDBRANCH  48  62
BRANCH  49  70
ATOM     70  C   UNL A   1      39.943  34.439  36.733  1.00  0.00     0.057 A 
ATOM     71  C   UNL A   1      39.156  34.155  37.856  1.00  0.00     0.134 A 
ATOM     72  C   UNL A   1      40.646  35.649  36.731  1.00  0.00     0.134 A 
ATOM     73  F   UNL A   1      38.446  33.019  37.911  1.00  0.00    -0.206 F 
ATOM     74  C   UNL A   1      39.055  35.048  38.925  1.00  0.00     0.040 A 
ATOM     75  C   UNL A   1      40.577  36.539  37.804  1.00  0.00     0.040 A 
ATOM     76  F   UNL A   1      41.426  35.977  35.689  1.00  0.00    -0.206 F 
ATOM     77  C   UNL A   1      39.772  36.242  38.902  1.00  0.00     0.006 A 
ENDBRANCH  49  70
BRANCH  61  78
ATOM     78  C   UNL A   1      44.054  29.004  35.293  1.00  0.00     0.057 A 
ATOM     79  C   UNL A   1      43.873  27.991  36.242  1.00  0.00     0.134 A 
ATOM     80  C   UNL A   1      45.367  29.391  34.999  1.00  0.00     0.134 A 
ATOM     81  F   UNL A   1      42.638  27.587  36.578  1.00  0.00    -0.206 F 
ATOM     82  C   UNL A   1      44.958  27.396  36.888  1.00  0.00     0.040 A 
ATOM     83  C   UNL A   1      46.462  28.784  35.616  1.00  0.00     0.040 A 
ATOM     84  F   UNL A   1      45.610  30.348  34.091  1.00  0.00    -0.206 F 
ATOM     85  C   UNL A   1      46.258  27.787  36.568  1.00  0.00     0.006 A 
ENDBRANCH  61  78
ENDBRANCH  35  36
ENDBRANCH  27  30
ENDBRANCH  25  26
ENDBRANCH   1  25
TORSDOF 14
ENDMDL
