MODEL 1
REMARK VINA RESULT:     -12.8      0.000      0.000
REMARK SMILES CSc1ccc(/C=C2\C(C)=C(CC(=O)NCCCNC(=O)c3ccc(-c4c5nc(c(-c6c(F)cccc6F)c6ccc([nH]6)c(-c6c(F)cccc6F)c6nc(c(-c7c(F)cccc7F)c7ccc4[nH]7)C=C6)C=C5)cc3)c3cc(F)ccc32)cc1
REMARK SMILES IDX 16 1 15 2 13 3 14 4 12 6 11 7 7 8 8 9 9 10 82 11 10 12 76 13
REMARK SMILES IDX 81 14 77 15 80 16 78 17 79 18 6 19 3 20 4 21 84 22 5 23
REMARK SMILES IDX 83 24 2 25 1 26 17 27 18 28 19 29 20 30 21 32 22 33 23 34
REMARK SMILES IDX 75 35 24 36 74 37 25 38 26 39 27 40 68 41 28 42 73 43 67 44
REMARK SMILES IDX 69 45 29 46 72 47 66 48 65 49 30 51 56 52 39 53 55 54 40 55
REMARK SMILES IDX 43 56 54 57 70 58 41 59 42 60 53 62 71 63 44 64 31 65 32 66
REMARK SMILES IDX 37 67 33 68 34 69 36 70 38 71 35 72 57 73 58 74 63 75 59 76
REMARK SMILES IDX 60 77 62 78 64 79 61 80 45 81 46 82 51 83 47 84 48 85 50 86
REMARK SMILES IDX 52 87 49 88
REMARK H PARENT 15 5 19 31 69 50 43 61
REMARK Flexibility Score: inf
ROOT
ATOM      1  C   UNL A   1      31.698  30.697  26.871  1.00  0.00     0.117 C 
ENDROOT
BRANCH   1   2
ATOM      2  N   UNL A   1      33.087  30.284  26.944  1.00  0.00    -0.356 N 
ATOM      3  C   UNL A   1      33.588  29.016  27.022  1.00  0.00     0.224 C 
ATOM      4  O   UNL A   1      34.800  28.862  27.176  1.00  0.00    -0.275 OA
ATOM      5  H   UNL A   1      33.753  31.008  26.935  1.00  0.00     0.163 HD
BRANCH   3   6
ATOM      6  C   UNL A   1      32.637  27.844  26.944  1.00  0.00     0.136 C 
BRANCH   6   7
ATOM      7  C   UNL A   1      32.606  27.344  25.514  1.00  0.00    -0.027 C 
ATOM      8  C   UNL A   1      30.591  24.617  25.956  1.00  0.00     0.017 C 
ATOM      9  C   UNL A   1      31.104  25.706  25.357  1.00  0.00    -0.014 C 
ATOM     10  C   UNL A   1      32.540  26.021  25.196  1.00  0.00    -0.039 C 
ATOM     11  C   UNL A   1      30.435  26.885  24.744  1.00  0.00    -0.010 A 
ATOM     12  C   UNL A   1      32.982  25.567  23.783  1.00  0.00     0.045 C 
ATOM     13  C   UNL A   1      31.444  27.876  24.768  1.00  0.00    -0.011 A 
ATOM     14  C   UNL A   1      29.474  26.908  23.746  1.00  0.00     0.012 A 
ATOM     15  C   UNL A   1      31.535  28.892  23.832  1.00  0.00     0.048 A 
ATOM     16  C   UNL A   1      29.578  27.910  22.764  1.00  0.00     0.040 A 
ATOM     17  C   UNL A   1      30.602  28.873  22.810  1.00  0.00     0.123 A 
ATOM     18  F   UNL A   1      30.761  29.710  21.775  1.00  0.00    -0.207 F 
BRANCH   8  19
ATOM     19  C   UNL A   1      31.277  23.320  26.250  1.00  0.00    -0.025 A 
ATOM     20  C   UNL A   1      33.622  21.830  26.041  1.00  0.00     0.007 A 
ATOM     21  C   UNL A   1      33.341  22.497  27.223  1.00  0.00     0.015 A 
ATOM     22  C   UNL A   1      32.610  21.657  25.099  1.00  0.00     0.015 A 
ATOM     23  C   UNL A   1      32.135  23.178  27.346  1.00  0.00     0.009 A 
ATOM     24  C   UNL A   1      31.432  22.407  25.201  1.00  0.00     0.009 A 
BRANCH  20  25
ATOM     25  S   UNL A   1      35.319  21.477  25.634  1.00  0.00    -0.130 SA
ATOM     26  C   UNL A   1      35.982  23.141  25.999  1.00  0.00     0.091 C 
ENDBRANCH  20  25
ENDBRANCH   8  19
ENDBRANCH   6   7
ENDBRANCH   3   6
ENDBRANCH   1   2
BRANCH   1  27
ATOM     27  C   UNL A   1      31.546  32.213  26.902  1.00  0.00     0.042 C 
BRANCH  27  28
ATOM     28  C   UNL A   1      32.840  32.959  27.168  1.00  0.00     0.118 C 
BRANCH  28  29
ATOM     29  N   UNL A   1      32.591  34.320  27.607  1.00  0.00    -0.352 N 
ATOM     30  C   UNL A   1      33.052  34.980  28.717  1.00  0.00     0.251 C 
ATOM     31  H   UNL A   1      32.002  34.848  27.021  1.00  0.00     0.163 HD
ATOM     32  O   UNL A   1      32.480  35.989  29.106  1.00  0.00    -0.269 OA
BRANCH  30  33
ATOM     33  C   UNL A   1      34.232  34.468  29.444  1.00  0.00     0.039 A 
ATOM     34  C   UNL A   1      34.049  33.852  30.684  1.00  0.00     0.014 A 
ATOM     35  C   UNL A   1      35.520  34.629  28.924  1.00  0.00     0.014 A 
ATOM     36  C   UNL A   1      35.152  33.343  31.372  1.00  0.00     0.010 A 
ATOM     37  C   UNL A   1      36.606  34.047  29.566  1.00  0.00     0.010 A 
ATOM     38  C   UNL A   1      36.433  33.401  30.799  1.00  0.00    -0.014 A 
BRANCH  38  39
ATOM     39  C   UNL A   1      37.604  32.779  31.462  1.00  0.00     0.031 A 
ATOM     40  C   UNL A   1      38.260  31.568  30.859  1.00  0.00     0.074 A 
ATOM     41  C   UNL A   1      38.023  33.263  32.645  1.00  0.00     0.049 A 
ATOM     42  N   UNL A   1      39.237  30.838  31.333  1.00  0.00    -0.248 NA
ATOM     43  C   UNL A   1      37.732  31.101  29.567  1.00  0.00     0.031 C 
ATOM     44  C   UNL A   1      37.436  34.407  33.348  1.00  0.00     0.029 A 
ATOM     45  N   UNL A   1      39.033  32.847  33.476  1.00  0.00    -0.354 N 
ATOM     46  C   UNL A   1      39.432  29.822  30.406  1.00  0.00     0.074 A 
ATOM     47  C   UNL A   1      38.440  29.998  29.369  1.00  0.00     0.031 C 
ATOM     48  C   UNL A   1      38.109  34.614  34.490  1.00  0.00     0.029 A 
ATOM     49  C   UNL A   1      39.140  33.592  34.626  1.00  0.00     0.049 A 
ATOM     50  H   UNL A   1      39.624  32.088  33.268  1.00  0.00     0.167 HD
ATOM     51  C   UNL A   1      40.369  28.845  30.411  1.00  0.00     0.037 A 
ATOM     52  C   UNL A   1      39.968  33.455  35.678  1.00  0.00     0.037 A 
ATOM     53  C   UNL A   1      41.364  28.687  31.440  1.00  0.00     0.049 A 
ATOM     54  C   UNL A   1      40.977  32.341  35.674  1.00  0.00     0.074 A 
ATOM     55  C   UNL A   1      42.400  27.772  31.503  1.00  0.00     0.029 A 
ATOM     56  N   UNL A   1      41.438  29.458  32.590  1.00  0.00    -0.354 N 
ATOM     57  N   UNL A   1      41.203  31.434  34.754  1.00  0.00    -0.248 NA
ATOM     58  C   UNL A   1      41.845  32.229  36.854  1.00  0.00     0.031 C 
ATOM     59  C   UNL A   1      43.068  27.954  32.718  1.00  0.00     0.029 A 
ATOM     60  C   UNL A   1      42.481  29.016  33.388  1.00  0.00     0.049 A 
ATOM     61  H   UNL A   1      40.840  30.208  32.807  1.00  0.00     0.167 HD
ATOM     62  C   UNL A   1      42.247  30.657  35.234  1.00  0.00     0.074 A 
ATOM     63  C   UNL A   1      42.625  31.211  36.518  1.00  0.00     0.031 C 
ATOM     64  C   UNL A   1      42.839  29.577  34.666  1.00  0.00     0.037 A 
BRANCH  51  65
ATOM     65  C   UNL A   1      40.364  27.871  29.269  1.00  0.00     0.057 A 
ATOM     66  C   UNL A   1      39.523  26.751  29.256  1.00  0.00     0.134 A 
ATOM     67  C   UNL A   1      41.180  28.077  28.149  1.00  0.00     0.134 A 
ATOM     68  F   UNL A   1      38.723  26.488  30.301  1.00  0.00    -0.206 F 
ATOM     69  C   UNL A   1      39.511  25.858  28.182  1.00  0.00     0.040 A 
ATOM     70  C   UNL A   1      41.156  27.207  27.056  1.00  0.00     0.040 A 
ATOM     71  F   UNL A   1      42.005  29.133  28.091  1.00  0.00    -0.206 F 
ATOM     72  C   UNL A   1      40.323  26.090  27.075  1.00  0.00     0.006 A 
ENDBRANCH  51  65
BRANCH  52  73
ATOM     73  C   UNL A   1      39.879  34.400  36.820  1.00  0.00     0.057 A 
ATOM     74  C   UNL A   1      40.545  35.630  36.791  1.00  0.00     0.134 A 
ATOM     75  C   UNL A   1      39.129  34.099  37.965  1.00  0.00     0.134 A 
ATOM     76  F   UNL A   1      41.292  35.968  35.730  1.00  0.00    -0.206 F 
ATOM     77  C   UNL A   1      40.482  36.521  37.864  1.00  0.00     0.040 A 
ATOM     78  C   UNL A   1      39.037  34.991  39.033  1.00  0.00     0.040 A 
ATOM     79  F   UNL A   1      38.460  32.939  38.052  1.00  0.00    -0.206 F 
ATOM     80  C   UNL A   1      39.721  36.204  38.988  1.00  0.00     0.006 A 
ENDBRANCH  52  73
BRANCH  64  81
ATOM     81  C   UNL A   1      43.963  28.933  35.423  1.00  0.00     0.057 A 
ATOM     82  C   UNL A   1      43.731  27.925  36.366  1.00  0.00     0.134 A 
ATOM     83  C   UNL A   1      45.293  29.290  35.170  1.00  0.00     0.134 A 
ATOM     84  F   UNL A   1      42.478  27.547  36.664  1.00  0.00    -0.206 F 
ATOM     85  C   UNL A   1      44.782  27.305  37.043  1.00  0.00     0.040 A 
ATOM     86  C   UNL A   1      46.354  28.659  35.821  1.00  0.00     0.040 A 
ATOM     87  F   UNL A   1      45.585  30.244  34.272  1.00  0.00    -0.206 F 
ATOM     88  C   UNL A   1      46.099  27.665  36.764  1.00  0.00     0.006 A 
ENDBRANCH  64  81
ENDBRANCH  38  39
ENDBRANCH  30  33
ENDBRANCH  28  29
ENDBRANCH  27  28
ENDBRANCH   1  27
TORSDOF 13
ENDMDL
MODEL 2
REMARK VINA RESULT:     -12.8      0.982      1.977
REMARK SMILES CSc1ccc(/C=C2\C(C)=C(CC(=O)NCCCNC(=O)c3ccc(-c4c5nc(c(-c6c(F)cccc6F)c6ccc([nH]6)c(-c6c(F)cccc6F)c6nc(c(-c7c(F)cccc7F)c7ccc4[nH]7)C=C6)C=C5)cc3)c3cc(F)ccc32)cc1
REMARK SMILES IDX 16 1 15 2 13 3 14 4 12 6 11 7 7 8 8 9 9 10 82 11 10 12 76 13
REMARK SMILES IDX 81 14 77 15 80 16 78 17 79 18 6 19 3 20 4 21 84 22 5 23
REMARK SMILES IDX 83 24 2 25 1 26 17 27 18 28 19 29 20 30 21 32 22 33 23 34
REMARK SMILES IDX 75 35 24 36 74 37 25 38 26 39 27 40 68 41 28 42 73 43 67 44
REMARK SMILES IDX 69 45 29 46 72 47 66 48 65 49 30 51 56 52 39 53 55 54 40 55
REMARK SMILES IDX 43 56 54 57 70 58 41 59 42 60 53 62 71 63 44 64 31 65 32 66
REMARK SMILES IDX 37 67 33 68 34 69 36 70 38 71 35 72 57 73 58 74 63 75 59 76
REMARK SMILES IDX 60 77 62 78 64 79 61 80 45 81 46 82 51 83 47 84 48 85 50 86
REMARK SMILES IDX 52 87 49 88
REMARK H PARENT 15 5 19 31 69 50 43 61
REMARK Flexibility Score: inf
ROOT
ATOM      1  C   UNL A   1      31.628  30.675  26.897  1.00  0.00     0.117 C 
ENDROOT
BRANCH   1   2
ATOM      2  N   UNL A   1      33.024  30.293  26.988  1.00  0.00    -0.356 N 
ATOM      3  C   UNL A   1      33.553  29.038  27.086  1.00  0.00     0.224 C 
ATOM      4  O   UNL A   1      34.766  28.912  27.253  1.00  0.00    -0.275 OA
ATOM      5  H   UNL A   1      33.674  31.032  26.978  1.00  0.00     0.163 HD
BRANCH   3   6
ATOM      6  C   UNL A   1      32.628  27.845  27.010  1.00  0.00     0.136 C 
BRANCH   6   7
ATOM      7  C   UNL A   1      32.621  27.330  25.585  1.00  0.00    -0.027 C 
ATOM      8  C   UNL A   1      30.621  24.592  26.026  1.00  0.00     0.017 C 
ATOM      9  C   UNL A   1      31.134  25.679  25.424  1.00  0.00    -0.014 C 
ATOM     10  C   UNL A   1      32.570  26.003  25.279  1.00  0.00    -0.039 C 
ATOM     11  C   UNL A   1      30.464  26.846  24.789  1.00  0.00    -0.010 A 
ATOM     12  C   UNL A   1      33.035  25.540  23.878  1.00  0.00     0.045 C 
ATOM     13  C   UNL A   1      31.465  27.846  24.818  1.00  0.00    -0.011 A 
ATOM     14  C   UNL A   1      29.517  26.852  23.778  1.00  0.00     0.012 A 
ATOM     15  C   UNL A   1      31.562  28.853  23.873  1.00  0.00     0.048 A 
ATOM     16  C   UNL A   1      29.627  27.845  22.788  1.00  0.00     0.040 A 
ATOM     17  C   UNL A   1      30.643  28.817  22.838  1.00  0.00     0.123 A 
ATOM     18  F   UNL A   1      30.810  29.645  21.798  1.00  0.00    -0.207 F 
BRANCH   8  19
ATOM     19  C   UNL A   1      31.313  23.303  26.342  1.00  0.00    -0.025 A 
ATOM     20  C   UNL A   1      33.632  21.782  26.073  1.00  0.00     0.007 A 
ATOM     21  C   UNL A   1      33.423  22.506  27.236  1.00  0.00     0.015 A 
ATOM     22  C   UNL A   1      32.566  21.574  25.198  1.00  0.00     0.015 A 
ATOM     23  C   UNL A   1      32.231  23.205  27.394  1.00  0.00     0.009 A 
ATOM     24  C   UNL A   1      31.402  22.341  25.331  1.00  0.00     0.009 A 
BRANCH  20  25
ATOM     25  S   UNL A   1      35.300  21.393  25.588  1.00  0.00    -0.130 SA
ATOM     26  C   UNL A   1      35.365  22.492  24.129  1.00  0.00     0.091 C 
ENDBRANCH  20  25
ENDBRANCH   8  19
ENDBRANCH   6   7
ENDBRANCH   3   6
ENDBRANCH   1   2
BRANCH   1  27
ATOM     27  C   UNL A   1      31.442  32.187  26.912  1.00  0.00     0.042 C 
BRANCH  27  28
ATOM     28  C   UNL A   1      32.742  32.970  26.910  1.00  0.00     0.118 C 
BRANCH  28  29
ATOM     29  N   UNL A   1      32.620  34.209  27.658  1.00  0.00    -0.352 N 
ATOM     30  C   UNL A   1      33.207  34.578  28.841  1.00  0.00     0.251 C 
ATOM     31  H   UNL A   1      32.027  34.884  27.256  1.00  0.00     0.163 HD
ATOM     32  O   UNL A   1      32.737  35.501  29.491  1.00  0.00    -0.269 OA
BRANCH  30  33
ATOM     33  C   UNL A   1      34.400  33.857  29.330  1.00  0.00     0.039 A 
ATOM     34  C   UNL A   1      35.667  34.311  28.954  1.00  0.00     0.014 A 
ATOM     35  C   UNL A   1      34.273  32.713  30.125  1.00  0.00     0.014 A 
ATOM     36  C   UNL A   1      36.804  33.655  29.427  1.00  0.00     0.010 A 
ATOM     37  C   UNL A   1      35.404  32.114  30.664  1.00  0.00     0.010 A 
ATOM     38  C   UNL A   1      36.681  32.576  30.317  1.00  0.00    -0.014 A 
BRANCH  38  39
ATOM     39  C   UNL A   1      37.874  31.927  30.912  1.00  0.00     0.031 A 
ATOM     40  C   UNL A   1      38.598  30.843  30.165  1.00  0.00     0.074 A 
ATOM     41  C   UNL A   1      38.254  32.266  32.158  1.00  0.00     0.049 A 
ATOM     42  N   UNL A   1      39.604  30.103  30.555  1.00  0.00    -0.248 NA
ATOM     43  C   UNL A   1      38.111  30.530  28.811  1.00  0.00     0.031 C 
ATOM     44  C   UNL A   1      37.601  33.274  32.997  1.00  0.00     0.029 A 
ATOM     45  N   UNL A   1      39.273  31.791  32.944  1.00  0.00    -0.354 N 
ATOM     46  C   UNL A   1      39.863  29.233  29.503  1.00  0.00     0.074 A 
ATOM     47  C   UNL A   1      38.876  29.500  28.480  1.00  0.00     0.031 C 
ATOM     48  C   UNL A   1      38.247  33.356  34.170  1.00  0.00     0.029 A 
ATOM     49  C   UNL A   1      39.328  32.377  34.186  1.00  0.00     0.049 A 
ATOM     50  H   UNL A   1      39.904  31.096  32.647  1.00  0.00     0.167 HD
ATOM     51  C   UNL A   1      40.848  28.311  29.394  1.00  0.00     0.037 A 
ATOM     52  C   UNL A   1      40.148  32.139  35.225  1.00  0.00     0.037 A 
ATOM     53  C   UNL A   1      41.836  28.064  30.411  1.00  0.00     0.049 A 
ATOM     54  C   UNL A   1      41.213  31.086  35.091  1.00  0.00     0.074 A 
ATOM     55  C   UNL A   1      42.916  27.200  30.370  1.00  0.00     0.029 A 
ATOM     56  N   UNL A   1      41.857  28.674  31.656  1.00  0.00    -0.354 N 
ATOM     57  N   UNL A   1      41.495  30.324  34.062  1.00  0.00    -0.248 NA
ATOM     58  C   UNL A   1      42.070  30.857  36.262  1.00  0.00     0.031 C 
ATOM     59  C   UNL A   1      43.559  27.247  31.611  1.00  0.00     0.029 A 
ATOM     60  C   UNL A   1      42.911  28.178  32.406  1.00  0.00     0.049 A 
ATOM     61  H   UNL A   1      41.219  29.358  31.961  1.00  0.00     0.167 HD
ATOM     62  C   UNL A   1      42.572  29.540  34.452  1.00  0.00     0.074 A 
ATOM     63  C   UNL A   1      42.905  29.933  35.806  1.00  0.00     0.031 C 
ATOM     64  C   UNL A   1      43.224  28.578  33.755  1.00  0.00     0.037 A 
BRANCH  51  65
ATOM     65  C   UNL A   1      40.906  27.502  28.131  1.00  0.00     0.057 A 
ATOM     66  C   UNL A   1      41.647  27.920  27.018  1.00  0.00     0.134 A 
ATOM     67  C   UNL A   1      40.248  26.268  28.041  1.00  0.00     0.134 A 
ATOM     68  F   UNL A   1      42.293  29.095  27.032  1.00  0.00    -0.206 F 
ATOM     69  C   UNL A   1      41.711  27.153  25.852  1.00  0.00     0.040 A 
ATOM     70  C   UNL A   1      40.327  25.479  26.891  1.00  0.00     0.040 A 
ATOM     71  F   UNL A   1      39.526  25.804  29.072  1.00  0.00    -0.206 F 
ATOM     72  C   UNL A   1      41.057  25.925  25.790  1.00  0.00     0.006 A 
ENDBRANCH  51  65
BRANCH  52  73
ATOM     73  C   UNL A   1      39.998  32.915  36.483  1.00  0.00     0.057 A 
ATOM     74  C   UNL A   1      39.042  32.559  37.441  1.00  0.00     0.134 A 
ATOM     75  C   UNL A   1      40.803  34.028  36.758  1.00  0.00     0.134 A 
ATOM     76  F   UNL A   1      38.231  31.513  37.227  1.00  0.00    -0.206 F 
ATOM     77  C   UNL A   1      38.880  33.289  38.619  1.00  0.00     0.040 A 
ATOM     78  C   UNL A   1      40.669  34.751  37.944  1.00  0.00     0.040 A 
ATOM     79  F   UNL A   1      41.744  34.417  35.885  1.00  0.00    -0.206 F 
ATOM     80  C   UNL A   1      39.700  34.387  38.875  1.00  0.00     0.006 A 
ENDBRANCH  52  73
BRANCH  64  81
ATOM     81  C   UNL A   1      44.370  27.892  34.440  1.00  0.00     0.057 A 
ATOM     82  C   UNL A   1      45.667  28.418  34.406  1.00  0.00     0.134 A 
ATOM     83  C   UNL A   1      44.164  26.722  35.180  1.00  0.00     0.134 A 
ATOM     84  F   UNL A   1      45.933  29.529  33.701  1.00  0.00    -0.206 F 
ATOM     85  C   UNL A   1      46.723  27.794  35.071  1.00  0.00     0.040 A 
ATOM     86  C   UNL A   1      45.206  26.105  35.873  1.00  0.00     0.040 A 
ATOM     87  F   UNL A   1      42.943  26.171  35.260  1.00  0.00    -0.206 F 
ATOM     88  C   UNL A   1      46.492  26.639  35.816  1.00  0.00     0.006 A 
ENDBRANCH  64  81
ENDBRANCH  38  39
ENDBRANCH  30  33
ENDBRANCH  28  29
ENDBRANCH  27  28
ENDBRANCH   1  27
TORSDOF 13
ENDMDL
MODEL 3
REMARK VINA RESULT:     -12.6      5.735     10.673
REMARK SMILES CSc1ccc(/C=C2\C(C)=C(CC(=O)NCCCNC(=O)c3ccc(-c4c5nc(c(-c6c(F)cccc6F)c6ccc([nH]6)c(-c6c(F)cccc6F)c6nc(c(-c7c(F)cccc7F)c7ccc4[nH]7)C=C6)C=C5)cc3)c3cc(F)ccc32)cc1
REMARK SMILES IDX 16 1 15 2 13 3 14 4 12 6 11 7 7 8 8 9 9 10 82 11 10 12 76 13
REMARK SMILES IDX 81 14 77 15 80 16 78 17 79 18 6 19 3 20 4 21 84 22 5 23
REMARK SMILES IDX 83 24 2 25 1 26 17 27 18 28 19 29 20 30 21 32 22 33 23 34
REMARK SMILES IDX 75 35 24 36 74 37 25 38 26 39 27 40 68 41 28 42 73 43 67 44
REMARK SMILES IDX 69 45 29 46 72 47 66 48 65 49 30 51 56 52 39 53 55 54 40 55
REMARK SMILES IDX 43 56 54 57 70 58 41 59 42 60 53 62 71 63 44 64 31 65 32 66
REMARK SMILES IDX 37 67 33 68 34 69 36 70 38 71 35 72 57 73 58 74 63 75 59 76
REMARK SMILES IDX 60 77 62 78 64 79 61 80 45 81 46 82 51 83 47 84 48 85 50 86
REMARK SMILES IDX 52 87 49 88
REMARK H PARENT 15 5 19 31 69 50 43 61
REMARK Flexibility Score: inf
ROOT
ATOM      1  C   UNL A   1      37.417  20.853  24.626  1.00  0.00     0.117 C 
ENDROOT
BRANCH   1   2
ATOM      2  N   UNL A   1      37.568  21.970  25.540  1.00  0.00    -0.356 N 
ATOM      3  C   UNL A   1      37.039  23.225  25.435  1.00  0.00     0.224 C 
ATOM      4  O   UNL A   1      37.358  24.078  26.264  1.00  0.00    -0.275 OA
ATOM      5  H   UNL A   1      38.121  21.803  26.336  1.00  0.00     0.163 HD
BRANCH   3   6
ATOM      6  C   UNL A   1      36.100  23.532  24.292  1.00  0.00     0.136 C 
BRANCH   6   7
ATOM      7  C   UNL A   1      34.678  23.304  24.762  1.00  0.00    -0.027 C 
ATOM      8  C   UNL A   1      33.020  24.625  22.078  1.00  0.00     0.017 C 
ATOM      9  C   UNL A   1      33.283  23.781  23.091  1.00  0.00    -0.014 C 
ATOM     10  C   UNL A   1      33.658  24.160  24.471  1.00  0.00    -0.039 C 
ATOM     11  C   UNL A   1      33.319  22.294  23.133  1.00  0.00    -0.010 A 
ATOM     12  C   UNL A   1      32.383  24.129  25.348  1.00  0.00     0.045 C 
ATOM     13  C   UNL A   1      34.130  22.024  24.260  1.00  0.00    -0.011 A 
ATOM     14  C   UNL A   1      32.327  21.397  22.771  1.00  0.00     0.012 A 
ATOM     15  C   UNL A   1      33.989  20.893  25.046  1.00  0.00     0.048 A 
ATOM     16  C   UNL A   1      32.145  20.263  23.583  1.00  0.00     0.040 A 
ATOM     17  C   UNL A   1      32.960  20.031  24.705  1.00  0.00     0.123 A 
ATOM     18  F   UNL A   1      32.654  19.029  25.541  1.00  0.00    -0.207 F 
BRANCH   8  19
ATOM     19  C   UNL A   1      32.668  26.078  22.159  1.00  0.00    -0.025 A 
ATOM     20  C   UNL A   1      32.233  28.275  23.815  1.00  0.00     0.007 A 
ATOM     21  C   UNL A   1      33.464  28.120  23.199  1.00  0.00     0.015 A 
ATOM     22  C   UNL A   1      31.147  27.523  23.368  1.00  0.00     0.015 A 
ATOM     23  C   UNL A   1      33.652  27.061  22.318  1.00  0.00     0.009 A 
ATOM     24  C   UNL A   1      31.365  26.417  22.539  1.00  0.00     0.009 A 
BRANCH  20  25
ATOM     25  S   UNL A   1      32.139  29.202  25.332  1.00  0.00    -0.130 SA
ATOM     26  C   UNL A   1      32.586  27.831  26.454  1.00  0.00     0.091 C 
ENDBRANCH  20  25
ENDBRANCH   8  19
ENDBRANCH   6   7
ENDBRANCH   3   6
ENDBRANCH   1   2
BRANCH   1  27
ATOM     27  C   UNL A   1      38.311  19.677  25.001  1.00  0.00     0.042 C 
BRANCH  27  28
ATOM     28  C   UNL A   1      39.321  19.991  26.090  1.00  0.00     0.118 C 
BRANCH  28  29
ATOM     29  N   UNL A   1      40.390  19.008  26.125  1.00  0.00    -0.352 N 
ATOM     30  C   UNL A   1      41.748  19.191  26.087  1.00  0.00     0.251 C 
ATOM     31  H   UNL A   1      40.095  18.071  26.184  1.00  0.00     0.163 HD
ATOM     32  O   UNL A   1      42.479  18.258  25.786  1.00  0.00    -0.269 OA
BRANCH  30  33
ATOM     33  C   UNL A   1      42.325  20.514  26.405  1.00  0.00     0.039 A 
ATOM     34  C   UNL A   1      42.839  21.296  25.367  1.00  0.00     0.014 A 
ATOM     35  C   UNL A   1      42.396  20.968  27.726  1.00  0.00     0.014 A 
ATOM     36  C   UNL A   1      43.365  22.557  25.649  1.00  0.00     0.010 A 
ATOM     37  C   UNL A   1      42.840  22.256  27.994  1.00  0.00     0.010 A 
ATOM     38  C   UNL A   1      43.333  23.062  26.958  1.00  0.00    -0.014 A 
BRANCH  38  39
ATOM     39  C   UNL A   1      43.793  24.437  27.267  1.00  0.00     0.031 A 
ATOM     40  C   UNL A   1      42.804  25.495  27.668  1.00  0.00     0.074 A 
ATOM     41  C   UNL A   1      45.094  24.746  27.109  1.00  0.00     0.049 A 
ATOM     42  N   UNL A   1      43.003  26.768  27.894  1.00  0.00    -0.248 NA
ATOM     43  C   UNL A   1      41.401  25.073  27.809  1.00  0.00     0.031 C 
ATOM     44  C   UNL A   1      46.139  23.813  26.682  1.00  0.00     0.029 A 
ATOM     45  N   UNL A   1      45.758  25.934  27.276  1.00  0.00    -0.354 N 
ATOM     46  C   UNL A   1      41.754  27.299  28.191  1.00  0.00     0.074 A 
ATOM     47  C   UNL A   1      40.796  26.223  28.066  1.00  0.00     0.031 C 
ATOM     48  C   UNL A   1      47.315  24.458  26.642  1.00  0.00     0.029 A 
ATOM     49  C   UNL A   1      47.101  25.857  26.992  1.00  0.00     0.049 A 
ATOM     50  H   UNL A   1      45.317  26.763  27.571  1.00  0.00     0.167 HD
ATOM     51  C   UNL A   1      41.442  28.564  28.556  1.00  0.00     0.037 A 
ATOM     52  C   UNL A   1      48.048  26.813  26.997  1.00  0.00     0.037 A 
ATOM     53  C   UNL A   1      42.405  29.625  28.694  1.00  0.00     0.049 A 
ATOM     54  C   UNL A   1      47.668  28.218  27.374  1.00  0.00     0.074 A 
ATOM     55  C   UNL A   1      42.200  30.924  29.124  1.00  0.00     0.029 A 
ATOM     56  N   UNL A   1      43.754  29.510  28.394  1.00  0.00    -0.354 N 
ATOM     57  N   UNL A   1      46.497  28.689  27.729  1.00  0.00    -0.248 NA
ATOM     58  C   UNL A   1      48.739  29.224  27.349  1.00  0.00     0.031 C 
ATOM     59  C   UNL A   1      43.415  31.610  29.032  1.00  0.00     0.029 A 
ATOM     60  C   UNL A   1      44.387  30.726  28.594  1.00  0.00     0.049 A 
ATOM     61  H   UNL A   1      44.196  28.687  28.085  1.00  0.00     0.167 HD
ATOM     62  C   UNL A   1      46.692  30.039  27.986  1.00  0.00     0.074 A 
ATOM     63  C   UNL A   1      48.099  30.307  27.767  1.00  0.00     0.031 C 
ATOM     64  C   UNL A   1      45.788  30.974  28.366  1.00  0.00     0.037 A 
BRANCH  51  65
ATOM     65  C   UNL A   1      39.998  28.871  28.833  1.00  0.00     0.057 A 
ATOM     66  C   UNL A   1      39.468  28.826  30.129  1.00  0.00     0.134 A 
ATOM     67  C   UNL A   1      39.138  29.258  27.797  1.00  0.00     0.134 A 
ATOM     68  F   UNL A   1      40.234  28.454  31.166  1.00  0.00    -0.206 F 
ATOM     69  C   UNL A   1      38.128  29.130  30.382  1.00  0.00     0.040 A 
ATOM     70  C   UNL A   1      37.804  29.592  28.041  1.00  0.00     0.040 A 
ATOM     71  F   UNL A   1      39.581  29.329  26.533  1.00  0.00    -0.206 F 
ATOM     72  C   UNL A   1      37.295  29.522  29.337  1.00  0.00     0.006 A 
ENDBRANCH  51  65
BRANCH  52  73
ATOM     73  C   UNL A   1      49.448  26.472  26.639  1.00  0.00     0.057 A 
ATOM     74  C   UNL A   1      49.925  26.653  25.336  1.00  0.00     0.134 A 
ATOM     75  C   UNL A   1      50.344  25.958  27.587  1.00  0.00     0.134 A 
ATOM     76  F   UNL A   1      49.111  27.126  24.381  1.00  0.00    -0.206 F 
ATOM     77  C   UNL A   1      51.233  26.322  24.983  1.00  0.00     0.040 A 
ATOM     78  C   UNL A   1      51.662  25.647  27.253  1.00  0.00     0.040 A 
ATOM     79  F   UNL A   1      49.953  25.768  28.856  1.00  0.00    -0.206 F 
ATOM     80  C   UNL A   1      52.109  25.822  25.946  1.00  0.00     0.006 A 
ENDBRANCH  52  73
BRANCH  64  81
ATOM     81  C   UNL A   1      46.294  32.371  28.579  1.00  0.00     0.057 A 
ATOM     82  C   UNL A   1      46.283  33.322  27.551  1.00  0.00     0.134 A 
ATOM     83  C   UNL A   1      46.751  32.782  29.837  1.00  0.00     0.134 A 
ATOM     84  F   UNL A   1      45.872  32.986  26.319  1.00  0.00    -0.206 F 
ATOM     85  C   UNL A   1      46.724  34.629  27.763  1.00  0.00     0.040 A 
ATOM     86  C   UNL A   1      47.168  34.093  30.069  1.00  0.00     0.040 A 
ATOM     87  F   UNL A   1      46.779  31.922  30.867  1.00  0.00    -0.206 F 
ATOM     88  C   UNL A   1      47.159  35.020  29.028  1.00  0.00     0.006 A 
ENDBRANCH  64  81
ENDBRANCH  38  39
ENDBRANCH  30  33
ENDBRANCH  28  29
ENDBRANCH  27  28
ENDBRANCH   1  27
TORSDOF 13
ENDMDL
