MODEL 1
REMARK VINA RESULT:     -14.0      0.000      0.000
REMARK SMILES Cc1nn([C@H]2CCS(=O)(=O)C2)c(C)c1/C=C(\CC(=O)NCCCNC(=O)c1ccc(-c2c3nc(c(-c4c(F)cccc4F)c4ccc([nH]4)c(-c4c(F)cccc4F)c4nc(c(-c5c(F)cccc5F)c5ccc2[nH]5)C=C4)C=C3)cc1)c1nc2ccccc2s1
REMARK SMILES IDX 21 1 20 2 18 3 19 4 17 6 16 7 15 8 14 9 1 10 2 11 3 12 4 13
REMARK SMILES IDX 12 14 13 15 5 16 6 17 11 18 7 19 8 20 9 21 10 22 81 23 82 24
REMARK SMILES IDX 89 25 83 26 88 27 84 28 87 29 85 30 86 31 22 32 23 33 24 34
REMARK SMILES IDX 25 35 26 37 27 38 28 39 80 40 29 41 79 42 30 43 31 44 32 45
REMARK SMILES IDX 73 46 33 47 78 48 72 49 74 50 34 51 77 52 71 53 70 54 35 56
REMARK SMILES IDX 61 57 44 58 60 59 45 60 48 61 59 62 75 63 46 64 47 65 58 67
REMARK SMILES IDX 76 68 49 69 36 70 37 71 42 72 38 73 39 74 41 75 43 76 40 77
REMARK SMILES IDX 62 78 63 79 68 80 64 81 65 82 67 83 69 84 66 85 50 86 51 87
REMARK SMILES IDX 56 88 52 89 53 90 55 91 57 92 54 93
REMARK H PARENT 20 5 24 36 74 55 48 66
REMARK Flexibility Score: inf
ROOT
ATOM      1  C   UNL A   1      33.350  28.639  25.916  1.00  0.00     0.117 C 
ENDROOT
BRANCH   1   2
ATOM      2  N   UNL A   1      32.268  27.909  26.555  1.00  0.00    -0.356 N 
ATOM      3  C   UNL A   1      31.471  26.929  26.036  1.00  0.00     0.224 C 
ATOM      4  O   UNL A   1      30.531  26.509  26.713  1.00  0.00    -0.275 OA
ATOM      5  H   UNL A   1      32.085  28.155  27.490  1.00  0.00     0.163 HD
BRANCH   3   6
ATOM      6  C   UNL A   1      31.863  26.280  24.718  1.00  0.00     0.138 C 
BRANCH   6   7
ATOM      7  C   UNL A   1      30.749  25.714  23.852  1.00  0.00    -0.002 C 
ATOM      8  C   UNL A   1      30.501  24.389  23.683  1.00  0.00     0.019 C 
BRANCH   8   9
ATOM      9  C   UNL A   1      31.286  23.287  24.172  1.00  0.00     0.019 A 
ATOM     10  C   UNL A   1      30.559  23.169  26.700  1.00  0.00     0.069 C 
ATOM     11  C   UNL A   1      31.224  22.693  25.461  1.00  0.00     0.067 A 
ATOM     12  N   UNL A   1      31.904  21.539  25.491  1.00  0.00    -0.177 NA
ATOM     13  N   UNL A   1      32.447  21.433  24.263  1.00  0.00    -0.265 N 
ATOM     14  C   UNL A   1      32.324  22.606  23.549  1.00  0.00     0.043 A 
ATOM     15  C   UNL A   1      33.182  22.974  22.389  1.00  0.00     0.067 C 
BRANCH  13  16
ATOM     16  C   UNL A   1      33.100  20.175  23.909  1.00  0.00     0.123 C 
ATOM     17  C   UNL A   1      34.237  19.786  24.889  1.00  0.00     0.044 C 
ATOM     18  C   UNL A   1      32.187  18.952  23.915  1.00  0.00     0.164 C 
ATOM     19  C   UNL A   1      34.712  18.388  24.508  1.00  0.00     0.139 C 
ATOM     20  S   UNL A   1      33.283  17.562  23.846  1.00  0.00     0.152 S 
ATOM     21  O   UNL A   1      33.523  17.254  22.459  1.00  0.00    -0.229 OA
ATOM     22  O   UNL A   1      32.815  16.567  24.798  1.00  0.00    -0.229 OA
ENDBRANCH  13  16
ENDBRANCH   8   9
BRANCH   7  23
ATOM     23  C   UNL A   1      29.905  26.665  23.180  1.00  0.00     0.121 A 
ATOM     24  N   UNL A   1      30.358  27.582  22.349  1.00  0.00    -0.236 NA
ATOM     25  S   UNL A   1      28.266  26.912  23.668  1.00  0.00    -0.114 S 
ATOM     26  C   UNL A   1      29.577  28.718  22.450  1.00  0.00     0.082 A 
ATOM     27  C   UNL A   1      28.389  28.557  23.162  1.00  0.00     0.055 A 
ATOM     28  C   UNL A   1      29.921  30.000  21.977  1.00  0.00     0.030 A 
ATOM     29  C   UNL A   1      27.526  29.634  23.422  1.00  0.00     0.021 A 
ATOM     30  C   UNL A   1      29.112  31.094  22.302  1.00  0.00     0.002 A 
ATOM     31  C   UNL A   1      27.932  30.910  23.017  1.00  0.00     0.002 A 
ENDBRANCH   7  23
ENDBRANCH   6   7
ENDBRANCH   3   6
ENDBRANCH   1   2
BRANCH   1  32
ATOM     32  C   UNL A   1      33.952  29.708  26.829  1.00  0.00     0.042 C 
BRANCH  32  33
ATOM     33  C   UNL A   1      35.253  29.261  27.475  1.00  0.00     0.118 C 
BRANCH  33  34
ATOM     34  N   UNL A   1      35.402  29.766  28.844  1.00  0.00    -0.352 N 
ATOM     35  C   UNL A   1      36.417  29.511  29.747  1.00  0.00     0.251 C 
ATOM     36  H   UNL A   1      34.686  30.363  29.161  1.00  0.00     0.163 HD
ATOM     37  O   UNL A   1      36.262  29.693  30.947  1.00  0.00    -0.269 OA
BRANCH  35  38
ATOM     38  C   UNL A   1      37.694  29.006  29.224  1.00  0.00     0.039 A 
ATOM     39  C   UNL A   1      38.331  29.608  28.138  1.00  0.00     0.014 A 
ATOM     40  C   UNL A   1      38.301  27.975  29.931  1.00  0.00     0.014 A 
ATOM     41  C   UNL A   1      39.637  29.229  27.841  1.00  0.00     0.010 A 
ATOM     42  C   UNL A   1      39.643  27.756  29.765  1.00  0.00     0.010 A 
ATOM     43  C   UNL A   1      40.308  28.325  28.685  1.00  0.00    -0.014 A 
BRANCH  43  44
ATOM     44  C   UNL A   1      41.724  28.026  28.488  1.00  0.00     0.031 A 
ATOM     45  C   UNL A   1      42.019  26.782  27.721  1.00  0.00     0.074 A 
ATOM     46  C   UNL A   1      42.723  28.872  28.829  1.00  0.00     0.049 A 
ATOM     47  N   UNL A   1      42.531  25.686  28.175  1.00  0.00    -0.248 NA
ATOM     48  C   UNL A   1      41.587  26.697  26.317  1.00  0.00     0.031 C 
ATOM     49  C   UNL A   1      42.650  30.253  29.323  1.00  0.00     0.029 A 
ATOM     50  N   UNL A   1      44.065  28.671  28.723  1.00  0.00    -0.354 N 
ATOM     51  C   UNL A   1      42.661  24.830  27.083  1.00  0.00     0.074 A 
ATOM     52  C   UNL A   1      41.933  25.446  26.003  1.00  0.00     0.031 C 
ATOM     53  C   UNL A   1      43.866  30.834  29.242  1.00  0.00     0.029 A 
ATOM     54  C   UNL A   1      44.834  29.814  28.897  1.00  0.00     0.049 A 
ATOM     55  H   UNL A   1      44.458  27.788  28.539  1.00  0.00     0.167 HD
ATOM     56  C   UNL A   1      43.533  23.783  27.107  1.00  0.00     0.037 A 
ATOM     57  C   UNL A   1      46.177  29.917  28.778  1.00  0.00     0.037 A 
ATOM     58  C   UNL A   1      43.961  23.495  28.453  1.00  0.00     0.049 A 
ATOM     59  C   UNL A   1      46.733  28.553  28.940  1.00  0.00     0.074 A 
ATOM     60  C   UNL A   1      43.324  23.105  29.615  1.00  0.00     0.029 A 
ATOM     61  N   UNL A   1      45.191  23.965  28.843  1.00  0.00    -0.354 N 
ATOM     62  N   UNL A   1      46.694  27.882  30.058  1.00  0.00    -0.248 NA
ATOM     63  C   UNL A   1      46.923  27.757  27.739  1.00  0.00     0.031 C 
ATOM     64  C   UNL A   1      43.989  23.824  30.653  1.00  0.00     0.029 A 
ATOM     65  C   UNL A   1      45.030  24.551  30.071  1.00  0.00     0.049 A 
ATOM     66  H   UNL A   1      46.031  23.894  28.335  1.00  0.00     0.167 HD
ATOM     67  C   UNL A   1      46.419  26.578  29.677  1.00  0.00     0.074 A 
ATOM     68  C   UNL A   1      46.662  26.545  28.236  1.00  0.00     0.031 C 
ATOM     69  C   UNL A   1      45.755  25.722  30.508  1.00  0.00     0.037 A 
BRANCH  56  70
ATOM     70  C   UNL A   1      44.285  23.251  25.913  1.00  0.00     0.057 A 
ATOM     71  C   UNL A   1      44.267  21.868  25.647  1.00  0.00     0.134 A 
ATOM     72  C   UNL A   1      45.262  23.981  25.208  1.00  0.00     0.134 A 
ATOM     73  F   UNL A   1      43.386  21.061  26.257  1.00  0.00    -0.206 F 
ATOM     74  C   UNL A   1      45.209  21.249  24.817  1.00  0.00     0.040 A 
ATOM     75  C   UNL A   1      46.177  23.379  24.339  1.00  0.00     0.040 A 
ATOM     76  F   UNL A   1      45.454  25.292  25.399  1.00  0.00    -0.206 F 
ATOM     77  C   UNL A   1      46.177  22.004  24.169  1.00  0.00     0.006 A 
ENDBRANCH  56  70
BRANCH  57  78
ATOM     78  C   UNL A   1      46.957  31.044  28.229  1.00  0.00     0.057 A 
ATOM     79  C   UNL A   1      46.699  31.551  26.949  1.00  0.00     0.134 A 
ATOM     80  C   UNL A   1      47.777  31.834  29.055  1.00  0.00     0.134 A 
ATOM     81  F   UNL A   1      45.896  30.886  26.105  1.00  0.00    -0.206 F 
ATOM     82  C   UNL A   1      47.202  32.788  26.525  1.00  0.00     0.040 A 
ATOM     83  C   UNL A   1      48.290  33.067  28.642  1.00  0.00     0.040 A 
ATOM     84  F   UNL A   1      48.029  31.477  30.323  1.00  0.00    -0.206 F 
ATOM     85  C   UNL A   1      47.989  33.556  27.377  1.00  0.00     0.006 A 
ENDBRANCH  57  78
BRANCH  69  86
ATOM     86  C   UNL A   1      45.545  26.137  31.939  1.00  0.00     0.057 A 
ATOM     87  C   UNL A   1      44.372  26.739  32.421  1.00  0.00     0.134 A 
ATOM     88  C   UNL A   1      46.489  25.739  32.892  1.00  0.00     0.134 A 
ATOM     89  F   UNL A   1      43.374  27.072  31.595  1.00  0.00    -0.206 F 
ATOM     90  C   UNL A   1      44.162  26.953  33.787  1.00  0.00     0.040 A 
ATOM     91  C   UNL A   1      46.277  25.920  34.261  1.00  0.00     0.040 A 
ATOM     92  F   UNL A   1      47.612  25.110  32.508  1.00  0.00    -0.206 F 
ATOM     93  C   UNL A   1      45.111  26.532  34.713  1.00  0.00     0.006 A 
ENDBRANCH  69  86
ENDBRANCH  43  44
ENDBRANCH  35  38
ENDBRANCH  33  34
ENDBRANCH  32  33
ENDBRANCH   1  32
TORSDOF 14
ENDMDL
MODEL 2
REMARK VINA RESULT:     -13.3      2.857      7.736
REMARK SMILES Cc1nn([C@H]2CCS(=O)(=O)C2)c(C)c1/C=C(\CC(=O)NCCCNC(=O)c1ccc(-c2c3nc(c(-c4c(F)cccc4F)c4ccc([nH]4)c(-c4c(F)cccc4F)c4nc(c(-c5c(F)cccc5F)c5ccc2[nH]5)C=C4)C=C3)cc1)c1nc2ccccc2s1
REMARK SMILES IDX 21 1 20 2 18 3 19 4 17 6 16 7 15 8 14 9 1 10 2 11 3 12 4 13
REMARK SMILES IDX 12 14 13 15 5 16 6 17 11 18 7 19 8 20 9 21 10 22 81 23 82 24
REMARK SMILES IDX 89 25 83 26 88 27 84 28 87 29 85 30 86 31 22 32 23 33 24 34
REMARK SMILES IDX 25 35 26 37 27 38 28 39 80 40 29 41 79 42 30 43 31 44 32 45
REMARK SMILES IDX 73 46 33 47 78 48 72 49 74 50 34 51 77 52 71 53 70 54 35 56
REMARK SMILES IDX 61 57 44 58 60 59 45 60 48 61 59 62 75 63 46 64 47 65 58 67
REMARK SMILES IDX 76 68 49 69 36 70 37 71 42 72 38 73 39 74 41 75 43 76 40 77
REMARK SMILES IDX 62 78 63 79 68 80 64 81 65 82 67 83 69 84 66 85 50 86 51 87
REMARK SMILES IDX 56 88 52 89 53 90 55 91 57 92 54 93
REMARK H PARENT 20 5 24 36 74 55 48 66
REMARK Flexibility Score: inf
ROOT
ATOM      1  C   UNL A   1      33.651  29.740  27.213  1.00  0.00     0.117 C 
ENDROOT
BRANCH   1   2
ATOM      2  N   UNL A   1      33.794  29.339  25.823  1.00  0.00    -0.356 N 
ATOM      3  C   UNL A   1      33.781  28.083  25.288  1.00  0.00     0.224 C 
ATOM      4  O   UNL A   1      34.028  27.946  24.089  1.00  0.00    -0.275 OA
ATOM      5  H   UNL A   1      33.915  30.074  25.180  1.00  0.00     0.163 HD
BRANCH   3   6
ATOM      6  C   UNL A   1      33.308  26.920  26.146  1.00  0.00     0.138 C 
BRANCH   6   7
ATOM      7  C   UNL A   1      33.259  25.543  25.503  1.00  0.00    -0.002 C 
ATOM      8  C   UNL A   1      32.293  25.129  24.641  1.00  0.00     0.019 C 
BRANCH   8   9
ATOM      9  C   UNL A   1      31.098  25.837  24.266  1.00  0.00     0.019 A 
ATOM     10  C   UNL A   1      29.392  25.059  26.114  1.00  0.00     0.069 C 
ATOM     11  C   UNL A   1      29.869  25.885  24.977  1.00  0.00     0.067 A 
ATOM     12  N   UNL A   1      29.064  26.833  24.480  1.00  0.00    -0.177 NA
ATOM     13  N   UNL A   1      29.738  27.334  23.427  1.00  0.00    -0.265 N 
ATOM     14  C   UNL A   1      30.834  26.559  23.110  1.00  0.00     0.043 A 
ATOM     15  C   UNL A   1      31.502  26.558  21.779  1.00  0.00     0.067 C 
BRANCH  13  16
ATOM     16  C   UNL A   1      29.206  28.529  22.777  1.00  0.00     0.123 C 
ATOM     17  C   UNL A   1      27.719  28.797  23.127  1.00  0.00     0.044 C 
ATOM     18  C   UNL A   1      29.904  29.832  23.158  1.00  0.00     0.164 C 
ATOM     19  C   UNL A   1      27.345  30.149  22.529  1.00  0.00     0.139 C 
ATOM     20  S   UNL A   1      28.838  31.114  22.559  1.00  0.00     0.152 S 
ATOM     21  O   UNL A   1      29.225  31.417  21.204  1.00  0.00    -0.229 OA
ATOM     22  O   UNL A   1      28.733  32.136  23.589  1.00  0.00    -0.229 OA
ENDBRANCH  13  16
ENDBRANCH   8   9
BRANCH   7  23
ATOM     23  C   UNL A   1      34.321  24.634  25.837  1.00  0.00     0.121 A 
ATOM     24  N   UNL A   1      35.513  24.666  25.275  1.00  0.00    -0.236 NA
ATOM     25  S   UNL A   1      34.021  23.202  26.757  1.00  0.00    -0.114 S 
ATOM     26  C   UNL A   1      36.013  23.381  25.188  1.00  0.00     0.082 A 
ATOM     27  C   UNL A   1      35.312  22.423  25.920  1.00  0.00     0.055 A 
ATOM     28  C   UNL A   1      37.089  22.967  24.377  1.00  0.00     0.030 A 
ATOM     29  C   UNL A   1      35.646  21.060  25.872  1.00  0.00     0.021 A 
ATOM     30  C   UNL A   1      37.377  21.604  24.257  1.00  0.00     0.002 A 
ATOM     31  C   UNL A   1      36.661  20.665  24.993  1.00  0.00     0.002 A 
ENDBRANCH   7  23
ENDBRANCH   6   7
ENDBRANCH   3   6
ENDBRANCH   1   2
BRANCH   1  32
ATOM     32  C   UNL A   1      33.297  31.221  27.359  1.00  0.00     0.042 C 
BRANCH  32  33
ATOM     33  C   UNL A   1      34.495  32.073  27.748  1.00  0.00     0.118 C 
BRANCH  33  34
ATOM     34  N   UNL A   1      34.477  32.452  29.165  1.00  0.00    -0.352 N 
ATOM     35  C   UNL A   1      35.238  31.941  30.199  1.00  0.00     0.251 C 
ATOM     36  H   UNL A   1      33.840  33.161  29.411  1.00  0.00     0.163 HD
ATOM     37  O   UNL A   1      34.899  32.077  31.367  1.00  0.00    -0.269 OA
BRANCH  35  38
ATOM     38  C   UNL A   1      36.473  31.220  29.856  1.00  0.00     0.039 A 
ATOM     39  C   UNL A   1      37.687  31.887  29.688  1.00  0.00     0.014 A 
ATOM     40  C   UNL A   1      36.404  29.833  29.823  1.00  0.00     0.014 A 
ATOM     41  C   UNL A   1      38.852  31.130  29.593  1.00  0.00     0.010 A 
ATOM     42  C   UNL A   1      37.562  29.108  29.935  1.00  0.00     0.010 A 
ATOM     43  C   UNL A   1      38.789  29.734  29.757  1.00  0.00    -0.014 A 
BRANCH  43  44
ATOM     44  C   UNL A   1      40.009  28.931  29.815  1.00  0.00     0.031 A 
ATOM     45  C   UNL A   1      40.606  28.766  31.171  1.00  0.00     0.074 A 
ATOM     46  C   UNL A   1      40.505  28.244  28.761  1.00  0.00     0.049 A 
ATOM     47  N   UNL A   1      41.712  29.275  31.606  1.00  0.00    -0.248 NA
ATOM     48  C   UNL A   1      39.835  28.055  32.202  1.00  0.00     0.031 C 
ATOM     49  C   UNL A   1      39.926  28.034  27.427  1.00  0.00     0.029 A 
ATOM     50  N   UNL A   1      41.645  27.505  28.703  1.00  0.00    -0.354 N 
ATOM     51  C   UNL A   1      41.876  28.804  32.907  1.00  0.00     0.074 A 
ATOM     52  C   UNL A   1      40.628  28.183  33.269  1.00  0.00     0.031 C 
ATOM     53  C   UNL A   1      40.587  27.043  26.791  1.00  0.00     0.029 A 
ATOM     54  C   UNL A   1      41.754  26.701  27.577  1.00  0.00     0.049 A 
ATOM     55  H   UNL A   1      42.338  27.539  29.401  1.00  0.00     0.167 HD
ATOM     56  C   UNL A   1      43.104  28.788  33.501  1.00  0.00     0.037 A 
ATOM     57  C   UNL A   1      42.741  25.819  27.299  1.00  0.00     0.037 A 
ATOM     58  C   UNL A   1      44.037  29.622  32.786  1.00  0.00     0.049 A 
ATOM     59  C   UNL A   1      43.917  26.214  28.109  1.00  0.00     0.074 A 
ATOM     60  C   UNL A   1      44.105  30.967  32.482  1.00  0.00     0.029 A 
ATOM     61  N   UNL A   1      44.921  29.004  31.937  1.00  0.00    -0.354 N 
ATOM     62  N   UNL A   1      44.590  27.316  27.921  1.00  0.00    -0.248 NA
ATOM     63  C   UNL A   1      44.065  25.607  29.422  1.00  0.00     0.031 C 
ATOM     64  C   UNL A   1      44.627  31.014  31.155  1.00  0.00     0.029 A 
ATOM     65  C   UNL A   1      44.909  29.705  30.760  1.00  0.00     0.049 A 
ATOM     66  H   UNL A   1      45.461  28.205  32.136  1.00  0.00     0.167 HD
ATOM     67  C   UNL A   1      44.889  27.768  29.197  1.00  0.00     0.074 A 
ATOM     68  C   UNL A   1      44.621  26.630  30.076  1.00  0.00     0.031 C 
ATOM     69  C   UNL A   1      45.057  29.098  29.457  1.00  0.00     0.037 A 
BRANCH  56  70
ATOM     70  C   UNL A   1      43.573  27.755  34.495  1.00  0.00     0.057 A 
ATOM     71  C   UNL A   1      43.667  26.408  34.095  1.00  0.00     0.134 A 
ATOM     72  C   UNL A   1      43.634  27.970  35.885  1.00  0.00     0.134 A 
ATOM     73  F   UNL A   1      43.619  26.068  32.797  1.00  0.00    -0.206 F 
ATOM     74  C   UNL A   1      43.723  25.352  35.013  1.00  0.00     0.040 A 
ATOM     75  C   UNL A   1      43.739  26.926  36.809  1.00  0.00     0.040 A 
ATOM     76  F   UNL A   1      43.490  29.184  36.429  1.00  0.00    -0.206 F 
ATOM     77  C   UNL A   1      43.747  25.610  36.377  1.00  0.00     0.006 A 
ENDBRANCH  56  70
BRANCH  57  78
ATOM     78  C   UNL A   1      42.626  24.505  26.635  1.00  0.00     0.057 A 
ATOM     79  C   UNL A   1      43.338  24.219  25.463  1.00  0.00     0.134 A 
ATOM     80  C   UNL A   1      42.041  23.406  27.289  1.00  0.00     0.134 A 
ATOM     81  F   UNL A   1      43.963  25.198  24.792  1.00  0.00    -0.206 F 
ATOM     82  C   UNL A   1      43.487  22.911  24.985  1.00  0.00     0.040 A 
ATOM     83  C   UNL A   1      42.177  22.096  26.820  1.00  0.00     0.040 A 
ATOM     84  F   UNL A   1      41.398  23.559  28.456  1.00  0.00    -0.206 F 
ATOM     85  C   UNL A   1      42.917  21.842  25.672  1.00  0.00     0.006 A 
ENDBRANCH  57  78
BRANCH  69  86
ATOM     86  C   UNL A   1      45.158  30.044  28.291  1.00  0.00     0.057 A 
ATOM     87  C   UNL A   1      44.062  30.703  27.714  1.00  0.00     0.134 A 
ATOM     88  C   UNL A   1      46.430  30.443  27.868  1.00  0.00     0.134 A 
ATOM     89  F   UNL A   1      42.811  30.454  28.118  1.00  0.00    -0.206 F 
ATOM     90  C   UNL A   1      44.227  31.697  26.744  1.00  0.00     0.040 A 
ATOM     91  C   UNL A   1      46.610  31.455  26.922  1.00  0.00     0.040 A 
ATOM     92  F   UNL A   1      47.527  29.893  28.414  1.00  0.00    -0.206 F 
ATOM     93  C   UNL A   1      45.506  32.084  26.353  1.00  0.00     0.006 A 
ENDBRANCH  69  86
ENDBRANCH  43  44
ENDBRANCH  35  38
ENDBRANCH  33  34
ENDBRANCH  32  33
ENDBRANCH   1  32
TORSDOF 14
ENDMDL
MODEL 3
REMARK VINA RESULT:     -13.2      2.533      6.267
REMARK SMILES Cc1nn([C@H]2CCS(=O)(=O)C2)c(C)c1/C=C(\CC(=O)NCCCNC(=O)c1ccc(-c2c3nc(c(-c4c(F)cccc4F)c4ccc([nH]4)c(-c4c(F)cccc4F)c4nc(c(-c5c(F)cccc5F)c5ccc2[nH]5)C=C4)C=C3)cc1)c1nc2ccccc2s1
REMARK SMILES IDX 21 1 20 2 18 3 19 4 17 6 16 7 15 8 14 9 1 10 2 11 3 12 4 13
REMARK SMILES IDX 12 14 13 15 5 16 6 17 11 18 7 19 8 20 9 21 10 22 81 23 82 24
REMARK SMILES IDX 89 25 83 26 88 27 84 28 87 29 85 30 86 31 22 32 23 33 24 34
REMARK SMILES IDX 25 35 26 37 27 38 28 39 80 40 29 41 79 42 30 43 31 44 32 45
REMARK SMILES IDX 73 46 33 47 78 48 72 49 74 50 34 51 77 52 71 53 70 54 35 56
REMARK SMILES IDX 61 57 44 58 60 59 45 60 48 61 59 62 75 63 46 64 47 65 58 67
REMARK SMILES IDX 76 68 49 69 36 70 37 71 42 72 38 73 39 74 41 75 43 76 40 77
REMARK SMILES IDX 62 78 63 79 68 80 64 81 65 82 67 83 69 84 66 85 50 86 51 87
REMARK SMILES IDX 56 88 52 89 53 90 55 91 57 92 54 93
REMARK H PARENT 20 5 24 36 74 55 48 66
REMARK Flexibility Score: inf
ROOT
ATOM      1  C   UNL A   1      32.997  29.756  26.742  1.00  0.00     0.117 C 
ENDROOT
BRANCH   1   2
ATOM      2  N   UNL A   1      33.375  29.698  25.340  1.00  0.00    -0.356 N 
ATOM      3  C   UNL A   1      32.975  28.812  24.380  1.00  0.00     0.224 C 
ATOM      4  O   UNL A   1      33.498  28.867  23.267  1.00  0.00    -0.275 OA
ATOM      5  H   UNL A   1      34.005  30.392  25.041  1.00  0.00     0.163 HD
BRANCH   3   6
ATOM      6  C   UNL A   1      31.792  27.899  24.666  1.00  0.00     0.138 C 
BRANCH   6   7
ATOM      7  C   UNL A   1      30.779  27.689  23.552  1.00  0.00    -0.002 C 
ATOM      8  C   UNL A   1      30.758  26.613  22.722  1.00  0.00     0.019 C 
BRANCH   8   9
ATOM      9  C   UNL A   1      31.724  25.551  22.648  1.00  0.00     0.019 A 
ATOM     10  C   UNL A   1      32.525  25.703  20.144  1.00  0.00     0.069 C 
ATOM     11  C   UNL A   1      32.569  25.231  21.551  1.00  0.00     0.067 A 
ATOM     12  N   UNL A   1      33.514  24.354  21.913  1.00  0.00    -0.177 NA
ATOM     13  N   UNL A   1      33.237  24.066  23.199  1.00  0.00    -0.265 N 
ATOM     14  C   UNL A   1      32.003  24.554  23.574  1.00  0.00     0.043 A 
ATOM     15  C   UNL A   1      31.216  24.041  24.729  1.00  0.00     0.067 C 
BRANCH  13  16
ATOM     16  C   UNL A   1      34.209  23.275  23.949  1.00  0.00     0.123 C 
ATOM     17  C   UNL A   1      35.485  22.948  23.131  1.00  0.00     0.044 C 
ATOM     18  C   UNL A   1      34.752  23.948  25.207  1.00  0.00     0.164 C 
ATOM     19  C   UNL A   1      36.474  22.275  24.076  1.00  0.00     0.139 C 
ATOM     20  S   UNL A   1      36.152  22.971  25.680  1.00  0.00     0.152 S 
ATOM     21  O   UNL A   1      35.690  21.926  26.558  1.00  0.00    -0.229 OA
ATOM     22  O   UNL A   1      37.234  23.873  26.042  1.00  0.00    -0.229 OA
ENDBRANCH  13  16
ENDBRANCH   8   9
BRANCH   7  23
ATOM     23  C   UNL A   1      29.777  28.707  23.388  1.00  0.00     0.121 A 
ATOM     24  N   UNL A   1      28.904  28.720  22.400  1.00  0.00    -0.236 NA
ATOM     25  S   UNL A   1      29.850  30.189  24.274  1.00  0.00    -0.114 S 
ATOM     26  C   UNL A   1      28.623  30.028  22.054  1.00  0.00     0.082 A 
ATOM     27  C   UNL A   1      29.083  30.989  22.953  1.00  0.00     0.055 A 
ATOM     28  C   UNL A   1      28.002  30.450  20.861  1.00  0.00     0.030 A 
ATOM     29  C   UNL A   1      28.947  32.364  22.704  1.00  0.00     0.021 A 
ATOM     30  C   UNL A   1      27.936  31.814  20.565  1.00  0.00     0.002 A 
ATOM     31  C   UNL A   1      28.406  32.757  21.475  1.00  0.00     0.002 A 
ENDBRANCH   7  23
ENDBRANCH   6   7
ENDBRANCH   3   6
ENDBRANCH   1   2
BRANCH   1  32
ATOM     32  C   UNL A   1      32.955  31.189  27.275  1.00  0.00     0.042 C 
BRANCH  32  33
ATOM     33  C   UNL A   1      34.330  31.711  27.659  1.00  0.00     0.118 C 
BRANCH  33  34
ATOM     34  N   UNL A   1      34.366  32.241  29.027  1.00  0.00    -0.352 N 
ATOM     35  C   UNL A   1      35.170  31.844  30.079  1.00  0.00     0.251 C 
ATOM     36  H   UNL A   1      33.737  32.972  29.220  1.00  0.00     0.163 HD
ATOM     37  O   UNL A   1      34.876  32.105  31.238  1.00  0.00    -0.269 OA
BRANCH  35  38
ATOM     38  C   UNL A   1      36.393  31.091  29.767  1.00  0.00     0.039 A 
ATOM     39  C   UNL A   1      37.615  31.732  29.555  1.00  0.00     0.014 A 
ATOM     40  C   UNL A   1      36.308  29.705  29.808  1.00  0.00     0.014 A 
ATOM     41  C   UNL A   1      38.769  30.957  29.493  1.00  0.00     0.010 A 
ATOM     42  C   UNL A   1      37.457  28.972  29.951  1.00  0.00     0.010 A 
ATOM     43  C   UNL A   1      38.691  29.573  29.731  1.00  0.00    -0.014 A 
BRANCH  43  44
ATOM     44  C   UNL A   1      39.901  28.759  29.824  1.00  0.00     0.031 A 
ATOM     45  C   UNL A   1      40.459  28.591  31.196  1.00  0.00     0.074 A 
ATOM     46  C   UNL A   1      40.419  28.065  28.785  1.00  0.00     0.049 A 
ATOM     47  N   UNL A   1      41.557  29.090  31.661  1.00  0.00    -0.248 NA
ATOM     48  C   UNL A   1      39.653  27.888  32.207  1.00  0.00     0.031 C 
ATOM     49  C   UNL A   1      39.875  27.857  27.436  1.00  0.00     0.029 A 
ATOM     50  N   UNL A   1      41.554  27.316  28.759  1.00  0.00    -0.354 N 
ATOM     51  C   UNL A   1      41.682  28.620  32.966  1.00  0.00     0.074 A 
ATOM     52  C   UNL A   1      40.419  28.011  33.295  1.00  0.00     0.031 C 
ATOM     53  C   UNL A   1      40.544  26.859  26.821  1.00  0.00     0.029 A 
ATOM     54  C   UNL A   1      41.686  26.508  27.638  1.00  0.00     0.049 A 
ATOM     55  H   UNL A   1      42.227  27.344  29.476  1.00  0.00     0.167 HD
ATOM     56  C   UNL A   1      42.892  28.594  33.593  1.00  0.00     0.037 A 
ATOM     57  C   UNL A   1      42.672  25.617  27.389  1.00  0.00     0.037 A 
ATOM     58  C   UNL A   1      43.853  29.418  32.903  1.00  0.00     0.049 A 
ATOM     59  C   UNL A   1      43.829  26.003  28.230  1.00  0.00     0.074 A 
ATOM     60  C   UNL A   1      43.941  30.762  32.599  1.00  0.00     0.029 A 
ATOM     61  N   UNL A   1      44.753  28.790  32.079  1.00  0.00    -0.354 N 
ATOM     62  N   UNL A   1      44.517  27.098  28.059  1.00  0.00    -0.248 NA
ATOM     63  C   UNL A   1      43.935  25.397  29.547  1.00  0.00     0.031 C 
ATOM     64  C   UNL A   1      44.500  30.802  31.287  1.00  0.00     0.029 A 
ATOM     65  C   UNL A   1      44.780  29.489  30.901  1.00  0.00     0.049 A 
ATOM     66  H   UNL A   1      45.281  27.987  32.295  1.00  0.00     0.167 HD
ATOM     67  C   UNL A   1      44.785  27.550  29.342  1.00  0.00     0.074 A 
ATOM     68  C   UNL A   1      44.483  26.416  30.214  1.00  0.00     0.031 C 
ATOM     69  C   UNL A   1      44.958  28.879  29.604  1.00  0.00     0.037 A 
BRANCH  56  70
ATOM     70  C   UNL A   1      43.325  27.558  34.601  1.00  0.00     0.057 A 
ATOM     71  C   UNL A   1      43.539  26.233  34.177  1.00  0.00     0.134 A 
ATOM     72  C   UNL A   1      43.238  27.732  35.996  1.00  0.00     0.134 A 
ATOM     73  F   UNL A   1      43.637  25.933  32.873  1.00  0.00    -0.206 F 
ATOM     74  C   UNL A   1      43.570  25.153  35.069  1.00  0.00     0.040 A 
ATOM     75  C   UNL A   1      43.316  26.667  36.899  1.00  0.00     0.040 A 
ATOM     76  F   UNL A   1      42.969  28.918  36.555  1.00  0.00    -0.206 F 
ATOM     77  C   UNL A   1      43.445  25.368  36.435  1.00  0.00     0.006 A 
ENDBRANCH  56  70
BRANCH  57  78
ATOM     78  C   UNL A   1      42.563  24.303  26.724  1.00  0.00     0.057 A 
ATOM     79  C   UNL A   1      43.260  24.028  25.540  1.00  0.00     0.134 A 
ATOM     80  C   UNL A   1      42.002  23.195  27.385  1.00  0.00     0.134 A 
ATOM     81  F   UNL A   1      43.862  25.016  24.862  1.00  0.00    -0.206 F 
ATOM     82  C   UNL A   1      43.418  22.722  25.058  1.00  0.00     0.040 A 
ATOM     83  C   UNL A   1      42.148  21.888  26.911  1.00  0.00     0.040 A 
ATOM     84  F   UNL A   1      41.376  23.338  28.562  1.00  0.00    -0.206 F 
ATOM     85  C   UNL A   1      42.872  21.646  25.751  1.00  0.00     0.006 A 
ENDBRANCH  57  78
BRANCH  69  86
ATOM     86  C   UNL A   1      45.100  29.822  28.440  1.00  0.00     0.057 A 
ATOM     87  C   UNL A   1      44.027  30.496  27.837  1.00  0.00     0.134 A 
ATOM     88  C   UNL A   1      46.387  30.201  28.045  1.00  0.00     0.134 A 
ATOM     89  F   UNL A   1      42.763  30.266  28.212  1.00  0.00    -0.206 F 
ATOM     90  C   UNL A   1      44.229  31.486  26.870  1.00  0.00     0.040 A 
ATOM     91  C   UNL A   1      46.603  31.210  27.103  1.00  0.00     0.040 A 
ATOM     92  F   UNL A   1      47.462  29.636  28.617  1.00  0.00    -0.206 F 
ATOM     93  C   UNL A   1      45.521  31.854  26.508  1.00  0.00     0.006 A 
ENDBRANCH  69  86
ENDBRANCH  43  44
ENDBRANCH  35  38
ENDBRANCH  33  34
ENDBRANCH  32  33
ENDBRANCH   1  32
TORSDOF 14
ENDMDL
