MODEL 1
REMARK VINA RESULT:     -13.0      0.000      0.000
REMARK SMILES CC[C@@H](Sc1nnc2ccc3ccccc3n12)C(=O)Nc1cccc(C(=O)NCCCNC(=O)c2ccc(-c3c4nc(c(-c5c(F)cccc5F)c5ccc([nH]5)c(-c5c(F)cccc5F)c5nc(c(-c6c(F)cccc6F)c6ccc3[nH]6)C=C5)C=C4)cc2)c1
REMARK SMILES IDX 29 1 28 2 26 3 27 4 25 6 21 7 22 8 89 9 23 10 24 11 20 12
REMARK SMILES IDX 18 13 19 14 3 16 2 17 1 18 4 19 5 20 6 21 17 22 7 23 8 24
REMARK SMILES IDX 16 25 9 26 11 27 15 28 10 29 12 30 14 31 13 32 30 33 31 34
REMARK SMILES IDX 32 35 33 36 34 38 35 39 36 40 88 41 37 42 87 43 38 44 39 45
REMARK SMILES IDX 40 46 81 47 41 48 86 49 80 50 82 51 42 52 85 53 79 54 78 55
REMARK SMILES IDX 43 57 69 58 52 59 68 60 53 61 56 62 67 63 83 64 54 65 55 66
REMARK SMILES IDX 66 68 84 69 57 70 44 71 45 72 50 73 46 74 47 75 49 76 51 77
REMARK SMILES IDX 48 78 70 79 71 80 76 81 72 82 73 83 75 84 77 85 74 86 58 87
REMARK SMILES IDX 59 88 64 89 60 90 61 91 63 92 65 93 62 94
REMARK H PARENT 28 5 20 15 32 37 82 56 56 67
REMARK Flexibility Score: inf
ROOT
ATOM      1  C   UNL A   1      36.302  21.541  25.362  1.00  0.00     0.118 C 
ENDROOT
BRANCH   1   2
ATOM      2  N   UNL A   1      35.539  20.325  25.206  1.00  0.00    -0.352 N 
ATOM      3  C   UNL A   1      34.251  20.051  24.814  1.00  0.00     0.251 C 
ATOM      4  O   UNL A   1      33.940  18.868  24.750  1.00  0.00    -0.269 OA
ATOM      5  H   UNL A   1      36.053  19.515  25.430  1.00  0.00     0.163 HD
BRANCH   3   6
ATOM      6  C   UNL A   1      33.219  21.088  24.504  1.00  0.00     0.041 A 
ATOM      7  C   UNL A   1      32.280  22.905  23.212  1.00  0.00     0.041 A 
ATOM      8  C   UNL A   1      31.260  23.043  24.135  1.00  0.00     0.026 A 
ATOM      9  C   UNL A   1      33.103  21.786  23.301  1.00  0.00     0.040 A 
ATOM     10  C   UNL A   1      31.290  22.315  25.320  1.00  0.00     0.003 A 
ATOM     11  C   UNL A   1      32.312  21.394  25.531  1.00  0.00     0.014 A 
BRANCH   7  12
ATOM     12  N   UNL A   1      32.541  23.826  22.188  1.00  0.00    -0.325 N 
ATOM     13  C   UNL A   1      33.045  25.106  22.238  1.00  0.00     0.237 C 
ATOM     14  O   UNL A   1      33.332  25.601  21.134  1.00  0.00    -0.273 OA
ATOM     15  H   UNL A   1      32.327  23.506  21.282  1.00  0.00     0.169 HD
BRANCH  13  16
ATOM     16  C   UNL A   1      33.407  25.914  23.528  1.00  0.00     0.144 C 
BRANCH  16  17
ATOM     17  C   UNL A   1      34.419  25.216  24.426  1.00  0.00     0.021 C 
ATOM     18  C   UNL A   1      34.059  24.855  25.852  1.00  0.00     0.005 C 
ENDBRANCH  16  17
BRANCH  16  19
ATOM     19  S   UNL A   1      33.667  27.656  23.004  1.00  0.00    -0.072 SA
BRANCH  19  20
ATOM     20  C   UNL A   1      32.392  28.637  23.645  1.00  0.00     0.196 A 
ATOM     21  N   UNL A   1      31.278  28.804  22.960  1.00  0.00    -0.122 NA
ATOM     22  N   UNL A   1      32.302  29.332  24.844  1.00  0.00    -0.270 N 
ATOM     23  N   UNL A   1      30.481  29.693  23.628  1.00  0.00    -0.129 NA
ATOM     24  C   UNL A   1      31.116  30.056  24.718  1.00  0.00     0.161 A 
ATOM     25  C   UNL A   1      33.182  29.515  25.947  1.00  0.00     0.057 A 
ATOM     26  C   UNL A   1      30.789  31.052  25.669  1.00  0.00     0.050 A 
ATOM     27  C   UNL A   1      32.909  30.619  26.786  1.00  0.00    -0.001 A 
ATOM     28  C   UNL A   1      34.317  28.739  26.169  1.00  0.00     0.027 A 
ATOM     29  C   UNL A   1      31.650  31.360  26.649  1.00  0.00     0.014 A 
ATOM     30  C   UNL A   1      33.853  31.014  27.737  1.00  0.00     0.010 A 
ATOM     31  C   UNL A   1      35.259  29.152  27.115  1.00  0.00     0.002 A 
ATOM     32  C   UNL A   1      35.043  30.301  27.875  1.00  0.00     0.001 A 
ENDBRANCH  19  20
ENDBRANCH  16  19
ENDBRANCH  13  16
ENDBRANCH   7  12
ENDBRANCH   3   6
ENDBRANCH   1   2
BRANCH   1  33
ATOM     33  C   UNL A   1      37.778  21.407  25.037  1.00  0.00     0.042 C 
BRANCH  33  34
ATOM     34  C   UNL A   1      38.748  21.745  26.161  1.00  0.00     0.118 C 
BRANCH  34  35
ATOM     35  N   UNL A   1      40.095  22.059  25.738  1.00  0.00    -0.352 N 
ATOM     36  C   UNL A   1      41.042  22.955  26.152  1.00  0.00     0.251 C 
ATOM     37  H   UNL A   1      40.399  21.504  24.985  1.00  0.00     0.163 HD
ATOM     38  O   UNL A   1      42.179  22.787  25.707  1.00  0.00    -0.269 OA
BRANCH  36  39
ATOM     39  C   UNL A   1      40.776  24.154  26.989  1.00  0.00     0.039 A 
ATOM     40  C   UNL A   1      39.886  25.181  26.676  1.00  0.00     0.014 A 
ATOM     41  C   UNL A   1      41.609  24.306  28.112  1.00  0.00     0.014 A 
ATOM     42  C   UNL A   1      39.974  26.405  27.324  1.00  0.00     0.010 A 
ATOM     43  C   UNL A   1      41.664  25.505  28.801  1.00  0.00     0.010 A 
ATOM     44  C   UNL A   1      40.911  26.579  28.341  1.00  0.00    -0.014 A 
BRANCH  44  45
ATOM     45  C   UNL A   1      41.025  27.896  28.951  1.00  0.00     0.031 A 
ATOM     46  C   UNL A   1      42.219  28.674  28.521  1.00  0.00     0.074 A 
ATOM     47  C   UNL A   1      40.067  28.397  29.755  1.00  0.00     0.049 A 
ATOM     48  N   UNL A   1      43.205  29.094  29.245  1.00  0.00    -0.248 NA
ATOM     49  C   UNL A   1      42.403  28.889  27.078  1.00  0.00     0.031 C 
ATOM     50  C   UNL A   1      38.745  27.837  30.048  1.00  0.00     0.029 A 
ATOM     51  N   UNL A   1      40.044  29.585  30.419  1.00  0.00    -0.354 N 
ATOM     52  C   UNL A   1      44.046  29.793  28.379  1.00  0.00     0.074 A 
ATOM     53  C   UNL A   1      43.592  29.492  27.048  1.00  0.00     0.031 C 
ATOM     54  C   UNL A   1      37.974  28.786  30.627  1.00  0.00     0.029 A 
ATOM     55  C   UNL A   1      38.787  29.965  30.868  1.00  0.00     0.049 A 
ATOM     56  H   UNL A   1      40.851  30.129  30.568  1.00  0.00     0.167 HD
ATOM     57  C   UNL A   1      44.900  30.749  28.840  1.00  0.00     0.037 A 
ATOM     58  C   UNL A   1      38.433  31.187  31.337  1.00  0.00     0.037 A 
ATOM     59  C   UNL A   1      45.135  30.591  30.254  1.00  0.00     0.049 A 
ATOM     60  C   UNL A   1      39.675  31.897  31.727  1.00  0.00     0.074 A 
ATOM     61  C   UNL A   1      45.689  29.610  31.054  1.00  0.00     0.029 A 
ATOM     62  N   UNL A   1      44.459  31.427  31.109  1.00  0.00    -0.354 N 
ATOM     63  N   UNL A   1      40.415  31.546  32.742  1.00  0.00    -0.248 NA
ATOM     64  C   UNL A   1      40.350  32.690  30.710  1.00  0.00     0.031 C 
ATOM     65  C   UNL A   1      44.920  29.636  32.255  1.00  0.00     0.029 A 
ATOM     66  C   UNL A   1      43.982  30.662  32.137  1.00  0.00     0.049 A 
ATOM     67  H   UNL A   1      44.340  32.397  31.001  1.00  0.00     0.167 HD
ATOM     68  C   UNL A   1      41.722  31.689  32.296  1.00  0.00     0.074 A 
ATOM     69  C   UNL A   1      41.620  32.475  31.067  1.00  0.00     0.031 C 
ATOM     70  C   UNL A   1      42.728  30.917  32.802  1.00  0.00     0.037 A 
BRANCH  57  71
ATOM     71  C   UNL A   1      45.167  32.066  28.136  1.00  0.00     0.057 A 
ATOM     72  C   UNL A   1      46.332  32.361  27.399  1.00  0.00     0.134 A 
ATOM     73  C   UNL A   1      44.078  32.926  27.888  1.00  0.00     0.134 A 
ATOM     74  F   UNL A   1      47.465  31.665  27.518  1.00  0.00    -0.206 F 
ATOM     75  C   UNL A   1      46.372  33.350  26.411  1.00  0.00     0.040 A 
ATOM     76  C   UNL A   1      44.094  33.888  26.871  1.00  0.00     0.040 A 
ATOM     77  F   UNL A   1      42.922  32.787  28.555  1.00  0.00    -0.206 F 
ATOM     78  C   UNL A   1      45.238  34.082  26.108  1.00  0.00     0.006 A 
ENDBRANCH  57  71
BRANCH  58  79
ATOM     79  C   UNL A   1      37.132  31.873  31.170  1.00  0.00     0.057 A 
ATOM     80  C   UNL A   1      36.826  32.567  29.984  1.00  0.00     0.134 A 
ATOM     81  C   UNL A   1      36.257  32.079  32.244  1.00  0.00     0.134 A 
ATOM     82  F   UNL A   1      37.647  32.518  28.925  1.00  0.00    -0.206 F 
ATOM     83  C   UNL A   1      35.713  33.405  29.868  1.00  0.00     0.040 A 
ATOM     84  C   UNL A   1      35.140  32.921  32.144  1.00  0.00     0.040 A 
ATOM     85  F   UNL A   1      36.495  31.506  33.434  1.00  0.00    -0.206 F 
ATOM     86  C   UNL A   1      34.868  33.591  30.954  1.00  0.00     0.006 A 
ENDBRANCH  58  79
BRANCH  70  87
ATOM     87  C   UNL A   1      42.420  30.073  34.005  1.00  0.00     0.057 A 
ATOM     88  C   UNL A   1      42.791  30.536  35.270  1.00  0.00     0.134 A 
ATOM     89  C   UNL A   1      41.914  28.766  33.928  1.00  0.00     0.134 A 
ATOM     90  F   UNL A   1      43.341  31.752  35.409  1.00  0.00    -0.206 F 
ATOM     91  C   UNL A   1      42.655  29.743  36.412  1.00  0.00     0.040 A 
ATOM     92  C   UNL A   1      41.743  27.974  35.066  1.00  0.00     0.040 A 
ATOM     93  F   UNL A   1      41.630  28.201  32.748  1.00  0.00    -0.206 F 
ATOM     94  C   UNL A   1      42.120  28.461  36.313  1.00  0.00     0.006 A 
ENDBRANCH  70  87
ENDBRANCH  44  45
ENDBRANCH  36  39
ENDBRANCH  34  35
ENDBRANCH  33  34
ENDBRANCH   1  33
TORSDOF 15
ENDMDL
MODEL 2
REMARK VINA RESULT:     -12.9      2.466      3.957
REMARK SMILES CC[C@@H](Sc1nnc2ccc3ccccc3n12)C(=O)Nc1cccc(C(=O)NCCCNC(=O)c2ccc(-c3c4nc(c(-c5c(F)cccc5F)c5ccc([nH]5)c(-c5c(F)cccc5F)c5nc(c(-c6c(F)cccc6F)c6ccc3[nH]6)C=C5)C=C4)cc2)c1
REMARK SMILES IDX 29 1 28 2 26 3 27 4 25 6 21 7 22 8 89 9 23 10 24 11 20 12
REMARK SMILES IDX 18 13 19 14 3 16 2 17 1 18 4 19 5 20 6 21 17 22 7 23 8 24
REMARK SMILES IDX 16 25 9 26 11 27 15 28 10 29 12 30 14 31 13 32 30 33 31 34
REMARK SMILES IDX 32 35 33 36 34 38 35 39 36 40 88 41 37 42 87 43 38 44 39 45
REMARK SMILES IDX 40 46 81 47 41 48 86 49 80 50 82 51 42 52 85 53 79 54 78 55
REMARK SMILES IDX 43 57 69 58 52 59 68 60 53 61 56 62 67 63 83 64 54 65 55 66
REMARK SMILES IDX 66 68 84 69 57 70 44 71 45 72 50 73 46 74 47 75 49 76 51 77
REMARK SMILES IDX 48 78 70 79 71 80 76 81 72 82 73 83 75 84 77 85 74 86 58 87
REMARK SMILES IDX 59 88 64 89 60 90 61 91 63 92 65 93 62 94
REMARK H PARENT 28 5 20 15 32 37 82 56 56 67
REMARK Flexibility Score: inf
ROOT
ATOM      1  C   UNL A   1      40.392  21.100  26.119  1.00  0.00     0.118 C 
ENDROOT
BRANCH   1   2
ATOM      2  N   UNL A   1      39.781  22.404  26.235  1.00  0.00    -0.352 N 
ATOM      3  C   UNL A   1      38.497  22.871  26.093  1.00  0.00     0.251 C 
ATOM      4  O   UNL A   1      38.322  24.062  26.315  1.00  0.00    -0.269 OA
ATOM      5  H   UNL A   1      40.425  23.112  26.466  1.00  0.00     0.163 HD
BRANCH   3   6
ATOM      6  C   UNL A   1      37.334  22.038  25.658  1.00  0.00     0.041 A 
ATOM      7  C   UNL A   1      34.981  21.503  25.494  1.00  0.00     0.041 A 
ATOM      8  C   UNL A   1      35.288  20.310  24.867  1.00  0.00     0.026 A 
ATOM      9  C   UNL A   1      35.997  22.437  25.669  1.00  0.00     0.040 A 
ATOM     10  C   UNL A   1      36.613  19.899  24.764  1.00  0.00     0.003 A 
ATOM     11  C   UNL A   1      37.626  20.733  25.228  1.00  0.00     0.014 A 
BRANCH   7  12
ATOM     12  N   UNL A   1      33.703  21.832  25.970  1.00  0.00    -0.325 N 
ATOM     13  C   UNL A   1      32.571  22.234  25.297  1.00  0.00     0.237 C 
ATOM     14  O   UNL A   1      31.537  22.275  25.987  1.00  0.00    -0.273 OA
ATOM     15  H   UNL A   1      33.597  21.765  26.946  1.00  0.00     0.169 HD
BRANCH  13  16
ATOM     16  C   UNL A   1      32.447  22.503  23.761  1.00  0.00     0.144 C 
BRANCH  16  17
ATOM     17  C   UNL A   1      32.241  21.243  22.932  1.00  0.00     0.021 C 
ATOM     18  C   UNL A   1      32.226  19.882  23.595  1.00  0.00     0.005 C 
ENDBRANCH  16  17
BRANCH  16  19
ATOM     19  S   UNL A   1      31.322  23.944  23.566  1.00  0.00    -0.072 SA
BRANCH  19  20
ATOM     20  C   UNL A   1      32.185  25.237  22.802  1.00  0.00     0.196 A 
ATOM     21  N   UNL A   1      32.620  25.100  21.565  1.00  0.00    -0.122 NA
ATOM     22  N   UNL A   1      32.526  26.498  23.273  1.00  0.00    -0.270 N 
ATOM     23  N   UNL A   1      33.350  26.208  21.233  1.00  0.00    -0.129 NA
ATOM     24  C   UNL A   1      33.347  27.013  22.270  1.00  0.00     0.161 A 
ATOM     25  C   UNL A   1      32.328  27.178  24.507  1.00  0.00     0.057 A 
ATOM     26  C   UNL A   1      34.065  28.214  22.488  1.00  0.00     0.050 A 
ATOM     27  C   UNL A   1      33.175  28.281  24.753  1.00  0.00    -0.001 A 
ATOM     28  C   UNL A   1      31.434  26.756  25.489  1.00  0.00     0.027 A 
ATOM     29  C   UNL A   1      34.021  28.819  23.682  1.00  0.00     0.014 A 
ATOM     30  C   UNL A   1      33.218  28.848  26.030  1.00  0.00     0.010 A 
ATOM     31  C   UNL A   1      31.495  27.323  26.764  1.00  0.00     0.002 A 
ATOM     32  C   UNL A   1      32.403  28.343  27.043  1.00  0.00     0.001 A 
ENDBRANCH  19  20
ENDBRANCH  16  19
ENDBRANCH  13  16
ENDBRANCH   7  12
ENDBRANCH   3   6
ENDBRANCH   1   2
BRANCH   1  33
ATOM     33  C   UNL A   1      41.487  20.823  27.132  1.00  0.00     0.042 C 
BRANCH  33  34
ATOM     34  C   UNL A   1      42.411  19.654  26.821  1.00  0.00     0.118 C 
BRANCH  34  35
ATOM     35  N   UNL A   1      43.113  19.742  25.558  1.00  0.00    -0.352 N 
ATOM     36  C   UNL A   1      43.958  20.657  24.997  1.00  0.00     0.251 C 
ATOM     37  H   UNL A   1      42.943  18.969  24.972  1.00  0.00     0.163 HD
ATOM     38  O   UNL A   1      44.559  20.292  23.984  1.00  0.00    -0.269 OA
BRANCH  36  39
ATOM     39  C   UNL A   1      44.114  22.066  25.446  1.00  0.00     0.039 A 
ATOM     40  C   UNL A   1      44.938  22.500  26.483  1.00  0.00     0.014 A 
ATOM     41  C   UNL A   1      43.239  22.992  24.849  1.00  0.00     0.014 A 
ATOM     42  C   UNL A   1      44.744  23.750  27.054  1.00  0.00     0.010 A 
ATOM     43  C   UNL A   1      43.079  24.262  25.376  1.00  0.00     0.010 A 
ATOM     44  C   UNL A   1      43.768  24.599  26.535  1.00  0.00    -0.014 A 
BRANCH  44  45
ATOM     45  C   UNL A   1      43.543  25.874  27.202  1.00  0.00     0.031 A 
ATOM     46  C   UNL A   1      44.557  26.919  26.895  1.00  0.00     0.074 A 
ATOM     47  C   UNL A   1      42.445  26.106  27.949  1.00  0.00     0.049 A 
ATOM     48  N   UNL A   1      45.373  27.507  27.707  1.00  0.00    -0.248 NA
ATOM     49  C   UNL A   1      44.782  27.247  25.479  1.00  0.00     0.031 C 
ATOM     50  C   UNL A   1      41.266  25.252  28.119  1.00  0.00     0.029 A 
ATOM     51  N   UNL A   1      42.112  27.222  28.654  1.00  0.00    -0.354 N 
ATOM     52  C   UNL A   1      46.090  28.421  26.935  1.00  0.00     0.074 A 
ATOM     53  C   UNL A   1      45.804  28.100  25.563  1.00  0.00     0.031 C 
ATOM     54  C   UNL A   1      40.266  25.974  28.672  1.00  0.00     0.029 A 
ATOM     55  C   UNL A   1      40.775  27.289  29.020  1.00  0.00     0.049 A 
ATOM     56  H   UNL A   1      42.765  27.922  28.885  1.00  0.00     0.167 HD
ATOM     57  C   UNL A   1      46.676  29.516  27.497  1.00  0.00     0.037 A 
ATOM     58  C   UNL A   1      40.126  28.374  29.507  1.00  0.00     0.037 A 
ATOM     59  C   UNL A   1      46.846  29.337  28.917  1.00  0.00     0.049 A 
ATOM     60  C   UNL A   1      41.148  29.320  30.018  1.00  0.00     0.074 A 
ATOM     61  C   UNL A   1      47.553  28.462  29.719  1.00  0.00     0.029 A 
ATOM     62  N   UNL A   1      45.945  29.955  29.749  1.00  0.00    -0.354 N 
ATOM     63  N   UNL A   1      41.880  29.087  31.072  1.00  0.00    -0.248 NA
ATOM     64  C   UNL A   1      41.693  30.297  29.086  1.00  0.00     0.031 C 
ATOM     65  C   UNL A   1      46.720  28.251  30.858  1.00  0.00     0.029 A 
ATOM     66  C   UNL A   1      45.586  29.049  30.708  1.00  0.00     0.049 A 
ATOM     67  H   UNL A   1      45.618  30.879  29.669  1.00  0.00     0.167 HD
ATOM     68  C   UNL A   1      43.147  29.540  30.733  1.00  0.00     0.074 A 
ATOM     69  C   UNL A   1      42.953  30.349  29.530  1.00  0.00     0.031 C 
ATOM     70  C   UNL A   1      44.265  28.984  31.284  1.00  0.00     0.037 A 
BRANCH  57  71
ATOM     71  C   UNL A   1      46.686  30.896  26.865  1.00  0.00     0.057 A 
ATOM     72  C   UNL A   1      45.535  31.658  26.583  1.00  0.00     0.134 A 
ATOM     73  C   UNL A   1      47.891  31.627  26.873  1.00  0.00     0.134 A 
ATOM     74  F   UNL A   1      44.310  31.129  26.515  1.00  0.00    -0.206 F 
ATOM     75  C   UNL A   1      45.563  33.048  26.441  1.00  0.00     0.040 A 
ATOM     76  C   UNL A   1      47.924  33.023  26.777  1.00  0.00     0.040 A 
ATOM     77  F   UNL A   1      49.068  31.018  27.082  1.00  0.00    -0.206 F 
ATOM     78  C   UNL A   1      46.752  33.742  26.589  1.00  0.00     0.006 A 
ENDBRANCH  57  71
BRANCH  58  79
ATOM     79  C   UNL A   1      38.718  28.764  29.267  1.00  0.00     0.057 A 
ATOM     80  C   UNL A   1      38.315  29.305  28.031  1.00  0.00     0.134 A 
ATOM     81  C   UNL A   1      37.783  28.850  30.307  1.00  0.00     0.134 A 
ATOM     82  F   UNL A   1      39.165  29.363  26.995  1.00  0.00    -0.206 F 
ATOM     83  C   UNL A   1      37.059  29.884  27.836  1.00  0.00     0.040 A 
ATOM     84  C   UNL A   1      36.521  29.433  30.127  1.00  0.00     0.040 A 
ATOM     85  F   UNL A   1      38.093  28.413  31.537  1.00  0.00    -0.206 F 
ATOM     86  C   UNL A   1      36.157  29.957  28.889  1.00  0.00     0.006 A 
ENDBRANCH  58  79
BRANCH  70  87
ATOM     87  C   UNL A   1      44.076  28.028  32.427  1.00  0.00     0.057 A 
ATOM     88  C   UNL A   1      44.190  28.506  33.735  1.00  0.00     0.134 A 
ATOM     89  C   UNL A   1      43.941  26.640  32.265  1.00  0.00     0.134 A 
ATOM     90  F   UNL A   1      44.385  29.815  33.961  1.00  0.00    -0.206 F 
ATOM     91  C   UNL A   1      44.158  27.648  34.836  1.00  0.00     0.040 A 
ATOM     92  C   UNL A   1      43.876  25.774  33.360  1.00  0.00     0.040 A 
ATOM     93  F   UNL A   1      43.930  26.083  31.049  1.00  0.00    -0.206 F 
ATOM     94  C   UNL A   1      43.991  26.277  34.651  1.00  0.00     0.006 A 
ENDBRANCH  70  87
ENDBRANCH  44  45
ENDBRANCH  36  39
ENDBRANCH  34  35
ENDBRANCH  33  34
ENDBRANCH   1  33
TORSDOF 15
ENDMDL
MODEL 3
REMARK VINA RESULT:     -12.9      2.454      3.802
REMARK SMILES CC[C@@H](Sc1nnc2ccc3ccccc3n12)C(=O)Nc1cccc(C(=O)NCCCNC(=O)c2ccc(-c3c4nc(c(-c5c(F)cccc5F)c5ccc([nH]5)c(-c5c(F)cccc5F)c5nc(c(-c6c(F)cccc6F)c6ccc3[nH]6)C=C5)C=C4)cc2)c1
REMARK SMILES IDX 29 1 28 2 26 3 27 4 25 6 21 7 22 8 89 9 23 10 24 11 20 12
REMARK SMILES IDX 18 13 19 14 3 16 2 17 1 18 4 19 5 20 6 21 17 22 7 23 8 24
REMARK SMILES IDX 16 25 9 26 11 27 15 28 10 29 12 30 14 31 13 32 30 33 31 34
REMARK SMILES IDX 32 35 33 36 34 38 35 39 36 40 88 41 37 42 87 43 38 44 39 45
REMARK SMILES IDX 40 46 81 47 41 48 86 49 80 50 82 51 42 52 85 53 79 54 78 55
REMARK SMILES IDX 43 57 69 58 52 59 68 60 53 61 56 62 67 63 83 64 54 65 55 66
REMARK SMILES IDX 66 68 84 69 57 70 44 71 45 72 50 73 46 74 47 75 49 76 51 77
REMARK SMILES IDX 48 78 70 79 71 80 76 81 72 82 73 83 75 84 77 85 74 86 58 87
REMARK SMILES IDX 59 88 64 89 60 90 61 91 63 92 65 93 62 94
REMARK H PARENT 28 5 20 15 32 37 82 56 56 67
REMARK Flexibility Score: inf
ROOT
ATOM      1  C   UNL A   1      40.021  21.208  26.278  1.00  0.00     0.118 C 
ENDROOT
BRANCH   1   2
ATOM      2  N   UNL A   1      39.584  22.583  26.206  1.00  0.00    -0.352 N 
ATOM      3  C   UNL A   1      38.361  23.187  26.046  1.00  0.00     0.251 C 
ATOM      4  O   UNL A   1      38.349  24.412  26.079  1.00  0.00    -0.269 OA
ATOM      5  H   UNL A   1      40.324  23.228  26.291  1.00  0.00     0.163 HD
BRANCH   3   6
ATOM      6  C   UNL A   1      37.078  22.458  25.803  1.00  0.00     0.041 A 
ATOM      7  C   UNL A   1      34.710  22.066  26.093  1.00  0.00     0.041 A 
ATOM      8  C   UNL A   1      34.799  20.915  25.332  1.00  0.00     0.026 A 
ATOM      9  C   UNL A   1      35.803  22.926  26.120  1.00  0.00     0.040 A 
ATOM     10  C   UNL A   1      36.044  20.444  24.926  1.00  0.00     0.003 A 
ATOM     11  C   UNL A   1      37.186  21.180  25.229  1.00  0.00     0.014 A 
BRANCH   7  12
ATOM     12  N   UNL A   1      33.581  22.421  26.845  1.00  0.00    -0.325 N 
ATOM     13  C   UNL A   1      32.406  23.032  26.467  1.00  0.00     0.237 C 
ATOM     14  O   UNL A   1      31.518  23.046  27.338  1.00  0.00    -0.273 OA
ATOM     15  H   UNL A   1      33.637  22.198  27.802  1.00  0.00     0.169 HD
BRANCH  13  16
ATOM     16  C   UNL A   1      32.053  23.570  25.041  1.00  0.00     0.144 C 
BRANCH  16  17
ATOM     17  C   UNL A   1      31.971  22.484  23.978  1.00  0.00     0.021 C 
ATOM     18  C   UNL A   1      32.745  22.617  22.684  1.00  0.00     0.005 C 
ENDBRANCH  16  17
BRANCH  16  19
ATOM     19  S   UNL A   1      30.680  24.773  25.256  1.00  0.00    -0.072 SA
BRANCH  19  20
ATOM     20  C   UNL A   1      31.281  26.178  26.073  1.00  0.00     0.196 A 
ATOM     21  N   UNL A   1      30.880  26.451  27.299  1.00  0.00    -0.122 NA
ATOM     22  N   UNL A   1      32.184  27.147  25.657  1.00  0.00    -0.270 N 
ATOM     23  N   UNL A   1      31.413  27.652  27.676  1.00  0.00    -0.129 NA
ATOM     24  C   UNL A   1      32.139  28.099  26.677  1.00  0.00     0.161 A 
ATOM     25  C   UNL A   1      32.916  27.365  24.457  1.00  0.00     0.057 A 
ATOM     26  C   UNL A   1      32.780  29.349  26.508  1.00  0.00     0.050 A 
ATOM     27  C   UNL A   1      33.407  28.673  24.255  1.00  0.00    -0.001 A 
ATOM     28  C   UNL A   1      33.078  26.401  23.463  1.00  0.00     0.027 A 
ATOM     29  C   UNL A   1      33.366  29.657  25.343  1.00  0.00     0.014 A 
ATOM     30  C   UNL A   1      33.918  29.035  23.005  1.00  0.00     0.010 A 
ATOM     31  C   UNL A   1      33.579  26.778  22.215  1.00  0.00     0.002 A 
ATOM     32  C   UNL A   1      33.969  28.095  21.976  1.00  0.00     0.001 A 
ENDBRANCH  19  20
ENDBRANCH  16  19
ENDBRANCH  13  16
ENDBRANCH   7  12
ENDBRANCH   3   6
ENDBRANCH   1   2
BRANCH   1  33
ATOM     33  C   UNL A   1      41.059  20.929  27.348  1.00  0.00     0.042 C 
BRANCH  33  34
ATOM     34  C   UNL A   1      41.961  19.725  27.114  1.00  0.00     0.118 C 
BRANCH  34  35
ATOM     35  N   UNL A   1      42.724  19.756  25.885  1.00  0.00    -0.352 N 
ATOM     36  C   UNL A   1      43.629  20.626  25.345  1.00  0.00     0.251 C 
ATOM     37  H   UNL A   1      42.553  18.977  25.309  1.00  0.00     0.163 HD
ATOM     38  O   UNL A   1      44.263  20.215  24.370  1.00  0.00    -0.269 OA
BRANCH  36  39
ATOM     39  C   UNL A   1      43.817  22.038  25.769  1.00  0.00     0.039 A 
ATOM     40  C   UNL A   1      44.569  22.463  26.865  1.00  0.00     0.014 A 
ATOM     41  C   UNL A   1      43.048  22.988  25.073  1.00  0.00     0.014 A 
ATOM     42  C   UNL A   1      44.391  23.738  27.383  1.00  0.00     0.010 A 
ATOM     43  C   UNL A   1      42.908  24.280  25.552  1.00  0.00     0.010 A 
ATOM     44  C   UNL A   1      43.509  24.618  26.758  1.00  0.00    -0.014 A 
BRANCH  44  45
ATOM     45  C   UNL A   1      43.292  25.921  27.369  1.00  0.00     0.031 A 
ATOM     46  C   UNL A   1      44.325  26.939  27.035  1.00  0.00     0.074 A 
ATOM     47  C   UNL A   1      42.188  26.199  28.090  1.00  0.00     0.049 A 
ATOM     48  N   UNL A   1      45.138  27.548  27.836  1.00  0.00    -0.248 NA
ATOM     49  C   UNL A   1      44.576  27.206  25.610  1.00  0.00     0.031 C 
ATOM     50  C   UNL A   1      40.994  25.368  28.276  1.00  0.00     0.029 A 
ATOM     51  N   UNL A   1      41.860  27.347  28.743  1.00  0.00    -0.354 N 
ATOM     52  C   UNL A   1      45.880  28.420  27.038  1.00  0.00     0.074 A 
ATOM     53  C   UNL A   1      45.609  28.047  25.675  1.00  0.00     0.031 C 
ATOM     54  C   UNL A   1      39.996  26.126  28.785  1.00  0.00     0.029 A 
ATOM     55  C   UNL A   1      40.519  27.447  29.086  1.00  0.00     0.049 A 
ATOM     56  H   UNL A   1      42.519  28.046  28.956  1.00  0.00     0.167 HD
ATOM     57  C   UNL A   1      46.473  29.529  27.563  1.00  0.00     0.037 A 
ATOM     58  C   UNL A   1      39.878  28.560  29.519  1.00  0.00     0.037 A 
ATOM     59  C   UNL A   1      46.620  29.406  28.992  1.00  0.00     0.049 A 
ATOM     60  C   UNL A   1      40.906  29.511  30.006  1.00  0.00     0.074 A 
ATOM     61  C   UNL A   1      47.302  28.554  29.839  1.00  0.00     0.029 A 
ATOM     62  N   UNL A   1      45.715  30.069  29.785  1.00  0.00    -0.354 N 
ATOM     63  N   UNL A   1      41.619  29.312  31.080  1.00  0.00    -0.248 NA
ATOM     64  C   UNL A   1      41.479  30.442  29.044  1.00  0.00     0.031 C 
ATOM     65  C   UNL A   1      46.450  28.402  30.973  1.00  0.00     0.029 A 
ATOM     66  C   UNL A   1      45.329  29.208  30.774  1.00  0.00     0.049 A 
ATOM     67  H   UNL A   1      45.403  30.994  29.662  1.00  0.00     0.167 HD
ATOM     68  C   UNL A   1      42.898  29.733  30.742  1.00  0.00     0.074 A 
ATOM     69  C   UNL A   1      42.732  30.496  29.505  1.00  0.00     0.031 C 
ATOM     70  C   UNL A   1      44.000  29.185  31.332  1.00  0.00     0.037 A 
BRANCH  57  71
ATOM     71  C   UNL A   1      46.511  30.882  26.876  1.00  0.00     0.057 A 
ATOM     72  C   UNL A   1      45.376  31.652  26.555  1.00  0.00     0.134 A 
ATOM     73  C   UNL A   1      47.729  31.591  26.863  1.00  0.00     0.134 A 
ATOM     74  F   UNL A   1      44.142  31.143  26.500  1.00  0.00    -0.206 F 
ATOM     75  C   UNL A   1      45.430  33.034  26.357  1.00  0.00     0.040 A 
ATOM     76  C   UNL A   1      47.788  32.982  26.711  1.00  0.00     0.040 A 
ATOM     77  F   UNL A   1      48.894  30.971  27.105  1.00  0.00    -0.206 F 
ATOM     78  C   UNL A   1      46.630  33.712  26.485  1.00  0.00     0.006 A 
ENDBRANCH  57  71
BRANCH  58  79
ATOM     79  C   UNL A   1      38.480  28.959  29.243  1.00  0.00     0.057 A 
ATOM     80  C   UNL A   1      38.108  29.475  27.986  1.00  0.00     0.134 A 
ATOM     81  C   UNL A   1      37.526  29.078  30.261  1.00  0.00     0.134 A 
ATOM     82  F   UNL A   1      38.977  29.500  26.966  1.00  0.00    -0.206 F 
ATOM     83  C   UNL A   1      36.861  30.063  27.753  1.00  0.00     0.040 A 
ATOM     84  C   UNL A   1      36.273  29.670  30.043  1.00  0.00     0.040 A 
ATOM     85  F   UNL A   1      37.806  28.667  31.507  1.00  0.00    -0.206 F 
ATOM     86  C   UNL A   1      35.940  30.170  28.786  1.00  0.00     0.006 A 
ENDBRANCH  58  79
BRANCH  70  87
ATOM     87  C   UNL A   1      43.780  28.279  32.510  1.00  0.00     0.057 A 
ATOM     88  C   UNL A   1      43.828  28.819  33.797  1.00  0.00     0.134 A 
ATOM     89  C   UNL A   1      43.679  26.883  32.408  1.00  0.00     0.134 A 
ATOM     90  F   UNL A   1      43.988  30.141  33.970  1.00  0.00    -0.206 F 
ATOM     91  C   UNL A   1      43.767  28.013  34.936  1.00  0.00     0.040 A 
ATOM     92  C   UNL A   1      43.584  26.067  33.539  1.00  0.00     0.040 A 
ATOM     93  F   UNL A   1      43.731  26.269  31.220  1.00  0.00    -0.206 F 
ATOM     94  C   UNL A   1      43.634  26.632  34.808  1.00  0.00     0.006 A 
ENDBRANCH  70  87
ENDBRANCH  44  45
ENDBRANCH  36  39
ENDBRANCH  34  35
ENDBRANCH  33  34
ENDBRANCH   1  33
TORSDOF 15
ENDMDL
