MODEL 1
REMARK VINA RESULT:     -13.2      0.000      0.000
REMARK SMILES CS(=O)(=O)c1ccc(C2=NN(c3ccc(C(=O)NCCCNC(=O)c4ccc(-c5c6nc(c(-c7c(F)cccc7F)c7ccc([nH]7)c(-c7c(F)cccc7F)c7nc(c(-c8c(F)cccc8F)c8ccc5[nH]8)C=C7)C=C6)cc4)cc3)[C@H](c3ccccc3)C2)cc1
REMARK SMILES IDX 19 1 18 2 16 3 17 4 15 6 12 7 13 8 80 9 14 10 79 11 11 12
REMARK SMILES IDX 9 13 10 14 88 15 81 16 8 17 5 18 6 19 90 20 7 21 89 22 2 23
REMARK SMILES IDX 1 24 3 25 4 26 82 27 83 28 87 29 84 30 86 31 85 32 20 33
REMARK SMILES IDX 21 34 22 35 23 36 24 38 25 39 26 40 78 41 27 42 77 43 28 44
REMARK SMILES IDX 29 45 30 46 71 47 31 48 76 49 70 50 72 51 32 52 75 53 69 54
REMARK SMILES IDX 68 55 33 57 59 58 42 59 58 60 43 61 46 62 57 63 73 64 44 65
REMARK SMILES IDX 45 66 56 68 74 69 47 70 34 71 35 72 40 73 36 74 37 75 39 76
REMARK SMILES IDX 41 77 38 78 60 79 61 80 66 81 62 82 63 83 65 84 67 85 64 86
REMARK SMILES IDX 48 87 49 88 54 89 50 90 51 91 53 92 55 93 52 94
REMARK H PARENT 18 5 22 37 72 56 46 67
REMARK Flexibility Score: inf
ROOT
ATOM      1  C   UNL A   1      33.238  31.717  27.544  1.00  0.00     0.118 C 
ENDROOT
BRANCH   1   2
ATOM      2  N   UNL A   1      34.352  30.957  28.085  1.00  0.00    -0.352 N 
ATOM      3  C   UNL A   1      34.786  29.679  27.830  1.00  0.00     0.251 C 
ATOM      4  O   UNL A   1      35.826  29.298  28.366  1.00  0.00    -0.269 OA
ATOM      5  H   UNL A   1      34.891  31.444  28.749  1.00  0.00     0.163 HD
BRANCH   3   6
ATOM      6  C   UNL A   1      34.080  28.782  26.879  1.00  0.00     0.039 A 
ATOM      7  C   UNL A   1      32.784  26.902  25.232  1.00  0.00     0.060 A 
ATOM      8  C   UNL A   1      32.322  27.143  26.529  1.00  0.00     0.029 A 
ATOM      9  C   UNL A   1      33.834  27.681  24.742  1.00  0.00     0.029 A 
ATOM     10  C   UNL A   1      32.965  28.078  27.350  1.00  0.00     0.016 A 
ATOM     11  C   UNL A   1      34.465  28.623  25.548  1.00  0.00     0.016 A 
BRANCH   7  12
ATOM     12  N   UNL A   1      32.238  25.922  24.427  1.00  0.00    -0.257 N 
ATOM     13  C   UNL A   1      32.152  23.947  23.672  1.00  0.00     0.071 C 
ATOM     14  N   UNL A   1      32.458  24.626  24.730  1.00  0.00    -0.176 NA
ATOM     15  C   UNL A   1      31.750  24.753  22.466  1.00  0.00     0.091 C 
ATOM     16  C   UNL A   1      31.692  26.163  23.087  1.00  0.00     0.144 C 
BRANCH  13  17
ATOM     17  C   UNL A   1      32.212  22.479  23.656  1.00  0.00    -0.002 A 
ATOM     18  C   UNL A   1      32.489  19.715  23.681  1.00  0.00     0.067 A 
ATOM     19  C   UNL A   1      32.692  20.440  24.859  1.00  0.00     0.021 A 
ATOM     20  C   UNL A   1      32.146  20.366  22.490  1.00  0.00     0.021 A 
ATOM     21  C   UNL A   1      32.568  21.826  24.841  1.00  0.00     0.011 A 
ATOM     22  C   UNL A   1      31.996  21.758  22.481  1.00  0.00     0.011 A 
BRANCH  18  23
ATOM     23  S   UNL A   1      32.685  17.949  23.740  1.00  0.00     0.175 S 
ATOM     24  C   UNL A   1      34.361  17.655  24.232  1.00  0.00     0.163 C 
ATOM     25  O   UNL A   1      32.561  17.468  22.375  1.00  0.00    -0.224 OA
ATOM     26  O   UNL A   1      31.813  17.469  24.790  1.00  0.00    -0.224 OA
ENDBRANCH  18  23
ENDBRANCH  13  17
BRANCH  16  27
ATOM     27  C   UNL A   1      30.332  26.856  23.170  1.00  0.00    -0.023 A 
ATOM     28  C   UNL A   1      29.207  26.318  23.813  1.00  0.00     0.006 A 
ATOM     29  C   UNL A   1      30.200  28.140  22.599  1.00  0.00     0.006 A 
ATOM     30  C   UNL A   1      28.003  27.030  23.874  1.00  0.00     0.000 A 
ATOM     31  C   UNL A   1      29.009  28.864  22.688  1.00  0.00     0.000 A 
ATOM     32  C   UNL A   1      27.906  28.305  23.322  1.00  0.00     0.000 A 
ENDBRANCH  16  27
ENDBRANCH   7  12
ENDBRANCH   3   6
ENDBRANCH   1   2
BRANCH   1  33
ATOM     33  C   UNL A   1      33.306  33.180  27.978  1.00  0.00     0.042 C 
BRANCH  33  34
ATOM     34  C   UNL A   1      34.553  33.507  28.790  1.00  0.00     0.118 C 
BRANCH  34  35
ATOM     35  N   UNL A   1      34.343  33.296  30.215  1.00  0.00    -0.352 N 
ATOM     36  C   UNL A   1      35.044  32.524  31.104  1.00  0.00     0.251 C 
ATOM     37  H   UNL A   1      33.580  33.785  30.600  1.00  0.00     0.163 HD
ATOM     38  O   UNL A   1      34.567  32.291  32.212  1.00  0.00    -0.269 OA
BRANCH  36  39
ATOM     39  C   UNL A   1      36.364  31.964  30.739  1.00  0.00     0.039 A 
ATOM     40  C   UNL A   1      36.990  31.084  31.627  1.00  0.00     0.014 A 
ATOM     41  C   UNL A   1      37.008  32.337  29.557  1.00  0.00     0.014 A 
ATOM     42  C   UNL A   1      38.237  30.545  31.308  1.00  0.00     0.010 A 
ATOM     43  C   UNL A   1      38.211  31.735  29.200  1.00  0.00     0.010 A 
ATOM     44  C   UNL A   1      38.847  30.845  30.078  1.00  0.00    -0.014 A 
BRANCH  44  45
ATOM     45  C   UNL A   1      40.155  30.251  29.704  1.00  0.00     0.031 A 
ATOM     46  C   UNL A   1      41.406  31.083  29.758  1.00  0.00     0.074 A 
ATOM     47  C   UNL A   1      40.207  28.979  29.265  1.00  0.00     0.049 A 
ATOM     48  N   UNL A   1      42.628  30.764  29.416  1.00  0.00    -0.248 NA
ATOM     49  C   UNL A   1      41.262  32.469  30.235  1.00  0.00     0.031 C 
ATOM     50  C   UNL A   1      39.057  28.083  29.128  1.00  0.00     0.029 A 
ATOM     51  N   UNL A   1      41.270  28.220  28.846  1.00  0.00    -0.354 N 
ATOM     52  C   UNL A   1      43.391  31.907  29.623  1.00  0.00     0.074 A 
ATOM     53  C   UNL A   1      42.487  32.945  30.064  1.00  0.00     0.031 C 
ATOM     54  C   UNL A   1      39.480  26.890  28.682  1.00  0.00     0.029 A 
ATOM     55  C   UNL A   1      40.921  26.949  28.458  1.00  0.00     0.049 A 
ATOM     56  H   UNL A   1      42.196  28.555  28.824  1.00  0.00     0.167 HD
ATOM     57  C   UNL A   1      44.728  32.069  29.482  1.00  0.00     0.037 A 
ATOM     58  C   UNL A   1      41.675  25.948  27.968  1.00  0.00     0.037 A 
ATOM     59  C   UNL A   1      45.628  31.027  29.059  1.00  0.00     0.049 A 
ATOM     60  C   UNL A   1      43.155  26.162  27.799  1.00  0.00     0.074 A 
ATOM     61  C   UNL A   1      47.004  31.075  28.937  1.00  0.00     0.029 A 
ATOM     62  N   UNL A   1      45.236  29.751  28.682  1.00  0.00    -0.354 N 
ATOM     63  N   UNL A   1      43.874  27.225  28.066  1.00  0.00    -0.248 NA
ATOM     64  C   UNL A   1      43.929  25.033  27.264  1.00  0.00     0.031 C 
ATOM     65  C   UNL A   1      47.441  29.846  28.433  1.00  0.00     0.029 A 
ATOM     66  C   UNL A   1      46.343  29.012  28.300  1.00  0.00     0.049 A 
ATOM     67  H   UNL A   1      44.308  29.420  28.685  1.00  0.00     0.167 HD
ATOM     68  C   UNL A   1      45.186  26.885  27.764  1.00  0.00     0.074 A 
ATOM     69  C   UNL A   1      45.165  25.510  27.308  1.00  0.00     0.031 C 
ATOM     70  C   UNL A   1      46.308  27.641  27.855  1.00  0.00     0.037 A 
BRANCH  57  71
ATOM     71  C   UNL A   1      45.299  33.425  29.788  1.00  0.00     0.057 A 
ATOM     72  C   UNL A   1      45.802  33.750  31.055  1.00  0.00     0.134 A 
ATOM     73  C   UNL A   1      45.378  34.409  28.793  1.00  0.00     0.134 A 
ATOM     74  F   UNL A   1      45.748  32.860  32.057  1.00  0.00    -0.206 F 
ATOM     75  C   UNL A   1      46.334  35.012  31.330  1.00  0.00     0.040 A 
ATOM     76  C   UNL A   1      45.937  35.663  29.048  1.00  0.00     0.040 A 
ATOM     77  F   UNL A   1      44.924  34.165  27.555  1.00  0.00    -0.206 F 
ATOM     78  C   UNL A   1      46.409  35.970  30.323  1.00  0.00     0.006 A 
ENDBRANCH  57  71
BRANCH  58  79
ATOM     79  C   UNL A   1      41.051  24.647  27.614  1.00  0.00     0.057 A 
ATOM     80  C   UNL A   1      41.339  23.485  28.341  1.00  0.00     0.134 A 
ATOM     81  C   UNL A   1      40.166  24.528  26.537  1.00  0.00     0.134 A 
ATOM     82  F   UNL A   1      42.193  23.531  29.375  1.00  0.00    -0.206 F 
ATOM     83  C   UNL A   1      40.789  22.250  27.996  1.00  0.00     0.040 A 
ATOM     84  C   UNL A   1      39.585  23.305  26.199  1.00  0.00     0.040 A 
ATOM     85  F   UNL A   1      39.841  25.604  25.805  1.00  0.00    -0.206 F 
ATOM     86  C   UNL A   1      39.904  22.159  26.924  1.00  0.00     0.006 A 
ENDBRANCH  58  79
BRANCH  70  87
ATOM     87  C   UNL A   1      47.611  26.988  27.495  1.00  0.00     0.057 A 
ATOM     88  C   UNL A   1      48.160  27.082  26.210  1.00  0.00     0.134 A 
ATOM     89  C   UNL A   1      48.347  26.289  28.462  1.00  0.00     0.134 A 
ATOM     90  F   UNL A   1      47.501  27.725  25.234  1.00  0.00    -0.206 F 
ATOM     91  C   UNL A   1      49.380  26.483  25.892  1.00  0.00     0.040 A 
ATOM     92  C   UNL A   1      49.583  25.714  28.165  1.00  0.00     0.040 A 
ATOM     93  F   UNL A   1      47.884  26.170  29.715  1.00  0.00    -0.206 F 
ATOM     94  C   UNL A   1      50.099  25.803  26.875  1.00  0.00     0.006 A 
ENDBRANCH  70  87
ENDBRANCH  44  45
ENDBRANCH  36  39
ENDBRANCH  34  35
ENDBRANCH  33  34
ENDBRANCH   1  33
TORSDOF 14
ENDMDL
MODEL 2
REMARK VINA RESULT:     -13.1      3.094      3.910
REMARK SMILES CS(=O)(=O)c1ccc(C2=NN(c3ccc(C(=O)NCCCNC(=O)c4ccc(-c5c6nc(c(-c7c(F)cccc7F)c7ccc([nH]7)c(-c7c(F)cccc7F)c7nc(c(-c8c(F)cccc8F)c8ccc5[nH]8)C=C7)C=C6)cc4)cc3)[C@H](c3ccccc3)C2)cc1
REMARK SMILES IDX 19 1 18 2 16 3 17 4 15 6 12 7 13 8 80 9 14 10 79 11 11 12
REMARK SMILES IDX 9 13 10 14 88 15 81 16 8 17 5 18 6 19 90 20 7 21 89 22 2 23
REMARK SMILES IDX 1 24 3 25 4 26 82 27 83 28 87 29 84 30 86 31 85 32 20 33
REMARK SMILES IDX 21 34 22 35 23 36 24 38 25 39 26 40 78 41 27 42 77 43 28 44
REMARK SMILES IDX 29 45 30 46 71 47 31 48 76 49 70 50 72 51 32 52 75 53 69 54
REMARK SMILES IDX 68 55 33 57 59 58 42 59 58 60 43 61 46 62 57 63 73 64 44 65
REMARK SMILES IDX 45 66 56 68 74 69 47 70 34 71 35 72 40 73 36 74 37 75 39 76
REMARK SMILES IDX 41 77 38 78 60 79 61 80 66 81 62 82 63 83 65 84 67 85 64 86
REMARK SMILES IDX 48 87 49 88 54 89 50 90 51 91 53 92 55 93 52 94
REMARK H PARENT 18 5 22 37 72 56 46 67
REMARK Flexibility Score: inf
ROOT
ATOM      1  C   UNL A   1      32.676  32.127  27.346  1.00  0.00     0.118 C 
ENDROOT
BRANCH   1   2
ATOM      2  N   UNL A   1      33.809  31.464  27.970  1.00  0.00    -0.352 N 
ATOM      3  C   UNL A   1      34.323  30.201  27.804  1.00  0.00     0.251 C 
ATOM      4  O   UNL A   1      35.360  29.910  28.398  1.00  0.00    -0.269 OA
ATOM      5  H   UNL A   1      34.293  32.017  28.625  1.00  0.00     0.163 HD
BRANCH   3   6
ATOM      6  C   UNL A   1      33.705  29.213  26.881  1.00  0.00     0.039 A 
ATOM      7  C   UNL A   1      32.569  27.178  25.304  1.00  0.00     0.060 A 
ATOM      8  C   UNL A   1      32.004  27.515  26.537  1.00  0.00     0.029 A 
ATOM      9  C   UNL A   1      33.641  27.935  24.831  1.00  0.00     0.029 A 
ATOM     10  C   UNL A   1      32.567  28.528  27.323  1.00  0.00     0.016 A 
ATOM     11  C   UNL A   1      34.195  28.954  25.601  1.00  0.00     0.016 A 
BRANCH   7  12
ATOM     12  N   UNL A   1      32.101  26.123  24.544  1.00  0.00    -0.257 N 
ATOM     13  C   UNL A   1      32.186  24.124  23.858  1.00  0.00     0.071 C 
ATOM     14  N   UNL A   1      32.447  24.865  24.885  1.00  0.00    -0.176 NA
ATOM     15  C   UNL A   1      31.686  24.846  22.636  1.00  0.00     0.091 C 
ATOM     16  C   UNL A   1      31.508  26.264  23.210  1.00  0.00     0.144 C 
BRANCH  13  17
ATOM     17  C   UNL A   1      32.383  22.668  23.889  1.00  0.00    -0.002 A 
ATOM     18  C   UNL A   1      32.591  19.897  23.891  1.00  0.00     0.067 A 
ATOM     19  C   UNL A   1      32.260  20.564  22.707  1.00  0.00     0.021 A 
ATOM     20  C   UNL A   1      32.820  20.611  25.074  1.00  0.00     0.021 A 
ATOM     21  C   UNL A   1      32.141  21.951  22.711  1.00  0.00     0.011 A 
ATOM     22  C   UNL A   1      32.727  22.007  25.069  1.00  0.00     0.011 A 
BRANCH  18  23
ATOM     23  S   UNL A   1      32.705  18.124  23.850  1.00  0.00     0.175 S 
ATOM     24  C   UNL A   1      34.402  17.731  24.172  1.00  0.00     0.163 C 
ATOM     25  O   UNL A   1      32.436  17.719  22.481  1.00  0.00    -0.224 OA
ATOM     26  O   UNL A   1      31.907  17.631  24.952  1.00  0.00    -0.224 OA
ENDBRANCH  18  23
ENDBRANCH  13  17
BRANCH  16  27
ATOM     27  C   UNL A   1      30.091  26.830  23.301  1.00  0.00    -0.023 A 
ATOM     28  C   UNL A   1      29.009  26.164  23.896  1.00  0.00     0.006 A 
ATOM     29  C   UNL A   1      29.854  28.126  22.792  1.00  0.00     0.006 A 
ATOM     30  C   UNL A   1      27.745  26.763  23.970  1.00  0.00     0.000 A 
ATOM     31  C   UNL A   1      28.602  28.737  22.895  1.00  0.00     0.000 A 
ATOM     32  C   UNL A   1      27.544  28.051  23.479  1.00  0.00     0.000 A 
ENDBRANCH  16  27
ENDBRANCH   7  12
ENDBRANCH   3   6
ENDBRANCH   1   2
BRANCH   1  33
ATOM     33  C   UNL A   1      32.620  33.603  27.735  1.00  0.00     0.042 C 
BRANCH  33  34
ATOM     34  C   UNL A   1      33.812  34.049  28.573  1.00  0.00     0.118 C 
BRANCH  34  35
ATOM     35  N   UNL A   1      33.400  34.581  29.863  1.00  0.00    -0.352 N 
ATOM     36  C   UNL A   1      33.871  34.305  31.121  1.00  0.00     0.251 C 
ATOM     37  H   UNL A   1      32.671  35.241  29.828  1.00  0.00     0.163 HD
ATOM     38  O   UNL A   1      33.232  34.678  32.102  1.00  0.00    -0.269 OA
BRANCH  36  39
ATOM     39  C   UNL A   1      35.134  33.558  31.307  1.00  0.00     0.039 A 
ATOM     40  C   UNL A   1      35.116  32.386  32.068  1.00  0.00     0.014 A 
ATOM     41  C   UNL A   1      36.339  34.028  30.778  1.00  0.00     0.014 A 
ATOM     42  C   UNL A   1      36.296  31.665  32.262  1.00  0.00     0.010 A 
ATOM     43  C   UNL A   1      37.496  33.266  30.899  1.00  0.00     0.010 A 
ATOM     44  C   UNL A   1      37.492  32.084  31.655  1.00  0.00    -0.014 A 
BRANCH  44  45
ATOM     45  C   UNL A   1      38.748  31.310  31.817  1.00  0.00     0.031 A 
ATOM     46  C   UNL A   1      39.744  31.696  32.875  1.00  0.00     0.074 A 
ATOM     47  C   UNL A   1      39.014  30.292  30.976  1.00  0.00     0.049 A 
ATOM     48  N   UNL A   1      40.920  31.183  33.133  1.00  0.00    -0.248 NA
ATOM     49  C   UNL A   1      39.383  32.829  33.744  1.00  0.00     0.031 C 
ATOM     50  C   UNL A   1      38.147  29.847  29.883  1.00  0.00     0.029 A 
ATOM     51  N   UNL A   1      40.096  29.451  30.904  1.00  0.00    -0.354 N 
ATOM     52  C   UNL A   1      41.441  31.934  34.179  1.00  0.00     0.074 A 
ATOM     53  C   UNL A   1      40.482  32.976  34.470  1.00  0.00     0.031 C 
ATOM     54  C   UNL A   1      38.720  28.801  29.267  1.00  0.00     0.029 A 
ATOM     55  C   UNL A   1      40.011  28.529  29.890  1.00  0.00     0.049 A 
ATOM     56  H   UNL A   1      40.862  29.505  31.521  1.00  0.00     0.167 HD
ATOM     57  C   UNL A   1      42.603  31.757  34.852  1.00  0.00     0.037 A 
ATOM     58  C   UNL A   1      40.880  27.578  29.499  1.00  0.00     0.037 A 
ATOM     59  C   UNL A   1      43.547  30.708  34.569  1.00  0.00     0.049 A 
ATOM     60  C   UNL A   1      42.175  27.417  30.249  1.00  0.00     0.074 A 
ATOM     61  C   UNL A   1      44.727  30.410  35.227  1.00  0.00     0.029 A 
ATOM     62  N   UNL A   1      43.422  29.789  33.537  1.00  0.00    -0.354 N 
ATOM     63  N   UNL A   1      42.623  28.090  31.281  1.00  0.00    -0.248 NA
ATOM     64  C   UNL A   1      43.083  26.361  29.781  1.00  0.00     0.031 C 
ATOM     65  C   UNL A   1      45.343  29.347  34.560  1.00  0.00     0.029 A 
ATOM     66  C   UNL A   1      44.516  28.941  33.524  1.00  0.00     0.049 A 
ATOM     67  H   UNL A   1      42.665  29.746  32.907  1.00  0.00     0.167 HD
ATOM     68  C   UNL A   1      43.846  27.519  31.606  1.00  0.00     0.074 A 
ATOM     69  C   UNL A   1      44.062  26.435  30.670  1.00  0.00     0.031 C 
ATOM     70  C   UNL A   1      44.714  27.861  32.591  1.00  0.00     0.037 A 
BRANCH  57  71
ATOM     71  C   UNL A   1      42.918  32.722  35.960  1.00  0.00     0.057 A 
ATOM     72  C   UNL A   1      42.494  32.503  37.277  1.00  0.00     0.134 A 
ATOM     73  C   UNL A   1      43.683  33.870  35.714  1.00  0.00     0.134 A 
ATOM     74  F   UNL A   1      41.749  31.430  37.583  1.00  0.00    -0.206 F 
ATOM     75  C   UNL A   1      42.793  33.402  38.302  1.00  0.00     0.040 A 
ATOM     76  C   UNL A   1      44.016  34.760  36.736  1.00  0.00     0.040 A 
ATOM     77  F   UNL A   1      44.130  34.139  34.478  1.00  0.00    -0.206 F 
ATOM     78  C   UNL A   1      43.563  34.532  38.034  1.00  0.00     0.006 A 
ENDBRANCH  57  71
BRANCH  58  79
ATOM     79  C   UNL A   1      40.553  26.693  28.351  1.00  0.00     0.057 A 
ATOM     80  C   UNL A   1      41.190  26.847  27.114  1.00  0.00     0.134 A 
ATOM     81  C   UNL A   1      39.588  25.685  28.457  1.00  0.00     0.134 A 
ATOM     82  F   UNL A   1      42.112  27.807  26.945  1.00  0.00    -0.206 F 
ATOM     83  C   UNL A   1      40.865  26.048  26.018  1.00  0.00     0.040 A 
ATOM     84  C   UNL A   1      39.273  24.858  27.377  1.00  0.00     0.040 A 
ATOM     85  F   UNL A   1      38.947  25.479  29.616  1.00  0.00    -0.206 F 
ATOM     86  C   UNL A   1      39.906  25.045  26.150  1.00  0.00     0.006 A 
ENDBRANCH  58  79
BRANCH  70  87
ATOM     87  C   UNL A   1      45.956  27.029  32.734  1.00  0.00     0.057 A 
ATOM     88  C   UNL A   1      45.986  25.866  33.514  1.00  0.00     0.134 A 
ATOM     89  C   UNL A   1      47.127  27.376  32.046  1.00  0.00     0.134 A 
ATOM     90  F   UNL A   1      44.904  25.484  34.209  1.00  0.00    -0.206 F 
ATOM     91  C   UNL A   1      47.143  25.092  33.625  1.00  0.00     0.040 A 
ATOM     92  C   UNL A   1      48.279  26.593  32.124  1.00  0.00     0.040 A 
ATOM     93  F   UNL A   1      47.164  28.471  31.273  1.00  0.00    -0.206 F 
ATOM     94  C   UNL A   1      48.292  25.452  32.922  1.00  0.00     0.006 A 
ENDBRANCH  70  87
ENDBRANCH  44  45
ENDBRANCH  36  39
ENDBRANCH  34  35
ENDBRANCH  33  34
ENDBRANCH   1  33
TORSDOF 14
ENDMDL
MODEL 3
REMARK VINA RESULT:     -13.1      5.248      8.889
REMARK SMILES CS(=O)(=O)c1ccc(C2=NN(c3ccc(C(=O)NCCCNC(=O)c4ccc(-c5c6nc(c(-c7c(F)cccc7F)c7ccc([nH]7)c(-c7c(F)cccc7F)c7nc(c(-c8c(F)cccc8F)c8ccc5[nH]8)C=C7)C=C6)cc4)cc3)[C@H](c3ccccc3)C2)cc1
REMARK SMILES IDX 19 1 18 2 16 3 17 4 15 6 12 7 13 8 80 9 14 10 79 11 11 12
REMARK SMILES IDX 9 13 10 14 88 15 81 16 8 17 5 18 6 19 90 20 7 21 89 22 2 23
REMARK SMILES IDX 1 24 3 25 4 26 82 27 83 28 87 29 84 30 86 31 85 32 20 33
REMARK SMILES IDX 21 34 22 35 23 36 24 38 25 39 26 40 78 41 27 42 77 43 28 44
REMARK SMILES IDX 29 45 30 46 71 47 31 48 76 49 70 50 72 51 32 52 75 53 69 54
REMARK SMILES IDX 68 55 33 57 59 58 42 59 58 60 43 61 46 62 57 63 73 64 44 65
REMARK SMILES IDX 45 66 56 68 74 69 47 70 34 71 35 72 40 73 36 74 37 75 39 76
REMARK SMILES IDX 41 77 38 78 60 79 61 80 66 81 62 82 63 83 65 84 67 85 64 86
REMARK SMILES IDX 48 87 49 88 54 89 50 90 51 91 53 92 55 93 52 94
REMARK H PARENT 18 5 22 37 72 56 46 67
REMARK Flexibility Score: inf
ROOT
ATOM      1  C   UNL A   1      34.557  34.601  30.748  1.00  0.00     0.118 C 
ENDROOT
BRANCH   1   2
ATOM      2  N   UNL A   1      33.699  33.984  31.745  1.00  0.00    -0.352 N 
ATOM      3  C   UNL A   1      33.997  33.250  32.867  1.00  0.00     0.251 C 
ATOM      4  O   UNL A   1      33.073  32.910  33.605  1.00  0.00    -0.269 OA
ATOM      5  H   UNL A   1      32.735  34.117  31.591  1.00  0.00     0.163 HD
BRANCH   3   6
ATOM      6  C   UNL A   1      35.396  32.920  33.244  1.00  0.00     0.039 A 
ATOM      7  C   UNL A   1      37.970  32.074  34.009  1.00  0.00     0.060 A 
ATOM      8  C   UNL A   1      37.307  31.452  32.946  1.00  0.00     0.029 A 
ATOM      9  C   UNL A   1      37.371  33.180  34.613  1.00  0.00     0.029 A 
ATOM     10  C   UNL A   1      36.028  31.872  32.564  1.00  0.00     0.016 A 
ATOM     11  C   UNL A   1      36.106  33.612  34.225  1.00  0.00     0.016 A 
BRANCH   7  12
ATOM     12  N   UNL A   1      39.190  31.628  34.477  1.00  0.00    -0.257 N 
ATOM     13  C   UNL A   1      40.570  30.097  34.954  1.00  0.00     0.071 C 
ATOM     14  N   UNL A   1      39.612  30.392  34.138  1.00  0.00    -0.176 NA
ATOM     15  C   UNL A   1      40.859  31.114  36.026  1.00  0.00     0.091 C 
ATOM     16  C   UNL A   1      39.939  32.262  35.568  1.00  0.00     0.144 C 
BRANCH  13  17
ATOM     17  C   UNL A   1      41.316  28.836  34.842  1.00  0.00    -0.002 A 
ATOM     18  C   UNL A   1      42.838  26.513  34.749  1.00  0.00     0.067 A 
ATOM     19  C   UNL A   1      42.285  26.928  35.964  1.00  0.00     0.021 A 
ATOM     20  C   UNL A   1      42.632  27.255  33.579  1.00  0.00     0.021 A 
ATOM     21  C   UNL A   1      41.535  28.100  36.012  1.00  0.00     0.011 A 
ATOM     22  C   UNL A   1      41.856  28.418  33.624  1.00  0.00     0.011 A 
BRANCH  18  23
ATOM     23  S   UNL A   1      43.812  25.026  34.736  1.00  0.00     0.175 S 
ATOM     24  C   UNL A   1      42.699  23.704  35.123  1.00  0.00     0.163 C 
ATOM     25  O   UNL A   1      44.743  25.126  35.847  1.00  0.00    -0.224 OA
ATOM     26  O   UNL A   1      44.277  24.846  33.378  1.00  0.00    -0.224 OA
ENDBRANCH  18  23
ENDBRANCH  13  17
BRANCH  16  27
ATOM     27  C   UNL A   1      40.591  33.562  35.098  1.00  0.00    -0.023 A 
ATOM     28  C   UNL A   1      40.828  33.887  33.754  1.00  0.00     0.006 A 
ATOM     29  C   UNL A   1      40.944  34.523  36.070  1.00  0.00     0.006 A 
ATOM     30  C   UNL A   1      41.402  35.115  33.400  1.00  0.00     0.000 A 
ATOM     31  C   UNL A   1      41.486  35.760  35.715  1.00  0.00     0.000 A 
ATOM     32  C   UNL A   1      41.722  36.054  34.378  1.00  0.00     0.000 A 
ENDBRANCH  16  27
ENDBRANCH   7  12
ENDBRANCH   3   6
ENDBRANCH   1   2
BRANCH   1  33
ATOM     33  C   UNL A   1      34.348  33.966  29.374  1.00  0.00     0.042 C 
BRANCH  33  34
ATOM     34  C   UNL A   1      35.251  32.764  29.124  1.00  0.00     0.118 C 
BRANCH  34  35
ATOM     35  N   UNL A   1      34.492  31.587  28.731  1.00  0.00    -0.352 N 
ATOM     36  C   UNL A   1      34.926  30.337  28.376  1.00  0.00     0.251 C 
ATOM     37  H   UNL A   1      33.515  31.708  28.718  1.00  0.00     0.163 HD
ATOM     38  O   UNL A   1      34.144  29.551  27.847  1.00  0.00    -0.269 OA
BRANCH  36  39
ATOM     39  C   UNL A   1      36.328  29.928  28.617  1.00  0.00     0.039 A 
ATOM     40  C   UNL A   1      36.656  29.347  29.845  1.00  0.00     0.014 A 
ATOM     41  C   UNL A   1      37.324  30.158  27.666  1.00  0.00     0.014 A 
ATOM     42  C   UNL A   1      37.972  28.957  30.099  1.00  0.00     0.010 A 
ATOM     43  C   UNL A   1      38.617  29.692  27.885  1.00  0.00     0.010 A 
ATOM     44  C   UNL A   1      38.959  29.101  29.110  1.00  0.00    -0.014 A 
BRANCH  44  45
ATOM     45  C   UNL A   1      40.356  28.655  29.346  1.00  0.00     0.031 A 
ATOM     46  C   UNL A   1      41.307  29.528  30.118  1.00  0.00     0.074 A 
ATOM     47  C   UNL A   1      40.780  27.490  28.821  1.00  0.00     0.049 A 
ATOM     48  N   UNL A   1      42.576  29.342  30.378  1.00  0.00    -0.248 NA
ATOM     49  C   UNL A   1      40.768  30.792  30.647  1.00  0.00     0.031 C 
ATOM     50  C   UNL A   1      39.965  26.576  28.019  1.00  0.00     0.029 A 
ATOM     51  N   UNL A   1      42.007  26.879  28.877  1.00  0.00    -0.354 N 
ATOM     52  C   UNL A   1      42.987  30.465  31.085  1.00  0.00     0.074 A 
ATOM     53  C   UNL A   1      41.850  31.355  31.163  1.00  0.00     0.031 C 
ATOM     54  C   UNL A   1      40.707  25.510  27.680  1.00  0.00     0.029 A 
ATOM     55  C   UNL A   1      42.059  25.685  28.200  1.00  0.00     0.049 A 
ATOM     56  H   UNL A   1      42.778  27.261  29.357  1.00  0.00     0.167 HD
ATOM     57  C   UNL A   1      44.196  30.721  31.640  1.00  0.00     0.037 A 
ATOM     58  C   UNL A   1      43.083  24.832  28.010  1.00  0.00     0.037 A 
ATOM     59  C   UNL A   1      45.320  29.823  31.573  1.00  0.00     0.049 A 
ATOM     60  C   UNL A   1      44.422  25.151  28.618  1.00  0.00     0.074 A 
ATOM     61  C   UNL A   1      46.570  29.965  32.148  1.00  0.00     0.029 A 
ATOM     62  N   UNL A   1      45.331  28.620  30.884  1.00  0.00    -0.354 N 
ATOM     63  N   UNL A   1      44.778  26.183  29.344  1.00  0.00    -0.248 NA
ATOM     64  C   UNL A   1      45.502  24.183  28.382  1.00  0.00     0.031 C 
ATOM     65  C   UNL A   1      47.355  28.875  31.761  1.00  0.00     0.029 A 
ATOM     66  C   UNL A   1      46.575  28.023  30.995  1.00  0.00     0.049 A 
ATOM     67  H   UNL A   1      44.566  28.246  30.388  1.00  0.00     0.167 HD
ATOM     68  C   UNL A   1      46.109  25.973  29.679  1.00  0.00     0.074 A 
ATOM     69  C   UNL A   1      46.493  24.707  29.089  1.00  0.00     0.031 C 
ATOM     70  C   UNL A   1      46.940  26.758  30.409  1.00  0.00     0.037 A 
BRANCH  57  71
ATOM     71  C   UNL A   1      44.365  32.025  32.366  1.00  0.00     0.057 A 
ATOM     72  C   UNL A   1      44.195  32.129  33.753  1.00  0.00     0.134 A 
ATOM     73  C   UNL A   1      44.734  33.187  31.675  1.00  0.00     0.134 A 
ATOM     74  F   UNL A   1      43.831  31.059  34.477  1.00  0.00    -0.206 F 
ATOM     75  C   UNL A   1      44.357  33.344  34.422  1.00  0.00     0.040 A 
ATOM     76  C   UNL A   1      44.930  34.400  32.337  1.00  0.00     0.040 A 
ATOM     77  F   UNL A   1      44.922  33.159  30.347  1.00  0.00    -0.206 F 
ATOM     78  C   UNL A   1      44.733  34.483  33.714  1.00  0.00     0.006 A 
ENDBRANCH  57  71
BRANCH  58  79
ATOM     79  C   UNL A   1      42.883  23.588  27.224  1.00  0.00     0.057 A 
ATOM     80  C   UNL A   1      42.384  22.425  27.824  1.00  0.00     0.134 A 
ATOM     81  C   UNL A   1      43.197  23.524  25.861  1.00  0.00     0.134 A 
ATOM     82  F   UNL A   1      42.079  22.418  29.130  1.00  0.00    -0.206 F 
ATOM     83  C   UNL A   1      42.227  21.240  27.105  1.00  0.00     0.040 A 
ATOM     84  C   UNL A   1      43.017  22.353  25.123  1.00  0.00     0.040 A 
ATOM     85  F   UNL A   1      43.671  24.605  25.224  1.00  0.00    -0.206 F 
ATOM     86  C   UNL A   1      42.540  21.203  25.748  1.00  0.00     0.006 A 
ENDBRANCH  58  79
BRANCH  70  87
ATOM     87  C   UNL A   1      48.333  26.251  30.647  1.00  0.00     0.057 A 
ATOM     88  C   UNL A   1      49.369  26.463  29.728  1.00  0.00     0.134 A 
ATOM     89  C   UNL A   1      48.652  25.578  31.835  1.00  0.00     0.134 A 
ATOM     90  F   UNL A   1      49.130  27.088  28.566  1.00  0.00    -0.206 F 
ATOM     91  C   UNL A   1      50.664  26.000  29.969  1.00  0.00     0.040 A 
ATOM     92  C   UNL A   1      49.949  25.140  32.101  1.00  0.00     0.040 A 
ATOM     93  F   UNL A   1      47.710  25.351  32.763  1.00  0.00    -0.206 F 
ATOM     94  C   UNL A   1      50.958  25.343  31.164  1.00  0.00     0.006 A 
ENDBRANCH  70  87
ENDBRANCH  44  45
ENDBRANCH  36  39
ENDBRANCH  34  35
ENDBRANCH  33  34
ENDBRANCH   1  33
TORSDOF 14
ENDMDL
