MODEL 1
REMARK VINA RESULT:     -12.4      0.000      0.000
REMARK SMILES NC(=O)c1ccc(C[N@H+]2CCC[C@@H](C(=O)NCCCNC(=O)c3ccc(-c4c5nc(c(-c6c(F)cccc6F)c6ccc([nH]6)c(-c6c(F)cccc6F)c6nc(c(-c7c(F)cccc7F)c7ccc4[nH]7)C=C6)C=C5)cc3)C2)cc1
REMARK SMILES IDX 17 1 16 2 14 3 15 4 13 6 9 7 10 8 77 9 11 11 12 12 8 13 7 14
REMARK SMILES IDX 4 15 5 16 79 17 6 18 78 19 2 20 1 21 3 24 18 25 19 26 20 27
REMARK SMILES IDX 21 28 22 30 23 31 24 32 76 33 25 34 75 35 26 36 27 37 28 38
REMARK SMILES IDX 69 39 29 40 74 41 68 42 70 43 30 44 73 45 67 46 66 47 31 49
REMARK SMILES IDX 57 50 40 51 56 52 41 53 44 54 55 55 71 56 42 57 43 58 54 60
REMARK SMILES IDX 72 61 45 62 32 63 33 64 38 65 34 66 35 67 37 68 39 69 36 70
REMARK SMILES IDX 58 71 59 72 64 73 60 74 61 75 63 76 65 77 62 78 46 79 47 80
REMARK SMILES IDX 52 81 48 82 49 83 51 84 53 85 50 86
REMARK H PARENT 16 5 9 10 1 22 1 23 20 29 70 48 44 59
REMARK Flexibility Score: inf
ROOT
ATOM      1  C   UNL A   1      31.194  30.952  25.884  1.00  0.00     0.117 C 
ENDROOT
BRANCH   1   2
ATOM      2  N   UNL A   1      32.524  30.375  25.895  1.00  0.00    -0.356 N 
ATOM      3  C   UNL A   1      32.921  29.093  26.114  1.00  0.00     0.228 C 
ATOM      4  O   UNL A   1      34.129  28.885  26.244  1.00  0.00    -0.275 OA
ATOM      5  H   UNL A   1      33.254  31.010  25.715  1.00  0.00     0.163 HD
BRANCH   3   6
ATOM      6  C   UNL A   1      31.904  27.967  26.136  1.00  0.00     0.133 C 
ATOM      7  N   UNL A   1      30.194  26.918  24.661  1.00  0.00    -0.331 N 
ATOM      8  C   UNL A   1      30.828  25.602  24.813  1.00  0.00     0.262 C 
ATOM      9  C   UNL A   1      31.181  27.999  24.786  1.00  0.00     0.276 C 
ATOM     10  H   UNL A   1      29.530  27.015  25.430  1.00  0.00     0.348 HD
ATOM     11  C   UNL A   1      31.562  25.489  26.156  1.00  0.00     0.062 C 
ATOM     12  C   UNL A   1      32.582  26.613  26.341  1.00  0.00     0.025 C 
BRANCH   7  13
ATOM     13  C   UNL A   1      29.385  27.035  23.430  1.00  0.00     0.299 C 
BRANCH  13  14
ATOM     14  C   UNL A   1      29.066  28.443  22.958  1.00  0.00     0.006 A 
ATOM     15  C   UNL A   1      28.397  30.956  21.894  1.00  0.00     0.039 A 
ATOM     16  C   UNL A   1      29.651  30.400  21.635  1.00  0.00     0.014 A 
ATOM     17  C   UNL A   1      27.486  30.277  22.710  1.00  0.00     0.014 A 
ATOM     18  C   UNL A   1      29.993  29.170  22.192  1.00  0.00     0.010 A 
ATOM     19  C   UNL A   1      27.819  29.023  23.232  1.00  0.00     0.010 A 
BRANCH  15  20
ATOM     20  C   UNL A   1      28.055  32.244  21.250  1.00  0.00     0.248 C 
ATOM     21  N   UNL A   1      27.709  32.206  19.934  1.00  0.00    -0.366 N 
ATOM     22  H   UNL A   1      27.474  33.037  19.462  1.00  0.00     0.159 HD
ATOM     23  H   UNL A   1      27.696  31.347  19.453  1.00  0.00     0.159 HD
ATOM     24  O   UNL A   1      28.048  33.297  21.883  1.00  0.00    -0.270 OA
ENDBRANCH  15  20
ENDBRANCH  13  14
ENDBRANCH   7  13
ENDBRANCH   3   6
ENDBRANCH   1   2
BRANCH   1  25
ATOM     25  C   UNL A   1      31.189  32.331  26.535  1.00  0.00     0.042 C 
BRANCH  25  26
ATOM     26  C   UNL A   1      32.529  32.724  27.154  1.00  0.00     0.118 C 
BRANCH  26  27
ATOM     27  N   UNL A   1      32.524  34.079  27.688  1.00  0.00    -0.352 N 
ATOM     28  C   UNL A   1      33.293  34.656  28.665  1.00  0.00     0.251 C 
ATOM     29  H   UNL A   1      31.857  34.679  27.281  1.00  0.00     0.163 HD
ATOM     30  O   UNL A   1      32.991  35.767  29.091  1.00  0.00    -0.269 OA
BRANCH  28  31
ATOM     31  C   UNL A   1      34.473  33.956  29.217  1.00  0.00     0.039 A 
ATOM     32  C   UNL A   1      34.269  32.959  30.174  1.00  0.00     0.014 A 
ATOM     33  C   UNL A   1      35.773  34.308  28.844  1.00  0.00     0.014 A 
ATOM     34  C   UNL A   1      35.362  32.286  30.723  1.00  0.00     0.010 A 
ATOM     35  C   UNL A   1      36.859  33.583  29.331  1.00  0.00     0.010 A 
ATOM     36  C   UNL A   1      36.665  32.575  30.287  1.00  0.00    -0.014 A 
BRANCH  36  37
ATOM     37  C   UNL A   1      37.832  31.845  30.840  1.00  0.00     0.031 A 
ATOM     38  C   UNL A   1      38.326  32.139  32.229  1.00  0.00     0.074 A 
ATOM     39  C   UNL A   1      38.472  30.940  30.075  1.00  0.00     0.049 A 
ATOM     40  N   UNL A   1      39.327  31.603  32.882  1.00  0.00    -0.248 NA
ATOM     41  C   UNL A   1      37.622  33.193  32.974  1.00  0.00     0.031 C 
ATOM     42  C   UNL A   1      38.118  30.598  28.696  1.00  0.00     0.029 A 
ATOM     43  N   UNL A   1      39.549  30.137  30.351  1.00  0.00    -0.354 N 
ATOM     44  C   UNL A   1      39.381  32.264  34.102  1.00  0.00     0.074 A 
ATOM     45  C   UNL A   1      38.350  33.279  34.077  1.00  0.00     0.031 C 
ATOM     46  C   UNL A   1      38.935  29.625  28.263  1.00  0.00     0.029 A 
ATOM     47  C   UNL A   1      39.888  29.297  29.319  1.00  0.00     0.049 A 
ATOM     48  H   UNL A   1      40.035  30.162  31.208  1.00  0.00     0.167 HD
ATOM     49  C   UNL A   1      40.197  32.032  35.159  1.00  0.00     0.037 A 
ATOM     50  C   UNL A   1      40.851  28.360  29.239  1.00  0.00     0.037 A 
ATOM     51  C   UNL A   1      41.203  31.004  35.191  1.00  0.00     0.049 A 
ATOM     52  C   UNL A   1      41.746  28.123  30.421  1.00  0.00     0.074 A 
ATOM     53  C   UNL A   1      42.032  30.640  36.238  1.00  0.00     0.029 A 
ATOM     54  N   UNL A   1      41.520  30.178  34.123  1.00  0.00    -0.354 N 
ATOM     55  N   UNL A   1      41.735  28.701  31.598  1.00  0.00    -0.248 NA
ATOM     56  C   UNL A   1      42.787  27.097  30.264  1.00  0.00     0.031 C 
ATOM     57  C   UNL A   1      42.881  29.621  35.788  1.00  0.00     0.029 A 
ATOM     58  C   UNL A   1      42.550  29.321  34.477  1.00  0.00     0.049 A 
ATOM     59  H   UNL A   1      41.079  30.197  33.243  1.00  0.00     0.167 HD
ATOM     60  C   UNL A   1      42.741  28.087  32.333  1.00  0.00     0.074 A 
ATOM     61  C   UNL A   1      43.340  27.090  31.470  1.00  0.00     0.031 C 
ATOM     62  C   UNL A   1      43.131  28.329  33.608  1.00  0.00     0.037 A 
BRANCH  49  63
ATOM     63  C   UNL A   1      40.028  32.914  36.362  1.00  0.00     0.057 A 
ATOM     64  C   UNL A   1      39.073  32.642  37.352  1.00  0.00     0.134 A 
ATOM     65  C   UNL A   1      40.829  34.049  36.536  1.00  0.00     0.134 A 
ATOM     66  F   UNL A   1      38.264  31.577  37.243  1.00  0.00    -0.206 F 
ATOM     67  C   UNL A   1      38.895  33.487  38.449  1.00  0.00     0.040 A 
ATOM     68  C   UNL A   1      40.681  34.886  37.644  1.00  0.00     0.040 A 
ATOM     69  F   UNL A   1      41.768  34.365  35.631  1.00  0.00    -0.206 F 
ATOM     70  C   UNL A   1      39.704  34.611  38.598  1.00  0.00     0.006 A 
ENDBRANCH  49  63
BRANCH  50  71
ATOM     71  C   UNL A   1      40.976  27.535  28.013  1.00  0.00     0.057 A 
ATOM     72  C   UNL A   1      41.759  27.969  26.937  1.00  0.00     0.134 A 
ATOM     73  C   UNL A   1      40.337  26.296  27.888  1.00  0.00     0.134 A 
ATOM     74  F   UNL A   1      42.382  29.156  26.993  1.00  0.00    -0.206 F 
ATOM     75  C   UNL A   1      41.894  27.209  25.776  1.00  0.00     0.040 A 
ATOM     76  C   UNL A   1      40.480  25.514  26.742  1.00  0.00     0.040 A 
ATOM     77  F   UNL A   1      39.581  25.821  28.888  1.00  0.00    -0.206 F 
ATOM     78  C   UNL A   1      41.256  25.973  25.678  1.00  0.00     0.006 A 
ENDBRANCH  50  71
BRANCH  62  79
ATOM     79  C   UNL A   1      44.232  27.472  34.160  1.00  0.00     0.057 A 
ATOM     80  C   UNL A   1      45.571  27.880  34.132  1.00  0.00     0.134 A 
ATOM     81  C   UNL A   1      43.942  26.239  34.758  1.00  0.00     0.134 A 
ATOM     82  F   UNL A   1      45.916  29.044  33.561  1.00  0.00    -0.206 F 
ATOM     83  C   UNL A   1      46.588  27.081  34.660  1.00  0.00     0.040 A 
ATOM     84  C   UNL A   1      44.946  25.443  35.312  1.00  0.00     0.040 A 
ATOM     85  F   UNL A   1      42.679  25.793  34.823  1.00  0.00    -0.206 F 
ATOM     86  C   UNL A   1      46.274  25.861  35.258  1.00  0.00     0.006 A 
ENDBRANCH  62  79
ENDBRANCH  36  37
ENDBRANCH  28  31
ENDBRANCH  26  27
ENDBRANCH  25  26
ENDBRANCH   1  25
TORSDOF 13
ENDMDL
MODEL 2
REMARK VINA RESULT:     -12.4      5.889     10.697
REMARK SMILES NC(=O)c1ccc(C[N@H+]2CCC[C@@H](C(=O)NCCCNC(=O)c3ccc(-c4c5nc(c(-c6c(F)cccc6F)c6ccc([nH]6)c(-c6c(F)cccc6F)c6nc(c(-c7c(F)cccc7F)c7ccc4[nH]7)C=C6)C=C5)cc3)C2)cc1
REMARK SMILES IDX 17 1 16 2 14 3 15 4 13 6 9 7 10 8 77 9 11 11 12 12 8 13 7 14
REMARK SMILES IDX 4 15 5 16 79 17 6 18 78 19 2 20 1 21 3 24 18 25 19 26 20 27
REMARK SMILES IDX 21 28 22 30 23 31 24 32 76 33 25 34 75 35 26 36 27 37 28 38
REMARK SMILES IDX 69 39 29 40 74 41 68 42 70 43 30 44 73 45 67 46 66 47 31 49
REMARK SMILES IDX 57 50 40 51 56 52 41 53 44 54 55 55 71 56 42 57 43 58 54 60
REMARK SMILES IDX 72 61 45 62 32 63 33 64 38 65 34 66 35 67 37 68 39 69 36 70
REMARK SMILES IDX 58 71 59 72 64 73 60 74 61 75 63 76 65 77 62 78 46 79 47 80
REMARK SMILES IDX 52 81 48 82 49 83 51 84 53 85 50 86
REMARK H PARENT 16 5 9 10 1 22 1 23 20 29 70 48 44 59
REMARK Flexibility Score: inf
ROOT
ATOM      1  C   UNL A   1      37.216  20.180  24.624  1.00  0.00     0.117 C 
ENDROOT
BRANCH   1   2
ATOM      2  N   UNL A   1      37.108  21.332  25.497  1.00  0.00    -0.356 N 
ATOM      3  C   UNL A   1      36.464  22.515  25.312  1.00  0.00     0.228 C 
ATOM      4  O   UNL A   1      36.666  23.409  26.136  1.00  0.00    -0.275 OA
ATOM      5  H   UNL A   1      37.573  21.244  26.360  1.00  0.00     0.163 HD
BRANCH   3   6
ATOM      6  C   UNL A   1      35.491  22.688  24.159  1.00  0.00     0.133 C 
ATOM      7  N   UNL A   1      33.238  21.911  23.438  1.00  0.00    -0.331 N 
ATOM      8  C   UNL A   1      32.769  23.296  23.313  1.00  0.00     0.262 C 
ATOM      9  C   UNL A   1      34.284  21.797  24.464  1.00  0.00     0.276 C 
ATOM     10  H   UNL A   1      33.657  21.660  22.542  1.00  0.00     0.348 HD
ATOM     11  C   UNL A   1      33.926  24.250  22.991  1.00  0.00     0.062 C 
ATOM     12  C   UNL A   1      35.051  24.144  24.020  1.00  0.00     0.025 C 
BRANCH   7  13
ATOM     13  C   UNL A   1      32.142  20.941  23.642  1.00  0.00     0.299 C 
BRANCH  13  14
ATOM     14  C   UNL A   1      32.547  19.531  24.039  1.00  0.00     0.006 A 
ATOM     15  C   UNL A   1      33.076  16.873  24.777  1.00  0.00     0.039 A 
ATOM     16  C   UNL A   1      32.862  17.840  25.760  1.00  0.00     0.014 A 
ATOM     17  C   UNL A   1      33.060  17.233  23.425  1.00  0.00     0.014 A 
ATOM     18  C   UNL A   1      32.634  19.165  25.392  1.00  0.00     0.010 A 
ATOM     19  C   UNL A   1      32.789  18.556  23.060  1.00  0.00     0.010 A 
BRANCH  15  20
ATOM     20  C   UNL A   1      33.272  15.469  25.205  1.00  0.00     0.248 C 
ATOM     21  N   UNL A   1      32.154  14.711  25.374  1.00  0.00    -0.366 N 
ATOM     22  H   UNL A   1      32.234  13.772  25.659  1.00  0.00     0.159 HD
ATOM     23  H   UNL A   1      31.265  15.102  25.213  1.00  0.00     0.159 HD
ATOM     24  O   UNL A   1      34.395  14.998  25.367  1.00  0.00    -0.270 OA
ENDBRANCH  15  20
ENDBRANCH  13  14
ENDBRANCH   7  13
ENDBRANCH   3   6
ENDBRANCH   1   2
BRANCH   1  25
ATOM     25  C   UNL A   1      38.314  19.233  25.097  1.00  0.00     0.042 C 
BRANCH  25  26
ATOM     26  C   UNL A   1      39.412  19.920  25.907  1.00  0.00     0.118 C 
BRANCH  26  27
ATOM     27  N   UNL A   1      40.659  19.167  25.913  1.00  0.00    -0.352 N 
ATOM     28  C   UNL A   1      41.949  19.580  26.120  1.00  0.00     0.251 C 
ATOM     29  H   UNL A   1      40.557  18.203  25.740  1.00  0.00     0.163 HD
ATOM     30  O   UNL A   1      42.872  18.803  25.893  1.00  0.00    -0.269 OA
BRANCH  28  31
ATOM     31  C   UNL A   1      42.244  20.947  26.601  1.00  0.00     0.039 A 
ATOM     32  C   UNL A   1      42.530  21.937  25.658  1.00  0.00     0.014 A 
ATOM     33  C   UNL A   1      42.293  21.248  27.965  1.00  0.00     0.014 A 
ATOM     34  C   UNL A   1      42.822  23.236  26.079  1.00  0.00     0.010 A 
ATOM     35  C   UNL A   1      42.505  22.560  28.382  1.00  0.00     0.010 A 
ATOM     36  C   UNL A   1      42.788  23.564  27.444  1.00  0.00    -0.014 A 
BRANCH  36  37
ATOM     37  C   UNL A   1      43.066  24.948  27.901  1.00  0.00     0.031 A 
ATOM     38  C   UNL A   1      44.481  25.426  28.067  1.00  0.00     0.074 A 
ATOM     39  C   UNL A   1      42.039  25.765  28.205  1.00  0.00     0.049 A 
ATOM     40  N   UNL A   1      44.919  26.598  28.453  1.00  0.00    -0.248 NA
ATOM     41  C   UNL A   1      45.547  24.451  27.788  1.00  0.00     0.031 C 
ATOM     42  C   UNL A   1      40.622  25.406  28.130  1.00  0.00     0.029 A 
ATOM     43  N   UNL A   1      42.030  27.069  28.630  1.00  0.00    -0.354 N 
ATOM     44  C   UNL A   1      46.304  26.495  28.479  1.00  0.00     0.074 A 
ATOM     45  C   UNL A   1      46.632  25.130  28.125  1.00  0.00     0.031 C 
ATOM     46  C   UNL A   1      39.880  26.477  28.454  1.00  0.00     0.029 A 
ATOM     47  C   UNL A   1      40.768  27.586  28.791  1.00  0.00     0.049 A 
ATOM     48  H   UNL A   1      42.851  27.585  28.806  1.00  0.00     0.167 HD
ATOM     49  C   UNL A   1      47.222  27.454  28.747  1.00  0.00     0.037 A 
ATOM     50  C   UNL A   1      40.372  28.820  29.155  1.00  0.00     0.037 A 
ATOM     51  C   UNL A   1      46.894  28.817  29.072  1.00  0.00     0.049 A 
ATOM     52  C   UNL A   1      41.407  29.867  29.451  1.00  0.00     0.074 A 
ATOM     53  C   UNL A   1      47.749  29.883  29.290  1.00  0.00     0.029 A 
ATOM     54  N   UNL A   1      45.603  29.300  29.231  1.00  0.00    -0.354 N 
ATOM     55  N   UNL A   1      42.714  29.778  29.395  1.00  0.00    -0.248 NA
ATOM     56  C   UNL A   1      40.910  31.189  29.859  1.00  0.00     0.031 C 
ATOM     57  C   UNL A   1      46.977  31.002  29.624  1.00  0.00     0.029 A 
ATOM     58  C   UNL A   1      45.640  30.644  29.569  1.00  0.00     0.049 A 
ATOM     59  H   UNL A   1      44.783  28.769  29.120  1.00  0.00     0.167 HD
ATOM     60  C   UNL A   1      43.195  31.039  29.726  1.00  0.00     0.074 A 
ATOM     61  C   UNL A   1      42.039  31.875  29.977  1.00  0.00     0.031 C 
ATOM     62  C   UNL A   1      44.479  31.464  29.810  1.00  0.00     0.037 A 
BRANCH  49  63
ATOM     63  C   UNL A   1      48.668  27.053  28.700  1.00  0.00     0.057 A 
ATOM     64  C   UNL A   1      49.418  27.120  27.518  1.00  0.00     0.134 A 
ATOM     65  C   UNL A   1      49.321  26.593  29.850  1.00  0.00     0.134 A 
ATOM     66  F   UNL A   1      48.852  27.540  26.376  1.00  0.00    -0.206 F 
ATOM     67  C   UNL A   1      50.751  26.709  27.472  1.00  0.00     0.040 A 
ATOM     68  C   UNL A   1      50.662  26.207  29.825  1.00  0.00     0.040 A 
ATOM     69  F   UNL A   1      48.666  26.511  31.019  1.00  0.00    -0.206 F 
ATOM     70  C   UNL A   1      51.378  26.253  28.630  1.00  0.00     0.006 A 
ENDBRANCH  49  63
BRANCH  50  71
ATOM     71  C   UNL A   1      38.926  29.147  29.199  1.00  0.00     0.057 A 
ATOM     72  C   UNL A   1      38.251  29.555  28.043  1.00  0.00     0.134 A 
ATOM     73  C   UNL A   1      38.182  29.047  30.380  1.00  0.00     0.134 A 
ATOM     74  F   UNL A   1      38.915  29.683  26.884  1.00  0.00    -0.206 F 
ATOM     75  C   UNL A   1      36.891  29.864  28.060  1.00  0.00     0.040 A 
ATOM     76  C   UNL A   1      36.817  29.333  30.409  1.00  0.00     0.040 A 
ATOM     77  F   UNL A   1      38.770  28.653  31.519  1.00  0.00    -0.206 F 
ATOM     78  C   UNL A   1      36.168  29.748  29.247  1.00  0.00     0.006 A 
ENDBRANCH  50  71
BRANCH  62  79
ATOM     79  C   UNL A   1      44.700  32.908  30.152  1.00  0.00     0.057 A 
ATOM     80  C   UNL A   1      44.727  33.905  29.170  1.00  0.00     0.134 A 
ATOM     81  C   UNL A   1      44.853  33.308  31.486  1.00  0.00     0.134 A 
ATOM     82  F   UNL A   1      44.601  33.586  27.873  1.00  0.00    -0.206 F 
ATOM     83  C   UNL A   1      44.921  35.248  29.500  1.00  0.00     0.040 A 
ATOM     84  C   UNL A   1      45.021  34.650  31.830  1.00  0.00     0.040 A 
ATOM     85  F   UNL A   1      44.830  32.403  32.476  1.00  0.00    -0.206 F 
ATOM     86  C   UNL A   1      45.062  35.624  30.835  1.00  0.00     0.006 A 
ENDBRANCH  62  79
ENDBRANCH  36  37
ENDBRANCH  28  31
ENDBRANCH  26  27
ENDBRANCH  25  26
ENDBRANCH   1  25
TORSDOF 13
ENDMDL
MODEL 3
REMARK VINA RESULT:     -12.3      6.165     10.336
REMARK SMILES NC(=O)c1ccc(C[N@H+]2CCC[C@@H](C(=O)NCCCNC(=O)c3ccc(-c4c5nc(c(-c6c(F)cccc6F)c6ccc([nH]6)c(-c6c(F)cccc6F)c6nc(c(-c7c(F)cccc7F)c7ccc4[nH]7)C=C6)C=C5)cc3)C2)cc1
REMARK SMILES IDX 17 1 16 2 14 3 15 4 13 6 9 7 10 8 77 9 11 11 12 12 8 13 7 14
REMARK SMILES IDX 4 15 5 16 79 17 6 18 78 19 2 20 1 21 3 24 18 25 19 26 20 27
REMARK SMILES IDX 21 28 22 30 23 31 24 32 76 33 25 34 75 35 26 36 27 37 28 38
REMARK SMILES IDX 69 39 29 40 74 41 68 42 70 43 30 44 73 45 67 46 66 47 31 49
REMARK SMILES IDX 57 50 40 51 56 52 41 53 44 54 55 55 71 56 42 57 43 58 54 60
REMARK SMILES IDX 72 61 45 62 32 63 33 64 38 65 34 66 35 67 37 68 39 69 36 70
REMARK SMILES IDX 58 71 59 72 64 73 60 74 61 75 63 76 65 77 62 78 46 79 47 80
REMARK SMILES IDX 52 81 48 82 49 83 51 84 53 85 50 86
REMARK H PARENT 16 5 9 10 1 22 1 23 20 29 70 48 44 59
REMARK Flexibility Score: inf
ROOT
ATOM      1  C   UNL A   1      36.864  20.041  24.940  1.00  0.00     0.117 C 
ENDROOT
BRANCH   1   2
ATOM      2  N   UNL A   1      36.928  21.279  25.692  1.00  0.00    -0.356 N 
ATOM      3  C   UNL A   1      36.447  22.514  25.389  1.00  0.00     0.228 C 
ATOM      4  O   UNL A   1      36.783  23.451  26.116  1.00  0.00    -0.275 OA
ATOM      5  H   UNL A   1      37.392  21.215  26.558  1.00  0.00     0.163 HD
BRANCH   3   6
ATOM      6  C   UNL A   1      35.486  22.701  24.229  1.00  0.00     0.133 C 
ATOM      7  N   UNL A   1      33.243  21.929  23.472  1.00  0.00    -0.331 N 
ATOM      8  C   UNL A   1      32.771  23.314  23.362  1.00  0.00     0.262 C 
ATOM      9  C   UNL A   1      34.278  21.802  24.507  1.00  0.00     0.276 C 
ATOM     10  H   UNL A   1      33.672  21.692  22.577  1.00  0.00     0.348 HD
ATOM     11  C   UNL A   1      33.928  24.276  23.067  1.00  0.00     0.062 C 
ATOM     12  C   UNL A   1      35.043  24.159  24.107  1.00  0.00     0.025 C 
BRANCH   7  13
ATOM     13  C   UNL A   1      32.148  20.952  23.650  1.00  0.00     0.299 C 
BRANCH  13  14
ATOM     14  C   UNL A   1      32.552  19.543  24.049  1.00  0.00     0.006 A 
ATOM     15  C   UNL A   1      33.079  16.884  24.786  1.00  0.00     0.039 A 
ATOM     16  C   UNL A   1      32.835  17.845  25.768  1.00  0.00     0.014 A 
ATOM     17  C   UNL A   1      33.093  17.251  23.437  1.00  0.00     0.014 A 
ATOM     18  C   UNL A   1      32.608  19.170  25.402  1.00  0.00     0.010 A 
ATOM     19  C   UNL A   1      32.823  18.574  23.072  1.00  0.00     0.010 A 
BRANCH  15  20
ATOM     20  C   UNL A   1      33.274  15.480  25.212  1.00  0.00     0.248 C 
ATOM     21  N   UNL A   1      32.154  14.721  25.376  1.00  0.00    -0.366 N 
ATOM     22  H   UNL A   1      32.233  13.782  25.658  1.00  0.00     0.159 HD
ATOM     23  H   UNL A   1      31.266  15.113  25.213  1.00  0.00     0.159 HD
ATOM     24  O   UNL A   1      34.396  15.008  25.376  1.00  0.00    -0.270 OA
ENDBRANCH  15  20
ENDBRANCH  13  14
ENDBRANCH   7  13
ENDBRANCH   3   6
ENDBRANCH   1   2
BRANCH   1  25
ATOM     25  C   UNL A   1      38.190  19.292  25.001  1.00  0.00     0.042 C 
BRANCH  25  26
ATOM     26  C   UNL A   1      39.255  19.995  25.841  1.00  0.00     0.118 C 
BRANCH  26  27
ATOM     27  N   UNL A   1      40.403  19.142  26.120  1.00  0.00    -0.352 N 
ATOM     28  C   UNL A   1      41.710  19.461  26.376  1.00  0.00     0.251 C 
ATOM     29  H   UNL A   1      40.206  18.177  26.123  1.00  0.00     0.163 HD
ATOM     30  O   UNL A   1      42.554  18.570  26.398  1.00  0.00    -0.269 OA
BRANCH  28  31
ATOM     31  C   UNL A   1      42.119  20.862  26.616  1.00  0.00     0.039 A 
ATOM     32  C   UNL A   1      42.193  21.731  25.525  1.00  0.00     0.014 A 
ATOM     33  C   UNL A   1      42.481  21.310  27.890  1.00  0.00     0.014 A 
ATOM     34  C   UNL A   1      42.585  23.058  25.716  1.00  0.00     0.010 A 
ATOM     35  C   UNL A   1      42.794  22.653  28.093  1.00  0.00     0.010 A 
ATOM     36  C   UNL A   1      42.864  23.536  27.006  1.00  0.00    -0.014 A 
BRANCH  36  37
ATOM     37  C   UNL A   1      43.252  24.951  27.226  1.00  0.00     0.031 A 
ATOM     38  C   UNL A   1      42.273  25.925  27.821  1.00  0.00     0.074 A 
ATOM     39  C   UNL A   1      44.476  25.369  26.853  1.00  0.00     0.049 A 
ATOM     40  N   UNL A   1      42.431  27.197  28.089  1.00  0.00    -0.248 NA
ATOM     41  C   UNL A   1      40.931  25.410  28.131  1.00  0.00     0.031 C 
ATOM     42  C   UNL A   1      45.500  24.534  26.224  1.00  0.00     0.029 A 
ATOM     43  N   UNL A   1      45.071  26.601  26.958  1.00  0.00    -0.354 N 
ATOM     44  C   UNL A   1      41.208  27.635  28.581  1.00  0.00     0.074 A 
ATOM     45  C   UNL A   1      40.302  26.507  28.521  1.00  0.00     0.031 C 
ATOM     46  C   UNL A   1      46.610  25.265  26.039  1.00  0.00     0.029 A 
ATOM     47  C   UNL A   1      46.367  26.627  26.506  1.00  0.00     0.049 A 
ATOM     48  H   UNL A   1      44.610  27.393  27.321  1.00  0.00     0.167 HD
ATOM     49  C   UNL A   1      40.874  28.856  29.063  1.00  0.00     0.037 A 
ATOM     50  C   UNL A   1      47.261  27.632  26.482  1.00  0.00     0.037 A 
ATOM     51  C   UNL A   1      41.785  29.967  29.147  1.00  0.00     0.049 A 
ATOM     52  C   UNL A   1      46.869  28.979  27.019  1.00  0.00     0.074 A 
ATOM     53  C   UNL A   1      41.568  31.224  29.685  1.00  0.00     0.029 A 
ATOM     54  N   UNL A   1      43.089  29.955  28.672  1.00  0.00    -0.354 N 
ATOM     55  N   UNL A   1      45.734  29.357  27.555  1.00  0.00    -0.248 NA
ATOM     56  C   UNL A   1      47.887  30.037  26.950  1.00  0.00     0.031 C 
ATOM     57  C   UNL A   1      42.727  31.986  29.497  1.00  0.00     0.029 A 
ATOM     58  C   UNL A   1      43.680  31.190  28.882  1.00  0.00     0.049 A 
ATOM     59  H   UNL A   1      43.529  29.183  28.249  1.00  0.00     0.167 HD
ATOM     60  C   UNL A   1      45.911  30.686  27.919  1.00  0.00     0.074 A 
ATOM     61  C   UNL A   1      47.264  31.046  27.546  1.00  0.00     0.031 C 
ATOM     62  C   UNL A   1      45.031  31.530  28.511  1.00  0.00     0.037 A 
BRANCH  49  63
ATOM     63  C   UNL A   1      39.462  29.045  29.535  1.00  0.00     0.057 A 
ATOM     64  C   UNL A   1      39.088  28.818  30.867  1.00  0.00     0.134 A 
ATOM     65  C   UNL A   1      38.461  29.460  28.648  1.00  0.00     0.134 A 
ATOM     66  F   UNL A   1      39.994  28.408  31.767  1.00  0.00    -0.206 F 
ATOM     67  C   UNL A   1      37.765  28.959  31.290  1.00  0.00     0.040 A 
ATOM     68  C   UNL A   1      37.140  29.633  29.065  1.00  0.00     0.040 A 
ATOM     69  F   UNL A   1      38.750  29.702  27.360  1.00  0.00    -0.206 F 
ATOM     70  C   UNL A   1      36.787  29.371  30.387  1.00  0.00     0.006 A 
ENDBRANCH  49  63
BRANCH  50  71
ATOM     71  C   UNL A   1      48.637  27.383  25.987  1.00  0.00     0.057 A 
ATOM     72  C   UNL A   1      48.926  27.453  24.619  1.00  0.00     0.134 A 
ATOM     73  C   UNL A   1      49.693  27.087  26.856  1.00  0.00     0.134 A 
ATOM     74  F   UNL A   1      47.951  27.718  23.736  1.00  0.00    -0.206 F 
ATOM     75  C   UNL A   1      50.213  27.226  24.131  1.00  0.00     0.040 A 
ATOM     76  C   UNL A   1      50.989  26.878  26.384  1.00  0.00     0.040 A 
ATOM     77  F   UNL A   1      49.481  27.014  28.178  1.00  0.00    -0.206 F 
ATOM     78  C   UNL A   1      51.251  26.943  25.016  1.00  0.00     0.006 A 
ENDBRANCH  50  71
BRANCH  62  79
ATOM     79  C   UNL A   1      45.517  32.914  28.827  1.00  0.00     0.057 A 
ATOM     80  C   UNL A   1      45.341  33.981  27.939  1.00  0.00     0.134 A 
ATOM     81  C   UNL A   1      46.139  33.186  30.052  1.00  0.00     0.134 A 
ATOM     82  F   UNL A   1      44.766  33.783  26.743  1.00  0.00    -0.206 F 
ATOM     83  C   UNL A   1      45.787  35.268  28.248  1.00  0.00     0.040 A 
ATOM     84  C   UNL A   1      46.565  34.473  30.384  1.00  0.00     0.040 A 
ATOM     85  F   UNL A   1      46.332  32.209  30.951  1.00  0.00    -0.206 F 
ATOM     86  C   UNL A   1      46.395  35.518  29.477  1.00  0.00     0.006 A 
ENDBRANCH  62  79
ENDBRANCH  36  37
ENDBRANCH  28  31
ENDBRANCH  26  27
ENDBRANCH  25  26
ENDBRANCH   1  25
TORSDOF 13
ENDMDL
