MODEL 1
REMARK VINA RESULT:     -12.2      0.000      0.000
REMARK SMILES CC[C@@H](C(=O)NCCCNC(=O)c1ccc(-c2c3nc(c(-c4c(F)cccc4F)c4ccc([nH]4)c(-c4c(F)cccc4F)c4nc(c(-c5c(F)cccc5F)c5ccc2[nH]5)C=C4)C=C3)cc1)N1C(=O)/C(=C/C(C)=C/c2ccccc2)SC1=S
REMARK SMILES IDX 7 1 6 2 4 3 5 4 3 6 2 7 1 8 67 9 68 10 82 11 69 12 70 13
REMARK SMILES IDX 81 14 83 15 71 16 72 17 73 18 74 19 75 20 76 21 80 22 77 23
REMARK SMILES IDX 79 24 78 25 8 26 9 27 10 28 11 29 12 31 13 32 14 33 66 34
REMARK SMILES IDX 15 35 65 36 16 37 17 38 18 39 59 40 19 41 64 42 58 43 60 44
REMARK SMILES IDX 20 45 63 46 57 47 56 48 21 50 47 51 30 52 46 53 31 54 34 55
REMARK SMILES IDX 45 56 61 57 32 58 33 59 44 61 62 62 35 63 22 64 23 65 28 66
REMARK SMILES IDX 24 67 25 68 27 69 29 70 26 71 48 72 49 73 54 74 50 75 51 76
REMARK SMILES IDX 53 77 55 78 52 79 36 80 37 81 42 82 38 83 39 84 41 85 43 86
REMARK SMILES IDX 40 87
REMARK H PARENT 6 5 10 30 60 49 34 60
REMARK Flexibility Score: inf
ROOT
ATOM      1  C   UNL A   1      33.529  28.880  26.294  1.00  0.00     0.117 C 
ENDROOT
BRANCH   1   2
ATOM      2  N   UNL A   1      32.451  27.992  26.708  1.00  0.00    -0.354 N 
ATOM      3  C   UNL A   1      31.633  27.162  25.995  1.00  0.00     0.243 C 
ATOM      4  O   UNL A   1      30.653  26.697  26.584  1.00  0.00    -0.273 OA
ATOM      5  H   UNL A   1      32.283  27.990  27.678  1.00  0.00     0.163 HD
BRANCH   3   6
ATOM      6  C   UNL A   1      31.876  26.899  24.490  1.00  0.00     0.181 C 
BRANCH   6   7
ATOM      7  C   UNL A   1      30.467  27.029  23.829  1.00  0.00     0.032 C 
ATOM      8  C   UNL A   1      30.054  28.454  23.502  1.00  0.00     0.006 C 
ENDBRANCH   6   7
BRANCH   6   9
ATOM      9  N   UNL A   1      32.426  25.545  24.186  1.00  0.00    -0.280 N 
ATOM     10  C   UNL A   1      33.145  24.791  25.097  1.00  0.00     0.266 C 
ATOM     11  C   UNL A   1      32.555  25.068  22.897  1.00  0.00     0.149 C 
ATOM     12  O   UNL A   1      33.681  25.203  26.126  1.00  0.00    -0.268 OA
ATOM     13  C   UNL A   1      33.343  23.394  24.585  1.00  0.00     0.080 C 
ATOM     14  S   UNL A   1      32.825  23.344  22.950  1.00  0.00    -0.054 SA
ATOM     15  S   UNL A   1      32.529  25.907  21.452  1.00  0.00    -0.052 S 
ATOM     16  C   UNL A   1      33.853  22.409  25.346  1.00  0.00     0.024 C 
BRANCH  16  17
ATOM     17  C   UNL A   1      34.077  20.972  25.079  1.00  0.00    -0.049 C 
ATOM     18  C   UNL A   1      35.540  20.590  25.001  1.00  0.00     0.044 C 
ATOM     19  C   UNL A   1      33.087  20.082  24.857  1.00  0.00     0.011 C 
BRANCH  19  20
ATOM     20  C   UNL A   1      33.113  18.616  24.682  1.00  0.00    -0.025 A 
ATOM     21  C   UNL A   1      32.764  17.823  25.788  1.00  0.00     0.008 A 
ATOM     22  C   UNL A   1      33.627  17.983  23.545  1.00  0.00     0.008 A 
ATOM     23  C   UNL A   1      32.903  16.434  25.750  1.00  0.00     0.001 A 
ATOM     24  C   UNL A   1      33.753  16.590  23.502  1.00  0.00     0.001 A 
ATOM     25  C   UNL A   1      33.394  15.817  24.604  1.00  0.00     0.000 A 
ENDBRANCH  19  20
ENDBRANCH  16  17
ENDBRANCH   6   9
ENDBRANCH   3   6
ENDBRANCH   1   2
BRANCH   1  26
ATOM     26  C   UNL A   1      34.597  29.021  27.380  1.00  0.00     0.042 C 
BRANCH  26  27
ATOM     27  C   UNL A   1      35.068  30.452  27.632  1.00  0.00     0.118 C 
BRANCH  27  28
ATOM     28  N   UNL A   1      35.078  30.790  29.044  1.00  0.00    -0.352 N 
ATOM     29  C   UNL A   1      36.052  30.590  29.994  1.00  0.00     0.251 C 
ATOM     30  H   UNL A   1      34.262  31.232  29.372  1.00  0.00     0.163 HD
ATOM     31  O   UNL A   1      35.780  30.780  31.177  1.00  0.00    -0.269 OA
BRANCH  29  32
ATOM     32  C   UNL A   1      37.415  30.130  29.627  1.00  0.00     0.039 A 
ATOM     33  C   UNL A   1      38.268  29.687  30.645  1.00  0.00     0.014 A 
ATOM     34  C   UNL A   1      37.890  30.190  28.313  1.00  0.00     0.014 A 
ATOM     35  C   UNL A   1      39.567  29.265  30.344  1.00  0.00     0.010 A 
ATOM     36  C   UNL A   1      39.163  29.703  28.003  1.00  0.00     0.010 A 
ATOM     37  C   UNL A   1      40.021  29.246  29.016  1.00  0.00    -0.014 A 
BRANCH  37  38
ATOM     38  C   UNL A   1      41.392  28.779  28.676  1.00  0.00     0.031 A 
ATOM     39  C   UNL A   1      42.545  29.749  28.661  1.00  0.00     0.074 A 
ATOM     40  C   UNL A   1      41.600  27.494  28.329  1.00  0.00     0.049 A 
ATOM     41  N   UNL A   1      43.795  29.545  28.325  1.00  0.00    -0.248 NA
ATOM     42  C   UNL A   1      42.248  31.137  29.050  1.00  0.00     0.031 C 
ATOM     43  C   UNL A   1      40.568  26.458  28.258  1.00  0.00     0.029 A 
ATOM     44  N   UNL A   1      42.751  26.843  27.957  1.00  0.00    -0.354 N 
ATOM     45  C   UNL A   1      44.424  30.778  28.436  1.00  0.00     0.074 A 
ATOM     46  C   UNL A   1      43.412  31.733  28.836  1.00  0.00     0.031 C 
ATOM     47  C   UNL A   1      41.135  25.300  27.880  1.00  0.00     0.029 A 
ATOM     48  C   UNL A   1      42.561  25.515  27.656  1.00  0.00     0.049 A 
ATOM     49  H   UNL A   1      43.629  27.286  27.911  1.00  0.00     0.167 HD
ATOM     50  C   UNL A   1      45.728  31.088  28.243  1.00  0.00     0.037 A 
ATOM     51  C   UNL A   1      43.435  24.579  27.239  1.00  0.00     0.037 A 
ATOM     52  C   UNL A   1      46.748  30.135  27.893  1.00  0.00     0.049 A 
ATOM     53  C   UNL A   1      44.883  24.940  27.060  1.00  0.00     0.074 A 
ATOM     54  C   UNL A   1      48.110  30.342  27.753  1.00  0.00     0.029 A 
ATOM     55  N   UNL A   1      46.520  28.794  27.629  1.00  0.00    -0.354 N 
ATOM     56  N   UNL A   1      45.472  26.097  27.233  1.00  0.00    -0.248 NA
ATOM     57  C   UNL A   1      45.788  23.863  26.632  1.00  0.00     0.031 C 
ATOM     58  C   UNL A   1      48.702  29.133  27.376  1.00  0.00     0.029 A 
ATOM     59  C   UNL A   1      47.712  28.165  27.313  1.00  0.00     0.049 A 
ATOM     60  H   UNL A   1      45.639  28.353  27.663  1.00  0.00     0.167 HD
ATOM     61  C   UNL A   1      46.817  25.883  26.958  1.00  0.00     0.074 A 
ATOM     62  C   UNL A   1      46.959  24.483  26.619  1.00  0.00     0.031 C 
ATOM     63  C   UNL A   1      47.842  26.769  26.985  1.00  0.00     0.037 A 
BRANCH  50  64
ATOM     64  C   UNL A   1      46.132  32.522  28.413  1.00  0.00     0.057 A 
ATOM     65  C   UNL A   1      46.595  33.017  29.639  1.00  0.00     0.134 A 
ATOM     66  C   UNL A   1      46.096  33.409  27.330  1.00  0.00     0.134 A 
ATOM     67  F   UNL A   1      46.644  32.222  30.719  1.00  0.00    -0.206 F 
ATOM     68  C   UNL A   1      46.985  34.349  29.788  1.00  0.00     0.040 A 
ATOM     69  C   UNL A   1      46.505  34.737  27.459  1.00  0.00     0.040 A 
ATOM     70  F   UNL A   1      45.670  32.995  26.126  1.00  0.00    -0.206 F 
ATOM     71  C   UNL A   1      46.946  35.211  28.692  1.00  0.00     0.006 A 
ENDBRANCH  50  64
BRANCH  51  72
ATOM     72  C   UNL A   1      42.968  23.194  26.982  1.00  0.00     0.057 A 
ATOM     73  C   UNL A   1      42.698  22.317  28.039  1.00  0.00     0.134 A 
ATOM     74  C   UNL A   1      42.790  22.714  25.680  1.00  0.00     0.134 A 
ATOM     75  F   UNL A   1      42.872  22.715  29.307  1.00  0.00    -0.206 F 
ATOM     76  C   UNL A   1      42.282  21.005  27.810  1.00  0.00     0.040 A 
ATOM     77  C   UNL A   1      42.355  21.411  25.436  1.00  0.00     0.040 A 
ATOM     78  F   UNL A   1      43.028  23.509  24.626  1.00  0.00    -0.206 F 
ATOM     79  C   UNL A   1      42.106  20.550  26.504  1.00  0.00     0.006 A 
ENDBRANCH  51  72
BRANCH  63  80
ATOM     80  C   UNL A   1      49.210  26.247  26.667  1.00  0.00     0.057 A 
ATOM     81  C   UNL A   1      49.761  26.360  25.384  1.00  0.00     0.134 A 
ATOM     82  C   UNL A   1      49.998  25.658  27.663  1.00  0.00     0.134 A 
ATOM     83  F   UNL A   1      49.050  26.902  24.384  1.00  0.00    -0.206 F 
ATOM     84  C   UNL A   1      51.044  25.889  25.100  1.00  0.00     0.040 A 
ATOM     85  C   UNL A   1      51.291  25.203  27.396  1.00  0.00     0.040 A 
ATOM     86  F   UNL A   1      49.530  25.525  28.912  1.00  0.00    -0.206 F 
ATOM     87  C   UNL A   1      51.815  25.315  26.110  1.00  0.00     0.006 A 
ENDBRANCH  63  80
ENDBRANCH  37  38
ENDBRANCH  29  32
ENDBRANCH  27  28
ENDBRANCH  26  27
ENDBRANCH   1  26
TORSDOF 14
ENDMDL
MODEL 2
REMARK VINA RESULT:     -12.2      0.385      6.215
REMARK SMILES CC[C@@H](C(=O)NCCCNC(=O)c1ccc(-c2c3nc(c(-c4c(F)cccc4F)c4ccc([nH]4)c(-c4c(F)cccc4F)c4nc(c(-c5c(F)cccc5F)c5ccc2[nH]5)C=C4)C=C3)cc1)N1C(=O)/C(=C/C(C)=C/c2ccccc2)SC1=S
REMARK SMILES IDX 7 1 6 2 4 3 5 4 3 6 2 7 1 8 67 9 68 10 82 11 69 12 70 13
REMARK SMILES IDX 81 14 83 15 71 16 72 17 73 18 74 19 75 20 76 21 80 22 77 23
REMARK SMILES IDX 79 24 78 25 8 26 9 27 10 28 11 29 12 31 13 32 14 33 66 34
REMARK SMILES IDX 15 35 65 36 16 37 17 38 18 39 59 40 19 41 64 42 58 43 60 44
REMARK SMILES IDX 20 45 63 46 57 47 56 48 21 50 47 51 30 52 46 53 31 54 34 55
REMARK SMILES IDX 45 56 61 57 32 58 33 59 44 61 62 62 35 63 22 64 23 65 28 66
REMARK SMILES IDX 24 67 25 68 27 69 29 70 26 71 48 72 49 73 54 74 50 75 51 76
REMARK SMILES IDX 53 77 55 78 52 79 36 80 37 81 42 82 38 83 39 84 41 85 43 86
REMARK SMILES IDX 40 87
REMARK H PARENT 6 5 10 30 60 49 34 60
REMARK Flexibility Score: inf
ROOT
ATOM      1  C   UNL A   1      33.580  28.948  26.232  1.00  0.00     0.117 C 
ENDROOT
BRANCH   1   2
ATOM      2  N   UNL A   1      32.569  28.047  26.767  1.00  0.00    -0.354 N 
ATOM      3  C   UNL A   1      31.703  27.186  26.153  1.00  0.00     0.243 C 
ATOM      4  O   UNL A   1      30.796  26.712  26.844  1.00  0.00    -0.273 OA
ATOM      5  H   UNL A   1      32.497  28.060  27.749  1.00  0.00     0.163 HD
BRANCH   3   6
ATOM      6  C   UNL A   1      31.801  26.897  24.637  1.00  0.00     0.181 C 
BRANCH   6   7
ATOM      7  C   UNL A   1      30.331  26.974  24.118  1.00  0.00     0.032 C 
ATOM      8  C   UNL A   1      29.975  28.277  23.422  1.00  0.00     0.006 C 
ENDBRANCH   6   7
BRANCH   6   9
ATOM      9  N   UNL A   1      32.360  25.553  24.303  1.00  0.00    -0.280 N 
ATOM     10  C   UNL A   1      33.122  24.805  25.181  1.00  0.00     0.266 C 
ATOM     11  C   UNL A   1      32.447  25.086  23.007  1.00  0.00     0.149 C 
ATOM     12  O   UNL A   1      33.691  25.218  26.193  1.00  0.00    -0.268 OA
ATOM     13  C   UNL A   1      33.321  23.414  24.654  1.00  0.00     0.080 C 
ATOM     14  S   UNL A   1      32.743  23.366  23.039  1.00  0.00    -0.054 SA
ATOM     15  S   UNL A   1      32.355  25.934  21.569  1.00  0.00    -0.052 S 
ATOM     16  C   UNL A   1      33.873  22.432  25.389  1.00  0.00     0.024 C 
BRANCH  16  17
ATOM     17  C   UNL A   1      34.107  21.000  25.104  1.00  0.00    -0.049 C 
ATOM     18  C   UNL A   1      35.571  20.639  24.974  1.00  0.00     0.044 C 
ATOM     19  C   UNL A   1      33.123  20.098  24.910  1.00  0.00     0.011 C 
BRANCH  19  20
ATOM     20  C   UNL A   1      33.163  18.633  24.724  1.00  0.00    -0.025 A 
ATOM     21  C   UNL A   1      32.613  17.834  25.740  1.00  0.00     0.008 A 
ATOM     22  C   UNL A   1      33.864  18.005  23.689  1.00  0.00     0.008 A 
ATOM     23  C   UNL A   1      32.740  16.443  25.710  1.00  0.00     0.001 A 
ATOM     24  C   UNL A   1      33.979  16.611  23.651  1.00  0.00     0.001 A 
ATOM     25  C   UNL A   1      33.421  15.832  24.662  1.00  0.00     0.000 A 
ENDBRANCH  19  20
ENDBRANCH  16  17
ENDBRANCH   6   9
ENDBRANCH   3   6
ENDBRANCH   1   2
BRANCH   1  26
ATOM     26  C   UNL A   1      34.835  28.975  27.105  1.00  0.00     0.042 C 
BRANCH  26  27
ATOM     27  C   UNL A   1      35.230  30.359  27.615  1.00  0.00     0.118 C 
BRANCH  27  28
ATOM     28  N   UNL A   1      35.194  30.445  29.065  1.00  0.00    -0.352 N 
ATOM     29  C   UNL A   1      36.143  30.092  29.995  1.00  0.00     0.251 C 
ATOM     30  H   UNL A   1      34.363  30.814  29.439  1.00  0.00     0.163 HD
ATOM     31  O   UNL A   1      35.834  30.070  31.184  1.00  0.00    -0.269 OA
BRANCH  29  32
ATOM     32  C   UNL A   1      37.524  29.718  29.596  1.00  0.00     0.039 A 
ATOM     33  C   UNL A   1      38.360  29.130  30.553  1.00  0.00     0.014 A 
ATOM     34  C   UNL A   1      38.029  29.994  28.322  1.00  0.00     0.014 A 
ATOM     35  C   UNL A   1      39.674  28.781  30.223  1.00  0.00     0.010 A 
ATOM     36  C   UNL A   1      39.318  29.582  27.972  1.00  0.00     0.010 A 
ATOM     37  C   UNL A   1      40.160  28.982  28.921  1.00  0.00    -0.014 A 
BRANCH  37  38
ATOM     38  C   UNL A   1      41.547  28.596  28.549  1.00  0.00     0.031 A 
ATOM     39  C   UNL A   1      41.858  27.184  28.125  1.00  0.00     0.074 A 
ATOM     40  C   UNL A   1      42.545  29.497  28.639  1.00  0.00     0.049 A 
ATOM     41  N   UNL A   1      43.014  26.642  27.830  1.00  0.00    -0.248 NA
ATOM     42  C   UNL A   1      40.722  26.251  28.049  1.00  0.00     0.031 C 
ATOM     43  C   UNL A   1      42.395  30.886  29.077  1.00  0.00     0.029 A 
ATOM     44  N   UNL A   1      43.888  29.374  28.378  1.00  0.00    -0.354 N 
ATOM     45  C   UNL A   1      42.749  25.306  27.560  1.00  0.00     0.074 A 
ATOM     46  C   UNL A   1      41.330  25.109  27.761  1.00  0.00     0.031 C 
ATOM     47  C   UNL A   1      43.595  31.490  29.041  1.00  0.00     0.029 A 
ATOM     48  C   UNL A   1      44.602  30.526  28.605  1.00  0.00     0.049 A 
ATOM     49  H   UNL A   1      44.300  28.539  28.058  1.00  0.00     0.167 HD
ATOM     50  C   UNL A   1      43.604  24.334  27.162  1.00  0.00     0.037 A 
ATOM     51  C   UNL A   1      45.919  30.777  28.484  1.00  0.00     0.037 A 
ATOM     52  C   UNL A   1      45.007  24.534  26.913  1.00  0.00     0.049 A 
ATOM     53  C   UNL A   1      46.844  29.690  28.013  1.00  0.00     0.074 A 
ATOM     54  C   UNL A   1      45.936  23.627  26.432  1.00  0.00     0.029 A 
ATOM     55  N   UNL A   1      45.684  25.724  27.124  1.00  0.00    -0.354 N 
ATOM     56  N   UNL A   1      46.565  28.449  27.700  1.00  0.00    -0.248 NA
ATOM     57  C   UNL A   1      48.265  30.040  27.874  1.00  0.00     0.031 C 
ATOM     58  C   UNL A   1      47.182  24.260  26.379  1.00  0.00     0.029 A 
ATOM     59  C   UNL A   1      47.022  25.572  26.797  1.00  0.00     0.049 A 
ATOM     60  H   UNL A   1      45.275  26.557  27.456  1.00  0.00     0.167 HD
ATOM     61  C   UNL A   1      47.769  27.878  27.305  1.00  0.00     0.074 A 
ATOM     62  C   UNL A   1      48.778  28.911  27.407  1.00  0.00     0.031 C 
ATOM     63  C   UNL A   1      48.014  26.609  26.896  1.00  0.00     0.037 A 
BRANCH  50  64
ATOM     64  C   UNL A   1      43.043  22.957  26.962  1.00  0.00     0.057 A 
ATOM     65  C   UNL A   1      42.828  22.428  25.683  1.00  0.00     0.134 A 
ATOM     66  C   UNL A   1      42.751  22.138  28.059  1.00  0.00     0.134 A 
ATOM     67  F   UNL A   1      43.077  23.165  24.591  1.00  0.00    -0.206 F 
ATOM     68  C   UNL A   1      42.321  21.139  25.503  1.00  0.00     0.040 A 
ATOM     69  C   UNL A   1      42.265  20.840  27.892  1.00  0.00     0.040 A 
ATOM     70  F   UNL A   1      42.942  22.583  29.311  1.00  0.00    -0.206 F 
ATOM     71  C   UNL A   1      42.044  20.340  26.611  1.00  0.00     0.006 A 
ENDBRANCH  50  64
BRANCH  51  72
ATOM     72  C   UNL A   1      46.446  32.129  28.794  1.00  0.00     0.057 A 
ATOM     73  C   UNL A   1      46.490  33.127  27.814  1.00  0.00     0.134 A 
ATOM     74  C   UNL A   1      46.924  32.452  30.069  1.00  0.00     0.134 A 
ATOM     75  F   UNL A   1      46.065  32.870  26.570  1.00  0.00    -0.206 F 
ATOM     76  C   UNL A   1      47.006  34.396  28.087  1.00  0.00     0.040 A 
ATOM     77  C   UNL A   1      47.424  33.721  30.361  1.00  0.00     0.040 A 
ATOM     78  F   UNL A   1      46.904  31.538  31.051  1.00  0.00    -0.206 F 
ATOM     79  C   UNL A   1      47.471  34.695  29.366  1.00  0.00     0.006 A 
ENDBRANCH  51  72
BRANCH  63  80
ATOM     80  C   UNL A   1      49.421  26.276  26.500  1.00  0.00     0.057 A 
ATOM     81  C   UNL A   1      50.315  25.678  27.396  1.00  0.00     0.134 A 
ATOM     82  C   UNL A   1      49.873  26.522  25.198  1.00  0.00     0.134 A 
ATOM     83  F   UNL A   1      49.945  25.430  28.662  1.00  0.00    -0.206 F 
ATOM     84  C   UNL A   1      51.618  25.351  27.015  1.00  0.00     0.040 A 
ATOM     85  C   UNL A   1      51.166  26.179  24.798  1.00  0.00     0.040 A 
ATOM     86  F   UNL A   1      49.064  27.087  24.290  1.00  0.00    -0.206 F 
ATOM     87  C   UNL A   1      52.044  25.596  25.710  1.00  0.00     0.006 A 
ENDBRANCH  63  80
ENDBRANCH  37  38
ENDBRANCH  29  32
ENDBRANCH  27  28
ENDBRANCH  26  27
ENDBRANCH   1  26
TORSDOF 14
ENDMDL
MODEL 3
REMARK VINA RESULT:     -12.1      4.321      8.084
REMARK SMILES CC[C@@H](C(=O)NCCCNC(=O)c1ccc(-c2c3nc(c(-c4c(F)cccc4F)c4ccc([nH]4)c(-c4c(F)cccc4F)c4nc(c(-c5c(F)cccc5F)c5ccc2[nH]5)C=C4)C=C3)cc1)N1C(=O)/C(=C/C(C)=C/c2ccccc2)SC1=S
REMARK SMILES IDX 7 1 6 2 4 3 5 4 3 6 2 7 1 8 67 9 68 10 82 11 69 12 70 13
REMARK SMILES IDX 81 14 83 15 71 16 72 17 73 18 74 19 75 20 76 21 80 22 77 23
REMARK SMILES IDX 79 24 78 25 8 26 9 27 10 28 11 29 12 31 13 32 14 33 66 34
REMARK SMILES IDX 15 35 65 36 16 37 17 38 18 39 59 40 19 41 64 42 58 43 60 44
REMARK SMILES IDX 20 45 63 46 57 47 56 48 21 50 47 51 30 52 46 53 31 54 34 55
REMARK SMILES IDX 45 56 61 57 32 58 33 59 44 61 62 62 35 63 22 64 23 65 28 66
REMARK SMILES IDX 24 67 25 68 27 69 29 70 26 71 48 72 49 73 54 74 50 75 51 76
REMARK SMILES IDX 53 77 55 78 52 79 36 80 37 81 42 82 38 83 39 84 41 85 43 86
REMARK SMILES IDX 40 87
REMARK H PARENT 6 5 10 30 60 49 34 60
REMARK Flexibility Score: inf
ROOT
ATOM      1  C   UNL A   1      31.076  30.480  26.003  1.00  0.00     0.117 C 
ENDROOT
BRANCH   1   2
ATOM      2  N   UNL A   1      31.837  29.958  24.876  1.00  0.00    -0.354 N 
ATOM      3  C   UNL A   1      32.562  28.809  24.724  1.00  0.00     0.243 C 
ATOM      4  O   UNL A   1      33.293  28.733  23.732  1.00  0.00    -0.273 OA
ATOM      5  H   UNL A   1      31.826  30.537  24.080  1.00  0.00     0.163 HD
BRANCH   3   6
ATOM      6  C   UNL A   1      32.538  27.699  25.801  1.00  0.00     0.181 C 
BRANCH   6   7
ATOM      7  C   UNL A   1      33.950  27.756  26.466  1.00  0.00     0.032 C 
ATOM      8  C   UNL A   1      34.210  29.009  27.285  1.00  0.00     0.006 C 
ENDBRANCH   6   7
BRANCH   6   9
ATOM      9  N   UNL A   1      32.316  26.325  25.260  1.00  0.00    -0.280 N 
ATOM     10  C   UNL A   1      33.344  25.464  24.922  1.00  0.00     0.266 C 
ATOM     11  C   UNL A   1      31.102  25.916  24.746  1.00  0.00     0.149 C 
ATOM     12  O   UNL A   1      34.522  25.769  24.728  1.00  0.00    -0.268 OA
ATOM     13  C   UNL A   1      32.811  24.088  24.650  1.00  0.00     0.080 C 
ATOM     14  S   UNL A   1      31.097  24.176  24.608  1.00  0.00    -0.054 SA
ATOM     15  S   UNL A   1      29.799  26.839  24.250  1.00  0.00    -0.052 S 
ATOM     16  C   UNL A   1      33.611  23.021  24.474  1.00  0.00     0.024 C 
BRANCH  16  17
ATOM     17  C   UNL A   1      33.313  21.589  24.258  1.00  0.00    -0.049 C 
ATOM     18  C   UNL A   1      32.451  21.325  23.043  1.00  0.00     0.044 C 
ATOM     19  C   UNL A   1      33.709  20.602  25.089  1.00  0.00     0.011 C 
BRANCH  19  20
ATOM     20  C   UNL A   1      33.598  19.133  24.983  1.00  0.00    -0.025 A 
ATOM     21  C   UNL A   1      34.627  18.451  24.314  1.00  0.00     0.008 A 
ATOM     22  C   UNL A   1      32.456  18.416  25.355  1.00  0.00     0.008 A 
ATOM     23  C   UNL A   1      34.529  17.084  24.045  1.00  0.00     0.001 A 
ATOM     24  C   UNL A   1      32.362  17.043  25.097  1.00  0.00     0.001 A 
ATOM     25  C   UNL A   1      33.396  16.380  24.440  1.00  0.00     0.000 A 
ENDBRANCH  19  20
ENDBRANCH  16  17
ENDBRANCH   6   9
ENDBRANCH   3   6
ENDBRANCH   1   2
BRANCH   1  26
ATOM     26  C   UNL A   1      31.237  31.995  26.142  1.00  0.00     0.042 C 
BRANCH  26  27
ATOM     27  C   UNL A   1      32.462  32.438  26.938  1.00  0.00     0.118 C 
BRANCH  27  28
ATOM     28  N   UNL A   1      32.327  33.788  27.456  1.00  0.00    -0.352 N 
ATOM     29  C   UNL A   1      33.089  34.460  28.382  1.00  0.00     0.251 C 
ATOM     30  H   UNL A   1      31.573  34.302  27.087  1.00  0.00     0.163 HD
ATOM     31  O   UNL A   1      32.686  35.534  28.822  1.00  0.00    -0.269 OA
BRANCH  29  32
ATOM     32  C   UNL A   1      34.376  33.909  28.878  1.00  0.00     0.039 A 
ATOM     33  C   UNL A   1      34.349  33.010  29.951  1.00  0.00     0.014 A 
ATOM     34  C   UNL A   1      35.608  34.312  28.354  1.00  0.00     0.014 A 
ATOM     35  C   UNL A   1      35.540  32.483  30.461  1.00  0.00     0.010 A 
ATOM     36  C   UNL A   1      36.793  33.733  28.817  1.00  0.00     0.010 A 
ATOM     37  C   UNL A   1      36.774  32.821  29.884  1.00  0.00    -0.014 A 
BRANCH  37  38
ATOM     38  C   UNL A   1      38.048  32.253  30.400  1.00  0.00     0.031 A 
ATOM     39  C   UNL A   1      38.609  30.983  29.815  1.00  0.00     0.074 A 
ATOM     40  C   UNL A   1      38.680  32.845  31.433  1.00  0.00     0.049 A 
ATOM     41  N   UNL A   1      39.667  30.301  30.177  1.00  0.00    -0.248 NA
ATOM     42  C   UNL A   1      37.869  30.389  28.691  1.00  0.00     0.031 C 
ATOM     43  C   UNL A   1      38.226  34.052  32.125  1.00  0.00     0.029 A 
ATOM     44  N   UNL A   1      39.837  32.501  32.090  1.00  0.00    -0.354 N 
ATOM     45  C   UNL A   1      39.704  29.188  29.347  1.00  0.00     0.074 A 
ATOM     46  C   UNL A   1      38.543  29.267  28.486  1.00  0.00     0.031 C 
ATOM     47  C   UNL A   1      39.101  34.356  33.098  1.00  0.00     0.029 A 
ATOM     48  C   UNL A   1      40.161  33.352  33.119  1.00  0.00     0.049 A 
ATOM     49  H   UNL A   1      40.382  31.718  31.846  1.00  0.00     0.167 HD
ATOM     50  C   UNL A   1      40.628  28.200  29.290  1.00  0.00     0.037 A 
ATOM     51  C   UNL A   1      41.191  33.324  33.986  1.00  0.00     0.037 A 
ATOM     52  C   UNL A   1      41.810  28.141  30.109  1.00  0.00     0.049 A 
ATOM     53  C   UNL A   1      42.220  32.233  33.885  1.00  0.00     0.074 A 
ATOM     54  C   UNL A   1      42.843  27.220  30.068  1.00  0.00     0.029 A 
ATOM     55  N   UNL A   1      42.117  29.041  31.117  1.00  0.00    -0.354 N 
ATOM     56  N   UNL A   1      42.273  31.225  33.050  1.00  0.00    -0.248 NA
ATOM     57  C   UNL A   1      43.334  32.279  34.843  1.00  0.00     0.031 C 
ATOM     58  C   UNL A   1      43.761  27.546  31.072  1.00  0.00     0.029 A 
ATOM     59  C   UNL A   1      43.316  28.689  31.715  1.00  0.00     0.049 A 
ATOM     60  H   UNL A   1      41.565  29.817  31.370  1.00  0.00     0.167 HD
ATOM     61  C   UNL A   1      43.435  30.531  33.366  1.00  0.00     0.074 A 
ATOM     62  C   UNL A   1      44.063  31.240  34.461  1.00  0.00     0.031 C 
ATOM     63  C   UNL A   1      43.934  29.407  32.799  1.00  0.00     0.037 A 
BRANCH  50  64
ATOM     64  C   UNL A   1      40.403  27.097  28.298  1.00  0.00     0.057 A 
ATOM     65  C   UNL A   1      40.976  27.126  27.021  1.00  0.00     0.134 A 
ATOM     66  C   UNL A   1      39.637  25.975  28.639  1.00  0.00     0.134 A 
ATOM     67  F   UNL A   1      41.711  28.178  26.629  1.00  0.00    -0.206 F 
ATOM     68  C   UNL A   1      40.776  26.089  26.107  1.00  0.00     0.040 A 
ATOM     69  C   UNL A   1      39.449  24.921  27.743  1.00  0.00     0.040 A 
ATOM     70  F   UNL A   1      39.067  25.882  29.850  1.00  0.00    -0.206 F 
ATOM     71  C   UNL A   1      40.015  24.979  26.472  1.00  0.00     0.006 A 
ENDBRANCH  50  64
BRANCH  51  72
ATOM     72  C   UNL A   1      41.316  34.381  35.020  1.00  0.00     0.057 A 
ATOM     73  C   UNL A   1      41.951  35.596  34.735  1.00  0.00     0.134 A 
ATOM     74  C   UNL A   1      40.815  34.200  36.313  1.00  0.00     0.134 A 
ATOM     75  F   UNL A   1      42.469  35.817  33.520  1.00  0.00    -0.206 F 
ATOM     76  C   UNL A   1      42.097  36.588  35.706  1.00  0.00     0.040 A 
ATOM     77  C   UNL A   1      40.935  35.191  37.288  1.00  0.00     0.040 A 
ATOM     78  F   UNL A   1      40.193  33.059  36.645  1.00  0.00    -0.206 F 
ATOM     79  C   UNL A   1      41.584  36.387  36.986  1.00  0.00     0.006 A 
ENDBRANCH  51  72
BRANCH  63  80
ATOM     80  C   UNL A   1      45.236  28.890  33.331  1.00  0.00     0.057 A 
ATOM     81  C   UNL A   1      46.464  29.290  32.789  1.00  0.00     0.134 A 
ATOM     82  C   UNL A   1      45.263  28.010  34.421  1.00  0.00     0.134 A 
ATOM     83  F   UNL A   1      46.504  30.120  31.736  1.00  0.00    -0.206 F 
ATOM     84  C   UNL A   1      47.674  28.821  33.304  1.00  0.00     0.040 A 
ATOM     85  C   UNL A   1      46.467  27.551  34.958  1.00  0.00     0.040 A 
ATOM     86  F   UNL A   1      44.122  27.594  34.988  1.00  0.00    -0.206 F 
ATOM     87  C   UNL A   1      47.677  27.954  34.395  1.00  0.00     0.006 A 
ENDBRANCH  63  80
ENDBRANCH  37  38
ENDBRANCH  29  32
ENDBRANCH  27  28
ENDBRANCH  26  27
ENDBRANCH   1  26
TORSDOF 14
ENDMDL
