MODEL 1
REMARK VINA RESULT:     -11.1      0.000      0.000
REMARK SMILES CC[C@](C)([NH3+])C(=O)N1CC[NH+]([C@H](C)C(=O)NCCCNC(=O)c2ccc(-c3c4nc(c(-c5c(F)cccc5F)c5ccc([nH]5)c(-c5c(F)cccc5F)c5nc(c(-c6c(F)cccc6F)c6ccc3[nH]6)C=C5)C=C4)cc2)CC1
REMARK SMILES IDX 17 1 16 2 14 3 15 4 12 6 13 7 11 8 6 9 7 10 8 11 9 12 78 13
REMARK SMILES IDX 10 14 77 15 3 17 4 18 2 19 1 20 5 21 18 25 19 26 20 27 21 28
REMARK SMILES IDX 22 30 23 31 24 32 76 33 25 34 75 35 26 36 27 37 28 38 69 39
REMARK SMILES IDX 29 40 74 41 68 42 70 43 30 44 73 45 67 46 66 47 31 49 57 50
REMARK SMILES IDX 40 51 56 52 41 53 44 54 55 55 71 56 42 57 43 58 54 60 72 61
REMARK SMILES IDX 45 62 32 63 33 64 38 65 34 66 35 67 37 68 39 69 36 70 58 71
REMARK SMILES IDX 59 72 64 73 60 74 61 75 63 76 65 77 62 78 46 79 47 80 52 81
REMARK SMILES IDX 48 82 49 83 51 84 53 85 50 86
REMARK H PARENT 16 5 11 16 5 22 5 23 5 24 20 29 70 48 44 59
REMARK Flexibility Score: inf
ROOT
ATOM      1  C   UNL A   1      36.442  20.687  25.006  1.00  0.00     0.118 C 
ENDROOT
BRANCH   1   2
ATOM      2  N   UNL A   1      35.307  19.799  25.193  1.00  0.00    -0.351 N 
ATOM      3  C   UNL A   1      33.998  19.927  24.824  1.00  0.00     0.278 C 
ATOM      4  O   UNL A   1      33.289  18.925  24.968  1.00  0.00    -0.268 OA
ATOM      5  H   UNL A   1      35.518  18.963  25.668  1.00  0.00     0.163 HD
BRANCH   3   6
ATOM      6  C   UNL A   1      33.400  21.250  24.287  1.00  0.00     0.271 C 
ATOM      7  C   UNL A   1      32.381  21.003  23.164  1.00  0.00     0.086 C 
BRANCH   6   8
ATOM      8  N   UNL A   1      33.100  22.238  25.365  1.00  0.00    -0.322 N 
ATOM      9  C   UNL A   1      31.460  25.928  26.083  1.00  0.00     0.283 C 
ATOM     10  O   UNL A   1      30.303  26.049  26.514  1.00  0.00    -0.268 OA
ATOM     11  N   UNL A   1      32.172  24.784  26.397  1.00  0.00    -0.326 N 
ATOM     12  C   UNL A   1      31.430  23.577  26.733  1.00  0.00     0.181 C 
ATOM     13  C   UNL A   1      33.608  24.520  26.338  1.00  0.00     0.181 C 
ATOM     14  C   UNL A   1      31.682  22.533  25.626  1.00  0.00     0.284 C 
ATOM     15  C   UNL A   1      33.919  23.467  25.255  1.00  0.00     0.284 C 
ATOM     16  H   UNL A   1      33.383  21.737  26.207  1.00  0.00     0.348 HD
BRANCH   9  17
ATOM     17  C   UNL A   1      31.961  26.954  25.003  1.00  0.00     0.171 C 
ATOM     18  C   UNL A   1      32.354  26.183  23.727  1.00  0.00     0.090 C 
BRANCH  17  19
ATOM     19  C   UNL A   1      33.177  27.741  25.563  1.00  0.00     0.075 C 
ATOM     20  C   UNL A   1      32.985  28.358  26.946  1.00  0.00     0.011 C 
ENDBRANCH  17  19
BRANCH  17  21
ATOM     21  N   UNL A   1      30.925  27.931  24.594  1.00  0.00    -0.345 N 
ATOM     22  H   UNL A   1      31.343  28.633  23.984  1.00  0.00     0.345 HD
ATOM     23  H   UNL A   1      30.540  28.386  25.422  1.00  0.00     0.345 HD
ATOM     24  H   UNL A   1      30.179  27.446  24.095  1.00  0.00     0.345 HD
ENDBRANCH  17  21
ENDBRANCH   9  17
ENDBRANCH   6   8
ENDBRANCH   3   6
ENDBRANCH   1   2
BRANCH   1  25
ATOM     25  C   UNL A   1      37.748  19.961  24.758  1.00  0.00     0.042 C 
BRANCH  25  26
ATOM     26  C   UNL A   1      38.856  20.377  25.712  1.00  0.00     0.118 C 
BRANCH  26  27
ATOM     27  N   UNL A   1      39.929  19.394  25.810  1.00  0.00    -0.352 N 
ATOM     28  C   UNL A   1      41.264  19.534  26.116  1.00  0.00     0.251 C 
ATOM     29  H   UNL A   1      39.651  18.467  25.625  1.00  0.00     0.163 HD
ATOM     30  O   UNL A   1      42.028  18.590  25.964  1.00  0.00    -0.269 OA
BRANCH  28  31
ATOM     31  C   UNL A   1      41.786  20.834  26.590  1.00  0.00     0.039 A 
ATOM     32  C   UNL A   1      42.300  21.746  25.663  1.00  0.00     0.014 A 
ATOM     33  C   UNL A   1      41.759  21.160  27.944  1.00  0.00     0.014 A 
ATOM     34  C   UNL A   1      42.681  23.021  26.087  1.00  0.00     0.010 A 
ATOM     35  C   UNL A   1      42.014  22.465  28.343  1.00  0.00     0.010 A 
ATOM     36  C   UNL A   1      42.481  23.412  27.421  1.00  0.00    -0.014 A 
BRANCH  36  37
ATOM     37  C   UNL A   1      42.751  24.794  27.891  1.00  0.00     0.031 A 
ATOM     38  C   UNL A   1      44.146  25.184  28.306  1.00  0.00     0.074 A 
ATOM     39  C   UNL A   1      41.730  25.659  28.055  1.00  0.00     0.049 A 
ATOM     40  N   UNL A   1      44.560  26.277  28.893  1.00  0.00    -0.248 NA
ATOM     41  C   UNL A   1      45.208  24.193  28.069  1.00  0.00     0.031 C 
ATOM     42  C   UNL A   1      40.324  25.384  27.749  1.00  0.00     0.029 A 
ATOM     43  N   UNL A   1      41.716  26.943  28.538  1.00  0.00    -0.354 N 
ATOM     44  C   UNL A   1      45.916  26.088  29.127  1.00  0.00     0.074 A 
ATOM     45  C   UNL A   1      46.243  24.754  28.672  1.00  0.00     0.031 C 
ATOM     46  C   UNL A   1      39.591  26.472  28.028  1.00  0.00     0.029 A 
ATOM     47  C   UNL A   1      40.464  27.506  28.575  1.00  0.00     0.049 A 
ATOM     48  H   UNL A   1      42.529  27.416  28.832  1.00  0.00     0.167 HD
ATOM     49  C   UNL A   1      46.814  26.955  29.647  1.00  0.00     0.037 A 
ATOM     50  C   UNL A   1      40.062  28.714  29.012  1.00  0.00     0.037 A 
ATOM     51  C   UNL A   1      46.496  28.299  30.047  1.00  0.00     0.049 A 
ATOM     52  C   UNL A   1      41.082  29.669  29.566  1.00  0.00     0.074 A 
ATOM     53  C   UNL A   1      47.349  29.287  30.505  1.00  0.00     0.029 A 
ATOM     54  N   UNL A   1      45.221  28.845  30.028  1.00  0.00    -0.354 N 
ATOM     55  N   UNL A   1      42.373  29.501  29.719  1.00  0.00    -0.248 NA
ATOM     56  C   UNL A   1      40.590  30.981  30.009  1.00  0.00     0.031 C 
ATOM     57  C   UNL A   1      46.584  30.420  30.800  1.00  0.00     0.029 A 
ATOM     58  C   UNL A   1      45.261  30.151  30.485  1.00  0.00     0.049 A 
ATOM     59  H   UNL A   1      44.409  28.374  29.734  1.00  0.00     0.167 HD
ATOM     60  C   UNL A   1      42.852  30.691  30.249  1.00  0.00     0.074 A 
ATOM     61  C   UNL A   1      41.714  31.577  30.381  1.00  0.00     0.031 C 
ATOM     62  C   UNL A   1      44.119  31.020  30.599  1.00  0.00     0.037 A 
BRANCH  49  63
ATOM     63  C   UNL A   1      48.230  26.480  29.799  1.00  0.00     0.057 A 
ATOM     64  C   UNL A   1      48.681  25.861  30.973  1.00  0.00     0.134 A 
ATOM     65  C   UNL A   1      49.148  26.620  28.751  1.00  0.00     0.134 A 
ATOM     66  F   UNL A   1      47.856  25.709  32.020  1.00  0.00    -0.206 F 
ATOM     67  C   UNL A   1      50.000  25.425  31.110  1.00  0.00     0.040 A 
ATOM     68  C   UNL A   1      50.462  26.162  28.865  1.00  0.00     0.040 A 
ATOM     69  F   UNL A   1      48.782  27.199  27.597  1.00  0.00    -0.206 F 
ATOM     70  C   UNL A   1      50.892  25.570  30.050  1.00  0.00     0.006 A 
ENDBRANCH  49  63
BRANCH  50  71
ATOM     71  C   UNL A   1      38.631  29.100  28.924  1.00  0.00     0.057 A 
ATOM     72  C   UNL A   1      38.088  29.578  27.726  1.00  0.00     0.134 A 
ATOM     73  C   UNL A   1      37.774  29.004  30.028  1.00  0.00     0.134 A 
ATOM     74  F   UNL A   1      38.864  29.708  26.640  1.00  0.00    -0.206 F 
ATOM     75  C   UNL A   1      36.750  29.966  27.631  1.00  0.00     0.040 A 
ATOM     76  C   UNL A   1      36.429  29.367  29.941  1.00  0.00     0.040 A 
ATOM     77  F   UNL A   1      38.230  28.545  31.202  1.00  0.00    -0.206 F 
ATOM     78  C   UNL A   1      35.915  29.856  28.741  1.00  0.00     0.006 A 
ENDBRANCH  50  71
BRANCH  62  79
ATOM     79  C   UNL A   1      44.348  32.404  31.127  1.00  0.00     0.057 A 
ATOM     80  C   UNL A   1      44.595  33.486  30.273  1.00  0.00     0.134 A 
ATOM     81  C   UNL A   1      44.266  32.666  32.501  1.00  0.00     0.134 A 
ATOM     82  F   UNL A   1      44.698  33.297  28.949  1.00  0.00    -0.206 F 
ATOM     83  C   UNL A   1      44.768  34.779  30.769  1.00  0.00     0.040 A 
ATOM     84  C   UNL A   1      44.412  33.957  33.006  1.00  0.00     0.040 A 
ATOM     85  F   UNL A   1      44.024  31.673  33.370  1.00  0.00    -0.206 F 
ATOM     86  C   UNL A   1      44.667  35.018  32.139  1.00  0.00     0.006 A 
ENDBRANCH  62  79
ENDBRANCH  36  37
ENDBRANCH  28  31
ENDBRANCH  26  27
ENDBRANCH  25  26
ENDBRANCH   1  25
TORSDOF 14
ENDMDL
MODEL 2
REMARK VINA RESULT:     -11.0      1.088      1.993
REMARK SMILES CC[C@](C)([NH3+])C(=O)N1CC[NH+]([C@H](C)C(=O)NCCCNC(=O)c2ccc(-c3c4nc(c(-c5c(F)cccc5F)c5ccc([nH]5)c(-c5c(F)cccc5F)c5nc(c(-c6c(F)cccc6F)c6ccc3[nH]6)C=C5)C=C4)cc2)CC1
REMARK SMILES IDX 17 1 16 2 14 3 15 4 12 6 13 7 11 8 6 9 7 10 8 11 9 12 78 13
REMARK SMILES IDX 10 14 77 15 3 17 4 18 2 19 1 20 5 21 18 25 19 26 20 27 21 28
REMARK SMILES IDX 22 30 23 31 24 32 76 33 25 34 75 35 26 36 27 37 28 38 69 39
REMARK SMILES IDX 29 40 74 41 68 42 70 43 30 44 73 45 67 46 66 47 31 49 57 50
REMARK SMILES IDX 40 51 56 52 41 53 44 54 55 55 71 56 42 57 43 58 54 60 72 61
REMARK SMILES IDX 45 62 32 63 33 64 38 65 34 66 35 67 37 68 39 69 36 70 58 71
REMARK SMILES IDX 59 72 64 73 60 74 61 75 63 76 65 77 62 78 46 79 47 80 52 81
REMARK SMILES IDX 48 82 49 83 51 84 53 85 50 86
REMARK H PARENT 16 5 11 16 5 22 5 23 5 24 20 29 70 48 44 59
REMARK Flexibility Score: inf
ROOT
ATOM      1  C   UNL A   1      36.498  20.771  25.138  1.00  0.00     0.118 C 
ENDROOT
BRANCH   1   2
ATOM      2  N   UNL A   1      35.242  20.053  25.006  1.00  0.00    -0.351 N 
ATOM      3  C   UNL A   1      33.954  20.450  25.228  1.00  0.00     0.278 C 
ATOM      4  O   UNL A   1      33.069  19.668  24.864  1.00  0.00    -0.268 OA
ATOM      5  H   UNL A   1      35.335  19.120  24.708  1.00  0.00     0.163 HD
BRANCH   3   6
ATOM      6  C   UNL A   1      33.594  21.785  25.925  1.00  0.00     0.271 C 
ATOM      7  C   UNL A   1      33.778  21.702  27.448  1.00  0.00     0.086 C 
BRANCH   6   8
ATOM      8  N   UNL A   1      34.073  22.985  25.178  1.00  0.00    -0.322 N 
ATOM      9  C   UNL A   1      32.830  26.451  23.371  1.00  0.00     0.283 C 
ATOM     10  O   UNL A   1      32.920  27.547  23.944  1.00  0.00    -0.268 OA
ATOM     11  N   UNL A   1      33.733  25.453  23.694  1.00  0.00    -0.326 N 
ATOM     12  C   UNL A   1      34.378  25.501  24.999  1.00  0.00     0.181 C 
ATOM     13  C   UNL A   1      34.089  24.233  22.975  1.00  0.00     0.181 C 
ATOM     14  C   UNL A   1      33.886  24.294  25.824  1.00  0.00     0.284 C 
ATOM     15  C   UNL A   1      33.634  22.989  23.764  1.00  0.00     0.284 C 
ATOM     16  H   UNL A   1      35.086  22.867  25.200  1.00  0.00     0.348 HD
BRANCH   9  17
ATOM     17  C   UNL A   1      31.551  26.170  22.501  1.00  0.00     0.171 C 
ATOM     18  C   UNL A   1      30.696  27.452  22.444  1.00  0.00     0.090 C 
BRANCH  17  19
ATOM     19  C   UNL A   1      30.745  25.000  23.128  1.00  0.00     0.075 C 
ATOM     20  C   UNL A   1      30.303  25.203  24.575  1.00  0.00     0.011 C 
ENDBRANCH  17  19
BRANCH  17  21
ATOM     21  N   UNL A   1      31.863  25.817  21.095  1.00  0.00    -0.345 N 
ATOM     22  H   UNL A   1      32.758  26.230  20.833  1.00  0.00     0.345 HD
ATOM     23  H   UNL A   1      31.130  26.177  20.483  1.00  0.00     0.345 HD
ATOM     24  H   UNL A   1      31.916  24.803  21.003  1.00  0.00     0.345 HD
ENDBRANCH  17  21
ENDBRANCH   9  17
ENDBRANCH   6   8
ENDBRANCH   3   6
ENDBRANCH   1   2
BRANCH   1  25
ATOM     25  C   UNL A   1      37.721  19.894  24.960  1.00  0.00     0.042 C 
BRANCH  25  26
ATOM     26  C   UNL A   1      38.933  20.394  25.729  1.00  0.00     0.118 C 
BRANCH  26  27
ATOM     27  N   UNL A   1      40.011  19.412  25.804  1.00  0.00    -0.352 N 
ATOM     28  C   UNL A   1      41.348  19.553  26.098  1.00  0.00     0.251 C 
ATOM     29  H   UNL A   1      39.733  18.488  25.609  1.00  0.00     0.163 HD
ATOM     30  O   UNL A   1      42.113  18.613  25.926  1.00  0.00    -0.269 OA
BRANCH  28  31
ATOM     31  C   UNL A   1      41.870  20.848  26.583  1.00  0.00     0.039 A 
ATOM     32  C   UNL A   1      42.350  21.783  25.661  1.00  0.00     0.014 A 
ATOM     33  C   UNL A   1      41.879  21.147  27.944  1.00  0.00     0.014 A 
ATOM     34  C   UNL A   1      42.730  23.054  26.100  1.00  0.00     0.010 A 
ATOM     35  C   UNL A   1      42.132  22.446  28.362  1.00  0.00     0.010 A 
ATOM     36  C   UNL A   1      42.565  23.416  27.446  1.00  0.00    -0.014 A 
BRANCH  36  37
ATOM     37  C   UNL A   1      42.835  24.791  27.937  1.00  0.00     0.031 A 
ATOM     38  C   UNL A   1      44.226  25.170  28.370  1.00  0.00     0.074 A 
ATOM     39  C   UNL A   1      41.815  25.657  28.101  1.00  0.00     0.049 A 
ATOM     40  N   UNL A   1      44.638  26.255  28.975  1.00  0.00    -0.248 NA
ATOM     41  C   UNL A   1      45.288  24.179  28.132  1.00  0.00     0.031 C 
ATOM     42  C   UNL A   1      40.412  25.392  27.778  1.00  0.00     0.029 A 
ATOM     43  N   UNL A   1      41.801  26.936  28.600  1.00  0.00    -0.354 N 
ATOM     44  C   UNL A   1      45.992  26.058  29.220  1.00  0.00     0.074 A 
ATOM     45  C   UNL A   1      46.319  24.729  28.752  1.00  0.00     0.031 C 
ATOM     46  C   UNL A   1      39.679  26.479  28.063  1.00  0.00     0.029 A 
ATOM     47  C   UNL A   1      40.550  27.502  28.632  1.00  0.00     0.049 A 
ATOM     48  H   UNL A   1      42.612  27.402  28.908  1.00  0.00     0.167 HD
ATOM     49  C   UNL A   1      46.888  26.916  29.760  1.00  0.00     0.037 A 
ATOM     50  C   UNL A   1      40.148  28.707  29.080  1.00  0.00     0.037 A 
ATOM     51  C   UNL A   1      46.570  28.255  30.173  1.00  0.00     0.049 A 
ATOM     52  C   UNL A   1      41.166  29.651  29.656  1.00  0.00     0.074 A 
ATOM     53  C   UNL A   1      47.422  29.235  30.652  1.00  0.00     0.029 A 
ATOM     54  N   UNL A   1      45.297  28.806  30.149  1.00  0.00    -0.354 N 
ATOM     55  N   UNL A   1      42.455  29.476  29.820  1.00  0.00    -0.248 NA
ATOM     56  C   UNL A   1      40.674  30.959  30.110  1.00  0.00     0.031 C 
ATOM     57  C   UNL A   1      46.658  30.367  30.954  1.00  0.00     0.029 A 
ATOM     58  C   UNL A   1      45.337  30.106  30.623  1.00  0.00     0.049 A 
ATOM     59  H   UNL A   1      44.487  28.342  29.840  1.00  0.00     0.167 HD
ATOM     60  C   UNL A   1      42.932  30.657  30.370  1.00  0.00     0.074 A 
ATOM     61  C   UNL A   1      41.797  31.547  30.501  1.00  0.00     0.031 C 
ATOM     62  C   UNL A   1      44.197  30.978  30.736  1.00  0.00     0.037 A 
BRANCH  49  63
ATOM     63  C   UNL A   1      48.300  26.434  29.920  1.00  0.00     0.057 A 
ATOM     64  C   UNL A   1      49.264  26.625  28.920  1.00  0.00     0.134 A 
ATOM     65  C   UNL A   1      48.710  25.794  31.096  1.00  0.00     0.134 A 
ATOM     66  F   UNL A   1      48.934  27.218  27.763  1.00  0.00    -0.206 F 
ATOM     67  C   UNL A   1      50.575  26.171  29.073  1.00  0.00     0.040 A 
ATOM     68  C   UNL A   1      50.025  25.362  31.272  1.00  0.00     0.040 A 
ATOM     69  F   UNL A   1      47.840  25.583  32.095  1.00  0.00    -0.206 F 
ATOM     70  C   UNL A   1      50.960  25.543  30.255  1.00  0.00     0.006 A 
ENDBRANCH  49  63
BRANCH  50  71
ATOM     71  C   UNL A   1      38.720  29.099  28.983  1.00  0.00     0.057 A 
ATOM     72  C   UNL A   1      37.871  29.001  30.091  1.00  0.00     0.134 A 
ATOM     73  C   UNL A   1      38.168  29.575  27.787  1.00  0.00     0.134 A 
ATOM     74  F   UNL A   1      38.338  28.536  31.259  1.00  0.00    -0.206 F 
ATOM     75  C   UNL A   1      36.519  29.345  30.012  1.00  0.00     0.040 A 
ATOM     76  C   UNL A   1      36.824  29.944  27.700  1.00  0.00     0.040 A 
ATOM     77  F   UNL A   1      38.929  29.701  26.692  1.00  0.00    -0.206 F 
ATOM     78  C   UNL A   1      35.994  29.822  28.813  1.00  0.00     0.006 A 
ENDBRANCH  50  71
BRANCH  62  79
ATOM     79  C   UNL A   1      44.426  32.354  31.284  1.00  0.00     0.057 A 
ATOM     80  C   UNL A   1      44.694  33.444  30.446  1.00  0.00     0.134 A 
ATOM     81  C   UNL A   1      44.323  32.601  32.659  1.00  0.00     0.134 A 
ATOM     82  F   UNL A   1      44.818  33.270  29.122  1.00  0.00    -0.206 F 
ATOM     83  C   UNL A   1      44.866  34.730  30.960  1.00  0.00     0.040 A 
ATOM     84  C   UNL A   1      44.468  33.885  33.181  1.00  0.00     0.040 A 
ATOM     85  F   UNL A   1      44.059  31.600  33.512  1.00  0.00    -0.206 F 
ATOM     86  C   UNL A   1      44.744  34.955  32.331  1.00  0.00     0.006 A 
ENDBRANCH  62  79
ENDBRANCH  36  37
ENDBRANCH  28  31
ENDBRANCH  26  27
ENDBRANCH  25  26
ENDBRANCH   1  25
TORSDOF 14
ENDMDL
MODEL 3
REMARK VINA RESULT:     -11.0      4.207      8.910
REMARK SMILES CC[C@](C)([NH3+])C(=O)N1CC[NH+]([C@H](C)C(=O)NCCCNC(=O)c2ccc(-c3c4nc(c(-c5c(F)cccc5F)c5ccc([nH]5)c(-c5c(F)cccc5F)c5nc(c(-c6c(F)cccc6F)c6ccc3[nH]6)C=C5)C=C4)cc2)CC1
REMARK SMILES IDX 17 1 16 2 14 3 15 4 12 6 13 7 11 8 6 9 7 10 8 11 9 12 78 13
REMARK SMILES IDX 10 14 77 15 3 17 4 18 2 19 1 20 5 21 18 25 19 26 20 27 21 28
REMARK SMILES IDX 22 30 23 31 24 32 76 33 25 34 75 35 26 36 27 37 28 38 69 39
REMARK SMILES IDX 29 40 74 41 68 42 70 43 30 44 73 45 67 46 66 47 31 49 57 50
REMARK SMILES IDX 40 51 56 52 41 53 44 54 55 55 71 56 42 57 43 58 54 60 72 61
REMARK SMILES IDX 45 62 32 63 33 64 38 65 34 66 35 67 37 68 39 69 36 70 58 71
REMARK SMILES IDX 59 72 64 73 60 74 61 75 63 76 65 77 62 78 46 79 47 80 52 81
REMARK SMILES IDX 48 82 49 83 51 84 53 85 50 86
REMARK H PARENT 16 5 11 16 5 22 5 23 5 24 20 29 70 48 44 59
REMARK Flexibility Score: inf
ROOT
ATOM      1  C   UNL A   1      31.028  30.541  25.375  1.00  0.00     0.118 C 
ENDROOT
BRANCH   1   2
ATOM      2  N   UNL A   1      30.381  30.494  24.075  1.00  0.00    -0.351 N 
ATOM      3  C   UNL A   1      29.895  29.442  23.352  1.00  0.00     0.278 C 
ATOM      4  O   UNL A   1      29.238  29.727  22.345  1.00  0.00    -0.268 OA
ATOM      5  H   UNL A   1      30.276  31.371  23.641  1.00  0.00     0.163 HD
BRANCH   3   6
ATOM      6  C   UNL A   1      30.168  27.966  23.729  1.00  0.00     0.271 C 
ATOM      7  C   UNL A   1      28.924  27.085  23.530  1.00  0.00     0.086 C 
BRANCH   6   8
ATOM      8  N   UNL A   1      31.506  27.482  23.277  1.00  0.00    -0.322 N 
ATOM      9  C   UNL A   1      33.926  24.175  23.112  1.00  0.00     0.283 C 
ATOM     10  O   UNL A   1      34.027  23.499  22.078  1.00  0.00    -0.268 OA
ATOM     11  N   UNL A   1      33.624  25.521  23.003  1.00  0.00    -0.326 N 
ATOM     12  C   UNL A   1      32.931  25.978  21.806  1.00  0.00     0.181 C 
ATOM     13  C   UNL A   1      33.777  26.605  23.970  1.00  0.00     0.181 C 
ATOM     14  C   UNL A   1      31.525  26.459  22.219  1.00  0.00     0.284 C 
ATOM     15  C   UNL A   1      32.398  27.138  24.407  1.00  0.00     0.284 C 
ATOM     16  H   UNL A   1      31.887  28.301  22.803  1.00  0.00     0.348 HD
BRANCH   9  17
ATOM     17  C   UNL A   1      33.895  23.422  24.492  1.00  0.00     0.171 C 
ATOM     18  C   UNL A   1      35.061  23.932  25.364  1.00  0.00     0.090 C 
BRANCH  17  19
ATOM     19  C   UNL A   1      34.019  21.893  24.251  1.00  0.00     0.075 C 
ATOM     20  C   UNL A   1      32.712  21.107  24.306  1.00  0.00     0.011 C 
ENDBRANCH  17  19
BRANCH  17  21
ATOM     21  N   UNL A   1      32.658  23.670  25.270  1.00  0.00    -0.345 N 
ATOM     22  H   UNL A   1      32.690  24.608  25.668  1.00  0.00     0.345 HD
ATOM     23  H   UNL A   1      32.586  22.984  26.022  1.00  0.00     0.345 HD
ATOM     24  H   UNL A   1      31.848  23.588  24.655  1.00  0.00     0.345 HD
ENDBRANCH  17  21
ENDBRANCH   9  17
ENDBRANCH   6   8
ENDBRANCH   3   6
ENDBRANCH   1   2
BRANCH   1  25
ATOM     25  C   UNL A   1      30.970  31.904  26.035  1.00  0.00     0.042 C 
BRANCH  25  26
ATOM     26  C   UNL A   1      32.197  32.215  26.876  1.00  0.00     0.118 C 
BRANCH  26  27
ATOM     27  N   UNL A   1      32.216  33.585  27.380  1.00  0.00    -0.352 N 
ATOM     28  C   UNL A   1      33.068  34.219  28.256  1.00  0.00     0.251 C 
ATOM     29  H   UNL A   1      31.491  34.155  27.033  1.00  0.00     0.163 HD
ATOM     30  O   UNL A   1      32.789  35.332  28.680  1.00  0.00    -0.269 OA
BRANCH  28  31
ATOM     31  C   UNL A   1      34.299  33.542  28.715  1.00  0.00     0.039 A 
ATOM     32  C   UNL A   1      35.527  34.203  28.606  1.00  0.00     0.014 A 
ATOM     33  C   UNL A   1      34.246  32.261  29.261  1.00  0.00     0.014 A 
ATOM     34  C   UNL A   1      36.675  33.621  29.149  1.00  0.00     0.010 A 
ATOM     35  C   UNL A   1      35.357  31.744  29.913  1.00  0.00     0.010 A 
ATOM     36  C   UNL A   1      36.587  32.415  29.862  1.00  0.00    -0.014 A 
BRANCH  36  37
ATOM     37  C   UNL A   1      37.754  31.822  30.564  1.00  0.00     0.031 A 
ATOM     38  C   UNL A   1      38.564  30.746  29.889  1.00  0.00     0.074 A 
ATOM     39  C   UNL A   1      38.014  32.164  31.841  1.00  0.00     0.049 A 
ATOM     40  N   UNL A   1      39.510  29.990  30.383  1.00  0.00    -0.248 NA
ATOM     41  C   UNL A   1      38.234  30.451  28.486  1.00  0.00     0.031 C 
ATOM     42  C   UNL A   1      37.266  33.148  32.628  1.00  0.00     0.029 A 
ATOM     43  N   UNL A   1      38.972  31.707  32.711  1.00  0.00    -0.354 N 
ATOM     44  C   UNL A   1      39.859  29.111  29.366  1.00  0.00     0.074 A 
ATOM     45  C   UNL A   1      38.985  29.387  28.248  1.00  0.00     0.031 C 
ATOM     46  C   UNL A   1      37.808  33.237  33.853  1.00  0.00     0.029 A 
ATOM     47  C   UNL A   1      38.910  32.286  33.955  1.00  0.00     0.049 A 
ATOM     48  H   UNL A   1      39.640  31.026  32.466  1.00  0.00     0.167 HD
ATOM     49  C   UNL A   1      40.838  28.177  29.353  1.00  0.00     0.037 A 
ATOM     50  C   UNL A   1      39.650  32.067  35.058  1.00  0.00     0.037 A 
ATOM     51  C   UNL A   1      41.741  27.943  30.447  1.00  0.00     0.049 A 
ATOM     52  C   UNL A   1      40.747  31.040  35.012  1.00  0.00     0.074 A 
ATOM     53  C   UNL A   1      42.821  27.081  30.504  1.00  0.00     0.029 A 
ATOM     54  N   UNL A   1      41.671  28.583  31.676  1.00  0.00    -0.354 N 
ATOM     55  N   UNL A   1      41.108  30.262  34.021  1.00  0.00    -0.248 NA
ATOM     56  C   UNL A   1      41.536  30.858  36.238  1.00  0.00     0.031 C 
ATOM     57  C   UNL A   1      43.383  27.170  31.782  1.00  0.00     0.029 A 
ATOM     58  C   UNL A   1      42.678  28.120  32.505  1.00  0.00     0.049 A 
ATOM     59  H   UNL A   1      41.005  29.263  31.921  1.00  0.00     0.167 HD
ATOM     60  C   UNL A   1      42.182  29.519  34.492  1.00  0.00     0.074 A 
ATOM     61  C   UNL A   1      42.420  29.947  35.855  1.00  0.00     0.031 C 
ATOM     62  C   UNL A   1      42.904  28.565  33.856  1.00  0.00     0.037 A 
BRANCH  49  63
ATOM     63  C   UNL A   1      40.990  27.349  28.110  1.00  0.00     0.057 A 
ATOM     64  C   UNL A   1      40.317  26.130  27.947  1.00  0.00     0.134 A 
ATOM     65  C   UNL A   1      41.798  27.785  27.054  1.00  0.00     0.134 A 
ATOM     66  F   UNL A   1      39.538  25.647  28.926  1.00  0.00    -0.206 F 
ATOM     67  C   UNL A   1      40.466  25.362  26.790  1.00  0.00     0.040 A 
ATOM     68  C   UNL A   1      41.932  27.041  25.881  1.00  0.00     0.040 A 
ATOM     69  F   UNL A   1      42.467  28.946  27.142  1.00  0.00    -0.206 F 
ATOM     70  C   UNL A   1      41.271  25.822  25.751  1.00  0.00     0.006 A 
ENDBRANCH  49  63
BRANCH  50  71
ATOM     71  C   UNL A   1      39.397  32.851  36.293  1.00  0.00     0.057 A 
ATOM     72  C   UNL A   1      38.467  32.414  37.243  1.00  0.00     0.134 A 
ATOM     73  C   UNL A   1      40.070  34.051  36.554  1.00  0.00     0.134 A 
ATOM     74  F   UNL A   1      37.778  31.281  37.040  1.00  0.00    -0.206 F 
ATOM     75  C   UNL A   1      38.199  33.150  38.399  1.00  0.00     0.040 A 
ATOM     76  C   UNL A   1      39.830  34.785  37.717  1.00  0.00     0.040 A 
ATOM     77  F   UNL A   1      40.980  34.519  35.688  1.00  0.00    -0.206 F 
ATOM     78  C   UNL A   1      38.886  34.338  38.641  1.00  0.00     0.006 A 
ENDBRANCH  50  71
BRANCH  62  79
ATOM     79  C   UNL A   1      44.039  27.944  34.612  1.00  0.00     0.057 A 
ATOM     80  C   UNL A   1      45.315  28.519  34.630  1.00  0.00     0.134 A 
ATOM     81  C   UNL A   1      43.837  26.786  35.376  1.00  0.00     0.134 A 
ATOM     82  F   UNL A   1      45.575  29.620  33.909  1.00  0.00    -0.206 F 
ATOM     83  C   UNL A   1      46.356  27.956  35.370  1.00  0.00     0.040 A 
ATOM     84  C   UNL A   1      44.862  26.229  36.138  1.00  0.00     0.040 A 
ATOM     85  F   UNL A   1      42.634  26.192  35.407  1.00  0.00    -0.206 F 
ATOM     86  C   UNL A   1      46.128  26.812  36.134  1.00  0.00     0.006 A 
ENDBRANCH  62  79
ENDBRANCH  36  37
ENDBRANCH  28  31
ENDBRANCH  26  27
ENDBRANCH  25  26
ENDBRANCH   1  25
TORSDOF 14
ENDMDL
