MODEL 1
REMARK VINA RESULT:     -12.5      0.000      0.000
REMARK SMILES Cc1cc(=O)n2cc(-c3ccccc3)nc2n1[C@H](C)C(=O)NCCCNC(=O)c1ccc(-c2c3nc(c(-c4c(F)cccc4F)c4ccc([nH]4)c(-c4c(F)cccc4F)c4nc(c(-c5c(F)cccc5F)c5ccc2[nH]5)C=C4)C=C3)cc1
REMARK SMILES IDX 24 1 23 2 22 3 20 4 21 5 18 7 19 8 17 9 1 10 2 11 3 12 4 13
REMARK SMILES IDX 16 14 5 15 6 16 15 17 7 18 8 19 9 20 10 21 14 22 11 23 13 24
REMARK SMILES IDX 12 25 25 26 26 27 27 28 28 30 29 31 30 32 82 33 31 34 81 35
REMARK SMILES IDX 32 36 33 37 34 38 75 39 35 40 80 41 74 42 76 43 36 44 79 45
REMARK SMILES IDX 73 46 72 47 37 49 63 50 46 51 62 52 47 53 50 54 61 55 77 56
REMARK SMILES IDX 48 57 49 58 60 60 78 61 51 62 38 63 39 64 44 65 40 66 41 67
REMARK SMILES IDX 43 68 45 69 42 70 64 71 65 72 70 73 66 74 67 75 69 76 71 77
REMARK SMILES IDX 68 78 52 79 53 80 58 81 54 82 55 83 57 84 59 85 56 86
REMARK H PARENT 22 6 26 29 76 48 50 59
REMARK Flexibility Score: inf
ROOT
ATOM      1  C   UNL A   1      33.637  30.379  27.515  1.00  0.00     0.042 C 
ENDROOT
BRANCH   1   2
ATOM      2  C   UNL A   1      34.366  29.244  26.809  1.00  0.00     0.117 C 
BRANCH   2   3
ATOM      3  N   UNL A   1      34.004  29.104  25.415  1.00  0.00    -0.354 N 
ATOM      4  C   UNL A   1      33.222  28.167  24.807  1.00  0.00     0.242 C 
ATOM      5  O   UNL A   1      33.017  28.322  23.595  1.00  0.00    -0.273 OA
ATOM      6  H   UNL A   1      34.379  29.789  24.816  1.00  0.00     0.163 HD
BRANCH   4   7
ATOM      7  C   UNL A   1      32.641  26.939  25.545  1.00  0.00     0.176 C 
ATOM      8  C   UNL A   1      31.476  27.380  26.426  1.00  0.00     0.042 C 
BRANCH   7   9
ATOM      9  N   UNL A   1      32.468  25.747  24.640  1.00  0.00    -0.303 N 
ATOM     10  C   UNL A   1      30.091  26.477  24.083  1.00  0.00     0.065 C 
ATOM     11  C   UNL A   1      31.221  25.473  24.018  1.00  0.00     0.024 A 
ATOM     12  C   UNL A   1      30.985  24.321  23.362  1.00  0.00     0.093 A 
ATOM     13  C   UNL A   1      32.018  23.270  23.293  1.00  0.00     0.259 A 
ATOM     14  C   UNL A   1      33.490  24.829  24.509  1.00  0.00     0.218 A 
ATOM     15  O   UNL A   1      31.855  22.177  22.792  1.00  0.00    -0.269 OA
ATOM     16  N   UNL A   1      33.228  23.616  23.889  1.00  0.00    -0.251 N 
ATOM     17  N   UNL A   1      34.711  24.826  25.005  1.00  0.00    -0.212 NA
ATOM     18  C   UNL A   1      34.340  22.818  24.047  1.00  0.00     0.127 A 
ATOM     19  C   UNL A   1      35.239  23.588  24.741  1.00  0.00     0.091 A 
BRANCH  19  20
ATOM     20  C   UNL A   1      36.546  23.159  25.186  1.00  0.00     0.002 A 
ATOM     21  C   UNL A   1      37.349  24.011  25.947  1.00  0.00     0.010 A 
ATOM     22  C   UNL A   1      37.013  21.875  24.883  1.00  0.00     0.010 A 
ATOM     23  C   UNL A   1      38.589  23.570  26.420  1.00  0.00     0.001 A 
ATOM     24  C   UNL A   1      38.247  21.430  25.361  1.00  0.00     0.001 A 
ATOM     25  C   UNL A   1      39.033  22.278  26.135  1.00  0.00     0.000 A 
ENDBRANCH  19  20
ENDBRANCH   7   9
ENDBRANCH   4   7
ENDBRANCH   2   3
ENDBRANCH   1   2
BRANCH   1  26
ATOM     26  C   UNL A   1      34.546  31.565  27.730  1.00  0.00     0.118 C 
BRANCH  26  27
ATOM     27  N   UNL A   1      34.504  32.069  29.110  1.00  0.00    -0.352 N 
ATOM     28  C   UNL A   1      35.316  31.709  30.169  1.00  0.00     0.251 C 
ATOM     29  H   UNL A   1      33.814  32.744  29.303  1.00  0.00     0.163 HD
ATOM     30  O   UNL A   1      35.030  31.982  31.326  1.00  0.00    -0.269 OA
BRANCH  28  31
ATOM     31  C   UNL A   1      36.545  30.974  29.849  1.00  0.00     0.039 A 
ATOM     32  C   UNL A   1      37.741  31.632  29.564  1.00  0.00     0.014 A 
ATOM     33  C   UNL A   1      36.492  29.595  30.011  1.00  0.00     0.014 A 
ATOM     34  C   UNL A   1      38.915  30.885  29.548  1.00  0.00     0.010 A 
ATOM     35  C   UNL A   1      37.660  28.920  30.224  1.00  0.00     0.010 A 
ATOM     36  C   UNL A   1      38.868  29.532  29.914  1.00  0.00    -0.014 A 
BRANCH  36  37
ATOM     37  C   UNL A   1      40.079  28.733  30.037  1.00  0.00     0.031 A 
ATOM     38  C   UNL A   1      40.667  28.647  31.401  1.00  0.00     0.074 A 
ATOM     39  C   UNL A   1      40.531  27.962  29.026  1.00  0.00     0.049 A 
ATOM     40  N   UNL A   1      41.796  29.130  31.802  1.00  0.00    -0.248 NA
ATOM     41  C   UNL A   1      39.861  28.051  32.477  1.00  0.00     0.031 C 
ATOM     42  C   UNL A   1      39.925  27.693  27.714  1.00  0.00     0.029 A 
ATOM     43  N   UNL A   1      41.632  27.170  29.006  1.00  0.00    -0.354 N 
ATOM     44  C   UNL A   1      41.939  28.742  33.133  1.00  0.00     0.074 A 
ATOM     45  C   UNL A   1      40.659  28.221  33.535  1.00  0.00     0.031 C 
ATOM     46  C   UNL A   1      40.537  26.639  27.134  1.00  0.00     0.029 A 
ATOM     47  C   UNL A   1      41.695  26.295  27.932  1.00  0.00     0.049 A 
ATOM     48  H   UNL A   1      42.330  27.211  29.699  1.00  0.00     0.167 HD
ATOM     49  C   UNL A   1      43.164  28.695  33.728  1.00  0.00     0.037 A 
ATOM     50  C   UNL A   1      42.641  25.356  27.709  1.00  0.00     0.037 A 
ATOM     51  C   UNL A   1      44.137  29.441  32.968  1.00  0.00     0.049 A 
ATOM     52  C   UNL A   1      43.834  25.749  28.499  1.00  0.00     0.074 A 
ATOM     53  C   UNL A   1      44.255  30.764  32.582  1.00  0.00     0.029 A 
ATOM     54  N   UNL A   1      44.991  28.743  32.148  1.00  0.00    -0.354 N 
ATOM     55  N   UNL A   1      44.546  26.813  28.244  1.00  0.00    -0.248 NA
ATOM     56  C   UNL A   1      43.942  25.237  29.857  1.00  0.00     0.031 C 
ATOM     57  C   UNL A   1      44.755  30.711  31.247  1.00  0.00     0.029 A 
ATOM     58  C   UNL A   1      44.979  29.371  30.928  1.00  0.00     0.049 A 
ATOM     59  H   UNL A   1      45.512  27.943  32.389  1.00  0.00     0.167 HD
ATOM     60  C   UNL A   1      44.856  27.344  29.487  1.00  0.00     0.074 A 
ATOM     61  C   UNL A   1      44.527  26.285  30.443  1.00  0.00     0.031 C 
ATOM     62  C   UNL A   1      45.075  28.682  29.659  1.00  0.00     0.037 A 
BRANCH  49  63
ATOM     63  C   UNL A   1      43.570  27.714  34.802  1.00  0.00     0.057 A 
ATOM     64  C   UNL A   1      43.593  26.337  34.506  1.00  0.00     0.134 A 
ATOM     65  C   UNL A   1      43.664  28.028  36.172  1.00  0.00     0.134 A 
ATOM     66  F   UNL A   1      43.502  25.901  33.241  1.00  0.00    -0.206 F 
ATOM     67  C   UNL A   1      43.629  25.353  35.502  1.00  0.00     0.040 A 
ATOM     68  C   UNL A   1      43.751  27.054  37.171  1.00  0.00     0.040 A 
ATOM     69  F   UNL A   1      43.575  29.282  36.629  1.00  0.00    -0.206 F 
ATOM     70  C   UNL A   1      43.700  25.710  36.842  1.00  0.00     0.006 A 
ENDBRANCH  49  63
BRANCH  50  71
ATOM     71  C   UNL A   1      42.471  24.026  27.090  1.00  0.00     0.057 A 
ATOM     72  C   UNL A   1      42.783  23.802  25.744  1.00  0.00     0.134 A 
ATOM     73  C   UNL A   1      42.244  22.879  27.873  1.00  0.00     0.134 A 
ATOM     74  F   UNL A   1      43.054  24.833  24.929  1.00  0.00    -0.206 F 
ATOM     75  C   UNL A   1      42.886  22.512  25.209  1.00  0.00     0.040 A 
ATOM     76  C   UNL A   1      42.339  21.584  27.351  1.00  0.00     0.040 A 
ATOM     77  F   UNL A   1      42.008  22.974  29.189  1.00  0.00    -0.206 F 
ATOM     78  C   UNL A   1      42.675  21.396  26.017  1.00  0.00     0.006 A 
ENDBRANCH  50  71
BRANCH  62  79
ATOM     79  C   UNL A   1      45.166  29.554  28.434  1.00  0.00     0.057 A 
ATOM     80  C   UNL A   1      44.074  30.249  27.888  1.00  0.00     0.134 A 
ATOM     81  C   UNL A   1      46.426  29.865  27.914  1.00  0.00     0.134 A 
ATOM     82  F   UNL A   1      42.841  30.094  28.377  1.00  0.00    -0.206 F 
ATOM     83  C   UNL A   1      44.226  31.187  26.863  1.00  0.00     0.040 A 
ATOM     84  C   UNL A   1      46.596  30.822  26.909  1.00  0.00     0.040 A 
ATOM     85  F   UNL A   1      47.526  29.286  28.420  1.00  0.00    -0.206 F 
ATOM     86  C   UNL A   1      45.493  31.485  26.377  1.00  0.00     0.006 A 
ENDBRANCH  62  79
ENDBRANCH  36  37
ENDBRANCH  28  31
ENDBRANCH  26  27
ENDBRANCH   1  26
TORSDOF 12
ENDMDL
MODEL 2
REMARK VINA RESULT:     -12.1      1.865      6.140
REMARK SMILES Cc1cc(=O)n2cc(-c3ccccc3)nc2n1[C@H](C)C(=O)NCCCNC(=O)c1ccc(-c2c3nc(c(-c4c(F)cccc4F)c4ccc([nH]4)c(-c4c(F)cccc4F)c4nc(c(-c5c(F)cccc5F)c5ccc2[nH]5)C=C4)C=C3)cc1
REMARK SMILES IDX 24 1 23 2 22 3 20 4 21 5 18 7 19 8 17 9 1 10 2 11 3 12 4 13
REMARK SMILES IDX 16 14 5 15 6 16 15 17 7 18 8 19 9 20 10 21 14 22 11 23 13 24
REMARK SMILES IDX 12 25 25 26 26 27 27 28 28 30 29 31 30 32 82 33 31 34 81 35
REMARK SMILES IDX 32 36 33 37 34 38 75 39 35 40 80 41 74 42 76 43 36 44 79 45
REMARK SMILES IDX 73 46 72 47 37 49 63 50 46 51 62 52 47 53 50 54 61 55 77 56
REMARK SMILES IDX 48 57 49 58 60 60 78 61 51 62 38 63 39 64 44 65 40 66 41 67
REMARK SMILES IDX 43 68 45 69 42 70 64 71 65 72 70 73 66 74 67 75 69 76 71 77
REMARK SMILES IDX 68 78 52 79 53 80 58 81 54 82 55 83 57 84 59 85 56 86
REMARK H PARENT 22 6 26 29 76 48 50 59
REMARK Flexibility Score: inf
ROOT
ATOM      1  C   UNL A   1      34.623  28.946  27.226  1.00  0.00     0.042 C 
ENDROOT
BRANCH   1   2
ATOM      2  C   UNL A   1      33.434  29.551  26.493  1.00  0.00     0.117 C 
BRANCH   2   3
ATOM      3  N   UNL A   1      33.360  29.169  25.099  1.00  0.00    -0.354 N 
ATOM      4  C   UNL A   1      32.919  28.008  24.535  1.00  0.00     0.242 C 
ATOM      5  O   UNL A   1      32.900  27.969  23.297  1.00  0.00    -0.273 OA
ATOM      6  H   UNL A   1      33.676  29.850  24.463  1.00  0.00     0.163 HD
BRANCH   4   7
ATOM      7  C   UNL A   1      32.498  26.770  25.361  1.00  0.00     0.176 C 
ATOM      8  C   UNL A   1      31.347  27.146  26.290  1.00  0.00     0.042 C 
BRANCH   7   9
ATOM      9  N   UNL A   1      32.390  25.523  24.523  1.00  0.00    -0.303 N 
ATOM     10  C   UNL A   1      29.987  26.109  23.910  1.00  0.00     0.065 C 
ATOM     11  C   UNL A   1      31.163  25.157  23.908  1.00  0.00     0.024 A 
ATOM     12  C   UNL A   1      30.988  23.961  23.316  1.00  0.00     0.093 A 
ATOM     13  C   UNL A   1      32.069  22.958  23.312  1.00  0.00     0.259 A 
ATOM     14  C   UNL A   1      33.455  24.650  24.450  1.00  0.00     0.218 A 
ATOM     15  O   UNL A   1      31.962  21.833  22.871  1.00  0.00    -0.269 OA
ATOM     16  N   UNL A   1      33.256  23.392  23.896  1.00  0.00    -0.251 N 
ATOM     17  N   UNL A   1      34.670  24.732  24.954  1.00  0.00    -0.212 NA
ATOM     18  C   UNL A   1      34.403  22.658  24.106  1.00  0.00     0.127 A 
ATOM     19  C   UNL A   1      35.258  23.507  24.763  1.00  0.00     0.091 A 
BRANCH  19  20
ATOM     20  C   UNL A   1      36.579  23.165  25.240  1.00  0.00     0.002 A 
ATOM     21  C   UNL A   1      37.323  24.084  25.983  1.00  0.00     0.010 A 
ATOM     22  C   UNL A   1      37.121  21.900  24.986  1.00  0.00     0.010 A 
ATOM     23  C   UNL A   1      38.577  23.728  26.487  1.00  0.00     0.001 A 
ATOM     24  C   UNL A   1      38.369  21.539  25.496  1.00  0.00     0.001 A 
ATOM     25  C   UNL A   1      39.096  22.454  26.252  1.00  0.00     0.000 A 
ENDBRANCH  19  20
ENDBRANCH   7   9
ENDBRANCH   4   7
ENDBRANCH   2   3
ENDBRANCH   1   2
BRANCH   1  26
ATOM     26  C   UNL A   1      35.587  30.014  27.683  1.00  0.00     0.118 C 
BRANCH  26  27
ATOM     27  N   UNL A   1      35.634  30.146  29.146  1.00  0.00    -0.352 N 
ATOM     28  C   UNL A   1      36.542  29.578  30.020  1.00  0.00     0.251 C 
ATOM     29  H   UNL A   1      34.935  30.708  29.553  1.00  0.00     0.163 HD
ATOM     30  O   UNL A   1      36.338  29.529  31.225  1.00  0.00    -0.269 OA
BRANCH  28  31
ATOM     31  C   UNL A   1      37.770  29.023  29.439  1.00  0.00     0.039 A 
ATOM     32  C   UNL A   1      38.401  29.619  28.348  1.00  0.00     0.014 A 
ATOM     33  C   UNL A   1      38.358  27.977  30.139  1.00  0.00     0.014 A 
ATOM     34  C   UNL A   1      39.693  29.212  28.031  1.00  0.00     0.010 A 
ATOM     35  C   UNL A   1      39.695  27.752  29.972  1.00  0.00     0.010 A 
ATOM     36  C   UNL A   1      40.347  28.299  28.873  1.00  0.00    -0.014 A 
BRANCH  36  37
ATOM     37  C   UNL A   1      41.740  27.932  28.665  1.00  0.00     0.031 A 
ATOM     38  C   UNL A   1      41.977  26.682  27.893  1.00  0.00     0.074 A 
ATOM     39  C   UNL A   1      42.752  28.769  28.980  1.00  0.00     0.049 A 
ATOM     40  N   UNL A   1      42.491  25.578  28.324  1.00  0.00    -0.248 NA
ATOM     41  C   UNL A   1      41.488  26.609  26.509  1.00  0.00     0.031 C 
ATOM     42  C   UNL A   1      42.700  30.152  29.474  1.00  0.00     0.029 A 
ATOM     43  N   UNL A   1      44.085  28.560  28.835  1.00  0.00    -0.354 N 
ATOM     44  C   UNL A   1      42.567  24.726  27.225  1.00  0.00     0.074 A 
ATOM     45  C   UNL A   1      41.798  25.351  26.182  1.00  0.00     0.031 C 
ATOM     46  C   UNL A   1      43.919  30.723  29.366  1.00  0.00     0.029 A 
ATOM     47  C   UNL A   1      44.866  29.694  28.992  1.00  0.00     0.049 A 
ATOM     48  H   UNL A   1      44.466  27.675  28.633  1.00  0.00     0.167 HD
ATOM     49  C   UNL A   1      43.432  23.672  27.206  1.00  0.00     0.037 A 
ATOM     50  C   UNL A   1      46.206  29.780  28.833  1.00  0.00     0.037 A 
ATOM     51  C   UNL A   1      43.900  23.364  28.535  1.00  0.00     0.049 A 
ATOM     52  C   UNL A   1      46.745  28.404  28.967  1.00  0.00     0.074 A 
ATOM     53  C   UNL A   1      43.283  22.977  29.712  1.00  0.00     0.029 A 
ATOM     54  N   UNL A   1      45.143  23.817  28.905  1.00  0.00    -0.354 N 
ATOM     55  N   UNL A   1      46.721  27.727  30.082  1.00  0.00    -0.248 NA
ATOM     56  C   UNL A   1      46.863  27.606  27.755  1.00  0.00     0.031 C 
ATOM     57  C   UNL A   1      43.971  23.693  30.736  1.00  0.00     0.029 A 
ATOM     58  C   UNL A   1      45.005  24.412  30.134  1.00  0.00     0.049 A 
ATOM     59  H   UNL A   1      45.976  23.731  28.387  1.00  0.00     0.167 HD
ATOM     60  C   UNL A   1      46.399  26.430  29.708  1.00  0.00     0.074 A 
ATOM     61  C   UNL A   1      46.580  26.401  28.256  1.00  0.00     0.031 C 
ATOM     62  C   UNL A   1      45.742  25.584  30.555  1.00  0.00     0.037 A 
BRANCH  49  63
ATOM     63  C   UNL A   1      44.116  23.133  25.973  1.00  0.00     0.057 A 
ATOM     64  C   UNL A   1      44.020  21.760  25.675  1.00  0.00     0.134 A 
ATOM     65  C   UNL A   1      45.083  23.836  25.228  1.00  0.00     0.134 A 
ATOM     66  F   UNL A   1      43.146  20.973  26.318  1.00  0.00    -0.206 F 
ATOM     67  C   UNL A   1      44.875  21.125  24.764  1.00  0.00     0.040 A 
ATOM     68  C   UNL A   1      45.907  23.222  24.280  1.00  0.00     0.040 A 
ATOM     69  F   UNL A   1      45.356  25.128  25.444  1.00  0.00    -0.206 F 
ATOM     70  C   UNL A   1      45.829  21.856  24.068  1.00  0.00     0.006 A 
ENDBRANCH  49  63
BRANCH  50  71
ATOM     71  C   UNL A   1      46.986  30.918  28.306  1.00  0.00     0.057 A 
ATOM     72  C   UNL A   1      46.787  31.400  27.007  1.00  0.00     0.134 A 
ATOM     73  C   UNL A   1      47.761  31.729  29.157  1.00  0.00     0.134 A 
ATOM     74  F   UNL A   1      46.030  30.716  26.138  1.00  0.00    -0.206 F 
ATOM     75  C   UNL A   1      47.311  32.628  26.582  1.00  0.00     0.040 A 
ATOM     76  C   UNL A   1      48.294  32.954  28.744  1.00  0.00     0.040 A 
ATOM     77  F   UNL A   1      47.954  31.398  30.442  1.00  0.00    -0.206 F 
ATOM     78  C   UNL A   1      48.058  33.415  27.455  1.00  0.00     0.006 A 
ENDBRANCH  50  71
BRANCH  62  79
ATOM     79  C   UNL A   1      45.539  26.018  31.984  1.00  0.00     0.057 A 
ATOM     80  C   UNL A   1      44.360  26.614  32.459  1.00  0.00     0.134 A 
ATOM     81  C   UNL A   1      46.478  25.637  32.948  1.00  0.00     0.134 A 
ATOM     82  F   UNL A   1      43.361  26.929  31.629  1.00  0.00    -0.206 F 
ATOM     83  C   UNL A   1      44.135  26.841  33.820  1.00  0.00     0.040 A 
ATOM     84  C   UNL A   1      46.255  25.831  34.315  1.00  0.00     0.040 A 
ATOM     85  F   UNL A   1      47.606  25.010  32.581  1.00  0.00    -0.206 F 
ATOM     86  C   UNL A   1      45.082  26.438  34.755  1.00  0.00     0.006 A 
ENDBRANCH  62  79
ENDBRANCH  36  37
ENDBRANCH  28  31
ENDBRANCH  26  27
ENDBRANCH   1  26
TORSDOF 12
ENDMDL
MODEL 3
REMARK VINA RESULT:     -12.1      2.683      7.928
REMARK SMILES Cc1cc(=O)n2cc(-c3ccccc3)nc2n1[C@H](C)C(=O)NCCCNC(=O)c1ccc(-c2c3nc(c(-c4c(F)cccc4F)c4ccc([nH]4)c(-c4c(F)cccc4F)c4nc(c(-c5c(F)cccc5F)c5ccc2[nH]5)C=C4)C=C3)cc1
REMARK SMILES IDX 24 1 23 2 22 3 20 4 21 5 18 7 19 8 17 9 1 10 2 11 3 12 4 13
REMARK SMILES IDX 16 14 5 15 6 16 15 17 7 18 8 19 9 20 10 21 14 22 11 23 13 24
REMARK SMILES IDX 12 25 25 26 26 27 27 28 28 30 29 31 30 32 82 33 31 34 81 35
REMARK SMILES IDX 32 36 33 37 34 38 75 39 35 40 80 41 74 42 76 43 36 44 79 45
REMARK SMILES IDX 73 46 72 47 37 49 63 50 46 51 62 52 47 53 50 54 61 55 77 56
REMARK SMILES IDX 48 57 49 58 60 60 78 61 51 62 38 63 39 64 44 65 40 66 41 67
REMARK SMILES IDX 43 68 45 69 42 70 64 71 65 72 70 73 66 74 67 75 69 76 71 77
REMARK SMILES IDX 68 78 52 79 53 80 58 81 54 82 55 83 57 84 59 85 56 86
REMARK H PARENT 22 6 26 29 76 48 50 59
REMARK Flexibility Score: inf
ROOT
ATOM      1  C   UNL A   1      38.199  23.796  26.113  1.00  0.00     0.042 C 
ENDROOT
BRANCH   1   2
ATOM      2  C   UNL A   1      37.522  22.535  25.595  1.00  0.00     0.117 C 
BRANCH   2   3
ATOM      3  N   UNL A   1      36.241  22.272  26.215  1.00  0.00    -0.354 N 
ATOM      4  C   UNL A   1      34.991  22.664  25.834  1.00  0.00     0.242 C 
ATOM      5  O   UNL A   1      34.049  22.238  26.515  1.00  0.00    -0.273 OA
ATOM      6  H   UNL A   1      36.278  21.729  27.035  1.00  0.00     0.163 HD
BRANCH   4   7
ATOM      7  C   UNL A   1      34.727  23.623  24.650  1.00  0.00     0.176 C 
ATOM      8  C   UNL A   1      35.397  23.074  23.393  1.00  0.00     0.042 C 
BRANCH   7   9
ATOM      9  N   UNL A   1      33.292  24.076  24.580  1.00  0.00    -0.303 N 
ATOM     10  C   UNL A   1      32.656  21.968  23.298  1.00  0.00     0.065 C 
ATOM     11  C   UNL A   1      32.323  23.336  23.853  1.00  0.00     0.024 A 
ATOM     12  C   UNL A   1      31.087  23.813  23.616  1.00  0.00     0.093 A 
ATOM     13  C   UNL A   1      30.697  25.157  24.083  1.00  0.00     0.259 A 
ATOM     14  C   UNL A   1      32.930  25.294  25.118  1.00  0.00     0.218 A 
ATOM     15  O   UNL A   1      29.633  25.687  23.841  1.00  0.00    -0.269 OA
ATOM     16  N   UNL A   1      31.678  25.814  24.820  1.00  0.00    -0.251 N 
ATOM     17  N   UNL A   1      33.635  26.179  25.794  1.00  0.00    -0.212 NA
ATOM     18  C   UNL A   1      31.632  27.099  25.314  1.00  0.00     0.127 A 
ATOM     19  C   UNL A   1      32.852  27.300  25.909  1.00  0.00     0.091 A 
BRANCH  19  20
ATOM     20  C   UNL A   1      33.293  28.529  26.530  1.00  0.00     0.002 A 
ATOM     21  C   UNL A   1      34.618  28.677  26.944  1.00  0.00     0.010 A 
ATOM     22  C   UNL A   1      32.404  29.596  26.702  1.00  0.00     0.010 A 
ATOM     23  C   UNL A   1      35.050  29.887  27.494  1.00  0.00     0.001 A 
ATOM     24  C   UNL A   1      32.835  30.808  27.244  1.00  0.00     0.001 A 
ATOM     25  C   UNL A   1      34.162  30.955  27.635  1.00  0.00     0.000 A 
ENDBRANCH  19  20
ENDBRANCH   7   9
ENDBRANCH   4   7
ENDBRANCH   2   3
ENDBRANCH   1   2
BRANCH   1  26
ATOM     26  C   UNL A   1      39.245  23.470  27.151  1.00  0.00     0.118 C 
BRANCH  26  27
ATOM     27  N   UNL A   1      40.446  22.852  26.572  1.00  0.00    -0.352 N 
ATOM     28  C   UNL A   1      41.586  23.483  26.111  1.00  0.00     0.251 C 
ATOM     29  H   UNL A   1      40.438  21.870  26.505  1.00  0.00     0.163 HD
ATOM     30  O   UNL A   1      42.405  22.907  25.408  1.00  0.00    -0.269 OA
BRANCH  28  31
ATOM     31  C   UNL A   1      41.774  24.886  26.495  1.00  0.00     0.039 A 
ATOM     32  C   UNL A   1      41.245  25.932  25.740  1.00  0.00     0.014 A 
ATOM     33  C   UNL A   1      42.359  25.107  27.736  1.00  0.00     0.014 A 
ATOM     34  C   UNL A   1      41.219  27.204  26.303  1.00  0.00     0.010 A 
ATOM     35  C   UNL A   1      42.119  26.294  28.367  1.00  0.00     0.010 A 
ATOM     36  C   UNL A   1      41.629  27.369  27.635  1.00  0.00    -0.014 A 
BRANCH  36  37
ATOM     37  C   UNL A   1      41.505  28.649  28.317  1.00  0.00     0.031 A 
ATOM     38  C   UNL A   1      42.628  29.605  28.118  1.00  0.00     0.074 A 
ATOM     39  C   UNL A   1      40.363  29.022  28.931  1.00  0.00     0.049 A 
ATOM     40  N   UNL A   1      43.473  30.020  29.003  1.00  0.00    -0.248 NA
ATOM     41  C   UNL A   1      42.917  30.073  26.755  1.00  0.00     0.031 C 
ATOM     42  C   UNL A   1      39.062  28.339  28.979  1.00  0.00     0.029 A 
ATOM     43  N   UNL A   1      40.109  30.179  29.595  1.00  0.00    -0.354 N 
ATOM     44  C   UNL A   1      44.290  30.947  28.359  1.00  0.00     0.074 A 
ATOM     45  C   UNL A   1      44.005  30.822  26.954  1.00  0.00     0.031 C 
ATOM     46  C   UNL A   1      38.114  29.189  29.429  1.00  0.00     0.029 A 
ATOM     47  C   UNL A   1      38.772  30.395  29.887  1.00  0.00     0.049 A 
ATOM     48  H   UNL A   1      40.818  30.813  29.847  1.00  0.00     0.167 HD
ATOM     49  C   UNL A   1      44.986  31.885  29.064  1.00  0.00     0.037 A 
ATOM     50  C   UNL A   1      38.240  31.491  30.475  1.00  0.00     0.037 A 
ATOM     51  C   UNL A   1      45.064  31.530  30.459  1.00  0.00     0.049 A 
ATOM     52  C   UNL A   1      39.343  32.170  31.197  1.00  0.00     0.074 A 
ATOM     53  C   UNL A   1      45.593  30.458  31.156  1.00  0.00     0.029 A 
ATOM     54  N   UNL A   1      44.200  32.144  31.333  1.00  0.00    -0.354 N 
ATOM     55  N   UNL A   1      39.945  31.659  32.237  1.00  0.00    -0.248 NA
ATOM     56  C   UNL A   1      40.099  33.182  30.473  1.00  0.00     0.031 C 
ATOM     57  C   UNL A   1      44.646  30.192  32.189  1.00  0.00     0.029 A 
ATOM     58  C   UNL A   1      43.641  31.157  32.106  1.00  0.00     0.049 A 
ATOM     59  H   UNL A   1      44.017  33.110  31.394  1.00  0.00     0.167 HD
ATOM     60  C   UNL A   1      41.287  31.965  32.061  1.00  0.00     0.074 A 
ATOM     61  C   UNL A   1      41.308  32.974  31.001  1.00  0.00     0.031 C 
ATOM     62  C   UNL A   1      42.273  31.173  32.577  1.00  0.00     0.037 A 
BRANCH  49  63
ATOM     63  C   UNL A   1      45.306  33.277  28.573  1.00  0.00     0.057 A 
ATOM     64  C   UNL A   1      44.253  34.147  28.230  1.00  0.00     0.134 A 
ATOM     65  C   UNL A   1      46.584  33.700  28.160  1.00  0.00     0.134 A 
ATOM     66  F   UNL A   1      42.984  33.858  28.555  1.00  0.00    -0.206 F 
ATOM     67  C   UNL A   1      44.450  35.306  27.469  1.00  0.00     0.040 A 
ATOM     68  C   UNL A   1      46.799  34.881  27.443  1.00  0.00     0.040 A 
ATOM     69  F   UNL A   1      47.680  32.953  28.335  1.00  0.00    -0.206 F 
ATOM     70  C   UNL A   1      45.727  35.672  27.064  1.00  0.00     0.006 A 
ENDBRANCH  49  63
BRANCH  50  71
ATOM     71  C   UNL A   1      36.925  32.111  30.215  1.00  0.00     0.057 A 
ATOM     72  C   UNL A   1      35.838  31.902  31.071  1.00  0.00     0.134 A 
ATOM     73  C   UNL A   1      36.776  33.136  29.262  1.00  0.00     0.134 A 
ATOM     74  F   UNL A   1      35.902  30.973  32.037  1.00  0.00    -0.206 F 
ATOM     75  C   UNL A   1      34.675  32.680  31.000  1.00  0.00     0.040 A 
ATOM     76  C   UNL A   1      35.619  33.918  29.177  1.00  0.00     0.040 A 
ATOM     77  F   UNL A   1      37.782  33.468  28.440  1.00  0.00    -0.206 F 
ATOM     78  C   UNL A   1      34.568  33.700  30.057  1.00  0.00     0.006 A 
ENDBRANCH  50  71
BRANCH  62  79
ATOM     79  C   UNL A   1      41.880  30.059  33.512  1.00  0.00     0.057 A 
ATOM     80  C   UNL A   1      41.645  28.738  33.098  1.00  0.00     0.134 A 
ATOM     81  C   UNL A   1      41.941  30.278  34.892  1.00  0.00     0.134 A 
ATOM     82  F   UNL A   1      41.660  28.406  31.804  1.00  0.00    -0.206 F 
ATOM     83  C   UNL A   1      41.458  27.694  34.008  1.00  0.00     0.040 A 
ATOM     84  C   UNL A   1      41.785  29.239  35.814  1.00  0.00     0.040 A 
ATOM     85  F   UNL A   1      42.218  31.502  35.369  1.00  0.00    -0.206 F 
ATOM     86  C   UNL A   1      41.538  27.941  35.374  1.00  0.00     0.006 A 
ENDBRANCH  62  79
ENDBRANCH  36  37
ENDBRANCH  28  31
ENDBRANCH  26  27
ENDBRANCH   1  26
TORSDOF 12
ENDMDL
