MODEL 1
REMARK VINA RESULT:     -14.5      0.000      0.000
REMARK SMILES CC[C@H](C)[C@H](NC(=O)[C@H](C)Oc1ccc2c(C)c(C)c(=O)oc2c1C)C(=O)NCCCNC(=O)c1ccc(-c2c3nc(c(-c4c(F)cccc4F)c4ccc([nH]4)c(-c4c(F)cccc4F)c4nc(c(-c5c(F)cccc5F)c5ccc2[nH]5)C=C4)C=C3)cc1
REMARK SMILES IDX 29 1 28 2 26 3 27 4 5 6 3 7 4 8 2 9 1 10 6 11 7 12 8 14 9 15
REMARK SMILES IDX 10 16 11 17 12 18 13 19 24 20 14 21 23 22 25 23 15 24 22 25
REMARK SMILES IDX 16 26 20 27 17 28 18 29 21 30 19 31 30 32 31 33 32 34 33 35
REMARK SMILES IDX 34 37 35 38 36 39 88 40 37 41 87 42 38 43 39 44 40 45 81 46
REMARK SMILES IDX 41 47 86 48 80 49 82 50 42 51 85 52 79 53 78 54 43 56 69 57
REMARK SMILES IDX 52 58 68 59 53 60 56 61 67 62 83 63 54 64 55 65 66 67 84 68
REMARK SMILES IDX 57 69 44 70 45 71 50 72 46 73 47 74 49 75 51 76 48 77 70 78
REMARK SMILES IDX 71 79 76 80 72 81 73 82 75 83 77 84 74 85 58 86 59 87 64 88
REMARK SMILES IDX 60 89 61 90 63 91 65 92 62 93
REMARK H PARENT 28 5 6 13 32 36 82 55 56 66
REMARK Flexibility Score: inf
ROOT
ATOM      1  C   UNL A   1      30.282  30.678  24.584  1.00  0.00     0.117 C 
ENDROOT
BRANCH   1   2
ATOM      2  N   UNL A   1      30.991  29.820  23.531  1.00  0.00    -0.354 N 
ATOM      3  C   UNL A   1      31.726  28.662  23.355  1.00  0.00     0.242 C 
ATOM      4  O   UNL A   1      32.535  28.563  22.431  1.00  0.00    -0.273 OA
ATOM      5  H   UNL A   1      30.883  30.254  22.655  1.00  0.00     0.163 HD
BRANCH   3   6
ATOM      6  C   UNL A   1      31.558  27.409  24.174  1.00  0.00     0.174 C 
BRANCH   6   7
ATOM      7  C   UNL A   1      30.808  26.380  23.280  1.00  0.00     0.018 C 
ATOM      8  C   UNL A   1      31.683  25.149  22.947  1.00  0.00     0.010 C 
BRANCH   7   9
ATOM      9  C   UNL A   1      29.514  25.839  23.979  1.00  0.00     0.002 C 
ATOM     10  C   UNL A   1      28.268  26.708  23.843  1.00  0.00     0.004 C 
ENDBRANCH   7   9
ENDBRANCH   6   7
BRANCH   6  11
ATOM     11  N   UNL A   1      31.022  27.866  25.399  1.00  0.00    -0.341 N 
ATOM     12  C   UNL A   1      31.795  27.719  26.533  1.00  0.00     0.261 C 
ATOM     13  H   UNL A   1      30.128  28.276  25.442  1.00  0.00     0.164 HD
ATOM     14  O   UNL A   1      31.231  27.968  27.604  1.00  0.00    -0.271 OA
BRANCH  12  15
ATOM     15  C   UNL A   1      33.459  27.202  26.425  1.00  0.00     0.258 C 
ATOM     16  C   UNL A   1      34.081  28.649  26.655  1.00  0.00     0.064 C 
BRANCH  15  17
ATOM     17  O   UNL A   1      34.380  26.081  25.660  1.00  0.00    -0.480 OA
BRANCH  17  18
ATOM     18  C   UNL A   1      34.599  24.640  25.620  1.00  0.00     0.127 A 
ATOM     19  C   UNL A   1      35.855  24.013  25.508  1.00  0.00     0.047 A 
ATOM     20  C   UNL A   1      33.626  23.619  25.819  1.00  0.00     0.035 A 
ATOM     21  C   UNL A   1      36.182  22.657  25.310  1.00  0.00     0.016 A 
ATOM     22  C   UNL A   1      33.934  22.212  25.512  1.00  0.00     0.145 A 
ATOM     23  C   UNL A   1      32.231  23.868  26.306  1.00  0.00     0.052 C 
ATOM     24  C   UNL A   1      35.200  21.723  25.231  1.00  0.00     0.021 A 
ATOM     25  O   UNL A   1      32.870  21.272  25.445  1.00  0.00    -0.422 OA
ATOM     26  C   UNL A   1      35.490  20.317  24.928  1.00  0.00    -0.030 A 
ATOM     27  C   UNL A   1      33.052  19.945  25.038  1.00  0.00     0.339 A 
ATOM     28  C   UNL A   1      36.934  19.899  24.723  1.00  0.00     0.045 C 
ATOM     29  C   UNL A   1      34.451  19.466  24.834  1.00  0.00     0.038 A 
ATOM     30  O   UNL A   1      32.093  19.202  24.864  1.00  0.00    -0.246 OA
ATOM     31  C   UNL A   1      34.639  18.005  24.516  1.00  0.00     0.052 C 
ENDBRANCH  17  18
ENDBRANCH  15  17
ENDBRANCH  12  15
ENDBRANCH   6  11
ENDBRANCH   3   6
ENDBRANCH   1   2
BRANCH   1  32
ATOM     32  C   UNL A   1      30.831  31.793  25.760  1.00  0.00     0.042 C 
BRANCH  32  33
ATOM     33  C   UNL A   1      31.946  32.098  27.007  1.00  0.00     0.118 C 
BRANCH  33  34
ATOM     34  N   UNL A   1      32.434  33.474  27.493  1.00  0.00    -0.352 N 
ATOM     35  C   UNL A   1      33.564  34.012  28.079  1.00  0.00     0.251 C 
ATOM     36  H   UNL A   1      31.748  34.163  27.347  1.00  0.00     0.163 HD
ATOM     37  O   UNL A   1      33.574  35.119  28.610  1.00  0.00    -0.269 OA
BRANCH  35  38
ATOM     38  C   UNL A   1      34.728  33.164  28.140  1.00  0.00     0.039 A 
ATOM     39  C   UNL A   1      36.012  33.734  28.153  1.00  0.00     0.014 A 
ATOM     40  C   UNL A   1      34.434  31.887  28.579  1.00  0.00     0.014 A 
ATOM     41  C   UNL A   1      37.019  33.037  28.794  1.00  0.00     0.010 A 
ATOM     42  C   UNL A   1      35.412  31.235  29.269  1.00  0.00     0.010 A 
ATOM     43  C   UNL A   1      36.690  31.816  29.391  1.00  0.00    -0.014 A 
BRANCH  43  44
ATOM     44  C   UNL A   1      37.678  30.964  30.043  1.00  0.00     0.031 A 
ATOM     45  C   UNL A   1      37.944  31.283  31.475  1.00  0.00     0.074 A 
ATOM     46  C   UNL A   1      38.438  30.140  29.306  1.00  0.00     0.049 A 
ATOM     47  N   UNL A   1      38.961  30.957  32.216  1.00  0.00    -0.248 NA
ATOM     48  C   UNL A   1      36.969  32.183  32.127  1.00  0.00     0.031 C 
ATOM     49  C   UNL A   1      38.266  29.851  27.879  1.00  0.00     0.029 A 
ATOM     50  N   UNL A   1      39.548  29.432  29.663  1.00  0.00    -0.354 N 
ATOM     51  C   UNL A   1      38.753  31.621  33.414  1.00  0.00     0.074 A 
ATOM     52  C   UNL A   1      37.584  32.454  33.262  1.00  0.00     0.031 C 
ATOM     53  C   UNL A   1      39.243  29.013  27.486  1.00  0.00     0.029 A 
ATOM     54  C   UNL A   1      40.118  28.742  28.622  1.00  0.00     0.049 A 
ATOM     55  H   UNL A   1      39.906  29.417  30.580  1.00  0.00     0.167 HD
ATOM     56  C   UNL A   1      39.454  31.500  34.560  1.00  0.00     0.037 A 
ATOM     57  C   UNL A   1      41.230  27.989  28.622  1.00  0.00     0.037 A 
ATOM     58  C   UNL A   1      40.606  30.655  34.674  1.00  0.00     0.049 A 
ATOM     59  C   UNL A   1      42.000  27.876  29.914  1.00  0.00     0.074 A 
ATOM     60  C   UNL A   1      41.405  30.419  35.773  1.00  0.00     0.029 A 
ATOM     61  N   UNL A   1      41.113  29.895  33.627  1.00  0.00    -0.354 N 
ATOM     62  N   UNL A   1      41.769  28.448  31.073  1.00  0.00    -0.248 NA
ATOM     63  C   UNL A   1      43.180  27.002  29.898  1.00  0.00     0.031 C 
ATOM     64  C   UNL A   1      42.408  29.521  35.386  1.00  0.00     0.029 A 
ATOM     65  C   UNL A   1      42.210  29.177  34.056  1.00  0.00     0.049 A 
ATOM     66  H   UNL A   1      40.743  29.873  32.715  1.00  0.00     0.167 HD
ATOM     67  C   UNL A   1      42.748  27.971  31.936  1.00  0.00     0.074 A 
ATOM     68  C   UNL A   1      43.563  27.053  31.164  1.00  0.00     0.031 C 
ATOM     69  C   UNL A   1      42.967  28.258  33.244  1.00  0.00     0.037 A 
BRANCH  56  70
ATOM     70  C   UNL A   1      38.940  32.268  35.736  1.00  0.00     0.057 A 
ATOM     71  C   UNL A   1      38.165  31.653  36.722  1.00  0.00     0.134 A 
ATOM     72  C   UNL A   1      39.288  33.615  35.929  1.00  0.00     0.134 A 
ATOM     73  F   UNL A   1      37.813  30.363  36.608  1.00  0.00    -0.206 F 
ATOM     74  C   UNL A   1      37.761  32.346  37.864  1.00  0.00     0.040 A 
ATOM     75  C   UNL A   1      38.918  34.308  37.080  1.00  0.00     0.040 A 
ATOM     76  F   UNL A   1      40.065  34.250  35.037  1.00  0.00    -0.206 F 
ATOM     77  C   UNL A   1      38.148  33.673  38.051  1.00  0.00     0.006 A 
ENDBRANCH  56  70
BRANCH  57  78
ATOM     78  C   UNL A   1      41.659  27.246  27.413  1.00  0.00     0.057 A 
ATOM     79  C   UNL A   1      42.472  27.819  26.432  1.00  0.00     0.134 A 
ATOM     80  C   UNL A   1      41.304  25.899  27.249  1.00  0.00     0.134 A 
ATOM     81  F   UNL A   1      42.834  29.107  26.518  1.00  0.00    -0.206 F 
ATOM     82  C   UNL A   1      42.938  27.076  25.344  1.00  0.00     0.040 A 
ATOM     83  C   UNL A   1      41.782  25.138  26.183  1.00  0.00     0.040 A 
ATOM     84  F   UNL A   1      40.532  25.291  28.163  1.00  0.00    -0.206 F 
ATOM     85  C   UNL A   1      42.605  25.727  25.227  1.00  0.00     0.006 A 
ENDBRANCH  57  78
BRANCH  69  86
ATOM     86  C   UNL A   1      44.090  27.524  33.908  1.00  0.00     0.057 A 
ATOM     87  C   UNL A   1      43.855  26.293  34.533  1.00  0.00     0.134 A 
ATOM     88  C   UNL A   1      45.390  28.040  33.947  1.00  0.00     0.134 A 
ATOM     89  F   UNL A   1      42.627  25.754  34.537  1.00  0.00    -0.206 F 
ATOM     90  C   UNL A   1      44.880  25.597  35.171  1.00  0.00     0.040 A 
ATOM     91  C   UNL A   1      46.429  27.339  34.555  1.00  0.00     0.040 A 
ATOM     92  F   UNL A   1      45.676  29.208  33.351  1.00  0.00    -0.206 F 
ATOM     93  C   UNL A   1      46.173  26.115  35.174  1.00  0.00     0.006 A 
ENDBRANCH  69  86
ENDBRANCH  43  44
ENDBRANCH  35  38
ENDBRANCH  33  34
ENDBRANCH  32  33
ENDBRANCH   1  32
TORSDOF 16
ENDMDL
MODEL 2
REMARK VINA RESULT:     -14.3      1.737      6.276
REMARK SMILES CC[C@H](C)[C@H](NC(=O)[C@H](C)Oc1ccc2c(C)c(C)c(=O)oc2c1C)C(=O)NCCCNC(=O)c1ccc(-c2c3nc(c(-c4c(F)cccc4F)c4ccc([nH]4)c(-c4c(F)cccc4F)c4nc(c(-c5c(F)cccc5F)c5ccc2[nH]5)C=C4)C=C3)cc1
REMARK SMILES IDX 29 1 28 2 26 3 27 4 5 6 3 7 4 8 2 9 1 10 6 11 7 12 8 14 9 15
REMARK SMILES IDX 10 16 11 17 12 18 13 19 24 20 14 21 23 22 25 23 15 24 22 25
REMARK SMILES IDX 16 26 20 27 17 28 18 29 21 30 19 31 30 32 31 33 32 34 33 35
REMARK SMILES IDX 34 37 35 38 36 39 88 40 37 41 87 42 38 43 39 44 40 45 81 46
REMARK SMILES IDX 41 47 86 48 80 49 82 50 42 51 85 52 79 53 78 54 43 56 69 57
REMARK SMILES IDX 52 58 68 59 53 60 56 61 67 62 83 63 54 64 55 65 66 67 84 68
REMARK SMILES IDX 57 69 44 70 45 71 50 72 46 73 47 74 49 75 51 76 48 77 70 78
REMARK SMILES IDX 71 79 76 80 72 81 73 82 75 83 77 84 74 85 58 86 59 87 64 88
REMARK SMILES IDX 60 89 61 90 63 91 65 92 62 93
REMARK H PARENT 28 5 6 13 32 36 82 55 56 66
REMARK Flexibility Score: inf
ROOT
ATOM      1  C   UNL A   1      33.944  28.939  25.646  1.00  0.00     0.117 C 
ENDROOT
BRANCH   1   2
ATOM      2  N   UNL A   1      33.798  28.833  24.124  1.00  0.00    -0.354 N 
ATOM      3  C   UNL A   1      33.612  27.937  23.088  1.00  0.00     0.242 C 
ATOM      4  O   UNL A   1      34.036  28.183  21.957  1.00  0.00    -0.273 OA
ATOM      5  H   UNL A   1      33.859  29.738  23.743  1.00  0.00     0.163 HD
BRANCH   3   6
ATOM      6  C   UNL A   1      32.819  26.660  23.192  1.00  0.00     0.174 C 
BRANCH   6   7
ATOM      7  C   UNL A   1      33.395  25.680  22.131  1.00  0.00     0.018 C 
ATOM      8  C   UNL A   1      33.986  24.404  22.774  1.00  0.00     0.010 C 
BRANCH   7   9
ATOM      9  C   UNL A   1      32.295  25.208  21.119  1.00  0.00     0.002 C 
ATOM     10  C   UNL A   1      32.528  25.578  19.658  1.00  0.00     0.004 C 
ENDBRANCH   7   9
ENDBRANCH   6   7
BRANCH   6  11
ATOM     11  N   UNL A   1      31.472  27.087  23.164  1.00  0.00    -0.341 N 
ATOM     12  C   UNL A   1      30.688  26.814  24.266  1.00  0.00     0.261 C 
ATOM     13  H   UNL A   1      31.105  27.563  22.384  1.00  0.00     0.164 HD
ATOM     14  O   UNL A   1      29.481  27.045  24.137  1.00  0.00    -0.271 OA
BRANCH  12  15
ATOM     15  C   UNL A   1      31.389  26.175  25.732  1.00  0.00     0.258 C 
ATOM     16  C   UNL A   1      31.027  27.435  26.634  1.00  0.00     0.064 C 
BRANCH  15  17
ATOM     17  O   UNL A   1      32.624  25.211  26.218  1.00  0.00    -0.480 OA
BRANCH  17  18
ATOM     18  C   UNL A   1      33.129  23.854  26.042  1.00  0.00     0.127 A 
ATOM     19  C   UNL A   1      34.488  23.484  26.076  1.00  0.00     0.047 A 
ATOM     20  C   UNL A   1      32.361  22.659  25.946  1.00  0.00     0.035 A 
ATOM     21  C   UNL A   1      35.105  22.253  25.776  1.00  0.00     0.016 A 
ATOM     22  C   UNL A   1      32.986  21.391  25.529  1.00  0.00     0.145 A 
ATOM     23  C   UNL A   1      30.889  22.580  26.209  1.00  0.00     0.052 C 
ATOM     24  C   UNL A   1      34.352  21.183  25.416  1.00  0.00     0.021 A 
ATOM     25  O   UNL A   1      32.153  20.299  25.165  1.00  0.00    -0.422 OA
ATOM     26  C   UNL A   1      34.958  19.914  25.001  1.00  0.00    -0.030 A 
ATOM     27  C   UNL A   1      32.655  19.102  24.640  1.00  0.00     0.339 A 
ATOM     28  C   UNL A   1      36.470  19.794  25.001  1.00  0.00     0.045 C 
ATOM     29  C   UNL A   1      34.136  18.916  24.626  1.00  0.00     0.038 A 
ATOM     30  O   UNL A   1      31.900  18.236  24.213  1.00  0.00    -0.246 OA
ATOM     31  C   UNL A   1      34.656  17.577  24.171  1.00  0.00     0.052 C 
ENDBRANCH  17  18
ENDBRANCH  15  17
ENDBRANCH  12  15
ENDBRANCH   6  11
ENDBRANCH   3   6
ENDBRANCH   1   2
BRANCH   1  32
ATOM     32  C   UNL A   1      33.568  30.161  26.783  1.00  0.00     0.042 C 
BRANCH  32  33
ATOM     33  C   UNL A   1      34.128  31.525  27.630  1.00  0.00     0.118 C 
BRANCH  33  34
ATOM     34  N   UNL A   1      33.445  32.900  27.720  1.00  0.00    -0.352 N 
ATOM     35  C   UNL A   1      33.448  33.993  28.567  1.00  0.00     0.251 C 
ATOM     36  H   UNL A   1      32.835  33.042  26.961  1.00  0.00     0.163 HD
ATOM     37  O   UNL A   1      32.585  34.865  28.529  1.00  0.00    -0.269 OA
BRANCH  35  38
ATOM     38  C   UNL A   1      34.462  34.015  29.590  1.00  0.00     0.039 A 
ATOM     39  C   UNL A   1      34.250  33.339  30.803  1.00  0.00     0.014 A 
ATOM     40  C   UNL A   1      35.703  34.378  29.103  1.00  0.00     0.014 A 
ATOM     41  C   UNL A   1      35.359  32.860  31.476  1.00  0.00     0.010 A 
ATOM     42  C   UNL A   1      36.789  33.846  29.733  1.00  0.00     0.010 A 
ATOM     43  C   UNL A   1      36.615  33.077  30.900  1.00  0.00    -0.014 A 
BRANCH  43  44
ATOM     44  C   UNL A   1      37.858  32.671  31.545  1.00  0.00     0.031 A 
ATOM     45  C   UNL A   1      38.532  31.488  30.937  1.00  0.00     0.074 A 
ATOM     46  C   UNL A   1      38.195  33.195  32.733  1.00  0.00     0.049 A 
ATOM     47  N   UNL A   1      39.431  30.700  31.447  1.00  0.00    -0.248 NA
ATOM     48  C   UNL A   1      38.044  31.086  29.600  1.00  0.00     0.031 C 
ATOM     49  C   UNL A   1      37.520  34.306  33.410  1.00  0.00     0.029 A 
ATOM     50  N   UNL A   1      39.174  32.813  33.604  1.00  0.00    -0.354 N 
ATOM     51  C   UNL A   1      39.604  29.703  30.500  1.00  0.00     0.074 A 
ATOM     52  C   UNL A   1      38.643  29.920  29.446  1.00  0.00     0.031 C 
ATOM     53  C   UNL A   1      38.118  34.518  34.598  1.00  0.00     0.029 A 
ATOM     54  C   UNL A   1      39.185  33.538  34.769  1.00  0.00     0.049 A 
ATOM     55  H   UNL A   1      39.810  32.087  33.415  1.00  0.00     0.167 HD
ATOM     56  C   UNL A   1      40.528  28.720  30.494  1.00  0.00     0.037 A 
ATOM     57  C   UNL A   1      39.982  33.393  35.840  1.00  0.00     0.037 A 
ATOM     58  C   UNL A   1      41.473  28.541  31.556  1.00  0.00     0.049 A 
ATOM     59  C   UNL A   1      41.002  32.282  35.812  1.00  0.00     0.074 A 
ATOM     60  C   UNL A   1      42.476  27.603  31.678  1.00  0.00     0.029 A 
ATOM     61  N   UNL A   1      41.522  29.346  32.687  1.00  0.00    -0.354 N 
ATOM     62  N   UNL A   1      41.219  31.376  34.886  1.00  0.00    -0.248 NA
ATOM     63  C   UNL A   1      41.895  32.184  36.973  1.00  0.00     0.031 C 
ATOM     64  C   UNL A   1      43.129  27.834  32.896  1.00  0.00     0.029 A 
ATOM     65  C   UNL A   1      42.549  28.934  33.512  1.00  0.00     0.049 A 
ATOM     66  H   UNL A   1      40.915  30.098  32.873  1.00  0.00     0.167 HD
ATOM     67  C   UNL A   1      42.299  30.626  35.333  1.00  0.00     0.074 A 
ATOM     68  C   UNL A   1      42.698  31.197  36.605  1.00  0.00     0.031 C 
ATOM     69  C   UNL A   1      42.913  29.561  34.758  1.00  0.00     0.037 A 
BRANCH  56  70
ATOM     70  C   UNL A   1      40.549  27.838  29.286  1.00  0.00     0.057 A 
ATOM     71  C   UNL A   1      39.701  26.733  29.179  1.00  0.00     0.134 A 
ATOM     72  C   UNL A   1      41.364  28.140  28.182  1.00  0.00     0.134 A 
ATOM     73  F   UNL A   1      38.883  26.400  30.190  1.00  0.00    -0.206 F 
ATOM     74  C   UNL A   1      39.655  25.963  28.016  1.00  0.00     0.040 A 
ATOM     75  C   UNL A   1      41.304  27.398  27.004  1.00  0.00     0.040 A 
ATOM     76  F   UNL A   1      42.171  29.213  28.208  1.00  0.00    -0.206 F 
ATOM     77  C   UNL A   1      40.449  26.302  26.921  1.00  0.00     0.006 A 
ENDBRANCH  56  70
BRANCH  57  78
ATOM     78  C   UNL A   1      39.906  34.325  36.991  1.00  0.00     0.057 A 
ATOM     79  C   UNL A   1      40.585  35.546  37.011  1.00  0.00     0.134 A 
ATOM     80  C   UNL A   1      39.084  34.028  38.088  1.00  0.00     0.134 A 
ATOM     81  F   UNL A   1      41.402  35.885  36.002  1.00  0.00    -0.206 F 
ATOM     82  C   UNL A   1      40.431  36.451  38.065  1.00  0.00     0.040 A 
ATOM     83  C   UNL A   1      38.902  34.931  39.135  1.00  0.00     0.040 A 
ATOM     84  F   UNL A   1      38.400  32.874  38.122  1.00  0.00    -0.206 F 
ATOM     85  C   UNL A   1      39.575  36.149  39.124  1.00  0.00     0.006 A 
ENDBRANCH  57  78
BRANCH  69  86
ATOM     86  C   UNL A   1      44.100  29.006  35.482  1.00  0.00     0.057 A 
ATOM     87  C   UNL A   1      43.933  27.999  36.441  1.00  0.00     0.134 A 
ATOM     88  C   UNL A   1      45.396  29.476  35.245  1.00  0.00     0.134 A 
ATOM     89  F   UNL A   1      42.713  27.516  36.718  1.00  0.00    -0.206 F 
ATOM     90  C   UNL A   1      45.020  27.476  37.139  1.00  0.00     0.040 A 
ATOM     91  C   UNL A   1      46.494  28.939  35.915  1.00  0.00     0.040 A 
ATOM     92  F   UNL A   1      45.617  30.428  34.325  1.00  0.00    -0.206 F 
ATOM     93  C   UNL A   1      46.306  27.939  36.869  1.00  0.00     0.006 A 
ENDBRANCH  69  86
ENDBRANCH  43  44
ENDBRANCH  35  38
ENDBRANCH  33  34
ENDBRANCH  32  33
ENDBRANCH   1  32
TORSDOF 16
ENDMDL
MODEL 3
REMARK VINA RESULT:     -14.3      2.011      3.625
REMARK SMILES CC[C@H](C)[C@H](NC(=O)[C@H](C)Oc1ccc2c(C)c(C)c(=O)oc2c1C)C(=O)NCCCNC(=O)c1ccc(-c2c3nc(c(-c4c(F)cccc4F)c4ccc([nH]4)c(-c4c(F)cccc4F)c4nc(c(-c5c(F)cccc5F)c5ccc2[nH]5)C=C4)C=C3)cc1
REMARK SMILES IDX 29 1 28 2 26 3 27 4 5 6 3 7 4 8 2 9 1 10 6 11 7 12 8 14 9 15
REMARK SMILES IDX 10 16 11 17 12 18 13 19 24 20 14 21 23 22 25 23 15 24 22 25
REMARK SMILES IDX 16 26 20 27 17 28 18 29 21 30 19 31 30 32 31 33 32 34 33 35
REMARK SMILES IDX 34 37 35 38 36 39 88 40 37 41 87 42 38 43 39 44 40 45 81 46
REMARK SMILES IDX 41 47 86 48 80 49 82 50 42 51 85 52 79 53 78 54 43 56 69 57
REMARK SMILES IDX 52 58 68 59 53 60 56 61 67 62 83 63 54 64 55 65 66 67 84 68
REMARK SMILES IDX 57 69 44 70 45 71 50 72 46 73 47 74 49 75 51 76 48 77 70 78
REMARK SMILES IDX 71 79 76 80 72 81 73 82 75 83 77 84 74 85 58 86 59 87 64 88
REMARK SMILES IDX 60 89 61 90 63 91 65 92 62 93
REMARK H PARENT 28 5 6 13 32 36 82 55 56 66
REMARK Flexibility Score: inf
ROOT
ATOM      1  C   UNL A   1      33.640  31.250  27.411  1.00  0.00     0.117 C 
ENDROOT
BRANCH   1   2
ATOM      2  N   UNL A   1      32.883  29.934  27.627  1.00  0.00    -0.354 N 
ATOM      3  C   UNL A   1      32.039  29.028  27.015  1.00  0.00     0.242 C 
ATOM      4  O   UNL A   1      31.257  28.345  27.680  1.00  0.00    -0.273 OA
ATOM      5  H   UNL A   1      33.068  29.618  28.540  1.00  0.00     0.163 HD
BRANCH   3   6
ATOM      6  C   UNL A   1      32.045  28.712  25.542  1.00  0.00     0.174 C 
BRANCH   6   7
ATOM      7  C   UNL A   1      33.506  28.337  25.164  1.00  0.00     0.018 C 
ATOM      8  C   UNL A   1      34.035  27.141  25.990  1.00  0.00     0.010 C 
BRANCH   7   9
ATOM      9  C   UNL A   1      33.630  27.933  23.655  1.00  0.00     0.002 C 
ATOM     10  C   UNL A   1      34.358  28.926  22.755  1.00  0.00     0.004 C 
ENDBRANCH   7   9
ENDBRANCH   6   7
BRANCH   6  11
ATOM     11  N   UNL A   1      31.377  29.808  24.950  1.00  0.00    -0.341 N 
ATOM     12  C   UNL A   1      30.410  29.536  24.003  1.00  0.00     0.261 C 
ATOM     13  H   UNL A   1      31.593  30.734  25.205  1.00  0.00     0.164 HD
ATOM     14  O   UNL A   1      29.973  30.514  23.386  1.00  0.00    -0.271 OA
BRANCH  12  15
ATOM     15  C   UNL A   1      29.869  27.901  23.714  1.00  0.00     0.258 C 
ATOM     16  C   UNL A   1      28.450  28.314  23.126  1.00  0.00     0.064 C 
BRANCH  15  17
ATOM     17  O   UNL A   1      30.035  26.394  24.340  1.00  0.00    -0.480 OA
BRANCH  17  18
ATOM     18  C   UNL A   1      31.056  25.383  24.587  1.00  0.00     0.127 A 
ATOM     19  C   UNL A   1      31.213  24.665  25.789  1.00  0.00     0.047 A 
ATOM     20  C   UNL A   1      31.975  24.843  23.642  1.00  0.00     0.035 A 
ATOM     21  C   UNL A   1      32.235  23.786  26.198  1.00  0.00     0.016 A 
ATOM     22  C   UNL A   1      33.107  24.009  24.081  1.00  0.00     0.145 A 
ATOM     23  C   UNL A   1      31.910  25.093  22.166  1.00  0.00     0.052 C 
ATOM     24  C   UNL A   1      33.261  23.496  25.359  1.00  0.00     0.021 A 
ATOM     25  O   UNL A   1      34.155  23.731  23.162  1.00  0.00    -0.422 OA
ATOM     26  C   UNL A   1      34.395  22.665  25.780  1.00  0.00    -0.030 A 
ATOM     27  C   UNL A   1      35.326  23.055  23.527  1.00  0.00     0.339 A 
ATOM     28  C   UNL A   1      34.399  22.097  27.186  1.00  0.00     0.045 C 
ATOM     29  C   UNL A   1      35.387  22.459  24.894  1.00  0.00     0.038 A 
ATOM     30  O   UNL A   1      36.264  22.952  22.745  1.00  0.00    -0.246 OA
ATOM     31  C   UNL A   1      36.601  21.630  25.229  1.00  0.00     0.052 C 
ENDBRANCH  17  18
ENDBRANCH  15  17
ENDBRANCH  12  15
ENDBRANCH   6  11
ENDBRANCH   3   6
ENDBRANCH   1   2
BRANCH   1  32
ATOM     32  C   UNL A   1      33.916  32.625  28.391  1.00  0.00     0.042 C 
BRANCH  32  33
ATOM     33  C   UNL A   1      34.153  34.308  28.430  1.00  0.00     0.118 C 
BRANCH  33  34
ATOM     34  N   UNL A   1      33.342  35.336  29.236  1.00  0.00    -0.352 N 
ATOM     35  C   UNL A   1      33.115  35.650  30.564  1.00  0.00     0.251 C 
ATOM     36  H   UNL A   1      32.844  35.940  28.640  1.00  0.00     0.163 HD
ATOM     37  O   UNL A   1      32.192  36.373  30.928  1.00  0.00    -0.269 OA
BRANCH  35  38
ATOM     38  C   UNL A   1      33.956  34.996  31.536  1.00  0.00     0.039 A 
ATOM     39  C   UNL A   1      33.479  33.874  32.233  1.00  0.00     0.014 A 
ATOM     40  C   UNL A   1      35.291  35.317  31.387  1.00  0.00     0.014 A 
ATOM     41  C   UNL A   1      34.405  32.940  32.658  1.00  0.00     0.010 A 
ATOM     42  C   UNL A   1      36.195  34.362  31.747  1.00  0.00     0.010 A 
ATOM     43  C   UNL A   1      35.752  33.174  32.362  1.00  0.00    -0.014 A 
BRANCH  43  44
ATOM     44  C   UNL A   1      36.823  32.292  32.810  1.00  0.00     0.031 A 
ATOM     45  C   UNL A   1      37.460  32.675  34.104  1.00  0.00     0.074 A 
ATOM     46  C   UNL A   1      37.325  31.373  31.973  1.00  0.00     0.049 A 
ATOM     47  N   UNL A   1      38.611  32.319  34.592  1.00  0.00    -0.248 NA
ATOM     48  C   UNL A   1      36.732  33.681  34.907  1.00  0.00     0.031 C 
ATOM     49  C   UNL A   1      36.783  31.012  30.659  1.00  0.00     0.029 A 
ATOM     50  N   UNL A   1      38.448  30.607  32.096  1.00  0.00    -0.354 N 
ATOM     51  C   UNL A   1      38.749  33.066  35.750  1.00  0.00     0.074 A 
ATOM     52  C   UNL A   1      37.629  33.973  35.831  1.00  0.00     0.031 C 
ATOM     53  C   UNL A   1      37.580  30.083  30.100  1.00  0.00     0.029 A 
ATOM     54  C   UNL A   1      38.696  29.817  31.002  1.00  0.00     0.049 A 
ATOM     55  H   UNL A   1      39.024  30.620  32.894  1.00  0.00     0.167 HD
ATOM     56  C   UNL A   1      39.709  32.962  36.692  1.00  0.00     0.037 A 
ATOM     57  C   UNL A   1      39.728  28.986  30.784  1.00  0.00     0.037 A 
ATOM     58  C   UNL A   1      40.803  32.044  36.581  1.00  0.00     0.049 A 
ATOM     59  C   UNL A   1      40.792  28.893  31.848  1.00  0.00     0.074 A 
ATOM     60  C   UNL A   1      41.839  31.815  37.463  1.00  0.00     0.029 A 
ATOM     61  N   UNL A   1      40.985  31.188  35.502  1.00  0.00    -0.354 N 
ATOM     62  N   UNL A   1      40.894  29.548  32.982  1.00  0.00    -0.248 NA
ATOM     63  C   UNL A   1      41.879  27.936  31.606  1.00  0.00     0.031 C 
ATOM     64  C   UNL A   1      42.659  30.825  36.908  1.00  0.00     0.029 A 
ATOM     65  C   UNL A   1      42.114  30.418  35.698  1.00  0.00     0.049 A 
ATOM     66  H   UNL A   1      40.397  31.139  34.714  1.00  0.00     0.167 HD
ATOM     67  C   UNL A   1      42.030  29.053  33.609  1.00  0.00     0.074 A 
ATOM     68  C   UNL A   1      42.571  28.033  32.731  1.00  0.00     0.031 C 
ATOM     69  C   UNL A   1      42.588  29.400  34.796  1.00  0.00     0.037 A 
BRANCH  56  70
ATOM     70  C   UNL A   1      39.552  33.834  37.897  1.00  0.00     0.057 A 
ATOM     71  C   UNL A   1      40.107  35.116  37.944  1.00  0.00     0.134 A 
ATOM     72  C   UNL A   1      38.771  33.425  38.991  1.00  0.00     0.134 A 
ATOM     73  F   UNL A   1      40.849  35.575  36.924  1.00  0.00    -0.206 F 
ATOM     74  C   UNL A   1      39.885  35.963  39.030  1.00  0.00     0.040 A 
ATOM     75  C   UNL A   1      38.516  34.274  40.067  1.00  0.00     0.040 A 
ATOM     76  F   UNL A   1      38.177  32.221  38.988  1.00  0.00    -0.206 F 
ATOM     77  C   UNL A   1      39.078  35.548  40.089  1.00  0.00     0.006 A 
ENDBRANCH  56  70
BRANCH  57  78
ATOM     78  C   UNL A   1      39.797  28.143  29.566  1.00  0.00     0.057 A 
ATOM     79  C   UNL A   1      40.490  28.539  28.419  1.00  0.00     0.134 A 
ATOM     80  C   UNL A   1      39.205  26.871  29.553  1.00  0.00     0.134 A 
ATOM     81  F   UNL A   1      41.064  29.749  28.358  1.00  0.00    -0.206 F 
ATOM     82  C   UNL A   1      40.617  27.693  27.314  1.00  0.00     0.040 A 
ATOM     83  C   UNL A   1      39.344  26.007  28.467  1.00  0.00     0.040 A 
ATOM     84  F   UNL A   1      38.533  26.432  30.628  1.00  0.00    -0.206 F 
ATOM     85  C   UNL A   1      40.056  26.418  27.343  1.00  0.00     0.006 A 
ENDBRANCH  57  78
BRANCH  69  86
ATOM     86  C   UNL A   1      43.799  28.626  35.215  1.00  0.00     0.057 A 
ATOM     87  C   UNL A   1      45.077  29.056  34.836  1.00  0.00     0.134 A 
ATOM     88  C   UNL A   1      43.701  27.453  35.971  1.00  0.00     0.134 A 
ATOM     89  F   UNL A   1      45.232  30.169  34.102  1.00  0.00    -0.206 F 
ATOM     90  C   UNL A   1      46.219  28.346  35.201  1.00  0.00     0.040 A 
ATOM     91  C   UNL A   1      44.838  26.750  36.368  1.00  0.00     0.040 A 
ATOM     92  F   UNL A   1      42.504  27.002  36.376  1.00  0.00    -0.206 F 
ATOM     93  C   UNL A   1      46.101  27.195  35.977  1.00  0.00     0.006 A 
ENDBRANCH  69  86
ENDBRANCH  43  44
ENDBRANCH  35  38
ENDBRANCH  33  34
ENDBRANCH  32  33
ENDBRANCH   1  32
TORSDOF 16
ENDMDL
