MODEL 1
REMARK VINA RESULT:     -12.3      0.000      0.000
REMARK SMILES Cc1nsc(NC(=O)[C@H]2Cc3[nH]cnc3C[NH2+]2)c1C(=O)NCCCNC(=O)c1ccc(-c2c3nc(c(-c4c(F)cccc4F)c4ccc([nH]4)c(-c4c(F)cccc4F)c4nc(c(-c5c(F)cccc5F)c5ccc2[nH]5)C=C4)C=C3)cc1
REMARK SMILES IDX 23 1 22 2 21 3 19 4 20 5 18 7 1 8 2 9 3 10 4 11 5 12 6 13
REMARK SMILES IDX 7 14 8 16 9 17 10 18 17 19 11 20 16 21 12 24 15 25 13 26
REMARK SMILES IDX 14 28 24 29 25 30 26 31 27 33 28 34 29 35 81 36 30 37 80 38
REMARK SMILES IDX 31 39 32 40 33 41 74 42 34 43 79 44 73 45 75 46 35 47 78 48
REMARK SMILES IDX 72 49 71 50 36 52 62 53 45 54 61 55 46 56 49 57 60 58 76 59
REMARK SMILES IDX 47 60 48 61 59 63 77 64 50 65 37 66 38 67 43 68 39 69 40 70
REMARK SMILES IDX 42 71 44 72 41 73 63 74 64 75 69 76 65 77 66 78 68 79 70 80
REMARK SMILES IDX 67 81 51 82 52 83 57 84 53 85 54 86 56 87 58 88 55 89
REMARK H PARENT 21 6 6 15 17 22 17 23 12 27 25 32 75 51 49 62
REMARK Flexibility Score: inf
ROOT
ATOM      1  C   UNL A   1      33.972  29.605  26.863  1.00  0.00     0.042 C 
ENDROOT
BRANCH   1   2
ATOM      2  C   UNL A   1      33.512  28.490  25.916  1.00  0.00     0.118 C 
BRANCH   2   3
ATOM      3  N   UNL A   1      32.503  27.675  26.568  1.00  0.00    -0.352 N 
ATOM      4  C   UNL A   1      31.376  27.074  26.070  1.00  0.00     0.256 C 
ATOM      5  O   UNL A   1      30.653  26.485  26.874  1.00  0.00    -0.269 OA
ATOM      6  H   UNL A   1      32.652  27.531  27.530  1.00  0.00     0.163 HD
BRANCH   4   7
ATOM      7  C   UNL A   1      31.141  26.990  24.634  1.00  0.00     0.097 A 
ATOM      8  C   UNL A   1      30.406  29.388  23.767  1.00  0.00     0.069 C 
ATOM      9  C   UNL A   1      30.883  27.990  23.615  1.00  0.00     0.066 A 
ATOM     10  N   UNL A   1      31.030  27.578  22.353  1.00  0.00    -0.195 NA
ATOM     11  S   UNL A   1      31.232  25.946  22.368  1.00  0.00    -0.017 S 
ATOM     12  C   UNL A   1      30.889  25.768  24.022  1.00  0.00     0.129 A 
BRANCH  12  13
ATOM     13  N   UNL A   1      30.595  24.547  24.580  1.00  0.00    -0.311 N 
ATOM     14  C   UNL A   1      31.457  23.540  24.939  1.00  0.00     0.283 C 
ATOM     15  H   UNL A   1      29.639  24.370  24.744  1.00  0.00     0.171 HD
ATOM     16  O   UNL A   1      30.938  22.497  25.362  1.00  0.00    -0.268 OA
BRANCH  14  17
ATOM     17  C   UNL A   1      32.992  23.588  24.729  1.00  0.00     0.279 C 
ATOM     18  C   UNL A   1      33.786  23.280  26.040  1.00  0.00     0.131 C 
ATOM     19  N   UNL A   1      33.388  22.806  23.516  1.00  0.00    -0.331 N 
ATOM     20  C   UNL A   1      35.204  23.054  25.681  1.00  0.00     0.050 A 
ATOM     21  C   UNL A   1      34.827  22.952  23.175  1.00  0.00     0.320 C 
ATOM     22  H   UNL A   1      32.832  23.129  22.724  1.00  0.00     0.347 HD
ATOM     23  H   UNL A   1      33.222  21.821  23.720  1.00  0.00     0.347 HD
ATOM     24  N   UNL A   1      36.291  22.963  26.497  1.00  0.00    -0.348 N 
ATOM     25  C   UNL A   1      35.674  22.885  24.401  1.00  0.00     0.116 A 
ATOM     26  C   UNL A   1      37.374  22.765  25.681  1.00  0.00     0.197 A 
ATOM     27  H   UNL A   1      36.297  23.025  27.479  1.00  0.00     0.167 HD
ATOM     28  N   UNL A   1      37.031  22.707  24.412  1.00  0.00    -0.236 NA
ENDBRANCH  14  17
ENDBRANCH  12  13
ENDBRANCH   4   7
ENDBRANCH   2   3
ENDBRANCH   1   2
BRANCH   1  29
ATOM     29  C   UNL A   1      35.380  29.398  27.375  1.00  0.00     0.118 C 
BRANCH  29  30
ATOM     30  N   UNL A   1      35.506  29.843  28.762  1.00  0.00    -0.352 N 
ATOM     31  C   UNL A   1      36.474  29.514  29.692  1.00  0.00     0.251 C 
ATOM     32  H   UNL A   1      34.807  30.460  29.076  1.00  0.00     0.163 HD
ATOM     33  O   UNL A   1      36.278  29.649  30.883  1.00  0.00    -0.269 OA
BRANCH  31  34
ATOM     34  C   UNL A   1      37.749  28.982  29.188  1.00  0.00     0.039 A 
ATOM     35  C   UNL A   1      38.380  29.546  28.079  1.00  0.00     0.014 A 
ATOM     36  C   UNL A   1      38.349  27.966  29.922  1.00  0.00     0.014 A 
ATOM     37  C   UNL A   1      39.673  29.133  27.777  1.00  0.00     0.010 A 
ATOM     38  C   UNL A   1      39.685  27.732  29.759  1.00  0.00     0.010 A 
ATOM     39  C   UNL A   1      40.334  28.247  28.646  1.00  0.00    -0.014 A 
BRANCH  39  40
ATOM     40  C   UNL A   1      41.736  27.910  28.452  1.00  0.00     0.031 A 
ATOM     41  C   UNL A   1      41.979  26.663  27.679  1.00  0.00     0.074 A 
ATOM     42  C   UNL A   1      42.751  28.736  28.786  1.00  0.00     0.049 A 
ATOM     43  N   UNL A   1      42.407  25.535  28.139  1.00  0.00    -0.248 NA
ATOM     44  C   UNL A   1      41.561  26.613  26.270  1.00  0.00     0.031 C 
ATOM     45  C   UNL A   1      42.712  30.120  29.275  1.00  0.00     0.029 A 
ATOM     46  N   UNL A   1      44.085  28.505  28.674  1.00  0.00    -0.354 N 
ATOM     47  C   UNL A   1      42.514  24.686  27.042  1.00  0.00     0.074 A 
ATOM     48  C   UNL A   1      41.816  25.338  25.963  1.00  0.00     0.031 C 
ATOM     49  C   UNL A   1      43.942  30.671  29.188  1.00  0.00     0.029 A 
ATOM     50  C   UNL A   1      44.884  29.630  28.829  1.00  0.00     0.049 A 
ATOM     51  H   UNL A   1      44.456  27.611  28.495  1.00  0.00     0.167 HD
ATOM     52  C   UNL A   1      43.372  23.628  27.060  1.00  0.00     0.037 A 
ATOM     53  C   UNL A   1      46.228  29.688  28.665  1.00  0.00     0.037 A 
ATOM     54  C   UNL A   1      43.797  23.330  28.408  1.00  0.00     0.049 A 
ATOM     55  C   UNL A   1      46.738  28.298  28.791  1.00  0.00     0.074 A 
ATOM     56  C   UNL A   1      43.141  22.998  29.580  1.00  0.00     0.029 A 
ATOM     57  N   UNL A   1      45.047  23.750  28.797  1.00  0.00    -0.354 N 
ATOM     58  N   UNL A   1      46.730  27.627  29.909  1.00  0.00    -0.248 NA
ATOM     59  C   UNL A   1      46.810  27.496  27.579  1.00  0.00     0.031 C 
ATOM     60  C   UNL A   1      43.826  23.723  30.600  1.00  0.00     0.029 A 
ATOM     61  C   UNL A   1      44.901  24.384  30.005  1.00  0.00     0.049 A 
ATOM     62  H   UNL A   1      45.888  23.621  28.302  1.00  0.00     0.167 HD
ATOM     63  C   UNL A   1      46.358  26.341  29.546  1.00  0.00     0.074 A 
ATOM     64  C   UNL A   1      46.502  26.301  28.090  1.00  0.00     0.031 C 
ATOM     65  C   UNL A   1      45.690  25.523  30.412  1.00  0.00     0.037 A 
BRANCH  52  66
ATOM     66  C   UNL A   1      44.124  23.111  25.857  1.00  0.00     0.057 A 
ATOM     67  C   UNL A   1      44.125  21.727  25.596  1.00  0.00     0.134 A 
ATOM     68  C   UNL A   1      45.078  23.854  25.132  1.00  0.00     0.134 A 
ATOM     69  F   UNL A   1      43.266  20.907  26.220  1.00  0.00    -0.206 F 
ATOM     70  C   UNL A   1      45.066  21.122  24.754  1.00  0.00     0.040 A 
ATOM     71  C   UNL A   1      45.988  23.265  24.252  1.00  0.00     0.040 A 
ATOM     72  F   UNL A   1      45.253  25.168  25.308  1.00  0.00    -0.206 F 
ATOM     73  C   UNL A   1      46.011  21.890  24.087  1.00  0.00     0.006 A 
ENDBRANCH  52  66
BRANCH  53  74
ATOM     74  C   UNL A   1      47.058  30.793  28.138  1.00  0.00     0.057 A 
ATOM     75  C   UNL A   1      46.774  31.371  26.892  1.00  0.00     0.134 A 
ATOM     76  C   UNL A   1      47.952  31.502  28.959  1.00  0.00     0.134 A 
ATOM     77  F   UNL A   1      45.912  30.784  26.051  1.00  0.00    -0.206 F 
ATOM     78  C   UNL A   1      47.309  32.606  26.505  1.00  0.00     0.040 A 
ATOM     79  C   UNL A   1      48.498  32.734  28.581  1.00  0.00     0.040 A 
ATOM     80  F   UNL A   1      48.251  31.071  30.193  1.00  0.00    -0.206 F 
ATOM     81  C   UNL A   1      48.161  33.300  27.357  1.00  0.00     0.006 A 
ENDBRANCH  53  74
BRANCH  65  82
ATOM     82  C   UNL A   1      45.562  25.962  31.846  1.00  0.00     0.057 A 
ATOM     83  C   UNL A   1      44.439  26.619  32.375  1.00  0.00     0.134 A 
ATOM     84  C   UNL A   1      46.545  25.568  32.760  1.00  0.00     0.134 A 
ATOM     85  F   UNL A   1      43.398  26.948  31.601  1.00  0.00    -0.206 F 
ATOM     86  C   UNL A   1      44.324  26.909  33.739  1.00  0.00     0.040 A 
ATOM     87  C   UNL A   1      46.426  25.821  34.129  1.00  0.00     0.040 A 
ATOM     88  F   UNL A   1      47.621  24.884  32.341  1.00  0.00    -0.206 F 
ATOM     89  C   UNL A   1      45.319  26.504  34.622  1.00  0.00     0.006 A 
ENDBRANCH  65  82
ENDBRANCH  39  40
ENDBRANCH  31  34
ENDBRANCH  29  30
ENDBRANCH   1  29
TORSDOF 12
ENDMDL
MODEL 2
REMARK VINA RESULT:     -12.3      2.291      6.301
REMARK SMILES Cc1nsc(NC(=O)[C@H]2Cc3[nH]cnc3C[NH2+]2)c1C(=O)NCCCNC(=O)c1ccc(-c2c3nc(c(-c4c(F)cccc4F)c4ccc([nH]4)c(-c4c(F)cccc4F)c4nc(c(-c5c(F)cccc5F)c5ccc2[nH]5)C=C4)C=C3)cc1
REMARK SMILES IDX 23 1 22 2 21 3 19 4 20 5 18 7 1 8 2 9 3 10 4 11 5 12 6 13
REMARK SMILES IDX 7 14 8 16 9 17 10 18 17 19 11 20 16 21 12 24 15 25 13 26
REMARK SMILES IDX 14 28 24 29 25 30 26 31 27 33 28 34 29 35 81 36 30 37 80 38
REMARK SMILES IDX 31 39 32 40 33 41 74 42 34 43 79 44 73 45 75 46 35 47 78 48
REMARK SMILES IDX 72 49 71 50 36 52 62 53 45 54 61 55 46 56 49 57 60 58 76 59
REMARK SMILES IDX 47 60 48 61 59 63 77 64 50 65 37 66 38 67 43 68 39 69 40 70
REMARK SMILES IDX 42 71 44 72 41 73 63 74 64 75 69 76 65 77 66 78 68 79 70 80
REMARK SMILES IDX 67 81 51 82 52 83 57 84 53 85 54 86 56 87 58 88 55 89
REMARK H PARENT 21 6 6 15 17 22 17 23 12 27 25 32 75 51 49 62
REMARK Flexibility Score: inf
ROOT
ATOM      1  C   UNL A   1      32.623  30.233  27.180  1.00  0.00     0.042 C 
ENDROOT
BRANCH   1   2
ATOM      2  C   UNL A   1      32.073  30.297  25.750  1.00  0.00     0.118 C 
BRANCH   2   3
ATOM      3  N   UNL A   1      33.033  29.721  24.826  1.00  0.00    -0.352 N 
ATOM      4  C   UNL A   1      33.102  28.469  24.269  1.00  0.00     0.256 C 
ATOM      5  O   UNL A   1      34.076  28.227  23.556  1.00  0.00    -0.269 OA
ATOM      6  H   UNL A   1      33.756  30.330  24.555  1.00  0.00     0.163 HD
BRANCH   4   7
ATOM      7  C   UNL A   1      31.988  27.536  24.378  1.00  0.00     0.097 A 
ATOM      8  C   UNL A   1      31.817  26.730  26.901  1.00  0.00     0.069 C 
ATOM      9  C   UNL A   1      31.330  26.910  25.509  1.00  0.00     0.066 A 
ATOM     10  N   UNL A   1      30.142  26.355  25.250  1.00  0.00    -0.195 NA
ATOM     11  S   UNL A   1      29.920  26.359  23.621  1.00  0.00    -0.017 S 
ATOM     12  C   UNL A   1      31.496  26.878  23.256  1.00  0.00     0.129 A 
BRANCH  12  13
ATOM     13  N   UNL A   1      32.026  26.775  21.992  1.00  0.00    -0.311 N 
ATOM     14  C   UNL A   1      32.722  25.728  21.440  1.00  0.00     0.283 C 
ATOM     15  H   UNL A   1      31.889  27.554  21.406  1.00  0.00     0.171 HD
ATOM     16  O   UNL A   1      33.161  25.903  20.294  1.00  0.00    -0.268 OA
BRANCH  14  17
ATOM     17  C   UNL A   1      33.089  24.426  22.198  1.00  0.00     0.279 C 
ATOM     18  C   UNL A   1      34.004  24.692  23.436  1.00  0.00     0.131 C 
ATOM     19  N   UNL A   1      31.872  23.590  22.441  1.00  0.00    -0.331 N 
ATOM     20  C   UNL A   1      34.052  23.458  24.252  1.00  0.00     0.050 A 
ATOM     21  C   UNL A   1      32.189  22.258  23.019  1.00  0.00     0.320 C 
ATOM     22  H   UNL A   1      31.388  23.452  21.554  1.00  0.00     0.347 HD
ATOM     23  H   UNL A   1      31.292  24.085  23.118  1.00  0.00     0.347 HD
ATOM     24  N   UNL A   1      34.873  23.150  25.294  1.00  0.00    -0.348 N 
ATOM     25  C   UNL A   1      33.227  22.372  24.084  1.00  0.00     0.116 A 
ATOM     26  C   UNL A   1      34.530  21.886  25.699  1.00  0.00     0.197 A 
ATOM     27  H   UNL A   1      35.574  23.721  25.681  1.00  0.00     0.167 HD
ATOM     28  N   UNL A   1      33.534  21.395  24.992  1.00  0.00    -0.236 NA
ENDBRANCH  14  17
ENDBRANCH  12  13
ENDBRANCH   4   7
ENDBRANCH   2   3
ENDBRANCH   1   2
BRANCH   1  29
ATOM     29  C   UNL A   1      33.996  30.854  27.309  1.00  0.00     0.118 C 
BRANCH  29  30
ATOM     30  N   UNL A   1      34.058  31.758  28.457  1.00  0.00    -0.352 N 
ATOM     31  C   UNL A   1      34.971  31.778  29.495  1.00  0.00     0.251 C 
ATOM     32  H   UNL A   1      33.355  32.446  28.496  1.00  0.00     0.163 HD
ATOM     33  O   UNL A   1      34.716  32.323  30.550  1.00  0.00    -0.269 OA
BRANCH  31  34
ATOM     34  C   UNL A   1      36.261  31.104  29.280  1.00  0.00     0.039 A 
ATOM     35  C   UNL A   1      37.452  31.827  29.215  1.00  0.00     0.014 A 
ATOM     36  C   UNL A   1      36.255  29.716  29.247  1.00  0.00     0.014 A 
ATOM     37  C   UNL A   1      38.650  31.122  29.215  1.00  0.00     0.010 A 
ATOM     38  C   UNL A   1      37.423  29.043  29.472  1.00  0.00     0.010 A 
ATOM     39  C   UNL A   1      38.628  29.725  29.378  1.00  0.00    -0.014 A 
BRANCH  39  40
ATOM     40  C   UNL A   1      39.859  28.967  29.537  1.00  0.00     0.031 A 
ATOM     41  C   UNL A   1      40.320  28.810  30.942  1.00  0.00     0.074 A 
ATOM     42  C   UNL A   1      40.457  28.302  28.525  1.00  0.00     0.049 A 
ATOM     43  N   UNL A   1      41.330  29.391  31.497  1.00  0.00    -0.248 NA
ATOM     44  C   UNL A   1      39.486  28.042  31.878  1.00  0.00     0.031 C 
ATOM     45  C   UNL A   1      40.000  28.084  27.147  1.00  0.00     0.029 A 
ATOM     46  N   UNL A   1      41.616  27.593  28.563  1.00  0.00    -0.354 N 
ATOM     47  C   UNL A   1      41.390  28.904  32.800  1.00  0.00     0.074 A 
ATOM     48  C   UNL A   1      40.139  28.226  33.028  1.00  0.00     0.031 C 
ATOM     49  C   UNL A   1      40.743  27.116  26.567  1.00  0.00     0.029 A 
ATOM     50  C   UNL A   1      41.841  26.789  27.454  1.00  0.00     0.049 A 
ATOM     51  H   UNL A   1      42.245  27.645  29.318  1.00  0.00     0.167 HD
ATOM     52  C   UNL A   1      42.563  28.902  33.491  1.00  0.00     0.037 A 
ATOM     53  C   UNL A   1      42.864  25.915  27.291  1.00  0.00     0.037 A 
ATOM     54  C   UNL A   1      43.532  29.771  32.866  1.00  0.00     0.049 A 
ATOM     55  C   UNL A   1      43.934  26.322  28.237  1.00  0.00     0.074 A 
ATOM     56  C   UNL A   1      43.563  31.116  32.542  1.00  0.00     0.029 A 
ATOM     57  N   UNL A   1      44.521  29.192  32.106  1.00  0.00    -0.354 N 
ATOM     58  N   UNL A   1      44.626  27.421  28.112  1.00  0.00    -0.248 NA
ATOM     59  C   UNL A   1      43.901  25.751  29.576  1.00  0.00     0.031 C 
ATOM     60  C   UNL A   1      44.183  31.169  31.259  1.00  0.00     0.029 A 
ATOM     61  C   UNL A   1      44.564  29.872  30.915  1.00  0.00     0.049 A 
ATOM     62  H   UNL A   1      45.090  28.432  32.367  1.00  0.00     0.167 HD
ATOM     63  C   UNL A   1      44.747  27.911  29.404  1.00  0.00     0.074 A 
ATOM     64  C   UNL A   1      44.353  26.799  30.271  1.00  0.00     0.031 C 
ATOM     65  C   UNL A   1      44.867  29.249  29.648  1.00  0.00     0.037 A 
BRANCH  52  66
ATOM     66  C   UNL A   1      42.970  27.846  34.491  1.00  0.00     0.057 A 
ATOM     67  C   UNL A   1      43.233  26.540  34.035  1.00  0.00     0.134 A 
ATOM     68  C   UNL A   1      42.823  27.971  35.887  1.00  0.00     0.134 A 
ATOM     69  F   UNL A   1      43.394  26.286  32.728  1.00  0.00    -0.206 F 
ATOM     70  C   UNL A   1      43.251  25.434  34.892  1.00  0.00     0.040 A 
ATOM     71  C   UNL A   1      42.889  26.879  36.757  1.00  0.00     0.040 A 
ATOM     72  F   UNL A   1      42.508  29.128  36.479  1.00  0.00    -0.206 F 
ATOM     73  C   UNL A   1      43.066  25.600  36.259  1.00  0.00     0.006 A 
ENDBRANCH  52  66
BRANCH  53  74
ATOM     74  C   UNL A   1      42.875  24.610  26.594  1.00  0.00     0.057 A 
ATOM     75  C   UNL A   1      43.611  24.435  25.414  1.00  0.00     0.134 A 
ATOM     76  C   UNL A   1      42.415  23.437  27.216  1.00  0.00     0.134 A 
ATOM     77  F   UNL A   1      44.116  25.493  24.763  1.00  0.00    -0.206 F 
ATOM     78  C   UNL A   1      43.915  23.165  24.907  1.00  0.00     0.040 A 
ATOM     79  C   UNL A   1      42.706  22.163  26.716  1.00  0.00     0.040 A 
ATOM     80  F   UNL A   1      41.749  23.483  28.379  1.00  0.00    -0.206 F 
ATOM     81  C   UNL A   1      43.477  22.023  25.567  1.00  0.00     0.006 A 
ENDBRANCH  53  74
BRANCH  65  82
ATOM     82  C   UNL A   1      45.092  30.167  28.476  1.00  0.00     0.057 A 
ATOM     83  C   UNL A   1      44.063  30.775  27.738  1.00  0.00     0.134 A 
ATOM     84  C   UNL A   1      46.398  30.570  28.179  1.00  0.00     0.134 A 
ATOM     85  F   UNL A   1      42.776  30.534  28.012  1.00  0.00    -0.206 F 
ATOM     86  C   UNL A   1      44.326  31.705  26.726  1.00  0.00     0.040 A 
ATOM     87  C   UNL A   1      46.672  31.523  27.194  1.00  0.00     0.040 A 
ATOM     88  F   UNL A   1      47.432  30.078  28.879  1.00  0.00    -0.206 F 
ATOM     89  C   UNL A   1      45.635  32.085  26.456  1.00  0.00     0.006 A 
ENDBRANCH  65  82
ENDBRANCH  39  40
ENDBRANCH  31  34
ENDBRANCH  29  30
ENDBRANCH   1  29
TORSDOF 12
ENDMDL
MODEL 3
REMARK VINA RESULT:     -12.1      2.183      6.374
REMARK SMILES Cc1nsc(NC(=O)[C@H]2Cc3[nH]cnc3C[NH2+]2)c1C(=O)NCCCNC(=O)c1ccc(-c2c3nc(c(-c4c(F)cccc4F)c4ccc([nH]4)c(-c4c(F)cccc4F)c4nc(c(-c5c(F)cccc5F)c5ccc2[nH]5)C=C4)C=C3)cc1
REMARK SMILES IDX 23 1 22 2 21 3 19 4 20 5 18 7 1 8 2 9 3 10 4 11 5 12 6 13
REMARK SMILES IDX 7 14 8 16 9 17 10 18 17 19 11 20 16 21 12 24 15 25 13 26
REMARK SMILES IDX 14 28 24 29 25 30 26 31 27 33 28 34 29 35 81 36 30 37 80 38
REMARK SMILES IDX 31 39 32 40 33 41 74 42 34 43 79 44 73 45 75 46 35 47 78 48
REMARK SMILES IDX 72 49 71 50 36 52 62 53 45 54 61 55 46 56 49 57 60 58 76 59
REMARK SMILES IDX 47 60 48 61 59 63 77 64 50 65 37 66 38 67 43 68 39 69 40 70
REMARK SMILES IDX 42 71 44 72 41 73 63 74 64 75 69 76 65 77 66 78 68 79 70 80
REMARK SMILES IDX 67 81 51 82 52 83 57 84 53 85 54 86 56 87 58 88 55 89
REMARK H PARENT 21 6 6 15 17 22 17 23 12 27 25 32 75 51 49 62
REMARK Flexibility Score: inf
ROOT
ATOM      1  C   UNL A   1      32.473  30.217  26.895  1.00  0.00     0.042 C 
ENDROOT
BRANCH   1   2
ATOM      2  C   UNL A   1      32.012  28.777  27.154  1.00  0.00     0.118 C 
BRANCH   2   3
ATOM      3  N   UNL A   1      33.098  27.854  26.876  1.00  0.00    -0.352 N 
ATOM      4  C   UNL A   1      33.192  26.825  25.975  1.00  0.00     0.256 C 
ATOM      5  O   UNL A   1      34.224  26.154  25.996  1.00  0.00    -0.269 OA
ATOM      6  H   UNL A   1      33.902  27.991  27.426  1.00  0.00     0.163 HD
BRANCH   4   7
ATOM      7  C   UNL A   1      32.191  26.647  24.931  1.00  0.00     0.097 A 
ATOM      8  C   UNL A   1      32.156  28.833  23.426  1.00  0.00     0.069 C 
ATOM      9  C   UNL A   1      31.846  27.417  23.750  1.00  0.00     0.066 A 
ATOM     10  N   UNL A   1      31.083  26.786  22.853  1.00  0.00    -0.195 NA
ATOM     11  S   UNL A   1      30.572  25.372  23.520  1.00  0.00    -0.017 S 
ATOM     12  C   UNL A   1      31.169  25.715  25.073  1.00  0.00     0.129 A 
BRANCH  12  13
ATOM     13  N   UNL A   1      30.767  25.011  26.183  1.00  0.00    -0.311 N 
ATOM     14  C   UNL A   1      31.212  23.791  26.629  1.00  0.00     0.283 C 
ATOM     15  H   UNL A   1      30.066  25.437  26.729  1.00  0.00     0.171 HD
ATOM     16  O   UNL A   1      30.639  23.328  27.626  1.00  0.00    -0.268 OA
BRANCH  14  17
ATOM     17  C   UNL A   1      32.272  22.927  25.899  1.00  0.00     0.279 C 
ATOM     18  C   UNL A   1      33.693  23.058  26.538  1.00  0.00     0.131 C 
ATOM     19  N   UNL A   1      31.768  21.535  25.684  1.00  0.00    -0.331 N 
ATOM     20  C   UNL A   1      34.553  21.991  25.979  1.00  0.00     0.050 A 
ATOM     21  C   UNL A   1      32.679  20.712  24.847  1.00  0.00     0.320 C 
ATOM     22  H   UNL A   1      30.860  21.585  25.223  1.00  0.00     0.347 HD
ATOM     23  H   UNL A   1      31.708  21.087  26.598  1.00  0.00     0.347 HD
ATOM     24  N   UNL A   1      35.903  21.838  26.077  1.00  0.00    -0.348 N 
ATOM     25  C   UNL A   1      34.102  20.925  25.238  1.00  0.00     0.116 A 
ATOM     26  C   UNL A   1      36.218  20.703  25.376  1.00  0.00     0.197 A 
ATOM     27  H   UNL A   1      36.529  22.425  26.557  1.00  0.00     0.167 HD
ATOM     28  N   UNL A   1      35.150  20.127  24.865  1.00  0.00    -0.236 NA
ENDBRANCH  14  17
ENDBRANCH  12  13
ENDBRANCH   4   7
ENDBRANCH   2   3
ENDBRANCH   1   2
BRANCH   1  29
ATOM     29  C   UNL A   1      33.909  30.456  27.305  1.00  0.00     0.118 C 
BRANCH  29  30
ATOM     30  N   UNL A   1      33.999  31.512  28.312  1.00  0.00    -0.352 N 
ATOM     31  C   UNL A   1      34.940  31.677  29.312  1.00  0.00     0.251 C 
ATOM     32  H   UNL A   1      33.296  32.198  28.274  1.00  0.00     0.163 HD
ATOM     33  O   UNL A   1      34.713  32.364  30.287  1.00  0.00    -0.269 OA
BRANCH  31  34
ATOM     34  C   UNL A   1      36.226  30.980  29.157  1.00  0.00     0.039 A 
ATOM     35  C   UNL A   1      37.407  31.684  28.919  1.00  0.00     0.014 A 
ATOM     36  C   UNL A   1      36.233  29.605  29.360  1.00  0.00     0.014 A 
ATOM     37  C   UNL A   1      38.610  30.991  28.986  1.00  0.00     0.010 A 
ATOM     38  C   UNL A   1      37.416  28.984  29.644  1.00  0.00     0.010 A 
ATOM     39  C   UNL A   1      38.609  29.643  29.384  1.00  0.00    -0.014 A 
BRANCH  39  40
ATOM     40  C   UNL A   1      39.853  28.925  29.614  1.00  0.00     0.031 A 
ATOM     41  C   UNL A   1      40.308  28.900  31.030  1.00  0.00     0.074 A 
ATOM     42  C   UNL A   1      40.471  28.187  28.668  1.00  0.00     0.049 A 
ATOM     43  N   UNL A   1      41.303  29.547  31.538  1.00  0.00    -0.248 NA
ATOM     44  C   UNL A   1      39.481  28.200  32.025  1.00  0.00     0.031 C 
ATOM     45  C   UNL A   1      40.028  27.841  27.311  1.00  0.00     0.029 A 
ATOM     46  N   UNL A   1      41.642  27.507  28.773  1.00  0.00    -0.354 N 
ATOM     47  C   UNL A   1      41.362  29.176  32.878  1.00  0.00     0.074 A 
ATOM     48  C   UNL A   1      40.123  28.497  33.158  1.00  0.00     0.031 C 
ATOM     49  C   UNL A   1      40.792  26.840  26.821  1.00  0.00     0.029 A 
ATOM     50  C   UNL A   1      41.890  26.613  27.739  1.00  0.00     0.049 A 
ATOM     51  H   UNL A   1      42.266  27.636  29.524  1.00  0.00     0.167 HD
ATOM     52  C   UNL A   1      42.530  29.258  33.573  1.00  0.00     0.037 A 
ATOM     53  C   UNL A   1      42.930  25.748  27.659  1.00  0.00     0.037 A 
ATOM     54  C   UNL A   1      43.488  30.088  32.879  1.00  0.00     0.049 A 
ATOM     55  C   UNL A   1      43.986  26.257  28.571  1.00  0.00     0.074 A 
ATOM     56  C   UNL A   1      43.495  31.400  32.440  1.00  0.00     0.029 A 
ATOM     57  N   UNL A   1      44.492  29.464  32.178  1.00  0.00    -0.354 N 
ATOM     58  N   UNL A   1      44.658  27.354  28.354  1.00  0.00    -0.248 NA
ATOM     59  C   UNL A   1      43.955  25.805  29.954  1.00  0.00     0.031 C 
ATOM     60  C   UNL A   1      44.122  31.353  31.160  1.00  0.00     0.029 A 
ATOM     61  C   UNL A   1      44.531  30.039  30.932  1.00  0.00     0.049 A 
ATOM     62  H   UNL A   1      45.074  28.741  32.507  1.00  0.00     0.167 HD
ATOM     63  C   UNL A   1      44.761  27.957  29.599  1.00  0.00     0.074 A 
ATOM     64  C   UNL A   1      44.382  26.917  30.557  1.00  0.00     0.031 C 
ATOM     65  C   UNL A   1      44.854  29.313  29.726  1.00  0.00     0.037 A 
BRANCH  52  66
ATOM     66  C   UNL A   1      42.951  28.301  34.663  1.00  0.00     0.057 A 
ATOM     67  C   UNL A   1      43.344  28.819  35.911  1.00  0.00     0.134 A 
ATOM     68  C   UNL A   1      43.273  26.944  34.453  1.00  0.00     0.134 A 
ATOM     69  F   UNL A   1      43.097  30.096  36.237  1.00  0.00    -0.206 F 
ATOM     70  C   UNL A   1      44.085  28.072  36.836  1.00  0.00     0.040 A 
ATOM     71  C   UNL A   1      43.967  26.176  35.390  1.00  0.00     0.040 A 
ATOM     72  F   UNL A   1      43.028  26.316  33.298  1.00  0.00    -0.206 F 
ATOM     73  C   UNL A   1      44.410  26.747  36.571  1.00  0.00     0.006 A 
ENDBRANCH  52  66
BRANCH  53  74
ATOM     74  C   UNL A   1      42.971  24.389  27.078  1.00  0.00     0.057 A 
ATOM     75  C   UNL A   1      42.360  23.310  27.735  1.00  0.00     0.134 A 
ATOM     76  C   UNL A   1      43.343  24.167  25.741  1.00  0.00     0.134 A 
ATOM     77  F   UNL A   1      41.945  23.434  29.004  1.00  0.00    -0.206 F 
ATOM     78  C   UNL A   1      42.090  22.099  27.086  1.00  0.00     0.040 A 
ATOM     79  C   UNL A   1      43.084  22.959  25.084  1.00  0.00     0.040 A 
ATOM     80  F   UNL A   1      43.882  25.146  25.000  1.00  0.00    -0.206 F 
ATOM     81  C   UNL A   1      42.437  21.926  25.751  1.00  0.00     0.006 A 
ENDBRANCH  53  74
BRANCH  65  82
ATOM     82  C   UNL A   1      45.070  30.130  28.479  1.00  0.00     0.057 A 
ATOM     83  C   UNL A   1      44.035  30.672  27.700  1.00  0.00     0.134 A 
ATOM     84  C   UNL A   1      46.373  30.509  28.141  1.00  0.00     0.134 A 
ATOM     85  F   UNL A   1      42.750  30.453  28.002  1.00  0.00    -0.206 F 
ATOM     86  C   UNL A   1      44.289  31.514  26.612  1.00  0.00     0.040 A 
ATOM     87  C   UNL A   1      46.639  31.376  27.078  1.00  0.00     0.040 A 
ATOM     88  F   UNL A   1      47.412  30.079  28.873  1.00  0.00    -0.206 F 
ATOM     89  C   UNL A   1      45.596  31.872  26.302  1.00  0.00     0.006 A 
ENDBRANCH  65  82
ENDBRANCH  39  40
ENDBRANCH  31  34
ENDBRANCH  29  30
ENDBRANCH   1  29
TORSDOF 12
ENDMDL
