MODEL 1
REMARK VINA RESULT:     -10.1      0.000      0.000
REMARK SMILES N#Cc1nccnc1N(CC(=O)NCCCNC(=O)c1ccc(-c2c3nc(c(-c4c(F)cccc4F)c4ccc([nH]4)c(-c4c(F)cccc4F)c4nc(c(-c5c(F)cccc5F)c5ccc2[nH]5)C=C4)C=C3)cc1)CC(F)(F)F
REMARK SMILES IDX 14 1 13 2 11 3 12 4 10 6 9 7 8 8 3 9 4 10 5 11 7 12 6 13
REMARK SMILES IDX 2 14 1 15 74 16 75 17 76 18 77 19 78 20 15 21 16 22 17 23
REMARK SMILES IDX 18 24 19 26 20 27 21 28 73 29 22 30 72 31 23 32 24 33 25 34
REMARK SMILES IDX 66 35 26 36 71 37 65 38 67 39 27 40 70 41 64 42 63 43 28 45
REMARK SMILES IDX 54 46 37 47 53 48 38 49 41 50 52 51 68 52 39 53 40 54 51 56
REMARK SMILES IDX 69 57 42 58 29 59 30 60 35 61 31 62 32 63 34 64 36 65 33 66
REMARK SMILES IDX 55 67 56 68 61 69 57 70 58 71 60 72 62 73 59 74 43 75 44 76
REMARK SMILES IDX 49 77 45 78 46 79 48 80 50 81 47 82
REMARK H PARENT 13 5 17 25 67 44 41 55
REMARK Flexibility Score: inf
ROOT
ATOM      1  C   UNL A   1      31.073  30.807  26.255  1.00  0.00     0.117 C 
ENDROOT
BRANCH   1   2
ATOM      2  N   UNL A   1      31.125  30.447  24.850  1.00  0.00    -0.354 N 
ATOM      3  C   UNL A   1      31.345  29.224  24.288  1.00  0.00     0.239 C 
ATOM      4  O   UNL A   1      31.417  29.145  23.058  1.00  0.00    -0.273 OA
ATOM      5  H   UNL A   1      30.983  31.187  24.217  1.00  0.00     0.163 HD
BRANCH   3   6
ATOM      6  C   UNL A   1      31.512  27.983  25.170  1.00  0.00     0.218 C 
BRANCH   6   7
ATOM      7  N   UNL A   1      32.925  27.523  25.256  1.00  0.00    -0.336 N 
BRANCH   7   8
ATOM      8  C   UNL A   1      33.178  26.173  25.075  1.00  0.00     0.166 A 
ATOM      9  C   UNL A   1      33.514  25.488  23.887  1.00  0.00     0.183 A 
ATOM     10  N   UNL A   1      33.773  24.141  23.823  1.00  0.00    -0.240 NA
ATOM     11  C   UNL A   1      33.683  23.459  24.976  1.00  0.00     0.133 A 
ATOM     12  N   UNL A   1      33.096  25.414  26.204  1.00  0.00    -0.235 NA
ATOM     13  C   UNL A   1      33.344  24.085  26.147  1.00  0.00     0.133 A 
BRANCH   9  14
ATOM     14  C   UNL A   1      33.579  26.099  22.592  1.00  0.00     0.123 C 
ATOM     15  N   UNL A   1      33.648  26.569  21.532  1.00  0.00    -0.191 NA
ENDBRANCH   9  14
ENDBRANCH   7   8
BRANCH   7  16
ATOM     16  C   UNL A   1      33.941  28.611  25.364  1.00  0.00     0.234 C 
BRANCH  16  17
ATOM     17  C   UNL A   1      34.347  29.029  26.791  1.00  0.00     0.405 C 
ATOM     18  F   UNL A   1      33.519  28.514  27.727  1.00  0.00    -0.169 F 
ATOM     19  F   UNL A   1      35.600  28.610  27.076  1.00  0.00    -0.169 F 
ATOM     20  F   UNL A   1      34.329  30.373  26.946  1.00  0.00    -0.169 F 
ENDBRANCH  16  17
ENDBRANCH   7  16
ENDBRANCH   6   7
ENDBRANCH   3   6
ENDBRANCH   1   2
BRANCH   1  21
ATOM     21  C   UNL A   1      31.056  32.316  26.464  1.00  0.00     0.042 C 
BRANCH  21  22
ATOM     22  C   UNL A   1      32.441  32.905  26.708  1.00  0.00     0.118 C 
BRANCH  22  23
ATOM     23  N   UNL A   1      32.389  34.118  27.519  1.00  0.00    -0.352 N 
ATOM     24  C   UNL A   1      33.141  34.478  28.612  1.00  0.00     0.251 C 
ATOM     25  H   UNL A   1      31.714  34.778  27.241  1.00  0.00     0.163 HD
ATOM     26  O   UNL A   1      32.804  35.438  29.299  1.00  0.00    -0.269 OA
BRANCH  24  27
ATOM     27  C   UNL A   1      34.338  33.690  28.977  1.00  0.00     0.039 A 
ATOM     28  C   UNL A   1      34.205  32.403  29.499  1.00  0.00     0.014 A 
ATOM     29  C   UNL A   1      35.607  34.250  28.812  1.00  0.00     0.014 A 
ATOM     30  C   UNL A   1      35.311  31.762  30.040  1.00  0.00     0.010 A 
ATOM     31  C   UNL A   1      36.735  33.554  29.260  1.00  0.00     0.010 A 
ATOM     32  C   UNL A   1      36.590  32.328  29.930  1.00  0.00    -0.014 A 
BRANCH  32  33
ATOM     33  C   UNL A   1      37.754  31.623  30.530  1.00  0.00     0.031 A 
ATOM     34  C   UNL A   1      38.162  31.882  31.958  1.00  0.00     0.074 A 
ATOM     35  C   UNL A   1      38.418  30.704  29.799  1.00  0.00     0.049 A 
ATOM     36  N   UNL A   1      39.150  31.361  32.642  1.00  0.00    -0.248 NA
ATOM     37  C   UNL A   1      37.365  32.859  32.714  1.00  0.00     0.031 C 
ATOM     38  C   UNL A   1      38.116  30.349  28.411  1.00  0.00     0.029 A 
ATOM     39  N   UNL A   1      39.472  29.889  30.125  1.00  0.00    -0.354 N 
ATOM     40  C   UNL A   1      39.104  31.957  33.897  1.00  0.00     0.074 A 
ATOM     41  C   UNL A   1      38.013  32.906  33.870  1.00  0.00     0.031 C 
ATOM     42  C   UNL A   1      38.936  29.364  28.019  1.00  0.00     0.029 A 
ATOM     43  C   UNL A   1      39.873  29.072  29.097  1.00  0.00     0.049 A 
ATOM     44  H   UNL A   1      39.902  29.891  31.011  1.00  0.00     0.167 HD
ATOM     45  C   UNL A   1      39.893  31.728  34.975  1.00  0.00     0.037 A 
ATOM     46  C   UNL A   1      40.901  28.208  29.015  1.00  0.00     0.037 A 
ATOM     47  C   UNL A   1      40.971  30.773  35.004  1.00  0.00     0.049 A 
ATOM     48  C   UNL A   1      41.802  28.031  30.207  1.00  0.00     0.074 A 
ATOM     49  C   UNL A   1      41.801  30.443  36.062  1.00  0.00     0.029 A 
ATOM     50  N   UNL A   1      41.376  30.003  33.925  1.00  0.00    -0.354 N 
ATOM     51  N   UNL A   1      41.721  28.575  31.396  1.00  0.00    -0.248 NA
ATOM     52  C   UNL A   1      42.940  27.118  30.040  1.00  0.00     0.031 C 
ATOM     53  C   UNL A   1      42.757  29.534  35.601  1.00  0.00     0.029 A 
ATOM     54  C   UNL A   1      42.473  29.233  34.280  1.00  0.00     0.049 A 
ATOM     55  H   UNL A   1      40.949  30.004  33.038  1.00  0.00     0.167 HD
ATOM     56  C   UNL A   1      42.779  28.050  32.126  1.00  0.00     0.074 A 
ATOM     57  C   UNL A   1      43.468  27.122  31.254  1.00  0.00     0.031 C 
ATOM     58  C   UNL A   1      43.151  28.313  33.403  1.00  0.00     0.037 A 
BRANCH  45  59
ATOM     59  C   UNL A   1      39.647  32.550  36.211  1.00  0.00     0.057 A 
ATOM     60  C   UNL A   1      38.660  32.167  37.129  1.00  0.00     0.134 A 
ATOM     61  C   UNL A   1      40.341  33.739  36.471  1.00  0.00     0.134 A 
ATOM     62  F   UNL A   1      37.948  31.046  36.938  1.00  0.00    -0.206 F 
ATOM     63  C   UNL A   1      38.370  32.937  38.256  1.00  0.00     0.040 A 
ATOM     64  C   UNL A   1      40.081  34.501  37.612  1.00  0.00     0.040 A 
ATOM     65  F   UNL A   1      41.303  34.161  35.638  1.00  0.00    -0.206 F 
ATOM     66  C   UNL A   1      39.087  34.104  38.505  1.00  0.00     0.006 A 
ENDBRANCH  45  59
BRANCH  46  67
ATOM     67  C   UNL A   1      41.176  27.478  27.749  1.00  0.00     0.057 A 
ATOM     68  C   UNL A   1      42.005  28.026  26.761  1.00  0.00     0.134 A 
ATOM     69  C   UNL A   1      40.674  26.190  27.526  1.00  0.00     0.134 A 
ATOM     70  F   UNL A   1      42.511  29.259  26.906  1.00  0.00    -0.206 F 
ATOM     71  C   UNL A   1      42.331  27.319  25.604  1.00  0.00     0.040 A 
ATOM     72  C   UNL A   1      41.026  25.456  26.392  1.00  0.00     0.040 A 
ATOM     73  F   UNL A   1      39.889  25.604  28.440  1.00  0.00    -0.206 F 
ATOM     74  C   UNL A   1      41.856  26.021  25.426  1.00  0.00     0.006 A 
ENDBRANCH  46  67
BRANCH  58  75
ATOM     75  C   UNL A   1      44.328  27.550  33.943  1.00  0.00     0.057 A 
ATOM     76  C   UNL A   1      44.148  26.299  34.548  1.00  0.00     0.134 A 
ATOM     77  C   UNL A   1      45.637  28.048  33.873  1.00  0.00     0.134 A 
ATOM     78  F   UNL A   1      42.922  25.766  34.661  1.00  0.00    -0.206 F 
ATOM     79  C   UNL A   1      45.223  25.570  35.056  1.00  0.00     0.040 A 
ATOM     80  C   UNL A   1      46.724  27.311  34.343  1.00  0.00     0.040 A 
ATOM     81  F   UNL A   1      45.883  29.235  33.296  1.00  0.00    -0.206 F 
ATOM     82  C   UNL A   1      46.519  26.070  34.942  1.00  0.00     0.006 A 
ENDBRANCH  58  75
ENDBRANCH  32  33
ENDBRANCH  24  27
ENDBRANCH  22  23
ENDBRANCH  21  22
ENDBRANCH   1  21
TORSDOF 15
ENDMDL
MODEL 2
REMARK VINA RESULT:     -10.1      1.492      2.267
REMARK SMILES N#Cc1nccnc1N(CC(=O)NCCCNC(=O)c1ccc(-c2c3nc(c(-c4c(F)cccc4F)c4ccc([nH]4)c(-c4c(F)cccc4F)c4nc(c(-c5c(F)cccc5F)c5ccc2[nH]5)C=C4)C=C3)cc1)CC(F)(F)F
REMARK SMILES IDX 14 1 13 2 11 3 12 4 10 6 9 7 8 8 3 9 4 10 5 11 7 12 6 13
REMARK SMILES IDX 2 14 1 15 74 16 75 17 76 18 77 19 78 20 15 21 16 22 17 23
REMARK SMILES IDX 18 24 19 26 20 27 21 28 73 29 22 30 72 31 23 32 24 33 25 34
REMARK SMILES IDX 66 35 26 36 71 37 65 38 67 39 27 40 70 41 64 42 63 43 28 45
REMARK SMILES IDX 54 46 37 47 53 48 38 49 41 50 52 51 68 52 39 53 40 54 51 56
REMARK SMILES IDX 69 57 42 58 29 59 30 60 35 61 31 62 32 63 34 64 36 65 33 66
REMARK SMILES IDX 55 67 56 68 61 69 57 70 58 71 60 72 62 73 59 74 43 75 44 76
REMARK SMILES IDX 49 77 45 78 46 79 48 80 50 81 47 82
REMARK H PARENT 13 5 17 25 67 44 41 55
REMARK Flexibility Score: inf
ROOT
ATOM      1  C   UNL A   1      31.609  30.362  26.291  1.00  0.00     0.117 C 
ENDROOT
BRANCH   1   2
ATOM      2  N   UNL A   1      32.047  30.077  24.937  1.00  0.00    -0.354 N 
ATOM      3  C   UNL A   1      32.734  28.996  24.469  1.00  0.00     0.239 C 
ATOM      4  O   UNL A   1      33.069  28.980  23.281  1.00  0.00    -0.273 OA
ATOM      5  H   UNL A   1      31.816  30.758  24.264  1.00  0.00     0.163 HD
BRANCH   3   6
ATOM      6  C   UNL A   1      33.091  27.838  25.406  1.00  0.00     0.218 C 
BRANCH   6   7
ATOM      7  N   UNL A   1      32.384  26.576  25.056  1.00  0.00    -0.336 N 
BRANCH   7   8
ATOM      8  C   UNL A   1      33.154  25.446  24.824  1.00  0.00     0.166 A 
ATOM      9  C   UNL A   1      33.721  24.998  23.611  1.00  0.00     0.183 A 
ATOM     10  N   UNL A   1      34.495  23.870  23.497  1.00  0.00    -0.240 NA
ATOM     11  C   UNL A   1      34.699  23.166  24.622  1.00  0.00     0.133 A 
ATOM     12  N   UNL A   1      33.395  24.676  25.923  1.00  0.00    -0.235 NA
ATOM     13  C   UNL A   1      34.152  23.561  25.815  1.00  0.00     0.133 A 
BRANCH   9  14
ATOM     14  C   UNL A   1      33.521  25.631  22.341  1.00  0.00     0.123 C 
ATOM     15  N   UNL A   1      33.387  26.134  21.303  1.00  0.00    -0.191 NA
ENDBRANCH   9  14
ENDBRANCH   7   8
BRANCH   7  16
ATOM     16  C   UNL A   1      30.897  26.631  25.162  1.00  0.00     0.234 C 
BRANCH  16  17
ATOM     17  C   UNL A   1      30.108  26.323  23.874  1.00  0.00     0.405 C 
ATOM     18  F   UNL A   1      28.789  26.587  24.009  1.00  0.00    -0.169 F 
ATOM     19  F   UNL A   1      30.570  27.061  22.839  1.00  0.00    -0.169 F 
ATOM     20  F   UNL A   1      30.215  25.022  23.517  1.00  0.00    -0.169 F 
ENDBRANCH  16  17
ENDBRANCH   7  16
ENDBRANCH   6   7
ENDBRANCH   3   6
ENDBRANCH   1   2
BRANCH   1  21
ATOM     21  C   UNL A   1      31.479  31.857  26.553  1.00  0.00     0.042 C 
BRANCH  21  22
ATOM     22  C   UNL A   1      32.702  32.457  27.237  1.00  0.00     0.118 C 
BRANCH  22  23
ATOM     23  N   UNL A   1      32.519  33.870  27.553  1.00  0.00    -0.352 N 
ATOM     24  C   UNL A   1      33.124  34.642  28.517  1.00  0.00     0.251 C 
ATOM     25  H   UNL A   1      31.863  34.342  26.991  1.00  0.00     0.163 HD
ATOM     26  O   UNL A   1      32.680  35.755  28.778  1.00  0.00    -0.269 OA
BRANCH  24  27
ATOM     27  C   UNL A   1      34.291  34.117  29.257  1.00  0.00     0.039 A 
ATOM     28  C   UNL A   1      35.588  34.410  28.833  1.00  0.00     0.014 A 
ATOM     29  C   UNL A   1      34.088  33.307  30.377  1.00  0.00     0.014 A 
ATOM     30  C   UNL A   1      36.664  33.737  29.396  1.00  0.00     0.010 A 
ATOM     31  C   UNL A   1      35.185  32.717  31.013  1.00  0.00     0.010 A 
ATOM     32  C   UNL A   1      36.479  32.881  30.492  1.00  0.00    -0.014 A 
BRANCH  32  33
ATOM     33  C   UNL A   1      37.650  32.166  31.066  1.00  0.00     0.031 A 
ATOM     34  C   UNL A   1      38.161  32.502  32.444  1.00  0.00     0.074 A 
ATOM     35  C   UNL A   1      38.228  31.173  30.360  1.00  0.00     0.049 A 
ATOM     36  N   UNL A   1      39.170  31.984  33.099  1.00  0.00    -0.248 NA
ATOM     37  C   UNL A   1      37.454  33.560  33.180  1.00  0.00     0.031 C 
ATOM     38  C   UNL A   1      37.821  30.741  29.021  1.00  0.00     0.029 A 
ATOM     39  N   UNL A   1      39.268  30.336  30.674  1.00  0.00    -0.354 N 
ATOM     40  C   UNL A   1      39.230  32.663  34.310  1.00  0.00     0.074 A 
ATOM     41  C   UNL A   1      38.178  33.655  34.286  1.00  0.00     0.031 C 
ATOM     42  C   UNL A   1      38.575  29.697  28.646  1.00  0.00     0.029 A 
ATOM     43  C   UNL A   1      39.568  29.436  29.681  1.00  0.00     0.049 A 
ATOM     44  H   UNL A   1      39.755  30.378  31.529  1.00  0.00     0.167 HD
ATOM     45  C   UNL A   1      40.078  32.472  35.350  1.00  0.00     0.037 A 
ATOM     46  C   UNL A   1      40.553  28.524  29.595  1.00  0.00     0.037 A 
ATOM     47  C   UNL A   1      41.117  31.474  35.377  1.00  0.00     0.049 A 
ATOM     48  C   UNL A   1      41.522  28.387  30.737  1.00  0.00     0.074 A 
ATOM     49  C   UNL A   1      42.001  31.178  36.401  1.00  0.00     0.029 A 
ATOM     50  N   UNL A   1      41.420  30.617  34.330  1.00  0.00    -0.354 N 
ATOM     51  N   UNL A   1      41.541  29.011  31.889  1.00  0.00    -0.248 NA
ATOM     52  C   UNL A   1      42.610  27.416  30.563  1.00  0.00     0.031 C 
ATOM     53  C   UNL A   1      42.888  30.199  35.945  1.00  0.00     0.029 A 
ATOM     54  C   UNL A   1      42.506  29.825  34.668  1.00  0.00     0.049 A 
ATOM     55  H   UNL A   1      40.936  30.578  33.474  1.00  0.00     0.167 HD
ATOM     56  C   UNL A   1      42.624  28.489  32.586  1.00  0.00     0.074 A 
ATOM     57  C   UNL A   1      43.217  27.477  31.738  1.00  0.00     0.031 C 
ATOM     58  C   UNL A   1      43.088  28.820  33.815  1.00  0.00     0.037 A 
BRANCH  45  59
ATOM     59  C   UNL A   1      39.946  33.383  36.540  1.00  0.00     0.057 A 
ATOM     60  C   UNL A   1      39.060  33.066  37.578  1.00  0.00     0.134 A 
ATOM     61  C   UNL A   1      40.647  34.592  36.639  1.00  0.00     0.134 A 
ATOM     62  F   UNL A   1      38.347  31.930  37.544  1.00  0.00    -0.206 F 
ATOM     63  C   UNL A   1      38.874  33.918  38.668  1.00  0.00     0.040 A 
ATOM     64  C   UNL A   1      40.494  35.437  37.740  1.00  0.00     0.040 A 
ATOM     65  F   UNL A   1      41.516  34.954  35.685  1.00  0.00    -0.206 F 
ATOM     66  C   UNL A   1      39.598  35.104  38.755  1.00  0.00     0.006 A 
ENDBRANCH  45  59
BRANCH  46  67
ATOM     67  C   UNL A   1      40.715  27.700  28.368  1.00  0.00     0.057 A 
ATOM     68  C   UNL A   1      40.071  26.463  28.235  1.00  0.00     0.134 A 
ATOM     69  C   UNL A   1      41.461  28.157  27.274  1.00  0.00     0.134 A 
ATOM     70  F   UNL A   1      39.349  25.961  29.248  1.00  0.00    -0.206 F 
ATOM     71  C   UNL A   1      40.153  25.717  27.060  1.00  0.00     0.040 A 
ATOM     72  C   UNL A   1      41.518  27.440  26.079  1.00  0.00     0.040 A 
ATOM     73  F   UNL A   1      42.088  29.340  27.332  1.00  0.00    -0.206 F 
ATOM     74  C   UNL A   1      40.864  26.215  25.969  1.00  0.00     0.006 A 
ENDBRANCH  46  67
BRANCH  58  75
ATOM     75  C   UNL A   1      44.267  28.043  34.332  1.00  0.00     0.057 A 
ATOM     76  C   UNL A   1      45.572  28.508  34.123  1.00  0.00     0.134 A 
ATOM     77  C   UNL A   1      44.119  26.836  35.030  1.00  0.00     0.134 A 
ATOM     78  F   UNL A   1      45.790  29.650  33.452  1.00  0.00    -0.206 F 
ATOM     79  C   UNL A   1      46.683  27.808  34.592  1.00  0.00     0.040 A 
ATOM     80  C   UNL A   1      45.220  26.147  35.538  1.00  0.00     0.040 A 
ATOM     81  F   UNL A   1      42.897  26.338  35.276  1.00  0.00    -0.206 F 
ATOM     82  C   UNL A   1      46.508  26.630  35.315  1.00  0.00     0.006 A 
ENDBRANCH  58  75
ENDBRANCH  32  33
ENDBRANCH  24  27
ENDBRANCH  22  23
ENDBRANCH  21  22
ENDBRANCH   1  21
TORSDOF 15
ENDMDL
MODEL 3
REMARK VINA RESULT:     -10.1      4.981      9.852
REMARK SMILES N#Cc1nccnc1N(CC(=O)NCCCNC(=O)c1ccc(-c2c3nc(c(-c4c(F)cccc4F)c4ccc([nH]4)c(-c4c(F)cccc4F)c4nc(c(-c5c(F)cccc5F)c5ccc2[nH]5)C=C4)C=C3)cc1)CC(F)(F)F
REMARK SMILES IDX 14 1 13 2 11 3 12 4 10 6 9 7 8 8 3 9 4 10 5 11 7 12 6 13
REMARK SMILES IDX 2 14 1 15 74 16 75 17 76 18 77 19 78 20 15 21 16 22 17 23
REMARK SMILES IDX 18 24 19 26 20 27 21 28 73 29 22 30 72 31 23 32 24 33 25 34
REMARK SMILES IDX 66 35 26 36 71 37 65 38 67 39 27 40 70 41 64 42 63 43 28 45
REMARK SMILES IDX 54 46 37 47 53 48 38 49 41 50 52 51 68 52 39 53 40 54 51 56
REMARK SMILES IDX 69 57 42 58 29 59 30 60 35 61 31 62 32 63 34 64 36 65 33 66
REMARK SMILES IDX 55 67 56 68 61 69 57 70 58 71 60 72 62 73 59 74 43 75 44 76
REMARK SMILES IDX 49 77 45 78 46 79 48 80 50 81 47 82
REMARK H PARENT 13 5 17 25 67 44 41 55
REMARK Flexibility Score: inf
ROOT
ATOM      1  C   UNL A   1      36.732  20.592  25.066  1.00  0.00     0.117 C 
ENDROOT
BRANCH   1   2
ATOM      2  N   UNL A   1      37.093  21.967  25.359  1.00  0.00    -0.354 N 
ATOM      3  C   UNL A   1      36.304  22.979  25.822  1.00  0.00     0.239 C 
ATOM      4  O   UNL A   1      36.799  24.103  25.943  1.00  0.00    -0.273 OA
ATOM      5  H   UNL A   1      38.036  22.201  25.202  1.00  0.00     0.163 HD
BRANCH   3   6
ATOM      6  C   UNL A   1      34.835  22.721  26.169  1.00  0.00     0.218 C 
BRANCH   6   7
ATOM      7  N   UNL A   1      33.901  23.196  25.113  1.00  0.00    -0.336 N 
BRANCH   7   8
ATOM      8  C   UNL A   1      33.355  24.462  25.253  1.00  0.00     0.166 A 
ATOM      9  C   UNL A   1      32.239  24.863  26.020  1.00  0.00     0.183 A 
ATOM     10  N   UNL A   1      31.796  26.159  26.111  1.00  0.00    -0.240 NA
ATOM     11  C   UNL A   1      32.478  27.077  25.408  1.00  0.00     0.133 A 
ATOM     12  N   UNL A   1      33.992  25.446  24.558  1.00  0.00    -0.235 NA
ATOM     13  C   UNL A   1      33.556  26.724  24.639  1.00  0.00     0.133 A 
BRANCH   9  14
ATOM     14  C   UNL A   1      31.401  23.966  26.759  1.00  0.00     0.123 C 
ATOM     15  N   UNL A   1      30.725  23.257  27.384  1.00  0.00    -0.191 NA
ENDBRANCH   9  14
ENDBRANCH   7   8
BRANCH   7  16
ATOM     16  C   UNL A   1      33.789  22.307  23.919  1.00  0.00     0.234 C 
BRANCH  16  17
ATOM     17  C   UNL A   1      32.707  21.210  23.983  1.00  0.00     0.405 C 
ATOM     18  F   UNL A   1      32.022  21.238  25.148  1.00  0.00    -0.169 F 
ATOM     19  F   UNL A   1      31.815  21.357  22.978  1.00  0.00    -0.169 F 
ATOM     20  F   UNL A   1      33.241  19.972  23.868  1.00  0.00    -0.169 F 
ENDBRANCH  16  17
ENDBRANCH   7  16
ENDBRANCH   6   7
ENDBRANCH   3   6
ENDBRANCH   1   2
BRANCH   1  21
ATOM     21  C   UNL A   1      37.952  19.691  24.932  1.00  0.00     0.042 C 
BRANCH  21  22
ATOM     22  C   UNL A   1      39.136  20.152  25.774  1.00  0.00     0.118 C 
BRANCH  22  23
ATOM     23  N   UNL A   1      40.167  19.124  25.887  1.00  0.00    -0.352 N 
ATOM     24  C   UNL A   1      41.515  19.252  26.124  1.00  0.00     0.251 C 
ATOM     25  H   UNL A   1      39.848  18.200  25.777  1.00  0.00     0.163 HD
ATOM     26  O   UNL A   1      42.259  18.289  25.963  1.00  0.00    -0.269 OA
BRANCH  24  27
ATOM     27  C   UNL A   1      42.070  20.556  26.544  1.00  0.00     0.039 A 
ATOM     28  C   UNL A   1      42.101  20.910  27.894  1.00  0.00     0.014 A 
ATOM     29  C   UNL A   1      42.548  21.444  25.578  1.00  0.00     0.014 A 
ATOM     30  C   UNL A   1      42.415  22.212  28.257  1.00  0.00     0.010 A 
ATOM     31  C   UNL A   1      42.970  22.722  25.960  1.00  0.00     0.010 A 
ATOM     32  C   UNL A   1      42.852  23.137  27.296  1.00  0.00    -0.014 A 
BRANCH  32  33
ATOM     33  C   UNL A   1      43.170  24.528  27.715  1.00  0.00     0.031 A 
ATOM     34  C   UNL A   1      44.598  25.004  27.792  1.00  0.00     0.074 A 
ATOM     35  C   UNL A   1      42.162  25.384  27.979  1.00  0.00     0.049 A 
ATOM     36  N   UNL A   1      45.059  26.181  28.140  1.00  0.00    -0.248 NA
ATOM     37  C   UNL A   1      45.647  24.035  27.441  1.00  0.00     0.031 C 
ATOM     38  C   UNL A   1      40.736  25.054  27.928  1.00  0.00     0.029 A 
ATOM     39  N   UNL A   1      42.180  26.711  28.327  1.00  0.00    -0.354 N 
ATOM     40  C   UNL A   1      46.443  26.086  28.068  1.00  0.00     0.074 A 
ATOM     41  C   UNL A   1      46.751  24.728  27.678  1.00  0.00     0.031 C 
ATOM     42  C   UNL A   1      40.018  26.154  28.194  1.00  0.00     0.029 A 
ATOM     43  C   UNL A   1      40.929  27.247  28.511  1.00  0.00     0.049 A 
ATOM     44  H   UNL A   1      43.010  27.230  28.436  1.00  0.00     0.167 HD
ATOM     45  C   UNL A   1      47.373  27.046  28.298  1.00  0.00     0.037 A 
ATOM     46  C   UNL A   1      40.553  28.471  28.924  1.00  0.00     0.037 A 
ATOM     47  C   UNL A   1      47.063  28.402  28.674  1.00  0.00     0.049 A 
ATOM     48  C   UNL A   1      41.612  29.492  29.240  1.00  0.00     0.074 A 
ATOM     49  C   UNL A   1      47.935  29.456  28.890  1.00  0.00     0.029 A 
ATOM     50  N   UNL A   1      45.786  28.889  28.900  1.00  0.00    -0.354 N 
ATOM     51  N   UNL A   1      42.915  29.397  29.132  1.00  0.00    -0.248 NA
ATOM     52  C   UNL A   1      41.145  30.791  29.740  1.00  0.00     0.031 C 
ATOM     53  C   UNL A   1      47.192  30.557  29.324  1.00  0.00     0.029 A 
ATOM     54  C   UNL A   1      45.850  30.216  29.297  1.00  0.00     0.049 A 
ATOM     55  H   UNL A   1      44.956  28.370  28.794  1.00  0.00     0.167 HD
ATOM     56  C   UNL A   1      43.419  30.631  29.522  1.00  0.00     0.074 A 
ATOM     57  C   UNL A   1      42.280  31.465  29.841  1.00  0.00     0.031 C 
ATOM     58  C   UNL A   1      44.709  31.037  29.612  1.00  0.00     0.037 A 
BRANCH  45  59
ATOM     59  C   UNL A   1      48.822  26.660  28.185  1.00  0.00     0.057 A 
ATOM     60  C   UNL A   1      49.472  26.705  26.944  1.00  0.00     0.134 A 
ATOM     61  C   UNL A   1      49.562  26.197  29.281  1.00  0.00     0.134 A 
ATOM     62  F   UNL A   1      48.821  27.127  25.849  1.00  0.00    -0.206 F 
ATOM     63  C   UNL A   1      50.799  26.300  26.797  1.00  0.00     0.040 A 
ATOM     64  C   UNL A   1      50.901  25.820  29.152  1.00  0.00     0.040 A 
ATOM     65  F   UNL A   1      49.006  26.134  30.500  1.00  0.00    -0.206 F 
ATOM     66  C   UNL A   1      51.520  25.864  27.904  1.00  0.00     0.006 A 
ENDBRANCH  45  59
BRANCH  46  67
ATOM     67  C   UNL A   1      39.115  28.796  29.115  1.00  0.00     0.057 A 
ATOM     68  C   UNL A   1      38.486  28.605  30.352  1.00  0.00     0.134 A 
ATOM     69  C   UNL A   1      38.353  29.368  28.089  1.00  0.00     0.134 A 
ATOM     70  F   UNL A   1      39.155  28.052  31.375  1.00  0.00    -0.206 F 
ATOM     71  C   UNL A   1      37.159  28.977  30.565  1.00  0.00     0.040 A 
ATOM     72  C   UNL A   1      37.037  29.782  28.300  1.00  0.00     0.040 A 
ATOM     73  F   UNL A   1      38.901  29.593  26.886  1.00  0.00    -0.206 F 
ATOM     74  C   UNL A   1      36.436  29.586  29.541  1.00  0.00     0.006 A 
ENDBRANCH  46  67
BRANCH  58  75
ATOM     75  C   UNL A   1      44.949  32.462  30.029  1.00  0.00     0.057 A 
ATOM     76  C   UNL A   1      45.142  32.785  31.379  1.00  0.00     0.134 A 
ATOM     77  C   UNL A   1      44.985  33.514  29.104  1.00  0.00     0.134 A 
ATOM     78  F   UNL A   1      45.108  31.830  32.320  1.00  0.00    -0.206 F 
ATOM     79  C   UNL A   1      45.367  34.098  31.791  1.00  0.00     0.040 A 
ATOM     80  C   UNL A   1      45.249  34.825  29.500  1.00  0.00     0.040 A 
ATOM     81  F   UNL A   1      44.820  33.274  27.793  1.00  0.00    -0.206 F 
ATOM     82  C   UNL A   1      45.435  35.121  30.849  1.00  0.00     0.006 A 
ENDBRANCH  58  75
ENDBRANCH  32  33
ENDBRANCH  24  27
ENDBRANCH  22  23
ENDBRANCH  21  22
ENDBRANCH   1  21
TORSDOF 15
ENDMDL
