MODEL 1
REMARK VINA RESULT:     -11.1      0.000      0.000
REMARK SMILES C#CCNC(=O)[C@H](C)S(=O)(=O)c1ccc(C(=O)NCCCNC(=O)c2ccc(-c3c4nc(c(-c5c(F)cccc5F)c5ccc([nH]5)c(-c5c(F)cccc5F)c5nc(c(-c6c(F)cccc6F)c6ccc3[nH]6)C=C5)C=C4)cc2)cc1F
REMARK SMILES IDX 16 1 17 2 18 3 15 5 12 6 13 7 80 8 14 9 79 10 81 11 9 12
REMARK SMILES IDX 10 13 11 14 7 15 8 16 5 17 4 18 6 20 3 21 2 22 1 23 19 24
REMARK SMILES IDX 20 25 21 26 22 27 23 28 24 30 25 31 26 32 78 33 27 34 77 35
REMARK SMILES IDX 28 36 29 37 30 38 71 39 31 40 76 41 70 42 72 43 32 44 75 45
REMARK SMILES IDX 69 46 68 47 33 49 59 50 42 51 58 52 43 53 46 54 57 55 73 56
REMARK SMILES IDX 44 57 45 58 56 60 74 61 47 62 34 63 35 64 40 65 36 66 37 67
REMARK SMILES IDX 39 68 41 69 38 70 60 71 61 72 66 73 62 74 63 75 65 76 67 77
REMARK SMILES IDX 64 78 48 79 49 80 54 81 50 82 51 83 53 84 55 85 52 86
REMARK H PARENT 18 4 4 19 22 29 72 48 46 59
REMARK Flexibility Score: inf
ROOT
ATOM      1  C   UNL A   1      37.381  23.377  25.686  1.00  0.00     0.251 C 
ATOM      2  O   UNL A   1      38.074  24.258  26.190  1.00  0.00    -0.269 OA
ATOM      3  N   UNL A   1      37.994  22.258  25.192  1.00  0.00    -0.352 N 
ATOM      4  H   UNL A   1      38.973  22.246  25.283  1.00  0.00     0.163 HD
ENDROOT
BRANCH   1   5
ATOM      5  C   UNL A   1      35.904  23.515  25.693  1.00  0.00     0.042 A 
ATOM      6  C   UNL A   1      33.141  24.006  25.669  1.00  0.00     0.103 A 
ATOM      7  C   UNL A   1      33.958  24.434  24.617  1.00  0.00     0.024 A 
ATOM      8  C   UNL A   1      33.703  23.274  26.687  1.00  0.00     0.142 A 
ATOM      9  C   UNL A   1      35.333  24.209  24.633  1.00  0.00     0.015 A 
ATOM     10  C   UNL A   1      35.059  23.004  26.677  1.00  0.00     0.054 A 
ATOM     11  F   UNL A   1      32.990  22.771  27.700  1.00  0.00    -0.206 F 
BRANCH   6  12
ATOM     12  S   UNL A   1      31.392  24.182  25.646  1.00  0.00     0.192 S 
ATOM     13  O   UNL A   1      30.993  24.992  26.782  1.00  0.00    -0.223 OA
ATOM     14  O   UNL A   1      30.891  22.820  25.613  1.00  0.00    -0.223 OA
BRANCH  12  15
ATOM     15  C   UNL A   1      30.923  25.101  24.175  1.00  0.00     0.199 C 
ATOM     16  C   UNL A   1      30.310  24.119  23.161  1.00  0.00     0.036 C 
BRANCH  15  17
ATOM     17  C   UNL A   1      29.953  26.264  24.349  1.00  0.00     0.239 C 
ATOM     18  N   UNL A   1      30.362  27.567  24.350  1.00  0.00    -0.344 N 
ATOM     19  H   UNL A   1      29.725  28.241  24.025  1.00  0.00     0.164 HD
ATOM     20  O   UNL A   1      28.731  26.085  24.398  1.00  0.00    -0.274 OA
BRANCH  18  21
ATOM     21  C   UNL A   1      31.636  28.026  24.786  1.00  0.00     0.206 C 
BRANCH  21  22
ATOM     22  C   UNL A   1      31.801  28.218  26.285  1.00  0.00    -0.085 C 
ATOM     23  C   UNL A   1      31.942  28.383  27.571  1.00  0.00     0.006 C 
ENDBRANCH  21  22
ENDBRANCH  18  21
ENDBRANCH  15  17
ENDBRANCH  12  15
ENDBRANCH   6  12
ENDBRANCH   1   5
BRANCH   3  24
ATOM     24  C   UNL A   1      37.424  21.087  24.558  1.00  0.00     0.118 C 
BRANCH  24  25
ATOM     25  C   UNL A   1      38.259  19.851  24.889  1.00  0.00     0.042 C 
BRANCH  25  26
ATOM     26  C   UNL A   1      39.188  20.082  26.059  1.00  0.00     0.118 C 
BRANCH  26  27
ATOM     27  N   UNL A   1      40.356  19.229  25.962  1.00  0.00    -0.352 N 
ATOM     28  C   UNL A   1      41.678  19.582  25.982  1.00  0.00     0.251 C 
ATOM     29  H   UNL A   1      40.174  18.265  25.870  1.00  0.00     0.163 HD
ATOM     30  O   UNL A   1      42.527  18.802  25.565  1.00  0.00    -0.269 OA
BRANCH  28  31
ATOM     31  C   UNL A   1      42.068  20.903  26.511  1.00  0.00     0.039 A 
ATOM     32  C   UNL A   1      42.391  21.922  25.614  1.00  0.00     0.014 A 
ATOM     33  C   UNL A   1      42.137  21.125  27.890  1.00  0.00     0.014 A 
ATOM     34  C   UNL A   1      42.755  23.174  26.105  1.00  0.00     0.010 A 
ATOM     35  C   UNL A   1      42.399  22.397  28.374  1.00  0.00     0.010 A 
ATOM     36  C   UNL A   1      42.735  23.426  27.486  1.00  0.00    -0.014 A 
BRANCH  36  37
ATOM     37  C   UNL A   1      43.094  24.753  28.035  1.00  0.00     0.031 A 
ATOM     38  C   UNL A   1      42.017  25.771  28.286  1.00  0.00     0.074 A 
ATOM     39  C   UNL A   1      44.388  25.053  28.247  1.00  0.00     0.049 A 
ATOM     40  N   UNL A   1      42.132  27.013  28.676  1.00  0.00    -0.248 NA
ATOM     41  C   UNL A   1      40.627  25.347  28.041  1.00  0.00     0.031 C 
ATOM     42  C   UNL A   1      45.517  24.151  28.004  1.00  0.00     0.029 A 
ATOM     43  N   UNL A   1      44.975  26.202  28.710  1.00  0.00    -0.354 N 
ATOM     44  C   UNL A   1      40.839  27.517  28.714  1.00  0.00     0.074 A 
ATOM     45  C   UNL A   1      39.958  26.471  28.251  1.00  0.00     0.031 C 
ATOM     46  C   UNL A   1      46.656  24.771  28.352  1.00  0.00     0.029 A 
ATOM     47  C   UNL A   1      46.344  26.126  28.795  1.00  0.00     0.049 A 
ATOM     48  H   UNL A   1      44.463  27.007  28.959  1.00  0.00     0.167 HD
ATOM     49  C   UNL A   1      40.424  28.736  29.129  1.00  0.00     0.037 A 
ATOM     50  C   UNL A   1      47.245  27.050  29.178  1.00  0.00     0.037 A 
ATOM     51  C   UNL A   1      41.309  29.759  29.617  1.00  0.00     0.049 A 
ATOM     52  C   UNL A   1      46.758  28.405  29.606  1.00  0.00     0.074 A 
ATOM     53  C   UNL A   1      40.985  31.013  30.103  1.00  0.00     0.029 A 
ATOM     54  N   UNL A   1      42.689  29.643  29.686  1.00  0.00    -0.354 N 
ATOM     55  N   UNL A   1      45.528  28.856  29.681  1.00  0.00    -0.248 NA
ATOM     56  C   UNL A   1      47.779  29.383  30.006  1.00  0.00     0.031 C 
ATOM     57  C   UNL A   1      42.172  31.675  30.422  1.00  0.00     0.029 A 
ATOM     58  C   UNL A   1      43.232  30.812  30.189  1.00  0.00     0.049 A 
ATOM     59  H   UNL A   1      43.205  28.849  29.419  1.00  0.00     0.167 HD
ATOM     60  C   UNL A   1      45.626  30.154  30.163  1.00  0.00     0.074 A 
ATOM     61  C   UNL A   1      47.035  30.417  30.372  1.00  0.00     0.031 C 
ATOM     62  C   UNL A   1      44.637  31.048  30.407  1.00  0.00     0.037 A 
BRANCH  49  63
ATOM     63  C   UNL A   1      38.953  29.028  29.100  1.00  0.00     0.057 A 
ATOM     64  C   UNL A   1      38.345  29.529  27.942  1.00  0.00     0.134 A 
ATOM     65  C   UNL A   1      38.156  28.896  30.243  1.00  0.00     0.134 A 
ATOM     66  F   UNL A   1      39.053  29.684  26.812  1.00  0.00    -0.206 F 
ATOM     67  C   UNL A   1      37.002  29.907  27.929  1.00  0.00     0.040 A 
ATOM     68  C   UNL A   1      36.804  29.245  30.235  1.00  0.00     0.040 A 
ATOM     69  F   UNL A   1      38.673  28.409  31.381  1.00  0.00    -0.206 F 
ATOM     70  C   UNL A   1      36.228  29.766  29.078  1.00  0.00     0.006 A 
ENDBRANCH  49  63
BRANCH  50  71
ATOM     71  C   UNL A   1      48.689  26.709  29.199  1.00  0.00     0.057 A 
ATOM     72  C   UNL A   1      49.524  26.973  28.106  1.00  0.00     0.134 A 
ATOM     73  C   UNL A   1      49.265  26.089  30.314  1.00  0.00     0.134 A 
ATOM     74  F   UNL A   1      49.033  27.555  27.003  1.00  0.00    -0.206 F 
ATOM     75  C   UNL A   1      50.875  26.620  28.115  1.00  0.00     0.040 A 
ATOM     76  C   UNL A   1      50.620  25.756  30.348  1.00  0.00     0.040 A 
ATOM     77  F   UNL A   1      48.520  25.824  31.397  1.00  0.00    -0.206 F 
ATOM     78  C   UNL A   1      51.428  26.015  29.242  1.00  0.00     0.006 A 
ENDBRANCH  50  71
BRANCH  62  79
ATOM     79  C   UNL A   1      45.027  32.385  30.963  1.00  0.00     0.057 A 
ATOM     80  C   UNL A   1      45.350  33.444  30.104  1.00  0.00     0.134 A 
ATOM     81  C   UNL A   1      45.185  32.594  32.338  1.00  0.00     0.134 A 
ATOM     82  F   UNL A   1      45.233  33.304  28.775  1.00  0.00    -0.206 F 
ATOM     83  C   UNL A   1      45.835  34.657  30.592  1.00  0.00     0.040 A 
ATOM     84  C   UNL A   1      45.642  33.812  32.840  1.00  0.00     0.040 A 
ATOM     85  F   UNL A   1      44.884  31.621  33.212  1.00  0.00    -0.206 F 
ATOM     86  C   UNL A   1      45.981  34.843  31.965  1.00  0.00     0.006 A 
ENDBRANCH  62  79
ENDBRANCH  36  37
ENDBRANCH  28  31
ENDBRANCH  26  27
ENDBRANCH  25  26
ENDBRANCH  24  25
ENDBRANCH   3  24
TORSDOF 15
ENDMDL
MODEL 2
REMARK VINA RESULT:     -11.1      1.180      2.137
REMARK SMILES C#CCNC(=O)[C@H](C)S(=O)(=O)c1ccc(C(=O)NCCCNC(=O)c2ccc(-c3c4nc(c(-c5c(F)cccc5F)c5ccc([nH]5)c(-c5c(F)cccc5F)c5nc(c(-c6c(F)cccc6F)c6ccc3[nH]6)C=C5)C=C4)cc2)cc1F
REMARK SMILES IDX 16 1 17 2 18 3 15 5 12 6 13 7 80 8 14 9 79 10 81 11 9 12
REMARK SMILES IDX 10 13 11 14 7 15 8 16 5 17 4 18 6 20 3 21 2 22 1 23 19 24
REMARK SMILES IDX 20 25 21 26 22 27 23 28 24 30 25 31 26 32 78 33 27 34 77 35
REMARK SMILES IDX 28 36 29 37 30 38 71 39 31 40 76 41 70 42 72 43 32 44 75 45
REMARK SMILES IDX 69 46 68 47 33 49 59 50 42 51 58 52 43 53 46 54 57 55 73 56
REMARK SMILES IDX 44 57 45 58 56 60 74 61 47 62 34 63 35 64 40 65 36 66 37 67
REMARK SMILES IDX 39 68 41 69 38 70 60 71 61 72 66 73 62 74 63 75 65 76 67 77
REMARK SMILES IDX 64 78 48 79 49 80 54 81 50 82 51 83 53 84 55 85 52 86
REMARK H PARENT 18 4 4 19 22 29 72 48 46 59
REMARK Flexibility Score: inf
ROOT
ATOM      1  C   UNL A   1      37.441  23.326  25.737  1.00  0.00     0.251 C 
ATOM      2  O   UNL A   1      38.164  24.168  26.266  1.00  0.00    -0.269 OA
ATOM      3  N   UNL A   1      38.013  22.195  25.221  1.00  0.00    -0.352 N 
ATOM      4  H   UNL A   1      38.991  22.143  25.318  1.00  0.00     0.163 HD
ENDROOT
BRANCH   1   5
ATOM      5  C   UNL A   1      35.970  23.521  25.739  1.00  0.00     0.042 A 
ATOM      6  C   UNL A   1      33.229  24.120  25.715  1.00  0.00     0.103 A 
ATOM      7  C   UNL A   1      34.071  24.559  24.687  1.00  0.00     0.024 A 
ATOM      8  C   UNL A   1      33.752  23.325  26.706  1.00  0.00     0.142 A 
ATOM      9  C   UNL A   1      35.436  24.280  24.704  1.00  0.00     0.015 A 
ATOM     10  C   UNL A   1      35.097  23.003  26.694  1.00  0.00     0.054 A 
ATOM     11  F   UNL A   1      33.012  22.808  27.691  1.00  0.00    -0.206 F 
BRANCH   6  12
ATOM     12  S   UNL A   1      31.488  24.365  25.686  1.00  0.00     0.192 S 
ATOM     13  O   UNL A   1      31.118  25.198  26.815  1.00  0.00    -0.223 OA
ATOM     14  O   UNL A   1      30.934  23.023  25.660  1.00  0.00    -0.223 OA
BRANCH  12  15
ATOM     15  C   UNL A   1      31.059  25.292  24.208  1.00  0.00     0.199 C 
ATOM     16  C   UNL A   1      30.595  24.299  23.127  1.00  0.00     0.036 C 
BRANCH  15  17
ATOM     17  C   UNL A   1      29.996  26.376  24.338  1.00  0.00     0.239 C 
ATOM     18  N   UNL A   1      30.282  27.704  24.202  1.00  0.00    -0.344 N 
ATOM     19  H   UNL A   1      29.568  28.288  23.859  1.00  0.00     0.164 HD
ATOM     20  O   UNL A   1      28.800  26.096  24.476  1.00  0.00    -0.274 OA
BRANCH  18  21
ATOM     21  C   UNL A   1      31.529  28.312  24.518  1.00  0.00     0.206 C 
BRANCH  21  22
ATOM     22  C   UNL A   1      31.779  28.599  25.989  1.00  0.00    -0.085 C 
ATOM     23  C   UNL A   1      31.992  28.847  27.252  1.00  0.00     0.006 C 
ENDBRANCH  21  22
ENDBRANCH  18  21
ENDBRANCH  15  17
ENDBRANCH  12  15
ENDBRANCH   6  12
ENDBRANCH   1   5
BRANCH   3  24
ATOM     24  C   UNL A   1      37.403  21.062  24.557  1.00  0.00     0.118 C 
BRANCH  24  25
ATOM     25  C   UNL A   1      38.156  19.780  24.906  1.00  0.00     0.042 C 
BRANCH  25  26
ATOM     26  C   UNL A   1      39.001  19.931  26.150  1.00  0.00     0.118 C 
BRANCH  26  27
ATOM     27  N   UNL A   1      40.122  19.011  26.122  1.00  0.00    -0.352 N 
ATOM     28  C   UNL A   1      41.460  19.295  26.063  1.00  0.00     0.251 C 
ATOM     29  H   UNL A   1      39.890  18.055  26.150  1.00  0.00     0.163 HD
ATOM     30  O   UNL A   1      42.255  18.427  25.719  1.00  0.00    -0.269 OA
BRANCH  28  31
ATOM     31  C   UNL A   1      41.932  20.646  26.421  1.00  0.00     0.039 A 
ATOM     32  C   UNL A   1      42.201  20.935  27.759  1.00  0.00     0.014 A 
ATOM     33  C   UNL A   1      42.083  21.630  25.438  1.00  0.00     0.014 A 
ATOM     34  C   UNL A   1      42.653  22.207  28.105  1.00  0.00     0.010 A 
ATOM     35  C   UNL A   1      42.628  22.860  25.770  1.00  0.00     0.010 A 
ATOM     36  C   UNL A   1      42.894  23.169  27.110  1.00  0.00    -0.014 A 
BRANCH  36  37
ATOM     37  C   UNL A   1      43.395  24.520  27.445  1.00  0.00     0.031 A 
ATOM     38  C   UNL A   1      42.430  25.584  27.884  1.00  0.00     0.074 A 
ATOM     39  C   UNL A   1      44.704  24.795  27.297  1.00  0.00     0.049 A 
ATOM     40  N   UNL A   1      42.654  26.847  28.135  1.00  0.00    -0.248 NA
ATOM     41  C   UNL A   1      41.019  25.186  28.034  1.00  0.00     0.031 C 
ATOM     42  C   UNL A   1      45.724  23.845  26.845  1.00  0.00     0.029 A 
ATOM     43  N   UNL A   1      45.402  25.956  27.507  1.00  0.00    -0.354 N 
ATOM     44  C   UNL A   1      41.420  27.391  28.462  1.00  0.00     0.074 A 
ATOM     45  C   UNL A   1      40.438  26.341  28.320  1.00  0.00     0.031 C 
ATOM     46  C   UNL A   1      46.920  24.453  26.843  1.00  0.00     0.029 A 
ATOM     47  C   UNL A   1      46.746  25.845  27.246  1.00  0.00     0.049 A 
ATOM     48  H   UNL A   1      44.980  26.791  27.816  1.00  0.00     0.167 HD
ATOM     49  C   UNL A   1      41.138  28.648  28.875  1.00  0.00     0.037 A 
ATOM     50  C   UNL A   1      47.725  26.767  27.315  1.00  0.00     0.037 A 
ATOM     51  C   UNL A   1      42.129  29.676  29.042  1.00  0.00     0.049 A 
ATOM     52  C   UNL A   1      47.379  28.163  27.748  1.00  0.00     0.074 A 
ATOM     53  C   UNL A   1      41.954  30.971  29.497  1.00  0.00     0.029 A 
ATOM     54  N   UNL A   1      43.479  29.525  28.766  1.00  0.00    -0.354 N 
ATOM     55  N   UNL A   1      46.214  28.654  28.098  1.00  0.00    -0.248 NA
ATOM     56  C   UNL A   1      48.479  29.136  27.799  1.00  0.00     0.031 C 
ATOM     57  C   UNL A   1      43.190  31.619  29.451  1.00  0.00     0.029 A 
ATOM     58  C   UNL A   1      44.146  30.710  29.023  1.00  0.00     0.049 A 
ATOM     59  H   UNL A   1      43.901  28.698  28.438  1.00  0.00     0.167 HD
ATOM     60  C   UNL A   1      46.446  29.980  28.439  1.00  0.00     0.074 A 
ATOM     61  C   UNL A   1      47.864  30.215  28.262  1.00  0.00     0.031 C 
ATOM     62  C   UNL A   1      45.562  30.918  28.858  1.00  0.00     0.037 A 
BRANCH  49  63
ATOM     63  C   UNL A   1      39.712  28.981  29.199  1.00  0.00     0.057 A 
ATOM     64  C   UNL A   1      39.207  28.794  30.492  1.00  0.00     0.134 A 
ATOM     65  C   UNL A   1      38.815  29.404  28.210  1.00  0.00     0.134 A 
ATOM     66  F   UNL A   1      40.012  28.387  31.485  1.00  0.00    -0.206 F 
ATOM     67  C   UNL A   1      37.859  28.997  30.785  1.00  0.00     0.040 A 
ATOM     68  C   UNL A   1      37.468  29.636  28.498  1.00  0.00     0.040 A 
ATOM     69  F   UNL A   1      39.235  29.615  26.954  1.00  0.00    -0.206 F 
ATOM     70  C   UNL A   1      36.985  29.419  29.787  1.00  0.00     0.006 A 
ENDBRANCH  49  63
BRANCH  50  71
ATOM     71  C   UNL A   1      49.123  26.385  26.994  1.00  0.00     0.057 A 
ATOM     72  C   UNL A   1      49.998  25.904  27.977  1.00  0.00     0.134 A 
ATOM     73  C   UNL A   1      49.623  26.514  25.694  1.00  0.00     0.134 A 
ATOM     74  F   UNL A   1      49.585  25.767  29.245  1.00  0.00    -0.206 F 
ATOM     75  C   UNL A   1      51.323  25.579  27.680  1.00  0.00     0.040 A 
ATOM     76  C   UNL A   1      50.938  26.167  25.377  1.00  0.00     0.040 A 
ATOM     77  F   UNL A   1      48.830  26.956  24.707  1.00  0.00    -0.206 F 
ATOM     78  C   UNL A   1      51.794  25.704  26.374  1.00  0.00     0.006 A 
ENDBRANCH  50  71
BRANCH  62  79
ATOM     79  C   UNL A   1      46.096  32.279  29.192  1.00  0.00     0.057 A 
ATOM     80  C   UNL A   1      46.488  32.587  30.501  1.00  0.00     0.134 A 
ATOM     81  C   UNL A   1      46.124  33.312  28.248  1.00  0.00     0.134 A 
ATOM     82  F   UNL A   1      46.472  31.644  31.457  1.00  0.00    -0.206 F 
ATOM     83  C   UNL A   1      46.869  33.877  30.865  1.00  0.00     0.040 A 
ATOM     84  C   UNL A   1      46.530  34.601  28.592  1.00  0.00     0.040 A 
ATOM     85  F   UNL A   1      45.768  33.080  26.975  1.00  0.00    -0.206 F 
ATOM     86  C   UNL A   1      46.892  34.889  29.907  1.00  0.00     0.006 A 
ENDBRANCH  62  79
ENDBRANCH  36  37
ENDBRANCH  28  31
ENDBRANCH  26  27
ENDBRANCH  25  26
ENDBRANCH  24  25
ENDBRANCH   3  24
TORSDOF 15
ENDMDL
MODEL 3
REMARK VINA RESULT:     -11.0      1.906      2.861
REMARK SMILES C#CCNC(=O)[C@H](C)S(=O)(=O)c1ccc(C(=O)NCCCNC(=O)c2ccc(-c3c4nc(c(-c5c(F)cccc5F)c5ccc([nH]5)c(-c5c(F)cccc5F)c5nc(c(-c6c(F)cccc6F)c6ccc3[nH]6)C=C5)C=C4)cc2)cc1F
REMARK SMILES IDX 16 1 17 2 18 3 15 5 12 6 13 7 80 8 14 9 79 10 81 11 9 12
REMARK SMILES IDX 10 13 11 14 7 15 8 16 5 17 4 18 6 20 3 21 2 22 1 23 19 24
REMARK SMILES IDX 20 25 21 26 22 27 23 28 24 30 25 31 26 32 78 33 27 34 77 35
REMARK SMILES IDX 28 36 29 37 30 38 71 39 31 40 76 41 70 42 72 43 32 44 75 45
REMARK SMILES IDX 69 46 68 47 33 49 59 50 42 51 58 52 43 53 46 54 57 55 73 56
REMARK SMILES IDX 44 57 45 58 56 60 74 61 47 62 34 63 35 64 40 65 36 66 37 67
REMARK SMILES IDX 39 68 41 69 38 70 60 71 61 72 66 73 62 74 63 75 65 76 67 77
REMARK SMILES IDX 64 78 48 79 49 80 54 81 50 82 51 83 53 84 55 85 52 86
REMARK H PARENT 18 4 4 19 22 29 72 48 46 59
REMARK Flexibility Score: inf
ROOT
ATOM      1  C   UNL A   1      34.007  20.355  24.946  1.00  0.00     0.251 C 
ATOM      2  O   UNL A   1      33.074  19.593  25.190  1.00  0.00    -0.269 OA
ATOM      3  N   UNL A   1      35.288  19.911  25.131  1.00  0.00    -0.352 N 
ATOM      4  H   UNL A   1      35.364  18.985  25.455  1.00  0.00     0.163 HD
ENDROOT
BRANCH   1   5
ATOM      5  C   UNL A   1      33.725  21.702  24.390  1.00  0.00     0.042 A 
ATOM      6  C   UNL A   1      33.224  24.156  23.125  1.00  0.00     0.103 A 
ATOM      7  C   UNL A   1      32.528  23.000  22.756  1.00  0.00     0.024 A 
ATOM      8  C   UNL A   1      34.112  24.089  24.172  1.00  0.00     0.142 A 
ATOM      9  C   UNL A   1      32.786  21.776  23.368  1.00  0.00     0.015 A 
ATOM     10  C   UNL A   1      34.329  22.884  24.816  1.00  0.00     0.054 A 
ATOM     11  F   UNL A   1      34.773  25.153  24.634  1.00  0.00    -0.206 F 
BRANCH   6  12
ATOM     12  S   UNL A   1      32.864  25.739  22.449  1.00  0.00     0.192 S 
ATOM     13  O   UNL A   1      31.591  25.669  21.757  1.00  0.00    -0.223 OA
ATOM     14  O   UNL A   1      34.026  26.059  21.639  1.00  0.00    -0.223 OA
BRANCH  12  15
ATOM     15  C   UNL A   1      32.648  26.908  23.796  1.00  0.00     0.199 C 
ATOM     16  C   UNL A   1      33.047  28.307  23.297  1.00  0.00     0.036 C 
BRANCH  15  17
ATOM     17  C   UNL A   1      31.264  27.010  24.427  1.00  0.00     0.239 C 
ATOM     18  N   UNL A   1      31.014  26.628  25.714  1.00  0.00    -0.344 N 
ATOM     19  H   UNL A   1      30.294  27.097  26.193  1.00  0.00     0.164 HD
ATOM     20  O   UNL A   1      30.320  27.538  23.830  1.00  0.00    -0.274 OA
BRANCH  18  21
ATOM     21  C   UNL A   1      31.711  25.607  26.417  1.00  0.00     0.206 C 
BRANCH  21  22
ATOM     22  C   UNL A   1      31.140  24.203  26.297  1.00  0.00    -0.085 C 
ATOM     23  C   UNL A   1      30.650  22.999  26.194  1.00  0.00     0.006 C 
ENDBRANCH  21  22
ENDBRANCH  18  21
ENDBRANCH  15  17
ENDBRANCH  12  15
ENDBRANCH   6  12
ENDBRANCH   1   5
BRANCH   3  24
ATOM     24  C   UNL A   1      36.550  20.591  24.922  1.00  0.00     0.118 C 
BRANCH  24  25
ATOM     25  C   UNL A   1      37.704  19.594  24.999  1.00  0.00     0.042 C 
BRANCH  25  26
ATOM     26  C   UNL A   1      38.963  20.215  25.559  1.00  0.00     0.118 C 
BRANCH  26  27
ATOM     27  N   UNL A   1      39.950  19.193  25.854  1.00  0.00    -0.352 N 
ATOM     28  C   UNL A   1      41.294  19.339  26.068  1.00  0.00     0.251 C 
ATOM     29  H   UNL A   1      39.606  18.272  25.910  1.00  0.00     0.163 HD
ATOM     30  O   UNL A   1      42.036  18.367  25.978  1.00  0.00    -0.269 OA
BRANCH  28  31
ATOM     31  C   UNL A   1      41.835  20.669  26.408  1.00  0.00     0.039 A 
ATOM     32  C   UNL A   1      42.131  21.561  25.377  1.00  0.00     0.014 A 
ATOM     33  C   UNL A   1      42.072  21.020  27.740  1.00  0.00     0.014 A 
ATOM     34  C   UNL A   1      42.637  22.822  25.689  1.00  0.00     0.010 A 
ATOM     35  C   UNL A   1      42.478  22.308  28.054  1.00  0.00     0.010 A 
ATOM     36  C   UNL A   1      42.788  23.212  27.030  1.00  0.00    -0.014 A 
BRANCH  36  37
ATOM     37  C   UNL A   1      43.301  24.552  27.392  1.00  0.00     0.031 A 
ATOM     38  C   UNL A   1      42.343  25.622  27.832  1.00  0.00     0.074 A 
ATOM     39  C   UNL A   1      44.615  24.813  27.265  1.00  0.00     0.049 A 
ATOM     40  N   UNL A   1      42.579  26.878  28.104  1.00  0.00    -0.248 NA
ATOM     41  C   UNL A   1      40.925  25.239  27.958  1.00  0.00     0.031 C 
ATOM     42  C   UNL A   1      45.629  23.857  26.813  1.00  0.00     0.029 A 
ATOM     43  N   UNL A   1      45.324  25.963  27.500  1.00  0.00    -0.354 N 
ATOM     44  C   UNL A   1      41.346  27.432  28.422  1.00  0.00     0.074 A 
ATOM     45  C   UNL A   1      40.354  26.397  28.253  1.00  0.00     0.031 C 
ATOM     46  C   UNL A   1      46.833  24.450  26.836  1.00  0.00     0.029 A 
ATOM     47  C   UNL A   1      46.670  25.838  27.256  1.00  0.00     0.049 A 
ATOM     48  H   UNL A   1      44.908  26.798  27.815  1.00  0.00     0.167 HD
ATOM     49  C   UNL A   1      41.074  28.687  28.849  1.00  0.00     0.037 A 
ATOM     50  C   UNL A   1      47.659  26.747  27.351  1.00  0.00     0.037 A 
ATOM     51  C   UNL A   1      42.075  29.701  29.044  1.00  0.00     0.049 A 
ATOM     52  C   UNL A   1      47.323  28.142  27.799  1.00  0.00     0.074 A 
ATOM     53  C   UNL A   1      41.910  30.991  29.514  1.00  0.00     0.029 A 
ATOM     54  N   UNL A   1      43.427  29.537  28.784  1.00  0.00    -0.354 N 
ATOM     55  N   UNL A   1      46.160  28.642  28.141  1.00  0.00    -0.248 NA
ATOM     56  C   UNL A   1      48.434  29.100  27.878  1.00  0.00     0.031 C 
ATOM     57  C   UNL A   1      43.154  31.624  29.494  1.00  0.00     0.029 A 
ATOM     58  C   UNL A   1      44.104  30.710  29.067  1.00  0.00     0.049 A 
ATOM     59  H   UNL A   1      43.843  28.710  28.450  1.00  0.00     0.167 HD
ATOM     60  C   UNL A   1      46.403  29.960  28.503  1.00  0.00     0.074 A 
ATOM     61  C   UNL A   1      47.826  30.180  28.348  1.00  0.00     0.031 C 
ATOM     62  C   UNL A   1      45.525  30.903  28.923  1.00  0.00     0.037 A 
BRANCH  49  63
ATOM     63  C   UNL A   1      39.648  29.033  29.158  1.00  0.00     0.057 A 
ATOM     64  C   UNL A   1      39.132  28.860  30.449  1.00  0.00     0.134 A 
ATOM     65  C   UNL A   1      38.762  29.454  28.159  1.00  0.00     0.134 A 
ATOM     66  F   UNL A   1      39.926  28.455  31.452  1.00  0.00    -0.206 F 
ATOM     67  C   UNL A   1      37.782  29.075  30.729  1.00  0.00     0.040 A 
ATOM     68  C   UNL A   1      37.414  29.698  28.433  1.00  0.00     0.040 A 
ATOM     69  F   UNL A   1      39.194  29.652  26.904  1.00  0.00    -0.206 F 
ATOM     70  C   UNL A   1      36.919  29.495  29.720  1.00  0.00     0.006 A 
ENDBRANCH  49  63
BRANCH  50  71
ATOM     71  C   UNL A   1      49.056  26.353  27.044  1.00  0.00     0.057 A 
ATOM     72  C   UNL A   1      49.934  25.914  28.044  1.00  0.00     0.134 A 
ATOM     73  C   UNL A   1      49.554  26.427  25.738  1.00  0.00     0.134 A 
ATOM     74  F   UNL A   1      49.523  25.831  29.317  1.00  0.00    -0.206 F 
ATOM     75  C   UNL A   1      51.258  25.578  27.759  1.00  0.00     0.040 A 
ATOM     76  C   UNL A   1      50.868  26.067  25.434  1.00  0.00     0.040 A 
ATOM     77  F   UNL A   1      48.758  26.826  24.735  1.00  0.00    -0.206 F 
ATOM     78  C   UNL A   1      51.727  25.647  26.448  1.00  0.00     0.006 A 
ENDBRANCH  50  71
BRANCH  62  79
ATOM     79  C   UNL A   1      46.071  32.253  29.284  1.00  0.00     0.057 A 
ATOM     80  C   UNL A   1      46.447  32.538  30.603  1.00  0.00     0.134 A 
ATOM     81  C   UNL A   1      46.126  33.298  28.354  1.00  0.00     0.134 A 
ATOM     82  F   UNL A   1      46.404  31.583  31.545  1.00  0.00    -0.206 F 
ATOM     83  C   UNL A   1      46.839  33.818  30.989  1.00  0.00     0.040 A 
ATOM     84  C   UNL A   1      46.543  34.577  28.722  1.00  0.00     0.040 A 
ATOM     85  F   UNL A   1      45.786  33.087  27.073  1.00  0.00    -0.206 F 
ATOM     86  C   UNL A   1      46.888  34.843  30.046  1.00  0.00     0.006 A 
ENDBRANCH  62  79
ENDBRANCH  36  37
ENDBRANCH  28  31
ENDBRANCH  26  27
ENDBRANCH  25  26
ENDBRANCH  24  25
ENDBRANCH   3  24
TORSDOF 15
ENDMDL
