MODEL 1
REMARK VINA RESULT:     -11.4      0.000      0.000
REMARK SMILES Cc1nc(C)c(C(=O)N[C@@H](CCS(C)(=O)=O)C(=O)NCCCNC(=O)c2ccc(-c3c4nc(c(-c5c(F)cccc5F)c5ccc([nH]5)c(-c5c(F)cccc5F)c5nc(c(-c6c(F)cccc6F)c6ccc3[nH]6)C=C5)C=C4)cc2)s1
REMARK SMILES IDX 20 1 19 2 17 3 18 4 10 6 9 7 7 8 8 9 6 11 1 12 2 13 3 14
REMARK SMILES IDX 80 15 4 16 5 17 11 18 12 19 13 20 14 21 15 22 16 23 21 24
REMARK SMILES IDX 22 25 23 26 24 27 25 29 26 30 27 31 79 32 28 33 78 34 29 35
REMARK SMILES IDX 30 36 31 37 72 38 32 39 77 40 71 41 73 42 33 43 76 44 70 45
REMARK SMILES IDX 69 46 34 48 60 49 43 50 59 51 44 52 47 53 58 54 74 55 45 56
REMARK SMILES IDX 46 57 57 59 75 60 48 61 35 62 36 63 41 64 37 65 38 66 40 67
REMARK SMILES IDX 42 68 39 69 61 70 62 71 67 72 63 73 64 74 66 75 68 76 65 77
REMARK SMILES IDX 49 78 50 79 55 80 51 81 52 82 54 83 56 84 53 85
REMARK H PARENT 19 5 9 10 23 28 73 47 47 58
REMARK Flexibility Score: inf
ROOT
ATOM      1  C   UNL A   1      36.107  20.572  25.019  1.00  0.00     0.117 C 
ENDROOT
BRANCH   1   2
ATOM      2  N   UNL A   1      35.317  21.159  26.087  1.00  0.00    -0.354 N 
ATOM      3  C   UNL A   1      33.986  21.094  26.340  1.00  0.00     0.242 C 
ATOM      4  O   UNL A   1      33.623  21.262  27.509  1.00  0.00    -0.273 OA
ATOM      5  H   UNL A   1      35.834  21.691  26.735  1.00  0.00     0.163 HD
BRANCH   3   6
ATOM      6  C   UNL A   1      32.945  20.694  25.284  1.00  0.00     0.172 C 
BRANCH   6   7
ATOM      7  N   UNL A   1      33.048  21.379  23.997  1.00  0.00    -0.339 N 
ATOM      8  C   UNL A   1      33.202  22.710  23.659  1.00  0.00     0.263 C 
ATOM      9  O   UNL A   1      33.613  22.873  22.504  1.00  0.00    -0.268 OA
ATOM     10  H   UNL A   1      32.999  20.775  23.221  1.00  0.00     0.164 HD
BRANCH   8  11
ATOM     11  C   UNL A   1      32.897  23.844  24.529  1.00  0.00     0.115 A 
ATOM     12  C   UNL A   1      31.052  26.784  26.323  1.00  0.00     0.079 C 
ATOM     13  C   UNL A   1      31.949  25.751  25.739  1.00  0.00     0.091 A 
ATOM     14  N   UNL A   1      33.239  25.685  25.962  1.00  0.00    -0.246 NA
ATOM     15  S   UNL A   1      31.349  24.581  24.651  1.00  0.00    -0.113 S 
ATOM     16  C   UNL A   1      33.800  24.630  25.249  1.00  0.00     0.061 A 
ATOM     17  C   UNL A   1      35.285  24.521  25.319  1.00  0.00     0.068 C 
ENDBRANCH   8  11
ENDBRANCH   6   7
BRANCH   6  18
ATOM     18  C   UNL A   1      32.717  19.179  25.127  1.00  0.00     0.051 C 
BRANCH  18  19
ATOM     19  C   UNL A   1      33.225  18.451  23.887  1.00  0.00     0.139 C 
BRANCH  19  20
ATOM     20  S   UNL A   1      34.080  16.888  24.121  1.00  0.00     0.147 S 
ATOM     21  C   UNL A   1      33.028  15.890  25.150  1.00  0.00     0.158 C 
ATOM     22  O   UNL A   1      34.122  16.250  22.818  1.00  0.00    -0.229 OA
ATOM     23  O   UNL A   1      35.318  17.128  24.834  1.00  0.00    -0.229 OA
ENDBRANCH  19  20
ENDBRANCH  18  19
ENDBRANCH   6  18
ENDBRANCH   3   6
ENDBRANCH   1   2
BRANCH   1  24
ATOM     24  C   UNL A   1      37.349  21.372  24.661  1.00  0.00     0.042 C 
BRANCH  24  25
ATOM     25  C   UNL A   1      38.492  21.305  25.667  1.00  0.00     0.118 C 
BRANCH  25  26
ATOM     26  N   UNL A   1      39.333  20.121  25.574  1.00  0.00    -0.352 N 
ATOM     27  C   UNL A   1      40.646  19.935  25.953  1.00  0.00     0.251 C 
ATOM     28  H   UNL A   1      38.897  19.330  25.180  1.00  0.00     0.163 HD
ATOM     29  O   UNL A   1      41.219  18.868  25.751  1.00  0.00    -0.269 OA
BRANCH  27  30
ATOM     30  C   UNL A   1      41.401  21.055  26.560  1.00  0.00     0.039 A 
ATOM     31  C   UNL A   1      41.981  22.017  25.729  1.00  0.00     0.014 A 
ATOM     32  C   UNL A   1      41.478  21.200  27.945  1.00  0.00     0.014 A 
ATOM     33  C   UNL A   1      42.507  23.186  26.285  1.00  0.00     0.010 A 
ATOM     34  C   UNL A   1      41.881  22.415  28.486  1.00  0.00     0.010 A 
ATOM     35  C   UNL A   1      42.389  23.431  27.664  1.00  0.00    -0.014 A 
BRANCH  35  36
ATOM     36  C   UNL A   1      42.765  24.738  28.270  1.00  0.00     0.031 A 
ATOM     37  C   UNL A   1      41.715  25.796  28.492  1.00  0.00     0.074 A 
ATOM     38  C   UNL A   1      44.061  25.018  28.522  1.00  0.00     0.049 A 
ATOM     39  N   UNL A   1      41.862  27.046  28.856  1.00  0.00    -0.248 NA
ATOM     40  C   UNL A   1      40.320  25.411  28.226  1.00  0.00     0.031 C 
ATOM     41  C   UNL A   1      45.190  24.114  28.292  1.00  0.00     0.029 A 
ATOM     42  N   UNL A   1      44.650  26.157  29.017  1.00  0.00    -0.354 N 
ATOM     43  C   UNL A   1      40.588  27.599  28.825  1.00  0.00     0.074 A 
ATOM     44  C   UNL A   1      39.690  26.568  28.354  1.00  0.00     0.031 C 
ATOM     45  C   UNL A   1      46.327  24.716  28.678  1.00  0.00     0.029 A 
ATOM     46  C   UNL A   1      46.017  26.065  29.137  1.00  0.00     0.049 A 
ATOM     47  H   UNL A   1      44.140  26.963  29.263  1.00  0.00     0.167 HD
ATOM     48  C   UNL A   1      40.193  28.842  29.187  1.00  0.00     0.037 A 
ATOM     49  C   UNL A   1      46.920  26.969  29.564  1.00  0.00     0.037 A 
ATOM     50  C   UNL A   1      41.073  29.850  29.714  1.00  0.00     0.049 A 
ATOM     51  C   UNL A   1      46.451  28.330  29.996  1.00  0.00     0.074 A 
ATOM     52  C   UNL A   1      40.758  31.118  30.170  1.00  0.00     0.029 A 
ATOM     53  N   UNL A   1      42.442  29.695  29.871  1.00  0.00    -0.354 N 
ATOM     54  N   UNL A   1      45.235  28.820  30.009  1.00  0.00    -0.248 NA
ATOM     55  C   UNL A   1      47.480  29.265  30.477  1.00  0.00     0.031 C 
ATOM     56  C   UNL A   1      41.940  31.739  30.585  1.00  0.00     0.029 A 
ATOM     57  C   UNL A   1      42.985  30.845  30.416  1.00  0.00     0.049 A 
ATOM     58  H   UNL A   1      42.950  28.887  29.631  1.00  0.00     0.167 HD
ATOM     59  C   UNL A   1      45.348  30.103  30.525  1.00  0.00     0.074 A 
ATOM     60  C   UNL A   1      46.749  30.314  30.824  1.00  0.00     0.031 C 
ATOM     61  C   UNL A   1      44.378  31.028  30.729  1.00  0.00     0.037 A 
BRANCH  48  62
ATOM     62  C   UNL A   1      38.736  29.172  29.049  1.00  0.00     0.057 A 
ATOM     63  C   UNL A   1      37.866  29.135  30.147  1.00  0.00     0.134 A 
ATOM     64  C   UNL A   1      38.202  29.561  27.813  1.00  0.00     0.134 A 
ATOM     65  F   UNL A   1      38.313  28.757  31.353  1.00  0.00    -0.206 F 
ATOM     66  C   UNL A   1      36.512  29.446  30.017  1.00  0.00     0.040 A 
ATOM     67  C   UNL A   1      36.854  29.901  27.678  1.00  0.00     0.040 A 
ATOM     68  F   UNL A   1      38.980  29.624  26.723  1.00  0.00    -0.206 F 
ATOM     69  C   UNL A   1      36.005  29.839  28.780  1.00  0.00     0.006 A 
ENDBRANCH  48  62
BRANCH  49  70
ATOM     70  C   UNL A   1      48.361  26.615  29.635  1.00  0.00     0.057 A 
ATOM     71  C   UNL A   1      49.228  26.928  28.581  1.00  0.00     0.134 A 
ATOM     72  C   UNL A   1      48.899  25.936  30.733  1.00  0.00     0.134 A 
ATOM     73  F   UNL A   1      48.766  27.559  27.492  1.00  0.00    -0.206 F 
ATOM     74  C   UNL A   1      50.573  26.556  28.605  1.00  0.00     0.040 A 
ATOM     75  C   UNL A   1      50.248  25.580  30.781  1.00  0.00     0.040 A 
ATOM     76  F   UNL A   1      48.123  25.614  31.778  1.00  0.00    -0.206 F 
ATOM     77  C   UNL A   1      51.088  25.882  29.710  1.00  0.00     0.006 A 
ENDBRANCH  49  70
BRANCH  61  78
ATOM     78  C   UNL A   1      44.791  32.329  31.346  1.00  0.00     0.057 A 
ATOM     79  C   UNL A   1      45.165  33.430  30.567  1.00  0.00     0.134 A 
ATOM     80  C   UNL A   1      44.770  32.495  32.737  1.00  0.00     0.134 A 
ATOM     81  F   UNL A   1      45.218  33.330  29.230  1.00  0.00    -0.206 F 
ATOM     82  C   UNL A   1      45.524  34.646  31.150  1.00  0.00     0.040 A 
ATOM     83  C   UNL A   1      45.104  33.712  33.331  1.00  0.00     0.040 A 
ATOM     84  F   UNL A   1      44.412  31.480  33.538  1.00  0.00    -0.206 F 
ATOM     85  C   UNL A   1      45.486  34.791  32.536  1.00  0.00     0.006 A 
ENDBRANCH  61  78
ENDBRANCH  35  36
ENDBRANCH  27  30
ENDBRANCH  25  26
ENDBRANCH  24  25
ENDBRANCH   1  24
TORSDOF 15
ENDMDL
MODEL 2
REMARK VINA RESULT:     -11.3      0.374      6.341
REMARK SMILES Cc1nc(C)c(C(=O)N[C@@H](CCS(C)(=O)=O)C(=O)NCCCNC(=O)c2ccc(-c3c4nc(c(-c5c(F)cccc5F)c5ccc([nH]5)c(-c5c(F)cccc5F)c5nc(c(-c6c(F)cccc6F)c6ccc3[nH]6)C=C5)C=C4)cc2)s1
REMARK SMILES IDX 20 1 19 2 17 3 18 4 10 6 9 7 7 8 8 9 6 11 1 12 2 13 3 14
REMARK SMILES IDX 80 15 4 16 5 17 11 18 12 19 13 20 14 21 15 22 16 23 21 24
REMARK SMILES IDX 22 25 23 26 24 27 25 29 26 30 27 31 79 32 28 33 78 34 29 35
REMARK SMILES IDX 30 36 31 37 72 38 32 39 77 40 71 41 73 42 33 43 76 44 70 45
REMARK SMILES IDX 69 46 34 48 60 49 43 50 59 51 44 52 47 53 58 54 74 55 45 56
REMARK SMILES IDX 46 57 57 59 75 60 48 61 35 62 36 63 41 64 37 65 38 66 40 67
REMARK SMILES IDX 42 68 39 69 61 70 62 71 67 72 63 73 64 74 66 75 68 76 65 77
REMARK SMILES IDX 49 78 50 79 55 80 51 81 52 82 54 83 56 84 53 85
REMARK H PARENT 19 5 9 10 23 28 73 47 47 58
REMARK Flexibility Score: inf
ROOT
ATOM      1  C   UNL A   1      36.161  20.410  25.046  1.00  0.00     0.117 C 
ENDROOT
BRANCH   1   2
ATOM      2  N   UNL A   1      35.428  21.164  26.046  1.00  0.00    -0.354 N 
ATOM      3  C   UNL A   1      34.113  21.142  26.382  1.00  0.00     0.242 C 
ATOM      4  O   UNL A   1      33.815  21.500  27.527  1.00  0.00    -0.273 OA
ATOM      5  H   UNL A   1      35.975  21.795  26.567  1.00  0.00     0.163 HD
BRANCH   3   6
ATOM      6  C   UNL A   1      33.018  20.575  25.467  1.00  0.00     0.172 C 
BRANCH   6   7
ATOM      7  N   UNL A   1      32.939  21.160  24.130  1.00  0.00    -0.339 N 
ATOM      8  C   UNL A   1      32.981  22.466  23.680  1.00  0.00     0.263 C 
ATOM      9  O   UNL A   1      33.250  22.556  22.477  1.00  0.00    -0.268 OA
ATOM     10  H   UNL A   1      32.836  20.495  23.411  1.00  0.00     0.164 HD
BRANCH   8  11
ATOM     11  C   UNL A   1      32.713  23.649  24.495  1.00  0.00     0.115 A 
ATOM     12  C   UNL A   1      30.925  26.639  26.265  1.00  0.00     0.079 C 
ATOM     13  C   UNL A   1      31.806  25.602  25.662  1.00  0.00     0.091 A 
ATOM     14  N   UNL A   1      33.113  25.608  25.746  1.00  0.00    -0.246 NA
ATOM     15  S   UNL A   1      31.153  24.329  24.732  1.00  0.00    -0.113 S 
ATOM     16  C   UNL A   1      33.648  24.526  25.054  1.00  0.00     0.061 A 
ATOM     17  C   UNL A   1      35.135  24.485  24.968  1.00  0.00     0.068 C 
ENDBRANCH   8  11
ENDBRANCH   6   7
BRANCH   6  18
ATOM     18  C   UNL A   1      32.912  19.038  25.442  1.00  0.00     0.051 C 
BRANCH  18  19
ATOM     19  C   UNL A   1      33.084  18.278  24.132  1.00  0.00     0.139 C 
BRANCH  19  20
ATOM     20  S   UNL A   1      34.001  16.734  24.168  1.00  0.00     0.147 S 
ATOM     21  C   UNL A   1      32.991  15.571  25.058  1.00  0.00     0.158 C 
ATOM     22  O   UNL A   1      34.068  16.268  22.795  1.00  0.00    -0.229 OA
ATOM     23  O   UNL A   1      35.229  16.931  24.912  1.00  0.00    -0.229 OA
ENDBRANCH  19  20
ENDBRANCH  18  19
ENDBRANCH   6  18
ENDBRANCH   3   6
ENDBRANCH   1   2
BRANCH   1  24
ATOM     24  C   UNL A   1      37.508  21.013  24.685  1.00  0.00     0.042 C 
BRANCH  24  25
ATOM     25  C   UNL A   1      38.573  20.955  25.774  1.00  0.00     0.118 C 
BRANCH  25  26
ATOM     26  N   UNL A   1      39.512  19.849  25.666  1.00  0.00    -0.352 N 
ATOM     27  C   UNL A   1      40.850  19.787  25.999  1.00  0.00     0.251 C 
ATOM     28  H   UNL A   1      39.136  19.017  25.298  1.00  0.00     0.163 HD
ATOM     29  O   UNL A   1      41.509  18.773  25.790  1.00  0.00    -0.269 OA
BRANCH  27  30
ATOM     30  C   UNL A   1      41.522  20.980  26.564  1.00  0.00     0.039 A 
ATOM     31  C   UNL A   1      42.120  21.900  25.699  1.00  0.00     0.014 A 
ATOM     32  C   UNL A   1      41.502  21.231  27.936  1.00  0.00     0.014 A 
ATOM     33  C   UNL A   1      42.567  23.128  26.195  1.00  0.00     0.010 A 
ATOM     34  C   UNL A   1      41.825  22.499  28.405  1.00  0.00     0.010 A 
ATOM     35  C   UNL A   1      42.349  23.470  27.540  1.00  0.00    -0.014 A 
BRANCH  35  36
ATOM     36  C   UNL A   1      42.636  24.833  28.065  1.00  0.00     0.031 A 
ATOM     37  C   UNL A   1      44.028  25.188  28.521  1.00  0.00     0.074 A 
ATOM     38  C   UNL A   1      41.631  25.718  28.234  1.00  0.00     0.049 A 
ATOM     39  N   UNL A   1      44.447  26.257  29.151  1.00  0.00    -0.248 NA
ATOM     40  C   UNL A   1      45.080  24.188  28.277  1.00  0.00     0.031 C 
ATOM     41  C   UNL A   1      40.224  25.486  27.899  1.00  0.00     0.029 A 
ATOM     42  N   UNL A   1      41.639  26.994  28.746  1.00  0.00    -0.354 N 
ATOM     43  C   UNL A   1      45.794  26.040  29.408  1.00  0.00     0.074 A 
ATOM     44  C   UNL A   1      46.111  24.716  28.918  1.00  0.00     0.031 C 
ATOM     45  C   UNL A   1      39.513  26.590  28.180  1.00  0.00     0.029 A 
ATOM     46  C   UNL A   1      40.401  27.593  28.757  1.00  0.00     0.049 A 
ATOM     47  H   UNL A   1      42.455  27.437  29.072  1.00  0.00     0.167 HD
ATOM     48  C   UNL A   1      46.698  26.876  29.971  1.00  0.00     0.037 A 
ATOM     49  C   UNL A   1      40.023  28.811  29.190  1.00  0.00     0.037 A 
ATOM     50  C   UNL A   1      46.401  28.216  30.403  1.00  0.00     0.049 A 
ATOM     51  C   UNL A   1      41.052  29.735  29.777  1.00  0.00     0.074 A 
ATOM     52  C   UNL A   1      47.262  29.164  30.926  1.00  0.00     0.029 A 
ATOM     53  N   UNL A   1      45.145  28.802  30.345  1.00  0.00    -0.354 N 
ATOM     54  N   UNL A   1      42.334  29.532  29.966  1.00  0.00    -0.248 NA
ATOM     55  C   UNL A   1      40.584  31.061  30.209  1.00  0.00     0.031 C 
ATOM     56  C   UNL A   1      46.524  30.319  31.204  1.00  0.00     0.029 A 
ATOM     57  C   UNL A   1      45.210  30.098  30.823  1.00  0.00     0.049 A 
ATOM     58  H   UNL A   1      44.331  28.360  30.012  1.00  0.00     0.167 HD
ATOM     59  C   UNL A   1      42.829  30.711  30.508  1.00  0.00     0.074 A 
ATOM     60  C   UNL A   1      41.714  31.629  30.608  1.00  0.00     0.031 C 
ATOM     61  C   UNL A   1      44.094  31.005  30.893  1.00  0.00     0.037 A 
BRANCH  48  62
ATOM     62  C   UNL A   1      48.102  26.373  30.127  1.00  0.00     0.057 A 
ATOM     63  C   UNL A   1      49.061  26.543  29.119  1.00  0.00     0.134 A 
ATOM     64  C   UNL A   1      48.511  25.740  31.308  1.00  0.00     0.134 A 
ATOM     65  F   UNL A   1      48.728  27.129  27.960  1.00  0.00    -0.206 F 
ATOM     66  C   UNL A   1      50.368  26.079  29.268  1.00  0.00     0.040 A 
ATOM     67  C   UNL A   1      49.823  25.295  31.479  1.00  0.00     0.040 A 
ATOM     68  F   UNL A   1      47.646  25.550  32.316  1.00  0.00    -0.206 F 
ATOM     69  C   UNL A   1      50.754  25.459  30.455  1.00  0.00     0.006 A 
ENDBRANCH  48  62
BRANCH  49  70
ATOM     70  C   UNL A   1      38.608  29.247  29.063  1.00  0.00     0.057 A 
ATOM     71  C   UNL A   1      37.745  29.209  30.165  1.00  0.00     0.134 A 
ATOM     72  C   UNL A   1      38.079  29.683  27.844  1.00  0.00     0.134 A 
ATOM     73  F   UNL A   1      38.189  28.780  31.355  1.00  0.00    -0.206 F 
ATOM     74  C   UNL A   1      36.399  29.563  30.053  1.00  0.00     0.040 A 
ATOM     75  C   UNL A   1      36.742  30.065  27.723  1.00  0.00     0.040 A 
ATOM     76  F   UNL A   1      38.856  29.750  26.753  1.00  0.00    -0.206 F 
ATOM     77  C   UNL A   1      35.895  29.996  28.829  1.00  0.00     0.006 A 
ENDBRANCH  49  70
BRANCH  61  78
ATOM     78  C   UNL A   1      44.349  32.388  31.411  1.00  0.00     0.057 A 
ATOM     79  C   UNL A   1      44.279  32.689  32.776  1.00  0.00     0.134 A 
ATOM     80  C   UNL A   1      44.712  33.419  30.535  1.00  0.00     0.134 A 
ATOM     81  F   UNL A   1      43.923  31.747  33.663  1.00  0.00    -0.206 F 
ATOM     82  C   UNL A   1      44.542  33.975  33.251  1.00  0.00     0.040 A 
ATOM     83  C   UNL A   1      45.000  34.702  31.000  1.00  0.00     0.040 A 
ATOM     84  F   UNL A   1      44.805  33.191  29.216  1.00  0.00    -0.206 F 
ATOM     85  C   UNL A   1      44.911  34.983  32.362  1.00  0.00     0.006 A 
ENDBRANCH  61  78
ENDBRANCH  35  36
ENDBRANCH  27  30
ENDBRANCH  25  26
ENDBRANCH  24  25
ENDBRANCH   1  24
TORSDOF 15
ENDMDL
MODEL 3
REMARK VINA RESULT:     -11.2      1.422      7.020
REMARK SMILES Cc1nc(C)c(C(=O)N[C@@H](CCS(C)(=O)=O)C(=O)NCCCNC(=O)c2ccc(-c3c4nc(c(-c5c(F)cccc5F)c5ccc([nH]5)c(-c5c(F)cccc5F)c5nc(c(-c6c(F)cccc6F)c6ccc3[nH]6)C=C5)C=C4)cc2)s1
REMARK SMILES IDX 20 1 19 2 17 3 18 4 10 6 9 7 7 8 8 9 6 11 1 12 2 13 3 14
REMARK SMILES IDX 80 15 4 16 5 17 11 18 12 19 13 20 14 21 15 22 16 23 21 24
REMARK SMILES IDX 22 25 23 26 24 27 25 29 26 30 27 31 79 32 28 33 78 34 29 35
REMARK SMILES IDX 30 36 31 37 72 38 32 39 77 40 71 41 73 42 33 43 76 44 70 45
REMARK SMILES IDX 69 46 34 48 60 49 43 50 59 51 44 52 47 53 58 54 74 55 45 56
REMARK SMILES IDX 46 57 57 59 75 60 48 61 35 62 36 63 41 64 37 65 38 66 40 67
REMARK SMILES IDX 42 68 39 69 61 70 62 71 67 72 63 73 64 74 66 75 68 76 65 77
REMARK SMILES IDX 49 78 50 79 55 80 51 81 52 82 54 83 56 84 53 85
REMARK H PARENT 19 5 9 10 23 28 73 47 47 58
REMARK Flexibility Score: inf
ROOT
ATOM      1  C   UNL A   1      36.409  20.670  25.238  1.00  0.00     0.117 C 
ENDROOT
BRANCH   1   2
ATOM      2  N   UNL A   1      35.999  21.522  26.339  1.00  0.00    -0.354 N 
ATOM      3  C   UNL A   1      34.928  22.346  26.468  1.00  0.00     0.242 C 
ATOM      4  O   UNL A   1      34.538  22.594  27.615  1.00  0.00    -0.273 OA
ATOM      5  H   UNL A   1      36.595  21.498  27.122  1.00  0.00     0.163 HD
BRANCH   3   6
ATOM      6  C   UNL A   1      34.111  22.861  25.274  1.00  0.00     0.172 C 
BRANCH   6   7
ATOM      7  N   UNL A   1      32.663  22.690  25.372  1.00  0.00    -0.339 N 
ATOM      8  C   UNL A   1      31.844  21.584  25.242  1.00  0.00     0.263 C 
ATOM      9  O   UNL A   1      30.726  21.747  25.744  1.00  0.00    -0.268 OA
ATOM     10  H   UNL A   1      32.177  23.524  25.568  1.00  0.00     0.164 HD
BRANCH   8  11
ATOM     11  C   UNL A   1      32.204  20.341  24.564  1.00  0.00     0.115 A 
ATOM     12  C   UNL A   1      33.553  16.751  23.813  1.00  0.00     0.079 C 
ATOM     13  C   UNL A   1      33.020  18.140  23.866  1.00  0.00     0.091 A 
ATOM     14  N   UNL A   1      32.676  18.837  22.811  1.00  0.00    -0.246 NA
ATOM     15  S   UNL A   1      32.878  18.969  25.350  1.00  0.00    -0.113 S 
ATOM     16  C   UNL A   1      32.247  20.105  23.187  1.00  0.00     0.061 A 
ATOM     17  C   UNL A   1      31.943  21.043  22.069  1.00  0.00     0.068 C 
ENDBRANCH   8  11
ENDBRANCH   6   7
BRANCH   6  18
ATOM     18  C   UNL A   1      34.504  24.260  24.763  1.00  0.00     0.051 C 
BRANCH  18  19
ATOM     19  C   UNL A   1      33.426  25.258  24.353  1.00  0.00     0.139 C 
BRANCH  19  20
ATOM     20  S   UNL A   1      32.597  25.003  22.781  1.00  0.00     0.147 S 
ATOM     21  C   UNL A   1      32.268  26.619  22.117  1.00  0.00     0.158 C 
ATOM     22  O   UNL A   1      33.571  24.379  21.904  1.00  0.00    -0.229 OA
ATOM     23  O   UNL A   1      31.329  24.343  23.017  1.00  0.00    -0.229 OA
ENDBRANCH  19  20
ENDBRANCH  18  19
ENDBRANCH   6  18
ENDBRANCH   3   6
ENDBRANCH   1   2
BRANCH   1  24
ATOM     24  C   UNL A   1      37.871  20.826  24.851  1.00  0.00     0.042 C 
BRANCH  24  25
ATOM     25  C   UNL A   1      38.875  20.694  25.990  1.00  0.00     0.118 C 
BRANCH  25  26
ATOM     26  N   UNL A   1      39.858  19.634  25.832  1.00  0.00    -0.352 N 
ATOM     27  C   UNL A   1      41.217  19.643  26.070  1.00  0.00     0.251 C 
ATOM     28  H   UNL A   1      39.499  18.777  25.504  1.00  0.00     0.163 HD
ATOM     29  O   UNL A   1      41.909  18.658  25.829  1.00  0.00    -0.269 OA
BRANCH  27  30
ATOM     30  C   UNL A   1      41.867  20.877  26.567  1.00  0.00     0.039 A 
ATOM     31  C   UNL A   1      42.305  21.835  25.649  1.00  0.00     0.014 A 
ATOM     32  C   UNL A   1      41.983  21.125  27.934  1.00  0.00     0.014 A 
ATOM     33  C   UNL A   1      42.722  23.090  26.103  1.00  0.00     0.010 A 
ATOM     34  C   UNL A   1      42.271  22.410  28.376  1.00  0.00     0.010 A 
ATOM     35  C   UNL A   1      42.631  23.416  27.466  1.00  0.00    -0.014 A 
BRANCH  35  36
ATOM     36  C   UNL A   1      42.884  24.794  27.968  1.00  0.00     0.031 A 
ATOM     37  C   UNL A   1      44.275  25.203  28.380  1.00  0.00     0.074 A 
ATOM     38  C   UNL A   1      41.854  25.645  28.156  1.00  0.00     0.049 A 
ATOM     39  N   UNL A   1      44.672  26.295  28.986  1.00  0.00    -0.248 NA
ATOM     40  C   UNL A   1      45.355  24.239  28.118  1.00  0.00     0.031 C 
ATOM     41  C   UNL A   1      40.447  25.359  27.865  1.00  0.00     0.029 A 
ATOM     42  N   UNL A   1      41.830  26.926  28.654  1.00  0.00    -0.354 N 
ATOM     43  C   UNL A   1      46.033  26.128  29.207  1.00  0.00     0.074 A 
ATOM     44  C   UNL A   1      46.383  24.811  28.722  1.00  0.00     0.031 C 
ATOM     45  C   UNL A   1      39.705  26.440  28.153  1.00  0.00     0.029 A 
ATOM     46  C   UNL A   1      40.572  27.481  28.694  1.00  0.00     0.049 A 
ATOM     47  H   UNL A   1      42.639  27.402  28.952  1.00  0.00     0.167 HD
ATOM     48  C   UNL A   1      46.922  27.003  29.735  1.00  0.00     0.037 A 
ATOM     49  C   UNL A   1      40.163  28.690  29.125  1.00  0.00     0.037 A 
ATOM     50  C   UNL A   1      46.590  28.336  30.160  1.00  0.00     0.049 A 
ATOM     51  C   UNL A   1      41.175  29.657  29.671  1.00  0.00     0.074 A 
ATOM     52  C   UNL A   1      47.431  29.320  30.648  1.00  0.00     0.029 A 
ATOM     53  N   UNL A   1      45.313  28.876  30.131  1.00  0.00    -0.354 N 
ATOM     54  N   UNL A   1      42.468  29.502  29.826  1.00  0.00    -0.248 NA
ATOM     55  C   UNL A   1      40.672  30.971  30.101  1.00  0.00     0.031 C 
ATOM     56  C   UNL A   1      46.660  30.451  30.934  1.00  0.00     0.029 A 
ATOM     57  C   UNL A   1      45.345  30.180  30.594  1.00  0.00     0.049 A 
ATOM     58  H   UNL A   1      44.506  28.402  29.827  1.00  0.00     0.167 HD
ATOM     59  C   UNL A   1      42.935  30.703  30.340  1.00  0.00     0.074 A 
ATOM     60  C   UNL A   1      41.791  31.582  30.462  1.00  0.00     0.031 C 
ATOM     61  C   UNL A   1      44.200  31.047  30.685  1.00  0.00     0.037 A 
BRANCH  48  62
ATOM     62  C   UNL A   1      48.347  26.551  29.856  1.00  0.00     0.057 A 
ATOM     63  C   UNL A   1      49.291  26.818  28.855  1.00  0.00     0.134 A 
ATOM     64  C   UNL A   1      48.791  25.871  30.998  1.00  0.00     0.134 A 
ATOM     65  F   UNL A   1      48.926  27.453  27.731  1.00  0.00    -0.206 F 
ATOM     66  C   UNL A   1      50.618  26.402  28.971  1.00  0.00     0.040 A 
ATOM     67  C   UNL A   1      50.122  25.474  31.137  1.00  0.00     0.040 A 
ATOM     68  F   UNL A   1      47.942  25.589  31.997  1.00  0.00    -0.206 F 
ATOM     69  C   UNL A   1      51.038  25.734  30.120  1.00  0.00     0.006 A 
ENDBRANCH  48  62
BRANCH  49  70
ATOM     70  C   UNL A   1      38.731  29.074  29.033  1.00  0.00     0.057 A 
ATOM     71  C   UNL A   1      38.190  29.540  27.828  1.00  0.00     0.134 A 
ATOM     72  C   UNL A   1      37.879  29.013  30.141  1.00  0.00     0.134 A 
ATOM     73  F   UNL A   1      38.962  29.642  26.737  1.00  0.00    -0.206 F 
ATOM     74  C   UNL A   1      36.861  29.957  27.735  1.00  0.00     0.040 A 
ATOM     75  C   UNL A   1      36.542  29.403  30.056  1.00  0.00     0.040 A 
ATOM     76  F   UNL A   1      38.334  28.568  31.322  1.00  0.00    -0.206 F 
ATOM     77  C   UNL A   1      36.031  29.885  28.852  1.00  0.00     0.006 A 
ENDBRANCH  49  70
BRANCH  61  78
ATOM     78  C   UNL A   1      44.419  32.444  31.181  1.00  0.00     0.057 A 
ATOM     79  C   UNL A   1      44.351  32.764  32.542  1.00  0.00     0.134 A 
ATOM     80  C   UNL A   1      44.746  33.472  30.287  1.00  0.00     0.134 A 
ATOM     81  F   UNL A   1      44.028  31.826  33.445  1.00  0.00    -0.206 F 
ATOM     82  C   UNL A   1      44.582  34.064  32.996  1.00  0.00     0.040 A 
ATOM     83  C   UNL A   1      45.002  34.769  30.731  1.00  0.00     0.040 A 
ATOM     84  F   UNL A   1      44.836  33.227  28.971  1.00  0.00    -0.206 F 
ATOM     85  C   UNL A   1      44.916  35.068  32.089  1.00  0.00     0.006 A 
ENDBRANCH  61  78
ENDBRANCH  35  36
ENDBRANCH  27  30
ENDBRANCH  25  26
ENDBRANCH  24  25
ENDBRANCH   1  24
TORSDOF 15
ENDMDL
