MODEL 1
REMARK VINA RESULT:     -12.8      0.000      0.000
REMARK SMILES C/C(=N\NC(N)=S)c1nnn(-c2ccc(C(=O)NCCCNC(=O)c3ccc(-c4c5nc(c(-c6c(F)cccc6F)c6ccc([nH]6)c(-c6c(F)cccc6F)c6nc(c(-c7c(F)cccc7F)c7ccc4[nH]7)C=C6)C=C5)cc3)cc2)c1C
REMARK SMILES IDX 16 1 17 2 18 3 15 5 12 6 13 7 80 8 14 9 79 10 11 11 8 12
REMARK SMILES IDX 9 13 81 14 10 15 82 16 2 17 1 18 3 19 4 20 5 22 7 23 6 24
REMARK SMILES IDX 19 27 20 28 21 29 22 30 23 31 24 33 25 34 26 35 78 36 27 37
REMARK SMILES IDX 77 38 28 39 29 40 30 41 71 42 31 43 76 44 70 45 72 46 32 47
REMARK SMILES IDX 75 48 69 49 68 50 33 52 59 53 42 54 58 55 43 56 46 57 57 58
REMARK SMILES IDX 73 59 44 60 45 61 56 63 74 64 47 65 34 66 35 67 40 68 36 69
REMARK SMILES IDX 37 70 39 71 41 72 38 73 60 74 61 75 66 76 62 77 63 78 65 79
REMARK SMILES IDX 67 80 64 81 48 82 49 83 54 84 50 85 51 86 53 87 55 88 52 89
REMARK H PARENT 18 4 4 21 6 25 6 26 22 32 72 51 46 62
REMARK Flexibility Score: inf
ROOT
ATOM      1  C   UNL A   1      33.955  19.682  25.081  1.00  0.00     0.251 C 
ATOM      2  O   UNL A   1      33.246  18.716  24.805  1.00  0.00    -0.269 OA
ATOM      3  N   UNL A   1      35.321  19.533  24.983  1.00  0.00    -0.352 N 
ATOM      4  H   UNL A   1      35.613  18.611  24.800  1.00  0.00     0.163 HD
ENDROOT
BRANCH   1   5
ATOM      5  C   UNL A   1      33.312  20.977  25.445  1.00  0.00     0.039 A 
ATOM      6  C   UNL A   1      32.289  23.529  25.900  1.00  0.00     0.067 A 
ATOM      7  C   UNL A   1      31.843  22.807  24.790  1.00  0.00     0.029 A 
ATOM      8  C   UNL A   1      33.130  22.950  26.842  1.00  0.00     0.029 A 
ATOM      9  C   UNL A   1      32.382  21.538  24.552  1.00  0.00     0.016 A 
ATOM     10  C   UNL A   1      33.593  21.660  26.629  1.00  0.00     0.016 A 
BRANCH   6  11
ATOM     11  N   UNL A   1      31.987  24.892  26.024  1.00  0.00    -0.217 N 
ATOM     12  C   UNL A   1      31.796  27.026  25.700  1.00  0.00     0.132 A 
ATOM     13  N   UNL A   1      30.909  26.646  26.673  1.00  0.00    -0.128 NA
ATOM     14  C   UNL A   1      32.500  25.924  25.259  1.00  0.00     0.071 A 
ATOM     15  N   UNL A   1      30.989  25.331  26.814  1.00  0.00    -0.061 NA
ATOM     16  C   UNL A   1      33.405  25.752  24.096  1.00  0.00     0.069 C 
BRANCH  12  17
ATOM     17  C   UNL A   1      31.718  28.328  25.068  1.00  0.00     0.087 C 
ATOM     18  C   UNL A   1      32.957  29.170  25.209  1.00  0.00     0.071 C 
ATOM     19  N   UNL A   1      30.613  28.595  24.438  1.00  0.00    -0.176 NA
BRANCH  19  20
ATOM     20  N   UNL A   1      30.457  29.745  23.717  1.00  0.00    -0.254 N 
ATOM     21  H   UNL A   1      30.773  30.566  24.157  1.00  0.00     0.193 HD
BRANCH  20  22
ATOM     22  C   UNL A   1      29.919  29.917  22.458  1.00  0.00     0.184 C 
ATOM     23  S   UNL A   1      28.329  30.014  21.985  1.00  0.00    -0.040 S 
BRANCH  22  24
ATOM     24  N   UNL A   1      30.891  30.014  21.497  1.00  0.00    -0.375 N 
ATOM     25  H   UNL A   1      31.143  29.222  20.970  1.00  0.00     0.159 HD
ATOM     26  H   UNL A   1      31.337  30.877  21.333  1.00  0.00     0.159 HD
ENDBRANCH  22  24
ENDBRANCH  20  22
ENDBRANCH  19  20
ENDBRANCH  12  17
ENDBRANCH   6  11
ENDBRANCH   1   5
BRANCH   3  27
ATOM     27  C   UNL A   1      36.415  20.492  25.102  1.00  0.00     0.118 C 
BRANCH  27  28
ATOM     28  C   UNL A   1      37.772  19.879  24.723  1.00  0.00     0.042 C 
BRANCH  28  29
ATOM     29  C   UNL A   1      38.875  20.264  25.685  1.00  0.00     0.118 C 
BRANCH  29  30
ATOM     30  N   UNL A   1      39.910  19.234  25.795  1.00  0.00    -0.352 N 
ATOM     31  C   UNL A   1      41.271  19.400  25.993  1.00  0.00     0.251 C 
ATOM     32  H   UNL A   1      39.598  18.304  25.718  1.00  0.00     0.163 HD
ATOM     33  O   UNL A   1      42.059  18.513  25.726  1.00  0.00    -0.269 OA
BRANCH  31  34
ATOM     34  C   UNL A   1      41.742  20.685  26.539  1.00  0.00     0.039 A 
ATOM     35  C   UNL A   1      42.211  21.715  25.717  1.00  0.00     0.014 A 
ATOM     36  C   UNL A   1      41.657  20.855  27.914  1.00  0.00     0.014 A 
ATOM     37  C   UNL A   1      42.518  22.946  26.294  1.00  0.00     0.010 A 
ATOM     38  C   UNL A   1      41.735  22.112  28.436  1.00  0.00     0.010 A 
ATOM     39  C   UNL A   1      42.261  23.136  27.658  1.00  0.00    -0.014 A 
BRANCH  39  40
ATOM     40  C   UNL A   1      42.440  24.422  28.317  1.00  0.00     0.031 A 
ATOM     41  C   UNL A   1      41.323  25.384  28.111  1.00  0.00     0.074 A 
ATOM     42  C   UNL A   1      43.383  24.576  29.276  1.00  0.00     0.049 A 
ATOM     43  N   UNL A   1      41.368  26.553  27.562  1.00  0.00    -0.248 NA
ATOM     44  C   UNL A   1      39.956  24.936  28.434  1.00  0.00     0.031 C 
ATOM     45  C   UNL A   1      44.324  23.566  29.789  1.00  0.00     0.029 A 
ATOM     46  N   UNL A   1      43.605  25.625  30.109  1.00  0.00    -0.354 N 
ATOM     47  C   UNL A   1      40.081  27.078  27.682  1.00  0.00     0.074 A 
ATOM     48  C   UNL A   1      39.227  25.971  28.015  1.00  0.00     0.031 C 
ATOM     49  C   UNL A   1      44.813  23.962  30.983  1.00  0.00     0.029 A 
ATOM     50  C   UNL A   1      44.371  25.319  31.232  1.00  0.00     0.049 A 
ATOM     51  H   UNL A   1      43.253  26.528  29.935  1.00  0.00     0.167 HD
ATOM     52  C   UNL A   1      39.880  28.423  27.779  1.00  0.00     0.037 A 
ATOM     53  C   UNL A   1      44.592  26.119  32.304  1.00  0.00     0.037 A 
ATOM     54  C   UNL A   1      41.047  29.147  27.333  1.00  0.00     0.049 A 
ATOM     55  C   UNL A   1      44.247  27.502  31.893  1.00  0.00     0.074 A 
ATOM     56  C   UNL A   1      41.774  29.195  26.159  1.00  0.00     0.029 A 
ATOM     57  N   UNL A   1      41.861  29.695  28.294  1.00  0.00    -0.354 N 
ATOM     58  N   UNL A   1      44.925  28.185  31.012  1.00  0.00    -0.248 NA
ATOM     59  C   UNL A   1      42.877  27.941  32.103  1.00  0.00     0.031 C 
ATOM     60  C   UNL A   1      43.135  29.297  26.575  1.00  0.00     0.029 A 
ATOM     61  C   UNL A   1      43.154  29.385  27.966  1.00  0.00     0.049 A 
ATOM     62  H   UNL A   1      41.568  30.215  29.077  1.00  0.00     0.167 HD
ATOM     63  C   UNL A   1      43.964  28.836  30.254  1.00  0.00     0.074 A 
ATOM     64  C   UNL A   1      42.727  28.718  31.026  1.00  0.00     0.031 C 
ATOM     65  C   UNL A   1      44.192  29.140  28.942  1.00  0.00     0.037 A 
BRANCH  52  66
ATOM     66  C   UNL A   1      38.828  29.071  28.658  1.00  0.00     0.057 A 
ATOM     67  C   UNL A   1      38.809  28.756  30.032  1.00  0.00     0.134 A 
ATOM     68  C   UNL A   1      37.668  29.724  28.190  1.00  0.00     0.134 A 
ATOM     69  F   UNL A   1      39.854  28.148  30.613  1.00  0.00    -0.206 F 
ATOM     70  C   UNL A   1      37.684  28.962  30.839  1.00  0.00     0.040 A 
ATOM     71  C   UNL A   1      36.558  29.981  29.001  1.00  0.00     0.040 A 
ATOM     72  F   UNL A   1      37.491  30.067  26.910  1.00  0.00    -0.206 F 
ATOM     73  C   UNL A   1      36.546  29.562  30.320  1.00  0.00     0.006 A 
ENDBRANCH  52  66
BRANCH  53  74
ATOM     74  C   UNL A   1      44.810  25.743  33.719  1.00  0.00     0.057 A 
ATOM     75  C   UNL A   1      43.732  25.464  34.570  1.00  0.00     0.134 A 
ATOM     76  C   UNL A   1      46.083  25.385  34.200  1.00  0.00     0.134 A 
ATOM     77  F   UNL A   1      42.476  25.735  34.186  1.00  0.00    -0.206 F 
ATOM     78  C   UNL A   1      43.903  24.842  35.814  1.00  0.00     0.040 A 
ATOM     79  C   UNL A   1      46.270  24.768  35.443  1.00  0.00     0.040 A 
ATOM     80  F   UNL A   1      47.178  25.540  33.442  1.00  0.00    -0.206 F 
ATOM     81  C   UNL A   1      45.175  24.481  36.249  1.00  0.00     0.006 A 
ENDBRANCH  53  74
BRANCH  65  82
ATOM     82  C   UNL A   1      45.591  28.973  28.412  1.00  0.00     0.057 A 
ATOM     83  C   UNL A   1      46.068  27.804  27.799  1.00  0.00     0.134 A 
ATOM     84  C   UNL A   1      46.433  30.087  28.380  1.00  0.00     0.134 A 
ATOM     85  F   UNL A   1      45.302  26.715  27.690  1.00  0.00    -0.206 F 
ATOM     86  C   UNL A   1      47.339  27.736  27.220  1.00  0.00     0.040 A 
ATOM     87  C   UNL A   1      47.691  30.045  27.774  1.00  0.00     0.040 A 
ATOM     88  F   UNL A   1      46.023  31.259  28.893  1.00  0.00    -0.206 F 
ATOM     89  C   UNL A   1      48.153  28.863  27.200  1.00  0.00     0.006 A 
ENDBRANCH  65  82
ENDBRANCH  39  40
ENDBRANCH  31  34
ENDBRANCH  29  30
ENDBRANCH  28  29
ENDBRANCH  27  28
ENDBRANCH   3  27
TORSDOF 15
ENDMDL
MODEL 2
REMARK VINA RESULT:     -12.4      4.502      9.427
REMARK SMILES C/C(=N\NC(N)=S)c1nnn(-c2ccc(C(=O)NCCCNC(=O)c3ccc(-c4c5nc(c(-c6c(F)cccc6F)c6ccc([nH]6)c(-c6c(F)cccc6F)c6nc(c(-c7c(F)cccc7F)c7ccc4[nH]7)C=C6)C=C5)cc3)cc2)c1C
REMARK SMILES IDX 16 1 17 2 18 3 15 5 12 6 13 7 80 8 14 9 79 10 11 11 8 12
REMARK SMILES IDX 9 13 81 14 10 15 82 16 2 17 1 18 3 19 4 20 5 22 7 23 6 24
REMARK SMILES IDX 19 27 20 28 21 29 22 30 23 31 24 33 25 34 26 35 78 36 27 37
REMARK SMILES IDX 77 38 28 39 29 40 30 41 71 42 31 43 76 44 70 45 72 46 32 47
REMARK SMILES IDX 75 48 69 49 68 50 33 52 59 53 42 54 58 55 43 56 46 57 57 58
REMARK SMILES IDX 73 59 44 60 45 61 56 63 74 64 47 65 34 66 35 67 40 68 36 69
REMARK SMILES IDX 37 70 39 71 41 72 38 73 60 74 61 75 66 76 62 77 63 78 65 79
REMARK SMILES IDX 67 80 64 81 48 82 49 83 54 84 50 85 51 86 53 87 55 88 52 89
REMARK H PARENT 18 4 4 21 6 25 6 26 22 32 72 51 46 62
REMARK Flexibility Score: inf
ROOT
ATOM      1  C   UNL A   1      30.604  29.168  23.928  1.00  0.00     0.251 C 
ATOM      2  O   UNL A   1      29.720  29.199  23.074  1.00  0.00    -0.269 OA
ATOM      3  N   UNL A   1      30.807  30.296  24.693  1.00  0.00    -0.352 N 
ATOM      4  H   UNL A   1      30.283  31.077  24.404  1.00  0.00     0.163 HD
ENDROOT
BRANCH   1   5
ATOM      5  C   UNL A   1      31.367  27.905  24.140  1.00  0.00     0.039 A 
ATOM      6  C   UNL A   1      32.941  25.609  24.262  1.00  0.00     0.067 A 
ATOM      7  C   UNL A   1      33.513  26.842  24.587  1.00  0.00     0.029 A 
ATOM      8  C   UNL A   1      31.581  25.494  24.005  1.00  0.00     0.029 A 
ATOM      9  C   UNL A   1      32.724  27.993  24.496  1.00  0.00     0.016 A 
ATOM     10  C   UNL A   1      30.798  26.638  23.996  1.00  0.00     0.016 A 
BRANCH   6  11
ATOM     11  N   UNL A   1      33.752  24.481  24.077  1.00  0.00    -0.217 N 
ATOM     12  C   UNL A   1      34.716  22.549  24.264  1.00  0.00     0.132 A 
ATOM     13  N   UNL A   1      34.959  23.044  23.010  1.00  0.00    -0.128 NA
ATOM     14  C   UNL A   1      33.941  23.444  24.974  1.00  0.00     0.071 A 
ATOM     15  N   UNL A   1      34.310  24.192  22.886  1.00  0.00    -0.061 NA
ATOM     16  C   UNL A   1      33.234  23.302  26.270  1.00  0.00     0.069 C 
BRANCH  12  17
ATOM     17  C   UNL A   1      34.991  21.166  24.601  1.00  0.00     0.087 C 
ATOM     18  C   UNL A   1      36.331  20.929  25.242  1.00  0.00     0.071 C 
ATOM     19  N   UNL A   1      34.044  20.313  24.341  1.00  0.00    -0.176 NA
BRANCH  19  20
ATOM     20  N   UNL A   1      34.141  19.001  24.706  1.00  0.00    -0.254 N 
ATOM     21  H   UNL A   1      34.911  18.514  24.334  1.00  0.00     0.193 HD
BRANCH  20  22
ATOM     22  C   UNL A   1      33.311  18.260  25.523  1.00  0.00     0.184 C 
ATOM     23  S   UNL A   1      32.745  16.708  25.339  1.00  0.00    -0.040 S 
BRANCH  22  24
ATOM     24  N   UNL A   1      32.928  18.964  26.635  1.00  0.00    -0.375 N 
ATOM     25  H   UNL A   1      32.008  18.885  26.974  1.00  0.00     0.159 HD
ATOM     26  H   UNL A   1      33.575  19.550  27.093  1.00  0.00     0.159 HD
ENDBRANCH  22  24
ENDBRANCH  20  22
ENDBRANCH  19  20
ENDBRANCH  12  17
ENDBRANCH   6  11
ENDBRANCH   1   5
BRANCH   3  27
ATOM     27  C   UNL A   1      31.656  30.543  25.854  1.00  0.00     0.118 C 
BRANCH  27  28
ATOM     28  C   UNL A   1      31.330  31.877  26.542  1.00  0.00     0.042 C 
BRANCH  28  29
ATOM     29  C   UNL A   1      32.522  32.470  27.262  1.00  0.00     0.118 C 
BRANCH  29  30
ATOM     30  N   UNL A   1      32.339  33.887  27.579  1.00  0.00    -0.352 N 
ATOM     31  C   UNL A   1      33.013  34.653  28.516  1.00  0.00     0.251 C 
ATOM     32  H   UNL A   1      31.648  34.357  27.059  1.00  0.00     0.163 HD
ATOM     33  O   UNL A   1      32.551  35.701  28.924  1.00  0.00    -0.269 OA
BRANCH  31  34
ATOM     34  C   UNL A   1      34.313  34.163  29.009  1.00  0.00     0.039 A 
ATOM     35  C   UNL A   1      34.443  33.510  30.238  1.00  0.00     0.014 A 
ATOM     36  C   UNL A   1      35.408  34.333  28.174  1.00  0.00     0.014 A 
ATOM     37  C   UNL A   1      35.679  32.961  30.578  1.00  0.00     0.010 A 
ATOM     38  C   UNL A   1      36.539  33.606  28.400  1.00  0.00     0.010 A 
ATOM     39  C   UNL A   1      36.719  33.004  29.640  1.00  0.00    -0.014 A 
BRANCH  39  40
ATOM     40  C   UNL A   1      38.003  32.355  29.864  1.00  0.00     0.031 A 
ATOM     41  C   UNL A   1      38.064  30.935  29.420  1.00  0.00     0.074 A 
ATOM     42  C   UNL A   1      39.103  33.089  30.148  1.00  0.00     0.049 A 
ATOM     43  N   UNL A   1      38.304  29.885  30.134  1.00  0.00    -0.248 NA
ATOM     44  C   UNL A   1      37.675  30.627  28.031  1.00  0.00     0.031 C 
ATOM     45  C   UNL A   1      39.204  34.553  30.277  1.00  0.00     0.029 A 
ATOM     46  N   UNL A   1      40.402  32.703  30.234  1.00  0.00    -0.354 N 
ATOM     47  C   UNL A   1      38.325  28.814  29.241  1.00  0.00     0.074 A 
ATOM     48  C   UNL A   1      37.722  29.295  28.028  1.00  0.00     0.031 C 
ATOM     49  C   UNL A   1      40.494  34.934  30.164  1.00  0.00     0.029 A 
ATOM     50  C   UNL A   1      41.322  33.745  30.140  1.00  0.00     0.049 A 
ATOM     51  H   UNL A   1      40.672  31.763  30.353  1.00  0.00     0.167 HD
ATOM     52  C   UNL A   1      39.097  27.717  29.482  1.00  0.00     0.037 A 
ATOM     53  C   UNL A   1      42.668  33.629  30.018  1.00  0.00     0.037 A 
ATOM     54  C   UNL A   1      39.486  27.662  30.871  1.00  0.00     0.049 A 
ATOM     55  C   UNL A   1      43.024  32.248  30.426  1.00  0.00     0.074 A 
ATOM     56  C   UNL A   1      38.806  27.627  32.073  1.00  0.00     0.029 A 
ATOM     57  N   UNL A   1      40.773  28.028  31.186  1.00  0.00    -0.354 N 
ATOM     58  N   UNL A   1      42.913  31.805  31.648  1.00  0.00    -0.248 NA
ATOM     59  C   UNL A   1      43.043  31.228  29.391  1.00  0.00     0.031 C 
ATOM     60  C   UNL A   1      39.574  28.447  32.953  1.00  0.00     0.029 A 
ATOM     61  C   UNL A   1      40.711  28.868  32.266  1.00  0.00     0.049 A 
ATOM     62  H   UNL A   1      41.590  27.740  30.719  1.00  0.00     0.167 HD
ATOM     63  C   UNL A   1      42.415  30.518  31.513  1.00  0.00     0.074 A 
ATOM     64  C   UNL A   1      42.598  30.186  30.100  1.00  0.00     0.031 C 
ATOM     65  C   UNL A   1      41.628  29.964  32.482  1.00  0.00     0.037 A 
BRANCH  52  66
ATOM     66  C   UNL A   1      39.845  26.943  28.413  1.00  0.00     0.057 A 
ATOM     67  C   UNL A   1      40.694  27.651  27.539  1.00  0.00     0.134 A 
ATOM     68  C   UNL A   1      39.545  25.627  28.004  1.00  0.00     0.134 A 
ATOM     69  F   UNL A   1      41.073  28.908  27.814  1.00  0.00    -0.206 F 
ATOM     70  C   UNL A   1      41.108  27.134  26.305  1.00  0.00     0.040 A 
ATOM     71  C   UNL A   1      39.996  25.084  26.796  1.00  0.00     0.040 A 
ATOM     72  F   UNL A   1      38.728  24.820  28.687  1.00  0.00    -0.206 F 
ATOM     73  C   UNL A   1      40.744  25.852  25.922  1.00  0.00     0.006 A 
ENDBRANCH  52  66
BRANCH  53  74
ATOM     74  C   UNL A   1      43.620  34.521  29.318  1.00  0.00     0.057 A 
ATOM     75  C   UNL A   1      43.823  34.423  27.935  1.00  0.00     0.134 A 
ATOM     76  C   UNL A   1      44.152  35.665  29.939  1.00  0.00     0.134 A 
ATOM     77  F   UNL A   1      43.322  33.387  27.246  1.00  0.00    -0.206 F 
ATOM     78  C   UNL A   1      44.491  35.416  27.205  1.00  0.00     0.040 A 
ATOM     79  C   UNL A   1      44.827  36.662  29.225  1.00  0.00     0.040 A 
ATOM     80  F   UNL A   1      43.957  35.898  31.245  1.00  0.00    -0.206 F 
ATOM     81  C   UNL A   1      44.985  36.546  27.849  1.00  0.00     0.006 A 
ENDBRANCH  53  74
BRANCH  65  82
ATOM     82  C   UNL A   1      41.520  30.685  33.799  1.00  0.00     0.057 A 
ATOM     83  C   UNL A   1      40.529  31.633  34.101  1.00  0.00     0.134 A 
ATOM     84  C   UNL A   1      42.350  30.289  34.850  1.00  0.00     0.134 A 
ATOM     85  F   UNL A   1      39.623  32.004  33.191  1.00  0.00    -0.206 F 
ATOM     86  C   UNL A   1      40.400  32.191  35.377  1.00  0.00     0.040 A 
ATOM     87  C   UNL A   1      42.211  30.812  36.139  1.00  0.00     0.040 A 
ATOM     88  F   UNL A   1      43.283  29.343  34.655  1.00  0.00    -0.206 F 
ATOM     89  C   UNL A   1      41.240  31.774  36.403  1.00  0.00     0.006 A 
ENDBRANCH  65  82
ENDBRANCH  39  40
ENDBRANCH  31  34
ENDBRANCH  29  30
ENDBRANCH  28  29
ENDBRANCH  27  28
ENDBRANCH   3  27
TORSDOF 15
ENDMDL
MODEL 3
REMARK VINA RESULT:     -11.8      3.516      8.216
REMARK SMILES C/C(=N\NC(N)=S)c1nnn(-c2ccc(C(=O)NCCCNC(=O)c3ccc(-c4c5nc(c(-c6c(F)cccc6F)c6ccc([nH]6)c(-c6c(F)cccc6F)c6nc(c(-c7c(F)cccc7F)c7ccc4[nH]7)C=C6)C=C5)cc3)cc2)c1C
REMARK SMILES IDX 16 1 17 2 18 3 15 5 12 6 13 7 80 8 14 9 79 10 11 11 8 12
REMARK SMILES IDX 9 13 81 14 10 15 82 16 2 17 1 18 3 19 4 20 5 22 7 23 6 24
REMARK SMILES IDX 19 27 20 28 21 29 22 30 23 31 24 33 25 34 26 35 78 36 27 37
REMARK SMILES IDX 77 38 28 39 29 40 30 41 71 42 31 43 76 44 70 45 72 46 32 47
REMARK SMILES IDX 75 48 69 49 68 50 33 52 59 53 42 54 58 55 43 56 46 57 57 58
REMARK SMILES IDX 73 59 44 60 45 61 56 63 74 64 47 65 34 66 35 67 40 68 36 69
REMARK SMILES IDX 37 70 39 71 41 72 38 73 60 74 61 75 66 76 62 77 63 78 65 79
REMARK SMILES IDX 67 80 64 81 48 82 49 83 54 84 50 85 51 86 53 87 55 88 52 89
REMARK H PARENT 18 4 4 21 6 25 6 26 22 32 72 51 46 62
REMARK Flexibility Score: inf
ROOT
ATOM      1  C   UNL A   1      31.492  29.399  25.083  1.00  0.00     0.251 C 
ATOM      2  O   UNL A   1      30.653  29.732  24.248  1.00  0.00    -0.269 OA
ATOM      3  N   UNL A   1      31.899  30.340  26.004  1.00  0.00    -0.352 N 
ATOM      4  H   UNL A   1      31.549  31.245  25.836  1.00  0.00     0.163 HD
ENDROOT
BRANCH   1   5
ATOM      5  C   UNL A   1      31.982  27.992  25.102  1.00  0.00     0.039 A 
ATOM      6  C   UNL A   1      32.851  25.359  24.823  1.00  0.00     0.067 A 
ATOM      7  C   UNL A   1      33.705  26.398  24.448  1.00  0.00     0.029 A 
ATOM      8  C   UNL A   1      31.637  25.617  25.446  1.00  0.00     0.029 A 
ATOM      9  C   UNL A   1      33.252  27.716  24.563  1.00  0.00     0.016 A 
ATOM     10  C   UNL A   1      31.238  26.933  25.624  1.00  0.00     0.016 A 
BRANCH   6  11
ATOM     11  N   UNL A   1      33.152  24.035  24.474  1.00  0.00    -0.217 N 
ATOM     12  C   UNL A   1      33.743  21.950  24.506  1.00  0.00     0.132 A 
ATOM     13  N   UNL A   1      33.056  22.197  23.346  1.00  0.00    -0.128 NA
ATOM     14  C   UNL A   1      33.819  23.107  25.254  1.00  0.00     0.071 A 
ATOM     15  N   UNL A   1      32.644  23.456  23.370  1.00  0.00    -0.061 NA
ATOM     16  C   UNL A   1      34.256  23.330  26.654  1.00  0.00     0.069 C 
BRANCH  12  17
ATOM     17  C   UNL A   1      34.027  20.599  24.947  1.00  0.00     0.087 C 
ATOM     18  C   UNL A   1      35.489  20.250  25.001  1.00  0.00     0.071 C 
ATOM     19  N   UNL A   1      32.998  19.872  25.269  1.00  0.00    -0.176 NA
BRANCH  19  20
ATOM     20  N   UNL A   1      33.141  18.620  25.795  1.00  0.00    -0.254 N 
ATOM     21  H   UNL A   1      33.267  18.583  26.771  1.00  0.00     0.193 HD
BRANCH  20  22
ATOM     22  C   UNL A   1      33.134  17.398  25.153  1.00  0.00     0.184 C 
ATOM     23  S   UNL A   1      34.112  16.073  25.376  1.00  0.00    -0.040 S 
BRANCH  22  24
ATOM     24  N   UNL A   1      32.153  17.330  24.198  1.00  0.00    -0.375 N 
ATOM     25  H   UNL A   1      32.350  17.598  23.271  1.00  0.00     0.159 HD
ATOM     26  H   UNL A   1      31.253  17.013  24.439  1.00  0.00     0.159 HD
ENDBRANCH  22  24
ENDBRANCH  20  22
ENDBRANCH  19  20
ENDBRANCH  12  17
ENDBRANCH   6  11
ENDBRANCH   1   5
BRANCH   3  27
ATOM     27  C   UNL A   1      32.754  30.240  27.182  1.00  0.00     0.118 C 
BRANCH  27  28
ATOM     28  C   UNL A   1      33.789  31.374  27.251  1.00  0.00     0.042 C 
BRANCH  28  29
ATOM     29  C   UNL A   1      34.841  31.141  28.313  1.00  0.00     0.118 C 
BRANCH  29  30
ATOM     30  N   UNL A   1      34.624  31.957  29.509  1.00  0.00    -0.352 N 
ATOM     31  C   UNL A   1      35.207  31.825  30.758  1.00  0.00     0.251 C 
ATOM     32  H   UNL A   1      33.980  32.696  29.411  1.00  0.00     0.163 HD
ATOM     33  O   UNL A   1      34.705  32.329  31.744  1.00  0.00    -0.269 OA
BRANCH  31  34
ATOM     34  C   UNL A   1      36.459  31.056  30.863  1.00  0.00     0.039 A 
ATOM     35  C   UNL A   1      36.469  29.659  30.926  1.00  0.00     0.014 A 
ATOM     36  C   UNL A   1      37.645  31.775  30.847  1.00  0.00     0.014 A 
ATOM     37  C   UNL A   1      37.695  28.995  30.893  1.00  0.00     0.010 A 
ATOM     38  C   UNL A   1      38.816  31.127  30.585  1.00  0.00     0.010 A 
ATOM     39  C   UNL A   1      38.864  29.744  30.708  1.00  0.00    -0.014 A 
BRANCH  39  40
ATOM     40  C   UNL A   1      40.173  29.125  30.545  1.00  0.00     0.031 A 
ATOM     41  C   UNL A   1      40.926  28.928  31.814  1.00  0.00     0.074 A 
ATOM     42  C   UNL A   1      40.501  28.510  29.386  1.00  0.00     0.049 A 
ATOM     43  N   UNL A   1      42.077  29.416  32.142  1.00  0.00    -0.248 NA
ATOM     44  C   UNL A   1      40.257  28.206  32.911  1.00  0.00     0.031 C 
ATOM     45  C   UNL A   1      39.675  28.363  28.175  1.00  0.00     0.029 A 
ATOM     46  N   UNL A   1      41.586  27.750  29.087  1.00  0.00    -0.354 N 
ATOM     47  C   UNL A   1      42.376  28.874  33.392  1.00  0.00     0.074 A 
ATOM     48  C   UNL A   1      41.146  28.330  33.897  1.00  0.00     0.031 C 
ATOM     49  C   UNL A   1      40.168  27.371  27.403  1.00  0.00     0.029 A 
ATOM     50  C   UNL A   1      41.433  26.941  27.963  1.00  0.00     0.049 A 
ATOM     51  H   UNL A   1      42.412  27.768  29.622  1.00  0.00     0.167 HD
ATOM     52  C   UNL A   1      43.669  28.665  33.773  1.00  0.00     0.037 A 
ATOM     53  C   UNL A   1      42.277  25.964  27.547  1.00  0.00     0.037 A 
ATOM     54  C   UNL A   1      44.574  29.429  32.948  1.00  0.00     0.049 A 
ATOM     55  C   UNL A   1      43.573  26.189  28.231  1.00  0.00     0.074 A 
ATOM     56  C   UNL A   1      44.726  30.770  32.653  1.00  0.00     0.029 A 
ATOM     57  N   UNL A   1      45.268  28.756  31.972  1.00  0.00    -0.354 N 
ATOM     58  N   UNL A   1      44.348  27.213  27.994  1.00  0.00    -0.248 NA
ATOM     59  C   UNL A   1      43.775  25.538  29.516  1.00  0.00     0.031 C 
ATOM     60  C   UNL A   1      45.066  30.804  31.267  1.00  0.00     0.029 A 
ATOM     61  C   UNL A   1      45.178  29.489  30.819  1.00  0.00     0.049 A 
ATOM     62  H   UNL A   1      45.743  27.900  32.082  1.00  0.00     0.167 HD
ATOM     63  C   UNL A   1      44.813  27.600  29.241  1.00  0.00     0.074 A 
ATOM     64  C   UNL A   1      44.498  26.480  30.129  1.00  0.00     0.031 C 
ATOM     65  C   UNL A   1      45.130  28.903  29.499  1.00  0.00     0.037 A 
BRANCH  52  66
ATOM     66  C   UNL A   1      44.142  27.472  34.582  1.00  0.00     0.057 A 
ATOM     67  C   UNL A   1      44.962  27.701  35.705  1.00  0.00     0.134 A 
ATOM     68  C   UNL A   1      44.099  26.129  34.150  1.00  0.00     0.134 A 
ATOM     69  F   UNL A   1      45.083  28.929  36.230  1.00  0.00    -0.206 F 
ATOM     70  C   UNL A   1      45.765  26.703  36.270  1.00  0.00     0.040 A 
ATOM     71  C   UNL A   1      44.858  25.114  34.741  1.00  0.00     0.040 A 
ATOM     72  F   UNL A   1      43.403  25.730  33.080  1.00  0.00    -0.206 F 
ATOM     73  C   UNL A   1      45.726  25.407  35.777  1.00  0.00     0.006 A 
ENDBRANCH  52  66
BRANCH  53  74
ATOM     74  C   UNL A   1      41.966  24.708  26.829  1.00  0.00     0.057 A 
ATOM     75  C   UNL A   1      42.775  24.254  25.778  1.00  0.00     0.134 A 
ATOM     76  C   UNL A   1      41.028  23.786  27.327  1.00  0.00     0.134 A 
ATOM     77  F   UNL A   1      43.725  25.046  25.260  1.00  0.00    -0.206 F 
ATOM     78  C   UNL A   1      42.678  22.951  25.270  1.00  0.00     0.040 A 
ATOM     79  C   UNL A   1      40.915  22.484  26.824  1.00  0.00     0.040 A 
ATOM     80  F   UNL A   1      40.250  24.088  28.376  1.00  0.00    -0.206 F 
ATOM     81  C   UNL A   1      41.753  22.058  25.802  1.00  0.00     0.006 A 
ENDBRANCH  53  74
BRANCH  65  82
ATOM     82  C   UNL A   1      45.195  29.856  28.335  1.00  0.00     0.057 A 
ATOM     83  C   UNL A   1      44.111  30.624  27.882  1.00  0.00     0.134 A 
ATOM     84  C   UNL A   1      46.439  30.122  27.756  1.00  0.00     0.134 A 
ATOM     85  F   UNL A   1      42.902  30.516  28.441  1.00  0.00    -0.206 F 
ATOM     86  C   UNL A   1      44.251  31.580  26.871  1.00  0.00     0.040 A 
ATOM     87  C   UNL A   1      46.600  31.098  26.769  1.00  0.00     0.040 A 
ATOM     88  F   UNL A   1      47.534  29.470  28.179  1.00  0.00    -0.206 F 
ATOM     89  C   UNL A   1      45.502  31.824  26.316  1.00  0.00     0.006 A 
ENDBRANCH  65  82
ENDBRANCH  39  40
ENDBRANCH  31  34
ENDBRANCH  29  30
ENDBRANCH  28  29
ENDBRANCH  27  28
ENDBRANCH   3  27
TORSDOF 15
ENDMDL
