MODEL 1
REMARK VINA RESULT:     -12.3      0.000      0.000
REMARK SMILES COc1ccc(NC(=O)c2nn(C)cc2C(=O)NCCCNC(=O)c2ccc(-c3c4nc(c(-c5c(F)cccc5F)c5ccc([nH]5)c(-c5c(F)cccc5F)c5nc(c(-c6c(F)cccc6F)c6ccc3[nH]6)C=C5)C=C4)cc2)c(C)c1
REMARK SMILES IDX 19 1 18 2 16 3 17 4 15 6 10 7 11 8 12 9 14 10 13 11 8 12
REMARK SMILES IDX 7 13 9 15 6 16 3 17 4 18 81 19 5 20 79 21 80 22 2 23 1 24
REMARK SMILES IDX 20 25 21 26 22 27 23 28 24 30 25 31 26 32 78 33 27 34 77 35
REMARK SMILES IDX 28 36 29 37 30 38 71 39 31 40 76 41 70 42 72 43 32 44 75 45
REMARK SMILES IDX 69 46 68 47 33 49 59 50 42 51 58 52 43 53 46 54 57 55 73 56
REMARK SMILES IDX 44 57 45 58 56 60 74 61 47 62 34 63 35 64 40 65 36 66 37 67
REMARK SMILES IDX 39 68 41 69 38 70 60 71 61 72 66 73 62 74 63 75 65 76 67 77
REMARK SMILES IDX 64 78 48 79 49 80 54 81 50 82 51 83 53 84 55 85 52 86
REMARK H PARENT 18 5 7 14 22 29 72 48 46 59
REMARK Flexibility Score: inf
ROOT
ATOM      1  C   UNL A   1      33.701  28.685  25.800  1.00  0.00     0.118 C 
ENDROOT
BRANCH   1   2
ATOM      2  N   UNL A   1      34.380  28.598  24.519  1.00  0.00    -0.352 N 
ATOM      3  C   UNL A   1      33.923  28.506  23.227  1.00  0.00     0.255 C 
ATOM      4  O   UNL A   1      34.776  28.621  22.342  1.00  0.00    -0.269 OA
ATOM      5  H   UNL A   1      35.362  28.607  24.592  1.00  0.00     0.163 HD
BRANCH   3   6
ATOM      6  C   UNL A   1      32.526  28.256  22.893  1.00  0.00     0.090 A 
ATOM      7  C   UNL A   1      32.035  27.128  22.135  1.00  0.00     0.163 A 
ATOM      8  N   UNL A   1      30.694  27.171  22.001  1.00  0.00    -0.167 NA
ATOM      9  N   UNL A   1      30.327  28.261  22.675  1.00  0.00    -0.274 N 
ATOM     10  C   UNL A   1      31.372  28.944  23.224  1.00  0.00     0.123 A 
ATOM     11  C   UNL A   1      28.921  28.556  22.819  1.00  0.00     0.173 C 
BRANCH   7  12
ATOM     12  C   UNL A   1      32.780  25.982  21.588  1.00  0.00     0.277 C 
ATOM     13  N   UNL A   1      33.141  24.918  22.398  1.00  0.00    -0.320 N 
ATOM     14  H   UNL A   1      33.682  24.234  21.942  1.00  0.00     0.170 HD
ATOM     15  O   UNL A   1      33.109  25.936  20.400  1.00  0.00    -0.267 OA
BRANCH  13  16
ATOM     16  C   UNL A   1      32.880  24.633  23.753  1.00  0.00     0.044 A 
ATOM     17  C   UNL A   1      32.539  23.723  26.406  1.00  0.00     0.119 A 
ATOM     18  C   UNL A   1      33.626  24.517  26.077  1.00  0.00     0.048 A 
ATOM     19  C   UNL A   1      31.571  23.474  25.433  1.00  0.00     0.052 A 
ATOM     20  C   UNL A   1      33.774  24.987  24.770  1.00  0.00     0.030 A 
ATOM     21  C   UNL A   1      31.705  23.946  24.111  1.00  0.00    -0.024 A 
ATOM     22  C   UNL A   1      30.541  23.699  23.187  1.00  0.00     0.047 C 
BRANCH  17  23
ATOM     23  O   UNL A   1      32.311  23.146  27.624  1.00  0.00    -0.497 OA
ATOM     24  C   UNL A   1      33.280  22.206  28.068  1.00  0.00     0.278 C 
ENDBRANCH  17  23
ENDBRANCH  13  16
ENDBRANCH   7  12
ENDBRANCH   3   6
ENDBRANCH   1   2
BRANCH   1  25
ATOM     25  C   UNL A   1      33.194  30.088  26.118  1.00  0.00     0.042 C 
BRANCH  25  26
ATOM     26  C   UNL A   1      33.089  30.355  27.616  1.00  0.00     0.118 C 
BRANCH  26  27
ATOM     27  N   UNL A   1      33.961  31.436  28.092  1.00  0.00    -0.352 N 
ATOM     28  C   UNL A   1      35.255  31.389  28.592  1.00  0.00     0.251 C 
ATOM     29  H   UNL A   1      33.565  32.336  28.050  1.00  0.00     0.163 HD
ATOM     30  O   UNL A   1      35.822  32.427  28.920  1.00  0.00    -0.269 OA
BRANCH  28  31
ATOM     31  C   UNL A   1      36.009  30.114  28.553  1.00  0.00     0.039 A 
ATOM     32  C   UNL A   1      36.313  29.533  29.792  1.00  0.00     0.014 A 
ATOM     33  C   UNL A   1      36.733  29.780  27.419  1.00  0.00     0.014 A 
ATOM     34  C   UNL A   1      37.558  28.949  29.961  1.00  0.00     0.010 A 
ATOM     35  C   UNL A   1      38.015  29.326  27.605  1.00  0.00     0.010 A 
ATOM     36  C   UNL A   1      38.449  29.007  28.895  1.00  0.00    -0.014 A 
BRANCH  36  37
ATOM     37  C   UNL A   1      39.863  28.719  29.015  1.00  0.00     0.031 A 
ATOM     38  C   UNL A   1      40.316  27.391  28.584  1.00  0.00     0.074 A 
ATOM     39  C   UNL A   1      40.716  29.682  29.424  1.00  0.00     0.049 A 
ATOM     40  N   UNL A   1      41.422  26.846  28.940  1.00  0.00    -0.248 NA
ATOM     41  C   UNL A   1      39.477  26.519  27.768  1.00  0.00     0.031 C 
ATOM     42  C   UNL A   1      42.172  29.684  29.343  1.00  0.00     0.029 A 
ATOM     43  N   UNL A   1      40.413  30.814  30.187  1.00  0.00    -0.354 N 
ATOM     44  C   UNL A   1      41.576  25.695  28.202  1.00  0.00     0.074 A 
ATOM     45  C   UNL A   1      40.294  25.481  27.586  1.00  0.00     0.031 C 
ATOM     46  C   UNL A   1      42.660  30.577  30.224  1.00  0.00     0.029 A 
ATOM     47  C   UNL A   1      41.538  31.066  31.006  1.00  0.00     0.049 A 
ATOM     48  H   UNL A   1      39.578  31.336  30.160  1.00  0.00     0.167 HD
ATOM     49  C   UNL A   1      42.826  25.158  28.111  1.00  0.00     0.037 A 
ATOM     50  C   UNL A   1      41.442  30.986  32.368  1.00  0.00     0.037 A 
ATOM     51  C   UNL A   1      43.716  25.824  29.070  1.00  0.00     0.049 A 
ATOM     52  C   UNL A   1      42.266  29.857  32.943  1.00  0.00     0.074 A 
ATOM     53  C   UNL A   1      44.615  26.871  28.943  1.00  0.00     0.029 A 
ATOM     54  N   UNL A   1      43.461  25.693  30.435  1.00  0.00    -0.354 N 
ATOM     55  N   UNL A   1      42.702  28.844  32.243  1.00  0.00    -0.248 NA
ATOM     56  C   UNL A   1      42.659  29.780  34.346  1.00  0.00     0.031 C 
ATOM     57  C   UNL A   1      44.809  27.436  30.232  1.00  0.00     0.029 A 
ATOM     58  C   UNL A   1      44.071  26.707  31.151  1.00  0.00     0.049 A 
ATOM     59  H   UNL A   1      42.918  24.974  30.835  1.00  0.00     0.167 HD
ATOM     60  C   UNL A   1      43.390  27.986  33.057  1.00  0.00     0.074 A 
ATOM     61  C   UNL A   1      43.359  28.633  34.358  1.00  0.00     0.031 C 
ATOM     62  C   UNL A   1      43.915  26.810  32.600  1.00  0.00     0.037 A 
BRANCH  49  63
ATOM     63  C   UNL A   1      43.310  24.259  26.985  1.00  0.00     0.057 A 
ATOM     64  C   UNL A   1      43.963  23.045  27.286  1.00  0.00     0.134 A 
ATOM     65  C   UNL A   1      43.272  24.545  25.605  1.00  0.00     0.134 A 
ATOM     66  F   UNL A   1      44.045  22.585  28.542  1.00  0.00    -0.206 F 
ATOM     67  C   UNL A   1      44.583  22.240  26.316  1.00  0.00     0.040 A 
ATOM     68  C   UNL A   1      43.900  23.759  24.627  1.00  0.00     0.040 A 
ATOM     69  F   UNL A   1      42.606  25.582  25.100  1.00  0.00    -0.206 F 
ATOM     70  C   UNL A   1      44.571  22.605  24.981  1.00  0.00     0.006 A 
ENDBRANCH  49  63
BRANCH  50  71
ATOM     71  C   UNL A   1      40.097  31.417  32.853  1.00  0.00     0.057 A 
ATOM     72  C   UNL A   1      39.226  30.398  33.284  1.00  0.00     0.134 A 
ATOM     73  C   UNL A   1      39.914  32.689  33.400  1.00  0.00     0.134 A 
ATOM     74  F   UNL A   1      39.311  29.169  32.750  1.00  0.00    -0.206 F 
ATOM     75  C   UNL A   1      38.401  30.567  34.397  1.00  0.00     0.040 A 
ATOM     76  C   UNL A   1      39.056  32.878  34.488  1.00  0.00     0.040 A 
ATOM     77  F   UNL A   1      40.666  33.723  32.999  1.00  0.00    -0.206 F 
ATOM     78  C   UNL A   1      38.363  31.800  35.040  1.00  0.00     0.006 A 
ENDBRANCH  50  71
BRANCH  62  79
ATOM     79  C   UNL A   1      44.425  25.693  33.484  1.00  0.00     0.057 A 
ATOM     80  C   UNL A   1      43.631  24.979  34.395  1.00  0.00     0.134 A 
ATOM     81  C   UNL A   1      45.746  25.211  33.347  1.00  0.00     0.134 A 
ATOM     82  F   UNL A   1      42.317  25.209  34.518  1.00  0.00    -0.206 F 
ATOM     83  C   UNL A   1      44.138  23.942  35.187  1.00  0.00     0.040 A 
ATOM     84  C   UNL A   1      46.242  24.129  34.080  1.00  0.00     0.040 A 
ATOM     85  F   UNL A   1      46.611  25.750  32.476  1.00  0.00    -0.206 F 
ATOM     86  C   UNL A   1      45.446  23.509  35.028  1.00  0.00     0.006 A 
ENDBRANCH  62  79
ENDBRANCH  36  37
ENDBRANCH  28  31
ENDBRANCH  26  27
ENDBRANCH  25  26
ENDBRANCH   1  25
TORSDOF 13
ENDMDL
MODEL 2
REMARK VINA RESULT:     -12.3      2.055      2.885
REMARK SMILES COc1ccc(NC(=O)c2nn(C)cc2C(=O)NCCCNC(=O)c2ccc(-c3c4nc(c(-c5c(F)cccc5F)c5ccc([nH]5)c(-c5c(F)cccc5F)c5nc(c(-c6c(F)cccc6F)c6ccc3[nH]6)C=C5)C=C4)cc2)c(C)c1
REMARK SMILES IDX 19 1 18 2 16 3 17 4 15 6 10 7 11 8 12 9 14 10 13 11 8 12
REMARK SMILES IDX 7 13 9 15 6 16 3 17 4 18 81 19 5 20 79 21 80 22 2 23 1 24
REMARK SMILES IDX 20 25 21 26 22 27 23 28 24 30 25 31 26 32 78 33 27 34 77 35
REMARK SMILES IDX 28 36 29 37 30 38 71 39 31 40 76 41 70 42 72 43 32 44 75 45
REMARK SMILES IDX 69 46 68 47 33 49 59 50 42 51 58 52 43 53 46 54 57 55 73 56
REMARK SMILES IDX 44 57 45 58 56 60 74 61 47 62 34 63 35 64 40 65 36 66 37 67
REMARK SMILES IDX 39 68 41 69 38 70 60 71 61 72 66 73 62 74 63 75 65 76 67 77
REMARK SMILES IDX 64 78 48 79 49 80 54 81 50 82 51 83 53 84 55 85 52 86
REMARK H PARENT 18 5 7 14 22 29 72 48 46 59
REMARK Flexibility Score: inf
ROOT
ATOM      1  C   UNL A   1      34.225  28.848  26.859  1.00  0.00     0.118 C 
ENDROOT
BRANCH   1   2
ATOM      2  N   UNL A   1      32.998  28.611  27.599  1.00  0.00    -0.352 N 
ATOM      3  C   UNL A   1      31.785  28.074  27.243  1.00  0.00     0.255 C 
ATOM      4  O   UNL A   1      30.997  27.856  28.168  1.00  0.00    -0.269 OA
ATOM      5  H   UNL A   1      33.045  28.891  28.542  1.00  0.00     0.163 HD
BRANCH   3   6
ATOM      6  C   UNL A   1      31.412  27.796  25.861  1.00  0.00     0.090 A 
ATOM      7  C   UNL A   1      30.827  26.565  25.382  1.00  0.00     0.163 A 
ATOM      8  N   UNL A   1      30.587  26.617  24.057  1.00  0.00    -0.167 NA
ATOM      9  N   UNL A   1      30.965  27.844  23.697  1.00  0.00    -0.274 N 
ATOM     10  C   UNL A   1      31.464  28.587  24.726  1.00  0.00     0.123 A 
ATOM     11  C   UNL A   1      30.748  28.274  22.336  1.00  0.00     0.173 C 
BRANCH   7  12
ATOM     12  C   UNL A   1      30.431  25.369  26.142  1.00  0.00     0.277 C 
ATOM     13  N   UNL A   1      31.271  24.270  26.227  1.00  0.00    -0.320 N 
ATOM     14  H   UNL A   1      30.884  23.507  26.714  1.00  0.00     0.170 HD
ATOM     15  O   UNL A   1      29.342  25.304  26.721  1.00  0.00    -0.267 OA
BRANCH  13  16
ATOM     16  C   UNL A   1      32.575  24.041  25.745  1.00  0.00     0.044 A 
ATOM     17  C   UNL A   1      35.074  23.765  24.456  1.00  0.00     0.119 A 
ATOM     18  C   UNL A   1      34.840  24.841  25.298  1.00  0.00     0.048 A 
ATOM     19  C   UNL A   1      34.097  22.776  24.344  1.00  0.00     0.052 A 
ATOM     20  C   UNL A   1      33.612  24.957  25.954  1.00  0.00     0.030 A 
ATOM     21  C   UNL A   1      32.855  22.878  25.005  1.00  0.00    -0.024 A 
ATOM     22  C   UNL A   1      31.931  21.694  24.886  1.00  0.00     0.047 C 
BRANCH  17  23
ATOM     23  O   UNL A   1      36.199  23.567  23.706  1.00  0.00    -0.497 OA
ATOM     24  C   UNL A   1      36.907  22.358  23.938  1.00  0.00     0.278 C 
ENDBRANCH  17  23
ENDBRANCH  13  16
ENDBRANCH   7  12
ENDBRANCH   3   6
ENDBRANCH   1   2
BRANCH   1  25
ATOM     25  C   UNL A   1      34.713  30.291  26.948  1.00  0.00     0.042 C 
BRANCH  25  26
ATOM     26  C   UNL A   1      34.702  30.834  28.373  1.00  0.00     0.118 C 
BRANCH  26  27
ATOM     27  N   UNL A   1      35.865  31.667  28.703  1.00  0.00    -0.352 N 
ATOM     28  C   UNL A   1      37.191  31.314  28.908  1.00  0.00     0.251 C 
ATOM     29  H   UNL A   1      35.673  32.628  28.791  1.00  0.00     0.163 HD
ATOM     30  O   UNL A   1      38.024  32.180  29.156  1.00  0.00    -0.269 OA
BRANCH  28  31
ATOM     31  C   UNL A   1      37.628  29.922  28.643  1.00  0.00     0.039 A 
ATOM     32  C   UNL A   1      37.732  29.081  29.759  1.00  0.00     0.014 A 
ATOM     33  C   UNL A   1      38.303  29.627  27.469  1.00  0.00     0.014 A 
ATOM     34  C   UNL A   1      38.798  28.198  29.824  1.00  0.00     0.010 A 
ATOM     35  C   UNL A   1      39.434  28.857  27.573  1.00  0.00     0.010 A 
ATOM     36  C   UNL A   1      39.724  28.225  28.786  1.00  0.00    -0.014 A 
BRANCH  36  37
ATOM     37  C   UNL A   1      41.025  27.593  28.855  1.00  0.00     0.031 A 
ATOM     38  C   UNL A   1      41.089  26.157  28.560  1.00  0.00     0.074 A 
ATOM     39  C   UNL A   1      42.126  28.337  29.094  1.00  0.00     0.049 A 
ATOM     40  N   UNL A   1      42.049  25.382  28.914  1.00  0.00    -0.248 NA
ATOM     41  C   UNL A   1      39.989  25.455  27.907  1.00  0.00     0.031 C 
ATOM     42  C   UNL A   1      43.522  27.953  28.926  1.00  0.00     0.029 A 
ATOM     43  N   UNL A   1      42.186  29.581  29.732  1.00  0.00    -0.354 N 
ATOM     44  C   UNL A   1      41.842  24.162  28.311  1.00  0.00     0.074 A 
ATOM     45  C   UNL A   1      40.498  24.227  27.803  1.00  0.00     0.031 C 
ATOM     46  C   UNL A   1      44.295  28.771  29.663  1.00  0.00     0.029 A 
ATOM     47  C   UNL A   1      43.406  29.612  30.446  1.00  0.00     0.049 A 
ATOM     48  H   UNL A   1      41.510  30.295  29.693  1.00  0.00     0.167 HD
ATOM     49  C   UNL A   1      42.904  23.312  28.211  1.00  0.00     0.037 A 
ATOM     50  C   UNL A   1      43.414  29.697  31.811  1.00  0.00     0.037 A 
ATOM     51  C   UNL A   1      44.014  23.817  29.028  1.00  0.00     0.049 A 
ATOM     52  C   UNL A   1      43.975  28.457  32.467  1.00  0.00     0.074 A 
ATOM     53  C   UNL A   1      45.133  24.575  28.723  1.00  0.00     0.029 A 
ATOM     54  N   UNL A   1      43.856  23.894  30.412  1.00  0.00    -0.354 N 
ATOM     55  N   UNL A   1      44.078  27.301  31.869  1.00  0.00    -0.248 NA
ATOM     56  C   UNL A   1      44.459  28.422  33.844  1.00  0.00     0.031 C 
ATOM     57  C   UNL A   1      45.577  25.198  29.921  1.00  0.00     0.029 A 
ATOM     58  C   UNL A   1      44.763  24.782  30.963  1.00  0.00     0.049 A 
ATOM     59  H   UNL A   1      43.188  23.386  30.927  1.00  0.00     0.167 HD
ATOM     60  C   UNL A   1      44.598  26.380  32.738  1.00  0.00     0.074 A 
ATOM     61  C   UNL A   1      44.846  27.140  33.952  1.00  0.00     0.031 C 
ATOM     62  C   UNL A   1      44.767  25.067  32.396  1.00  0.00     0.037 A 
BRANCH  49  63
ATOM     63  C   UNL A   1      43.045  22.209  27.174  1.00  0.00     0.057 A 
ATOM     64  C   UNL A   1      42.226  21.062  27.252  1.00  0.00     0.134 A 
ATOM     65  C   UNL A   1      44.006  22.140  26.145  1.00  0.00     0.134 A 
ATOM     66  F   UNL A   1      41.221  20.976  28.134  1.00  0.00    -0.206 F 
ATOM     67  C   UNL A   1      42.401  19.931  26.438  1.00  0.00     0.040 A 
ATOM     68  C   UNL A   1      44.203  21.011  25.335  1.00  0.00     0.040 A 
ATOM     69  F   UNL A   1      44.801  23.161  25.830  1.00  0.00    -0.206 F 
ATOM     70  C   UNL A   1      43.407  19.893  25.487  1.00  0.00     0.006 A 
ENDBRANCH  49  63
BRANCH  50  71
ATOM     71  C   UNL A   1      42.270  30.510  32.320  1.00  0.00     0.057 A 
ATOM     72  C   UNL A   1      42.361  31.904  32.149  1.00  0.00     0.134 A 
ATOM     73  C   UNL A   1      40.989  29.958  32.405  1.00  0.00     0.134 A 
ATOM     74  F   UNL A   1      43.563  32.502  32.123  1.00  0.00    -0.206 F 
ATOM     75  C   UNL A   1      41.246  32.671  31.806  1.00  0.00     0.040 A 
ATOM     76  C   UNL A   1      39.862  30.729  32.104  1.00  0.00     0.040 A 
ATOM     77  F   UNL A   1      40.820  28.647  32.624  1.00  0.00    -0.206 F 
ATOM     78  C   UNL A   1      39.997  32.064  31.723  1.00  0.00     0.006 A 
ENDBRANCH  50  71
BRANCH  62  79
ATOM     79  C   UNL A   1      45.056  23.952  33.376  1.00  0.00     0.057 A 
ATOM     80  C   UNL A   1      44.114  22.994  33.786  1.00  0.00     0.134 A 
ATOM     81  C   UNL A   1      46.367  23.732  33.853  1.00  0.00     0.134 A 
ATOM     82  F   UNL A   1      42.870  22.971  33.290  1.00  0.00    -0.206 F 
ATOM     83  C   UNL A   1      44.424  21.968  34.686  1.00  0.00     0.040 A 
ATOM     84  C   UNL A   1      46.704  22.668  34.695  1.00  0.00     0.040 A 
ATOM     85  F   UNL A   1      47.391  24.526  33.505  1.00  0.00    -0.206 F 
ATOM     86  C   UNL A   1      45.724  21.798  35.140  1.00  0.00     0.006 A 
ENDBRANCH  62  79
ENDBRANCH  36  37
ENDBRANCH  28  31
ENDBRANCH  26  27
ENDBRANCH  25  26
ENDBRANCH   1  25
TORSDOF 13
ENDMDL
MODEL 3
REMARK VINA RESULT:     -12.2      1.430      2.261
REMARK SMILES COc1ccc(NC(=O)c2nn(C)cc2C(=O)NCCCNC(=O)c2ccc(-c3c4nc(c(-c5c(F)cccc5F)c5ccc([nH]5)c(-c5c(F)cccc5F)c5nc(c(-c6c(F)cccc6F)c6ccc3[nH]6)C=C5)C=C4)cc2)c(C)c1
REMARK SMILES IDX 19 1 18 2 16 3 17 4 15 6 10 7 11 8 12 9 14 10 13 11 8 12
REMARK SMILES IDX 7 13 9 15 6 16 3 17 4 18 81 19 5 20 79 21 80 22 2 23 1 24
REMARK SMILES IDX 20 25 21 26 22 27 23 28 24 30 25 31 26 32 78 33 27 34 77 35
REMARK SMILES IDX 28 36 29 37 30 38 71 39 31 40 76 41 70 42 72 43 32 44 75 45
REMARK SMILES IDX 69 46 68 47 33 49 59 50 42 51 58 52 43 53 46 54 57 55 73 56
REMARK SMILES IDX 44 57 45 58 56 60 74 61 47 62 34 63 35 64 40 65 36 66 37 67
REMARK SMILES IDX 39 68 41 69 38 70 60 71 61 72 66 73 62 74 63 75 65 76 67 77
REMARK SMILES IDX 64 78 48 79 49 80 54 81 50 82 51 83 53 84 55 85 52 86
REMARK H PARENT 18 5 7 14 22 29 72 48 46 59
REMARK Flexibility Score: inf
ROOT
ATOM      1  C   UNL A   1      32.636  30.063  26.154  1.00  0.00     0.118 C 
ENDROOT
BRANCH   1   2
ATOM      2  N   UNL A   1      33.569  29.616  25.134  1.00  0.00    -0.352 N 
ATOM      3  C   UNL A   1      33.394  28.995  23.921  1.00  0.00     0.255 C 
ATOM      4  O   UNL A   1      34.400  28.903  23.211  1.00  0.00    -0.269 OA
ATOM      5  H   UNL A   1      34.512  29.792  25.356  1.00  0.00     0.163 HD
BRANCH   3   6
ATOM      6  C   UNL A   1      32.117  28.442  23.486  1.00  0.00     0.090 A 
ATOM      7  C   UNL A   1      31.948  27.241  22.700  1.00  0.00     0.163 A 
ATOM      8  N   UNL A   1      30.646  26.985  22.467  1.00  0.00    -0.167 NA
ATOM      9  N   UNL A   1      29.995  27.956  23.107  1.00  0.00    -0.274 N 
ATOM     10  C   UNL A   1      30.817  28.850  23.728  1.00  0.00     0.123 A 
ATOM     11  C   UNL A   1      28.552  27.926  23.145  1.00  0.00     0.173 C 
BRANCH   7  12
ATOM     12  C   UNL A   1      32.969  26.299  22.215  1.00  0.00     0.277 C 
ATOM     13  N   UNL A   1      33.236  25.125  22.902  1.00  0.00    -0.320 N 
ATOM     14  H   UNL A   1      33.973  24.597  22.520  1.00  0.00     0.170 HD
ATOM     15  O   UNL A   1      33.621  26.525  21.192  1.00  0.00    -0.267 OA
BRANCH  13  16
ATOM     16  C   UNL A   1      32.649  24.547  24.045  1.00  0.00     0.044 A 
ATOM     17  C   UNL A   1      31.203  23.671  26.309  1.00  0.00     0.119 A 
ATOM     18  C   UNL A   1      30.941  23.126  25.061  1.00  0.00     0.048 A 
ATOM     19  C   UNL A   1      32.259  24.574  26.438  1.00  0.00     0.052 A 
ATOM     20  C   UNL A   1      31.678  23.544  23.951  1.00  0.00     0.030 A 
ATOM     21  C   UNL A   1      33.014  25.001  25.326  1.00  0.00    -0.024 A 
ATOM     22  C   UNL A   1      34.191  25.895  25.615  1.00  0.00     0.047 C 
BRANCH  17  23
ATOM     23  O   UNL A   1      30.516  23.401  27.459  1.00  0.00    -0.497 OA
ATOM     24  C   UNL A   1      29.280  22.717  27.310  1.00  0.00     0.278 C 
ENDBRANCH  17  23
ENDBRANCH  13  16
ENDBRANCH   7  12
ENDBRANCH   3   6
ENDBRANCH   1   2
BRANCH   1  25
ATOM     25  C   UNL A   1      33.321  30.717  27.350  1.00  0.00     0.042 C 
BRANCH  25  26
ATOM     26  C   UNL A   1      34.748  30.222  27.560  1.00  0.00     0.118 C 
BRANCH  26  27
ATOM     27  N   UNL A   1      35.546  31.065  28.458  1.00  0.00    -0.352 N 
ATOM     28  C   UNL A   1      36.763  30.815  29.077  1.00  0.00     0.251 C 
ATOM     29  H   UNL A   1      35.157  31.948  28.651  1.00  0.00     0.163 HD
ATOM     30  O   UNL A   1      37.279  31.676  29.784  1.00  0.00    -0.269 OA
BRANCH  28  31
ATOM     31  C   UNL A   1      37.520  29.588  28.734  1.00  0.00     0.039 A 
ATOM     32  C   UNL A   1      37.643  28.630  29.750  1.00  0.00     0.014 A 
ATOM     33  C   UNL A   1      38.402  29.603  27.665  1.00  0.00     0.014 A 
ATOM     34  C   UNL A   1      38.853  27.969  29.893  1.00  0.00     0.010 A 
ATOM     35  C   UNL A   1      39.646  29.058  27.871  1.00  0.00     0.010 A 
ATOM     36  C   UNL A   1      39.889  28.326  29.037  1.00  0.00    -0.014 A 
BRANCH  36  37
ATOM     37  C   UNL A   1      41.272  27.954  29.252  1.00  0.00     0.031 A 
ATOM     38  C   UNL A   1      41.734  26.704  28.637  1.00  0.00     0.074 A 
ATOM     39  C   UNL A   1      42.099  28.787  29.919  1.00  0.00     0.049 A 
ATOM     40  N   UNL A   1      42.777  26.053  29.004  1.00  0.00    -0.248 NA
ATOM     41  C   UNL A   1      40.970  26.033  27.591  1.00  0.00     0.031 C 
ATOM     42  C   UNL A   1      43.554  28.734  29.995  1.00  0.00     0.029 A 
ATOM     43  N   UNL A   1      41.742  29.778  30.838  1.00  0.00    -0.354 N 
ATOM     44  C   UNL A   1      42.982  25.045  28.089  1.00  0.00     0.074 A 
ATOM     45  C   UNL A   1      41.772  25.005  27.311  1.00  0.00     0.031 C 
ATOM     46  C   UNL A   1      43.963  29.431  31.071  1.00  0.00     0.029 A 
ATOM     47  C   UNL A   1      42.774  29.826  31.805  1.00  0.00     0.049 A 
ATOM     48  H   UNL A   1      40.931  30.335  30.818  1.00  0.00     0.167 HD
ATOM     49  C   UNL A   1      44.218  24.474  28.035  1.00  0.00     0.037 A 
ATOM     50  C   UNL A   1      42.522  29.509  33.111  1.00  0.00     0.037 A 
ATOM     51  C   UNL A   1      45.012  24.915  29.189  1.00  0.00     0.049 A 
ATOM     52  C   UNL A   1      43.244  28.258  33.555  1.00  0.00     0.074 A 
ATOM     53  C   UNL A   1      45.948  25.924  29.352  1.00  0.00     0.029 A 
ATOM     54  N   UNL A   1      44.600  24.555  30.472  1.00  0.00    -0.354 N 
ATOM     55  N   UNL A   1      43.728  27.367  32.733  1.00  0.00    -0.248 NA
ATOM     56  C   UNL A   1      43.472  27.913  34.954  1.00  0.00     0.031 C 
ATOM     57  C   UNL A   1      46.010  26.241  30.736  1.00  0.00     0.029 A 
ATOM     58  C   UNL A   1      45.153  25.396  31.422  1.00  0.00     0.049 A 
ATOM     59  H   UNL A   1      43.996  23.803  30.674  1.00  0.00     0.167 HD
ATOM     60  C   UNL A   1      44.296  26.345  33.445  1.00  0.00     0.074 A 
ATOM     61  C   UNL A   1      44.135  26.751  34.832  1.00  0.00     0.031 C 
ATOM     62  C   UNL A   1      44.837  25.245  32.841  1.00  0.00     0.037 A 
BRANCH  49  63
ATOM     63  C   UNL A   1      44.803  23.768  26.822  1.00  0.00     0.057 A 
ATOM     64  C   UNL A   1      44.373  22.465  26.492  1.00  0.00     0.134 A 
ATOM     65  C   UNL A   1      45.844  24.238  25.996  1.00  0.00     0.134 A 
ATOM     66  F   UNL A   1      43.353  21.879  27.135  1.00  0.00    -0.206 F 
ATOM     67  C   UNL A   1      44.974  21.683  25.492  1.00  0.00     0.040 A 
ATOM     68  C   UNL A   1      46.465  23.463  25.005  1.00  0.00     0.040 A 
ATOM     69  F   UNL A   1      46.317  25.481  26.067  1.00  0.00    -0.206 F 
ATOM     70  C   UNL A   1      46.039  22.174  24.756  1.00  0.00     0.006 A 
ENDBRANCH  49  63
BRANCH  50  71
ATOM     71  C   UNL A   1      41.143  29.910  33.521  1.00  0.00     0.057 A 
ATOM     72  C   UNL A   1      40.905  31.290  33.667  1.00  0.00     0.134 A 
ATOM     73  C   UNL A   1      40.047  29.101  33.212  1.00  0.00     0.134 A 
ATOM     74  F   UNL A   1      41.906  32.112  34.025  1.00  0.00    -0.206 F 
ATOM     75  C   UNL A   1      39.703  31.869  33.260  1.00  0.00     0.040 A 
ATOM     76  C   UNL A   1      38.824  29.672  32.843  1.00  0.00     0.040 A 
ATOM     77  F   UNL A   1      40.182  27.772  33.112  1.00  0.00    -0.206 F 
ATOM     78  C   UNL A   1      38.677  31.058  32.787  1.00  0.00     0.006 A 
ENDBRANCH  50  71
BRANCH  62  79
ATOM     79  C   UNL A   1      45.212  23.967  33.555  1.00  0.00     0.057 A 
ATOM     80  C   UNL A   1      46.483  23.699  34.086  1.00  0.00     0.134 A 
ATOM     81  C   UNL A   1      44.233  22.988  33.844  1.00  0.00     0.134 A 
ATOM     82  F   UNL A   1      47.472  24.602  34.038  1.00  0.00    -0.206 F 
ATOM     83  C   UNL A   1      46.788  22.506  34.753  1.00  0.00     0.040 A 
ATOM     84  C   UNL A   1      44.509  21.827  34.573  1.00  0.00     0.040 A 
ATOM     85  F   UNL A   1      42.957  23.125  33.456  1.00  0.00    -0.206 F 
ATOM     86  C   UNL A   1      45.798  21.567  35.004  1.00  0.00     0.006 A 
ENDBRANCH  62  79
ENDBRANCH  36  37
ENDBRANCH  28  31
ENDBRANCH  26  27
ENDBRANCH  25  26
ENDBRANCH   1  25
TORSDOF 13
ENDMDL
