MODEL 1
REMARK VINA RESULT:     -11.8      0.000      0.000
REMARK SMILES CC[C@]1(C(=O)NCCCNC(=O)c2ccc(-c3c4nc(c(-c5c(F)cccc5F)c5ccc([nH]5)c(-c5c(F)cccc5F)c5nc(c(-c6c(F)cccc6F)c6ccc3[nH]6)C=C5)C=C4)cc2)CCC[N@@H+]([C@@H]2CCC[C@H](S(C)(=O)=O)C2)C1
REMARK SMILES IDX 8 1 7 2 6 3 4 4 5 5 3 7 67 8 81 9 68 10 70 11 69 12 2 14
REMARK SMILES IDX 1 15 71 16 72 17 80 18 73 19 75 20 74 21 76 22 77 23 78 24
REMARK SMILES IDX 79 25 9 26 10 27 11 28 12 30 13 31 14 32 66 33 15 34 65 35
REMARK SMILES IDX 16 36 17 37 18 38 59 39 19 40 64 41 58 42 60 43 20 44 63 45
REMARK SMILES IDX 57 46 56 47 21 49 47 50 30 51 46 52 31 53 34 54 45 55 61 56
REMARK SMILES IDX 32 57 33 58 44 60 62 61 35 62 22 63 23 64 28 65 24 66 25 67
REMARK SMILES IDX 27 68 29 69 26 70 48 71 49 72 54 73 50 74 51 75 53 76 55 77
REMARK SMILES IDX 52 78 36 79 37 80 42 81 38 82 39 83 41 84 43 85 40 86
REMARK H PARENT 6 6 70 13 10 29 60 48 34 59
REMARK Flexibility Score: inf
ROOT
ATOM      1  C   UNL A   1      37.812  19.701  24.997  1.00  0.00     0.042 C 
ENDROOT
BRANCH   1   2
ATOM      2  C   UNL A   1      36.655  20.682  24.935  1.00  0.00     0.117 C 
BRANCH   2   3
ATOM      3  N   UNL A   1      36.894  21.767  23.993  1.00  0.00    -0.355 N 
ATOM      4  C   UNL A   1      36.157  22.860  23.644  1.00  0.00     0.231 C 
ATOM      5  O   UNL A   1      36.725  23.664  22.902  1.00  0.00    -0.274 OA
ATOM      6  H   UNL A   1      37.753  21.697  23.516  1.00  0.00     0.163 HD
BRANCH   4   7
ATOM      7  C   UNL A   1      34.727  23.090  24.183  1.00  0.00     0.098 C 
ATOM      8  C   UNL A   1      34.647  22.697  25.679  1.00  0.00     0.028 C 
ATOM      9  C   UNL A   1      34.413  24.601  23.930  1.00  0.00     0.279 C 
ATOM     10  C   UNL A   1      33.477  23.362  26.391  1.00  0.00     0.063 C 
ATOM     11  N   UNL A   1      33.404  25.248  24.787  1.00  0.00    -0.332 N 
ATOM     12  C   UNL A   1      33.511  24.871  26.199  1.00  0.00     0.262 C 
ATOM     13  H   UNL A   1      32.491  24.889  24.507  1.00  0.00     0.348 HD
BRANCH   7  14
ATOM     14  C   UNL A   1      33.675  22.251  23.380  1.00  0.00     0.019 C 
ATOM     15  C   UNL A   1      33.010  22.927  22.180  1.00  0.00     0.005 C 
ENDBRANCH   7  14
BRANCH  11  16
ATOM     16  C   UNL A   1      33.374  26.720  24.554  1.00  0.00     0.185 C 
ATOM     17  C   UNL A   1      33.702  27.586  25.793  1.00  0.00     0.065 C 
ATOM     18  C   UNL A   1      32.031  27.137  23.934  1.00  0.00     0.084 C 
ATOM     19  C   UNL A   1      33.642  29.076  25.474  1.00  0.00     0.007 C 
ATOM     20  C   UNL A   1      31.924  28.648  23.674  1.00  0.00     0.114 C 
ATOM     21  C   UNL A   1      32.277  29.462  24.921  1.00  0.00     0.020 C 
BRANCH  20  22
ATOM     22  S   UNL A   1      30.252  29.013  23.093  1.00  0.00     0.150 S 
ATOM     23  C   UNL A   1      29.301  27.567  23.489  1.00  0.00     0.158 C 
ATOM     24  O   UNL A   1      29.730  30.094  23.909  1.00  0.00    -0.229 OA
ATOM     25  O   UNL A   1      30.283  29.126  21.648  1.00  0.00    -0.229 OA
ENDBRANCH  20  22
ENDBRANCH  11  16
ENDBRANCH   4   7
ENDBRANCH   2   3
ENDBRANCH   1   2
BRANCH   1  26
ATOM     26  C   UNL A   1      39.022  20.245  25.738  1.00  0.00     0.118 C 
BRANCH  26  27
ATOM     27  N   UNL A   1      40.122  19.290  25.794  1.00  0.00    -0.352 N 
ATOM     28  C   UNL A   1      41.450  19.495  26.078  1.00  0.00     0.251 C 
ATOM     29  H   UNL A   1      39.876  18.357  25.599  1.00  0.00     0.163 HD
ATOM     30  O   UNL A   1      42.265  18.599  25.885  1.00  0.00    -0.269 OA
BRANCH  28  31
ATOM     31  C   UNL A   1      41.896  20.806  26.591  1.00  0.00     0.039 A 
ATOM     32  C   UNL A   1      42.296  21.790  25.685  1.00  0.00     0.014 A 
ATOM     33  C   UNL A   1      41.903  21.070  27.963  1.00  0.00     0.014 A 
ATOM     34  C   UNL A   1      42.625  23.064  26.153  1.00  0.00     0.010 A 
ATOM     35  C   UNL A   1      42.126  22.364  28.416  1.00  0.00     0.010 A 
ATOM     36  C   UNL A   1      42.497  23.374  27.517  1.00  0.00    -0.014 A 
BRANCH  36  37
ATOM     37  C   UNL A   1      42.752  24.745  28.027  1.00  0.00     0.031 A 
ATOM     38  C   UNL A   1      44.141  25.144  28.451  1.00  0.00     0.074 A 
ATOM     39  C   UNL A   1      41.726  25.605  28.173  1.00  0.00     0.049 A 
ATOM     40  N   UNL A   1      44.551  26.264  28.987  1.00  0.00    -0.248 NA
ATOM     41  C   UNL A   1      45.205  24.141  28.277  1.00  0.00     0.031 C 
ATOM     42  C   UNL A   1      40.326  25.321  27.846  1.00  0.00     0.029 A 
ATOM     43  N   UNL A   1      41.698  26.894  28.644  1.00  0.00    -0.354 N 
ATOM     44  C   UNL A   1      45.908  26.093  29.231  1.00  0.00     0.074 A 
ATOM     45  C   UNL A   1      46.243  24.743  28.837  1.00  0.00     0.031 C 
ATOM     46  C   UNL A   1      39.585  26.413  28.094  1.00  0.00     0.029 A 
ATOM     47  C   UNL A   1      40.444  27.457  28.641  1.00  0.00     0.049 A 
ATOM     48  H   UNL A   1      42.502  27.371  28.953  1.00  0.00     0.167 HD
ATOM     49  C   UNL A   1      46.799  26.989  29.716  1.00  0.00     0.037 A 
ATOM     50  C   UNL A   1      40.034  28.675  29.044  1.00  0.00     0.037 A 
ATOM     51  C   UNL A   1      46.469  28.341  30.076  1.00  0.00     0.049 A 
ATOM     52  C   UNL A   1      41.047  29.644  29.593  1.00  0.00     0.074 A 
ATOM     53  C   UNL A   1      47.315  29.347  30.508  1.00  0.00     0.029 A 
ATOM     54  N   UNL A   1      45.190  28.876  30.048  1.00  0.00    -0.354 N 
ATOM     55  N   UNL A   1      42.340  29.494  29.741  1.00  0.00    -0.248 NA
ATOM     56  C   UNL A   1      40.540  30.953  30.027  1.00  0.00     0.031 C 
ATOM     57  C   UNL A   1      46.541  30.475  30.797  1.00  0.00     0.029 A 
ATOM     58  C   UNL A   1      45.220  30.190  30.485  1.00  0.00     0.049 A 
ATOM     59  H   UNL A   1      44.382  28.394  29.761  1.00  0.00     0.167 HD
ATOM     60  C   UNL A   1      42.807  30.700  30.247  1.00  0.00     0.074 A 
ATOM     61  C   UNL A   1      41.660  31.574  30.369  1.00  0.00     0.031 C 
ATOM     62  C   UNL A   1      44.072  31.053  30.583  1.00  0.00     0.037 A 
BRANCH  49  63
ATOM     63  C   UNL A   1      48.221  26.538  29.886  1.00  0.00     0.057 A 
ATOM     64  C   UNL A   1      48.661  25.885  31.046  1.00  0.00     0.134 A 
ATOM     65  C   UNL A   1      49.151  26.708  28.851  1.00  0.00     0.134 A 
ATOM     66  F   UNL A   1      47.826  25.701  32.080  1.00  0.00    -0.206 F 
ATOM     67  C   UNL A   1      49.976  25.435  31.178  1.00  0.00     0.040 A 
ATOM     68  C   UNL A   1      50.459  26.236  28.959  1.00  0.00     0.040 A 
ATOM     69  F   UNL A   1      48.797  27.319  27.710  1.00  0.00    -0.206 F 
ATOM     70  C   UNL A   1      50.876  25.601  30.127  1.00  0.00     0.006 A 
ENDBRANCH  49  63
BRANCH  50  71
ATOM     71  C   UNL A   1      38.603  29.063  28.935  1.00  0.00     0.057 A 
ATOM     72  C   UNL A   1      38.078  29.550  27.732  1.00  0.00     0.134 A 
ATOM     73  C   UNL A   1      37.737  28.995  30.034  1.00  0.00     0.134 A 
ATOM     74  F   UNL A   1      38.861  29.657  26.648  1.00  0.00    -0.206 F 
ATOM     75  C   UNL A   1      36.756  29.989  27.633  1.00  0.00     0.040 A 
ATOM     76  C   UNL A   1      36.404  29.401  29.941  1.00  0.00     0.040 A 
ATOM     77  F   UNL A   1      38.173  28.528  31.213  1.00  0.00    -0.206 F 
ATOM     78  C   UNL A   1      35.915  29.911  28.741  1.00  0.00     0.006 A 
ENDBRANCH  50  71
BRANCH  62  79
ATOM     79  C   UNL A   1      44.291  32.459  31.064  1.00  0.00     0.057 A 
ATOM     80  C   UNL A   1      44.548  33.515  30.181  1.00  0.00     0.134 A 
ATOM     81  C   UNL A   1      44.203  32.764  32.428  1.00  0.00     0.134 A 
ATOM     82  F   UNL A   1      44.657  33.289  28.863  1.00  0.00    -0.206 F 
ATOM     83  C   UNL A   1      44.737  34.819  30.641  1.00  0.00     0.040 A 
ATOM     84  C   UNL A   1      44.358  34.068  32.897  1.00  0.00     0.040 A 
ATOM     85  F   UNL A   1      43.948  31.801  33.327  1.00  0.00    -0.206 F 
ATOM     86  C   UNL A   1      44.634  35.100  32.002  1.00  0.00     0.006 A 
ENDBRANCH  62  79
ENDBRANCH  36  37
ENDBRANCH  28  31
ENDBRANCH  26  27
ENDBRANCH   1  26
TORSDOF 13
ENDMDL
MODEL 2
REMARK VINA RESULT:     -11.8      0.670      1.758
REMARK SMILES CC[C@]1(C(=O)NCCCNC(=O)c2ccc(-c3c4nc(c(-c5c(F)cccc5F)c5ccc([nH]5)c(-c5c(F)cccc5F)c5nc(c(-c6c(F)cccc6F)c6ccc3[nH]6)C=C5)C=C4)cc2)CCC[N@@H+]([C@@H]2CCC[C@H](S(C)(=O)=O)C2)C1
REMARK SMILES IDX 8 1 7 2 6 3 4 4 5 5 3 7 67 8 81 9 68 10 70 11 69 12 2 14
REMARK SMILES IDX 1 15 71 16 72 17 80 18 73 19 75 20 74 21 76 22 77 23 78 24
REMARK SMILES IDX 79 25 9 26 10 27 11 28 12 30 13 31 14 32 66 33 15 34 65 35
REMARK SMILES IDX 16 36 17 37 18 38 59 39 19 40 64 41 58 42 60 43 20 44 63 45
REMARK SMILES IDX 57 46 56 47 21 49 47 50 30 51 46 52 31 53 34 54 45 55 61 56
REMARK SMILES IDX 32 57 33 58 44 60 62 61 35 62 22 63 23 64 28 65 24 66 25 67
REMARK SMILES IDX 27 68 29 69 26 70 48 71 49 72 54 73 50 74 51 75 53 76 55 77
REMARK SMILES IDX 52 78 36 79 37 80 42 81 38 82 39 83 41 84 43 85 40 86
REMARK H PARENT 6 6 70 13 10 29 60 48 34 59
REMARK Flexibility Score: inf
ROOT
ATOM      1  C   UNL A   1      37.764  19.781  24.982  1.00  0.00     0.042 C 
ENDROOT
BRANCH   1   2
ATOM      2  C   UNL A   1      36.642  20.797  24.869  1.00  0.00     0.117 C 
BRANCH   2   3
ATOM      3  N   UNL A   1      37.057  22.133  25.273  1.00  0.00    -0.355 N 
ATOM      4  C   UNL A   1      36.358  23.277  25.525  1.00  0.00     0.231 C 
ATOM      5  O   UNL A   1      37.019  24.208  25.987  1.00  0.00    -0.274 OA
ATOM      6  H   UNL A   1      38.031  22.230  25.387  1.00  0.00     0.163 HD
BRANCH   4   7
ATOM      7  C   UNL A   1      34.834  23.374  25.287  1.00  0.00     0.098 C 
ATOM      8  C   UNL A   1      34.063  22.957  26.565  1.00  0.00     0.028 C 
ATOM      9  C   UNL A   1      34.560  24.855  24.864  1.00  0.00     0.279 C 
ATOM     10  C   UNL A   1      32.644  23.507  26.591  1.00  0.00     0.063 C 
ATOM     11  N   UNL A   1      33.212  25.400  25.097  1.00  0.00    -0.332 N 
ATOM     12  C   UNL A   1      32.643  25.016  26.392  1.00  0.00     0.262 C 
ATOM     13  H   UNL A   1      32.586  24.966  24.418  1.00  0.00     0.348 HD
BRANCH   7  14
ATOM     14  C   UNL A   1      34.385  22.456  24.100  1.00  0.00     0.019 C 
ATOM     15  C   UNL A   1      34.046  23.142  22.775  1.00  0.00     0.005 C 
ENDBRANCH   7  14
BRANCH  11  16
ATOM     16  C   UNL A   1      33.178  26.866  24.833  1.00  0.00     0.185 C 
ATOM     17  C   UNL A   1      33.375  27.761  26.078  1.00  0.00     0.065 C 
ATOM     18  C   UNL A   1      31.891  27.246  24.083  1.00  0.00     0.084 C 
ATOM     19  C   UNL A   1      33.319  29.243  25.725  1.00  0.00     0.007 C 
ATOM     20  C   UNL A   1      31.782  28.749  23.783  1.00  0.00     0.114 C 
ATOM     21  C   UNL A   1      32.004  29.593  25.040  1.00  0.00     0.020 C 
BRANCH  20  22
ATOM     22  S   UNL A   1      30.165  29.070  23.043  1.00  0.00     0.150 S 
ATOM     23  C   UNL A   1      29.591  30.559  23.821  1.00  0.00     0.158 C 
ATOM     24  O   UNL A   1      30.379  29.386  21.641  1.00  0.00    -0.229 OA
ATOM     25  O   UNL A   1      29.263  28.004  23.430  1.00  0.00    -0.229 OA
ENDBRANCH  20  22
ENDBRANCH  11  16
ENDBRANCH   4   7
ENDBRANCH   2   3
ENDBRANCH   1   2
BRANCH   1  26
ATOM     26  C   UNL A   1      38.973  20.303  25.739  1.00  0.00     0.118 C 
BRANCH  26  27
ATOM     27  N   UNL A   1      40.060  19.333  25.799  1.00  0.00    -0.352 N 
ATOM     28  C   UNL A   1      41.390  19.520  26.085  1.00  0.00     0.251 C 
ATOM     29  H   UNL A   1      39.801  18.403  25.605  1.00  0.00     0.163 HD
ATOM     30  O   UNL A   1      42.192  18.612  25.896  1.00  0.00    -0.269 OA
BRANCH  28  31
ATOM     31  C   UNL A   1      41.854  20.825  26.597  1.00  0.00     0.039 A 
ATOM     32  C   UNL A   1      42.317  21.783  25.694  1.00  0.00     0.014 A 
ATOM     33  C   UNL A   1      41.814  21.110  27.964  1.00  0.00     0.014 A 
ATOM     34  C   UNL A   1      42.664  23.054  26.155  1.00  0.00     0.010 A 
ATOM     35  C   UNL A   1      42.057  22.404  28.407  1.00  0.00     0.010 A 
ATOM     36  C   UNL A   1      42.493  23.389  27.509  1.00  0.00    -0.014 A 
BRANCH  36  37
ATOM     37  C   UNL A   1      42.767  24.760  28.009  1.00  0.00     0.031 A 
ATOM     38  C   UNL A   1      44.163  25.145  28.421  1.00  0.00     0.074 A 
ATOM     39  C   UNL A   1      41.752  25.633  28.158  1.00  0.00     0.049 A 
ATOM     40  N   UNL A   1      44.590  26.264  28.948  1.00  0.00    -0.248 NA
ATOM     41  C   UNL A   1      45.214  24.128  28.245  1.00  0.00     0.031 C 
ATOM     42  C   UNL A   1      40.347  25.364  27.842  1.00  0.00     0.029 A 
ATOM     43  N   UNL A   1      41.743  26.925  28.620  1.00  0.00    -0.354 N 
ATOM     44  C   UNL A   1      45.947  26.078  29.183  1.00  0.00     0.074 A 
ATOM     45  C   UNL A   1      46.263  24.722  28.795  1.00  0.00     0.031 C 
ATOM     46  C   UNL A   1      39.620  26.465  28.088  1.00  0.00     0.029 A 
ATOM     47  C   UNL A   1      40.495  27.503  28.623  1.00  0.00     0.049 A 
ATOM     48  H   UNL A   1      42.554  27.395  28.921  1.00  0.00     0.167 HD
ATOM     49  C   UNL A   1      46.852  26.966  29.657  1.00  0.00     0.037 A 
ATOM     50  C   UNL A   1      40.102  28.727  29.022  1.00  0.00     0.037 A 
ATOM     51  C   UNL A   1      46.540  28.325  30.011  1.00  0.00     0.049 A 
ATOM     52  C   UNL A   1      41.130  29.688  29.557  1.00  0.00     0.074 A 
ATOM     53  C   UNL A   1      47.401  29.323  30.430  1.00  0.00     0.029 A 
ATOM     54  N   UNL A   1      45.267  28.874  29.989  1.00  0.00    -0.354 N 
ATOM     55  N   UNL A   1      42.423  29.523  29.697  1.00  0.00    -0.248 NA
ATOM     56  C   UNL A   1      40.642  31.005  29.988  1.00  0.00     0.031 C 
ATOM     57  C   UNL A   1      46.642  30.461  30.718  1.00  0.00     0.029 A 
ATOM     58  C   UNL A   1      45.316  30.190  30.417  1.00  0.00     0.049 A 
ATOM     59  H   UNL A   1      44.451  28.400  29.710  1.00  0.00     0.167 HD
ATOM     60  C   UNL A   1      42.907  30.727  30.193  1.00  0.00     0.074 A 
ATOM     61  C   UNL A   1      41.771  31.615  30.317  1.00  0.00     0.031 C 
ATOM     62  C   UNL A   1      44.178  31.067  30.518  1.00  0.00     0.037 A 
BRANCH  49  63
ATOM     63  C   UNL A   1      48.270  26.499  29.819  1.00  0.00     0.057 A 
ATOM     64  C   UNL A   1      49.238  26.706  28.827  1.00  0.00     0.134 A 
ATOM     65  C   UNL A   1      48.687  25.888  31.009  1.00  0.00     0.134 A 
ATOM     66  F   UNL A   1      48.903  27.275  27.658  1.00  0.00    -0.206 F 
ATOM     67  C   UNL A   1      50.563  26.303  29.003  1.00  0.00     0.040 A 
ATOM     68  C   UNL A   1      50.014  25.508  31.209  1.00  0.00     0.040 A 
ATOM     69  F   UNL A   1      47.814  25.664  32.003  1.00  0.00    -0.206 F 
ATOM     70  C   UNL A   1      50.956  25.712  30.202  1.00  0.00     0.006 A 
ENDBRANCH  49  63
BRANCH  50  71
ATOM     71  C   UNL A   1      38.675  29.132  28.920  1.00  0.00     0.057 A 
ATOM     72  C   UNL A   1      37.818  29.036  30.024  1.00  0.00     0.134 A 
ATOM     73  C   UNL A   1      38.123  29.583  27.715  1.00  0.00     0.134 A 
ATOM     74  F   UNL A   1      38.282  28.592  31.201  1.00  0.00    -0.206 F 
ATOM     75  C   UNL A   1      36.460  29.341  29.926  1.00  0.00     0.040 A 
ATOM     76  C   UNL A   1      36.772  29.922  27.611  1.00  0.00     0.040 A 
ATOM     77  F   UNL A   1      38.890  29.708  26.622  1.00  0.00    -0.206 F 
ATOM     78  C   UNL A   1      35.934  29.788  28.716  1.00  0.00     0.006 A 
ENDBRANCH  50  71
BRANCH  62  79
ATOM     79  C   UNL A   1      44.417  32.473  30.989  1.00  0.00     0.057 A 
ATOM     80  C   UNL A   1      44.408  32.814  32.347  1.00  0.00     0.134 A 
ATOM     81  C   UNL A   1      44.702  33.490  30.069  1.00  0.00     0.134 A 
ATOM     82  F   UNL A   1      44.131  31.889  33.279  1.00  0.00    -0.206 F 
ATOM     83  C   UNL A   1      44.646  34.123  32.771  1.00  0.00     0.040 A 
ATOM     84  C   UNL A   1      44.972  34.795  30.482  1.00  0.00     0.040 A 
ATOM     85  F   UNL A   1      44.737  33.229  28.753  1.00  0.00    -0.206 F 
ATOM     86  C   UNL A   1      44.937  35.116  31.837  1.00  0.00     0.006 A 
ENDBRANCH  62  79
ENDBRANCH  36  37
ENDBRANCH  28  31
ENDBRANCH  26  27
ENDBRANCH   1  26
TORSDOF 13
ENDMDL
MODEL 3
REMARK VINA RESULT:     -11.7      1.488      6.285
REMARK SMILES CC[C@]1(C(=O)NCCCNC(=O)c2ccc(-c3c4nc(c(-c5c(F)cccc5F)c5ccc([nH]5)c(-c5c(F)cccc5F)c5nc(c(-c6c(F)cccc6F)c6ccc3[nH]6)C=C5)C=C4)cc2)CCC[N@@H+]([C@@H]2CCC[C@H](S(C)(=O)=O)C2)C1
REMARK SMILES IDX 8 1 7 2 6 3 4 4 5 5 3 7 67 8 81 9 68 10 70 11 69 12 2 14
REMARK SMILES IDX 1 15 71 16 72 17 80 18 73 19 75 20 74 21 76 22 77 23 78 24
REMARK SMILES IDX 79 25 9 26 10 27 11 28 12 30 13 31 14 32 66 33 15 34 65 35
REMARK SMILES IDX 16 36 17 37 18 38 59 39 19 40 64 41 58 42 60 43 20 44 63 45
REMARK SMILES IDX 57 46 56 47 21 49 47 50 30 51 46 52 31 53 34 54 45 55 61 56
REMARK SMILES IDX 32 57 33 58 44 60 62 61 35 62 22 63 23 64 28 65 24 66 25 67
REMARK SMILES IDX 27 68 29 69 26 70 48 71 49 72 54 73 50 74 51 75 53 76 55 77
REMARK SMILES IDX 52 78 36 79 37 80 42 81 38 82 39 83 41 84 43 85 40 86
REMARK H PARENT 6 6 70 13 10 29 60 48 34 59
REMARK Flexibility Score: inf
ROOT
ATOM      1  C   UNL A   1      37.618  19.847  25.001  1.00  0.00     0.042 C 
ENDROOT
BRANCH   1   2
ATOM      2  C   UNL A   1      36.451  20.766  25.316  1.00  0.00     0.117 C 
BRANCH   2   3
ATOM      3  N   UNL A   1      36.878  22.125  25.618  1.00  0.00    -0.355 N 
ATOM      4  C   UNL A   1      36.197  23.303  25.708  1.00  0.00     0.231 C 
ATOM      5  O   UNL A   1      36.853  24.260  26.124  1.00  0.00    -0.274 OA
ATOM      6  H   UNL A   1      37.844  22.209  25.789  1.00  0.00     0.163 HD
BRANCH   4   7
ATOM      7  C   UNL A   1      34.696  23.411  25.357  1.00  0.00     0.098 C 
ATOM      8  C   UNL A   1      33.829  22.954  26.556  1.00  0.00     0.028 C 
ATOM      9  C   UNL A   1      34.456  24.906  24.963  1.00  0.00     0.279 C 
ATOM     10  C   UNL A   1      32.412  23.506  26.491  1.00  0.00     0.063 C 
ATOM     11  N   UNL A   1      33.093  25.446  25.108  1.00  0.00    -0.332 N 
ATOM     12  C   UNL A   1      32.426  25.021  26.342  1.00  0.00     0.262 C 
ATOM     13  H   UNL A   1      32.523  25.036  24.369  1.00  0.00     0.348 HD
BRANCH   7  14
ATOM     14  C   UNL A   1      34.341  22.534  24.108  1.00  0.00     0.019 C 
ATOM     15  C   UNL A   1      34.280  23.240  22.752  1.00  0.00     0.005 C 
ENDBRANCH   7  14
BRANCH  11  16
ATOM     16  C   UNL A   1      33.079  26.920  24.890  1.00  0.00     0.185 C 
ATOM     17  C   UNL A   1      33.276  27.773  26.166  1.00  0.00     0.065 C 
ATOM     18  C   UNL A   1      31.804  27.340  24.141  1.00  0.00     0.084 C 
ATOM     19  C   UNL A   1      33.241  29.266  25.859  1.00  0.00     0.007 C 
ATOM     20  C   UNL A   1      31.717  28.852  23.889  1.00  0.00     0.114 C 
ATOM     21  C   UNL A   1      31.937  29.654  25.173  1.00  0.00     0.020 C 
BRANCH  20  22
ATOM     22  S   UNL A   1      30.111  29.217  23.144  1.00  0.00     0.150 S 
ATOM     23  C   UNL A   1      29.108  27.795  23.494  1.00  0.00     0.158 C 
ATOM     24  O   UNL A   1      29.531  30.330  23.875  1.00  0.00    -0.229 OA
ATOM     25  O   UNL A   1      30.277  29.286  21.705  1.00  0.00    -0.229 OA
ENDBRANCH  20  22
ENDBRANCH  11  16
ENDBRANCH   4   7
ENDBRANCH   2   3
ENDBRANCH   1   2
BRANCH   1  26
ATOM     26  C   UNL A   1      38.924  20.294  25.636  1.00  0.00     0.118 C 
BRANCH  26  27
ATOM     27  N   UNL A   1      39.879  19.202  25.783  1.00  0.00    -0.352 N 
ATOM     28  C   UNL A   1      41.230  19.245  26.028  1.00  0.00     0.251 C 
ATOM     29  H   UNL A   1      39.499  18.299  25.692  1.00  0.00     0.163 HD
ATOM     30  O   UNL A   1      41.905  18.226  25.924  1.00  0.00    -0.269 OA
BRANCH  28  31
ATOM     31  C   UNL A   1      41.870  20.525  26.391  1.00  0.00     0.039 A 
ATOM     32  C   UNL A   1      42.286  21.389  25.376  1.00  0.00     0.014 A 
ATOM     33  C   UNL A   1      42.043  20.881  27.731  1.00  0.00     0.014 A 
ATOM     34  C   UNL A   1      42.801  22.643  25.708  1.00  0.00     0.010 A 
ATOM     35  C   UNL A   1      42.455  22.167  28.056  1.00  0.00     0.010 A 
ATOM     36  C   UNL A   1      42.846  23.061  27.049  1.00  0.00    -0.014 A 
BRANCH  36  37
ATOM     37  C   UNL A   1      43.304  24.423  27.421  1.00  0.00     0.031 A 
ATOM     38  C   UNL A   1      42.301  25.466  27.835  1.00  0.00     0.074 A 
ATOM     39  C   UNL A   1      44.609  24.740  27.319  1.00  0.00     0.049 A 
ATOM     40  N   UNL A   1      42.493  26.727  28.126  1.00  0.00    -0.248 NA
ATOM     41  C   UNL A   1      40.891  25.046  27.904  1.00  0.00     0.031 C 
ATOM     42  C   UNL A   1      45.673  23.833  26.881  1.00  0.00     0.029 A 
ATOM     43  N   UNL A   1      45.266  25.919  27.570  1.00  0.00    -0.354 N 
ATOM     44  C   UNL A   1      41.233  27.251  28.390  1.00  0.00     0.074 A 
ATOM     45  C   UNL A   1      40.278  26.188  28.172  1.00  0.00     0.031 C 
ATOM     46  C   UNL A   1      46.850  24.478  26.926  1.00  0.00     0.029 A 
ATOM     47  C   UNL A   1      46.621  25.855  27.349  1.00  0.00     0.049 A 
ATOM     48  H   UNL A   1      44.809  26.734  27.880  1.00  0.00     0.167 HD
ATOM     49  C   UNL A   1      40.906  28.498  28.802  1.00  0.00     0.037 A 
ATOM     50  C   UNL A   1      47.570  26.804  27.466  1.00  0.00     0.037 A 
ATOM     51  C   UNL A   1      41.863  29.543  29.050  1.00  0.00     0.049 A 
ATOM     52  C   UNL A   1      47.172  28.185  27.912  1.00  0.00     0.074 A 
ATOM     53  C   UNL A   1      41.636  30.817  29.539  1.00  0.00     0.029 A 
ATOM     54  N   UNL A   1      43.226  29.435  28.825  1.00  0.00    -0.354 N 
ATOM     55  N   UNL A   1      45.987  28.641  28.236  1.00  0.00    -0.248 NA
ATOM     56  C   UNL A   1      48.247  29.182  28.011  1.00  0.00     0.031 C 
ATOM     57  C   UNL A   1      42.856  31.500  29.556  1.00  0.00     0.029 A 
ATOM     58  C   UNL A   1      43.851  30.631  29.137  1.00  0.00     0.049 A 
ATOM     59  H   UNL A   1      43.683  28.628  28.494  1.00  0.00     0.167 HD
ATOM     60  C   UNL A   1      46.180  29.964  28.615  1.00  0.00     0.074 A 
ATOM     61  C   UNL A   1      47.597  30.232  28.492  1.00  0.00     0.031 C 
ATOM     62  C   UNL A   1      45.266  30.876  29.026  1.00  0.00     0.037 A 
BRANCH  49  63
ATOM     63  C   UNL A   1      39.451  28.805  29.014  1.00  0.00     0.057 A 
ATOM     64  C   UNL A   1      38.829  28.629  30.257  1.00  0.00     0.134 A 
ATOM     65  C   UNL A   1      38.677  29.339  27.975  1.00  0.00     0.134 A 
ATOM     66  F   UNL A   1      39.509  28.110  31.291  1.00  0.00    -0.206 F 
ATOM     67  C   UNL A   1      37.485  28.954  30.454  1.00  0.00     0.040 A 
ATOM     68  C   UNL A   1      37.342  29.696  28.168  1.00  0.00     0.040 A 
ATOM     69  F   UNL A   1      39.210  29.539  26.760  1.00  0.00    -0.206 F 
ATOM     70  C   UNL A   1      36.742  29.499  29.409  1.00  0.00     0.006 A 
ENDBRANCH  49  63
BRANCH  50  71
ATOM     71  C   UNL A   1      48.993  26.488  27.173  1.00  0.00     0.057 A 
ATOM     72  C   UNL A   1      49.499  26.585  25.871  1.00  0.00     0.134 A 
ATOM     73  C   UNL A   1      49.868  26.044  28.172  1.00  0.00     0.134 A 
ATOM     74  F   UNL A   1      48.707  26.986  24.866  1.00  0.00    -0.206 F 
ATOM     75  C   UNL A   1      50.812  26.221  25.566  1.00  0.00     0.040 A 
ATOM     76  C   UNL A   1      51.193  25.706  27.887  1.00  0.00     0.040 A 
ATOM     77  F   UNL A   1      49.449  25.938  29.442  1.00  0.00    -0.206 F 
ATOM     78  C   UNL A   1      51.664  25.783  26.578  1.00  0.00     0.006 A 
ENDBRANCH  50  71
BRANCH  62  79
ATOM     79  C   UNL A   1      45.774  32.232  29.424  1.00  0.00     0.057 A 
ATOM     80  C   UNL A   1      46.204  32.512  30.726  1.00  0.00     0.134 A 
ATOM     81  C   UNL A   1      45.872  33.259  28.476  1.00  0.00     0.134 A 
ATOM     82  F   UNL A   1      46.127  31.576  31.685  1.00  0.00    -0.206 F 
ATOM     83  C   UNL A   1      46.688  33.773  31.079  1.00  0.00     0.040 A 
ATOM     84  C   UNL A   1      46.382  34.513  28.808  1.00  0.00     0.040 A 
ATOM     85  F   UNL A   1      45.487  33.054  27.207  1.00  0.00    -0.206 F 
ATOM     86  C   UNL A   1      46.785  34.776  30.116  1.00  0.00     0.006 A 
ENDBRANCH  62  79
ENDBRANCH  36  37
ENDBRANCH  28  31
ENDBRANCH  26  27
ENDBRANCH   1  26
TORSDOF 13
ENDMDL
