MODEL 1
REMARK VINA RESULT:     -11.5      0.000      0.000
REMARK SMILES N#Cc1ccc(Sc2csc(C(=O)NCCCNC(=O)c3ccc(-c4c5nc(c(-c6c(F)cccc6F)c6ccc([nH]6)c(-c6c(F)cccc6F)c6nc(c(-c7c(F)cccc7F)c7ccc4[nH]7)C=C6)C=C5)cc3)c2)c(F)c1
REMARK SMILES IDX 15 1 14 2 12 3 13 4 11 6 8 7 9 8 75 9 10 10 7 11 6 12 3 13
REMARK SMILES IDX 4 14 78 15 5 16 76 17 77 18 2 19 1 20 16 21 17 22 18 23
REMARK SMILES IDX 19 24 20 26 21 27 22 28 74 29 23 30 73 31 24 32 25 33 26 34
REMARK SMILES IDX 67 35 27 36 72 37 66 38 68 39 28 40 71 41 65 42 64 43 29 45
REMARK SMILES IDX 55 46 38 47 54 48 39 49 42 50 53 51 69 52 40 53 41 54 52 56
REMARK SMILES IDX 70 57 43 58 30 59 31 60 36 61 32 62 33 63 35 64 37 65 34 66
REMARK SMILES IDX 56 67 57 68 62 69 58 70 59 71 61 72 63 73 60 74 44 75 45 76
REMARK SMILES IDX 50 77 46 78 47 79 49 80 51 81 48 82
REMARK H PARENT 14 5 18 25 68 44 42 55
REMARK Flexibility Score: inf
ROOT
ATOM      1  C   UNL A   1      36.412  20.549  25.000  1.00  0.00     0.118 C 
ENDROOT
BRANCH   1   2
ATOM      2  N   UNL A   1      35.204  19.748  25.003  1.00  0.00    -0.351 N 
ATOM      3  C   UNL A   1      33.885  20.054  25.235  1.00  0.00     0.261 C 
ATOM      4  O   UNL A   1      33.109  19.101  25.123  1.00  0.00    -0.268 OA
ATOM      5  H   UNL A   1      35.360  18.798  24.799  1.00  0.00     0.163 HD
BRANCH   3   6
ATOM      6  C   UNL A   1      33.453  21.409  25.550  1.00  0.00     0.093 A 
ATOM      7  C   UNL A   1      32.496  23.541  25.552  1.00  0.00     0.024 A 
ATOM      8  C   UNL A   1      32.814  23.412  26.881  1.00  0.00     0.081 A 
ATOM      9  C   UNL A   1      32.935  22.433  24.777  1.00  0.00     0.041 A 
ATOM     10  S   UNL A   1      33.602  21.929  27.192  1.00  0.00    -0.137 S 
BRANCH   7  11
ATOM     11  S   UNL A   1      31.584  24.861  24.856  1.00  0.00    -0.086 SA
BRANCH  11  12
ATOM     12  C   UNL A   1      32.153  26.339  25.672  1.00  0.00     0.048 A 
ATOM     13  C   UNL A   1      33.144  28.747  26.758  1.00  0.00     0.055 A 
ATOM     14  C   UNL A   1      31.878  28.275  27.121  1.00  0.00     0.021 A 
ATOM     15  C   UNL A   1      33.932  28.001  25.882  1.00  0.00     0.060 A 
ATOM     16  C   UNL A   1      31.388  27.078  26.583  1.00  0.00     0.020 A 
ATOM     17  C   UNL A   1      33.433  26.813  25.352  1.00  0.00     0.138 A 
ATOM     18  F   UNL A   1      34.219  26.131  24.503  1.00  0.00    -0.206 F 
BRANCH  13  19
ATOM     19  C   UNL A   1      33.618  30.000  27.263  1.00  0.00     0.099 C 
ATOM     20  N   UNL A   1      34.015  31.013  27.668  1.00  0.00    -0.192 NA
ENDBRANCH  13  19
ENDBRANCH  11  12
ENDBRANCH   7  11
ENDBRANCH   3   6
ENDBRANCH   1   2
BRANCH   1  21
ATOM     21  C   UNL A   1      37.651  19.666  24.871  1.00  0.00     0.042 C 
BRANCH  21  22
ATOM     22  C   UNL A   1      38.829  20.181  25.700  1.00  0.00     0.118 C 
BRANCH  22  23
ATOM     23  N   UNL A   1      39.878  19.177  25.832  1.00  0.00    -0.352 N 
ATOM     24  C   UNL A   1      41.231  19.322  26.000  1.00  0.00     0.251 C 
ATOM     25  H   UNL A   1      39.564  18.245  25.797  1.00  0.00     0.163 HD
ATOM     26  O   UNL A   1      41.969  18.356  25.828  1.00  0.00    -0.269 OA
BRANCH  24  27
ATOM     27  C   UNL A   1      41.804  20.626  26.382  1.00  0.00     0.039 A 
ATOM     28  C   UNL A   1      42.180  21.520  25.376  1.00  0.00     0.014 A 
ATOM     29  C   UNL A   1      42.010  20.955  27.725  1.00  0.00     0.014 A 
ATOM     30  C   UNL A   1      42.706  22.765  25.720  1.00  0.00     0.010 A 
ATOM     31  C   UNL A   1      42.452  22.228  28.067  1.00  0.00     0.010 A 
ATOM     32  C   UNL A   1      42.811  23.145  27.068  1.00  0.00    -0.014 A 
BRANCH  32  33
ATOM     33  C   UNL A   1      43.285  24.499  27.449  1.00  0.00     0.031 A 
ATOM     34  C   UNL A   1      42.302  25.554  27.878  1.00  0.00     0.074 A 
ATOM     35  C   UNL A   1      44.596  24.794  27.347  1.00  0.00     0.049 A 
ATOM     36  N   UNL A   1      42.519  26.808  28.187  1.00  0.00    -0.248 NA
ATOM     37  C   UNL A   1      40.885  25.159  27.945  1.00  0.00     0.031 C 
ATOM     38  C   UNL A   1      45.639  23.869  26.896  1.00  0.00     0.029 A 
ATOM     39  N   UNL A   1      45.276  25.959  27.602  1.00  0.00    -0.354 N 
ATOM     40  C   UNL A   1      41.271  27.352  28.463  1.00  0.00     0.074 A 
ATOM     41  C   UNL A   1      40.295  26.309  28.243  1.00  0.00     0.031 C 
ATOM     42  C   UNL A   1      46.826  24.494  26.927  1.00  0.00     0.029 A 
ATOM     43  C   UNL A   1      46.625  25.876  27.348  1.00  0.00     0.049 A 
ATOM     44  H   UNL A   1      44.840  26.775  27.936  1.00  0.00     0.167 HD
ATOM     45  C   UNL A   1      40.972  28.605  28.878  1.00  0.00     0.037 A 
ATOM     46  C   UNL A   1      47.587  26.815  27.424  1.00  0.00     0.037 A 
ATOM     47  C   UNL A   1      41.952  29.630  29.119  1.00  0.00     0.049 A 
ATOM     48  C   UNL A   1      47.220  28.202  27.877  1.00  0.00     0.074 A 
ATOM     49  C   UNL A   1      41.755  30.907  29.618  1.00  0.00     0.029 A 
ATOM     50  N   UNL A   1      43.310  29.505  28.865  1.00  0.00    -0.354 N 
ATOM     51  N   UNL A   1      46.047  28.676  28.224  1.00  0.00    -0.248 NA
ATOM     52  C   UNL A   1      48.309  29.185  27.956  1.00  0.00     0.031 C 
ATOM     53  C   UNL A   1      42.980  31.578  29.592  1.00  0.00     0.029 A 
ATOM     54  C   UNL A   1      43.954  30.696  29.156  1.00  0.00     0.049 A 
ATOM     55  H   UNL A   1      43.749  28.691  28.529  1.00  0.00     0.167 HD
ATOM     56  C   UNL A   1      46.264  29.997  28.594  1.00  0.00     0.074 A 
ATOM     57  C   UNL A   1      47.682  30.243  28.448  1.00  0.00     0.031 C 
ATOM     58  C   UNL A   1      45.370  30.924  29.016  1.00  0.00     0.037 A 
BRANCH  45  59
ATOM     59  C   UNL A   1      39.526  28.953  29.089  1.00  0.00     0.057 A 
ATOM     60  C   UNL A   1      38.714  29.435  28.053  1.00  0.00     0.134 A 
ATOM     61  C   UNL A   1      38.918  28.730  30.332  1.00  0.00     0.134 A 
ATOM     62  F   UNL A   1      39.233  29.680  26.840  1.00  0.00    -0.206 F 
ATOM     63  C   UNL A   1      37.357  29.696  28.251  1.00  0.00     0.040 A 
ATOM     64  C   UNL A   1      37.556  28.958  30.533  1.00  0.00     0.040 A 
ATOM     65  F   UNL A   1      39.635  28.263  31.367  1.00  0.00    -0.206 F 
ATOM     66  C   UNL A   1      36.773  29.447  29.490  1.00  0.00     0.006 A 
ENDBRANCH  45  59
BRANCH  46  67
ATOM     67  C   UNL A   1      48.990  26.488  27.052  1.00  0.00     0.057 A 
ATOM     68  C   UNL A   1      49.461  26.674  25.746  1.00  0.00     0.134 A 
ATOM     69  C   UNL A   1      49.881  25.939  27.983  1.00  0.00     0.134 A 
ATOM     70  F   UNL A   1      48.654  27.182  24.804  1.00  0.00    -0.206 F 
ATOM     71  C   UNL A   1      50.749  26.289  25.371  1.00  0.00     0.040 A 
ATOM     72  C   UNL A   1      51.183  25.583  27.630  1.00  0.00     0.040 A 
ATOM     73  F   UNL A   1      49.500  25.746  29.255  1.00  0.00    -0.206 F 
ATOM     74  C   UNL A   1      51.615  25.743  26.315  1.00  0.00     0.006 A 
ENDBRANCH  46  67
BRANCH  58  75
ATOM     75  C   UNL A   1      45.903  32.275  29.400  1.00  0.00     0.057 A 
ATOM     76  C   UNL A   1      45.952  33.344  28.495  1.00  0.00     0.134 A 
ATOM     77  C   UNL A   1      46.335  32.520  30.710  1.00  0.00     0.134 A 
ATOM     78  F   UNL A   1      45.564  33.176  27.222  1.00  0.00    -0.206 F 
ATOM     79  C   UNL A   1      46.441  34.596  28.871  1.00  0.00     0.040 A 
ATOM     80  C   UNL A   1      46.791  33.778  31.108  1.00  0.00     0.040 A 
ATOM     81  F   UNL A   1      46.304  31.546  31.632  1.00  0.00    -0.206 F 
ATOM     82  C   UNL A   1      46.852  34.817  30.184  1.00  0.00     0.006 A 
ENDBRANCH  58  75
ENDBRANCH  32  33
ENDBRANCH  24  27
ENDBRANCH  22  23
ENDBRANCH  21  22
ENDBRANCH   1  21
TORSDOF 13
ENDMDL
MODEL 2
REMARK VINA RESULT:     -11.2      2.149      4.064
REMARK SMILES N#Cc1ccc(Sc2csc(C(=O)NCCCNC(=O)c3ccc(-c4c5nc(c(-c6c(F)cccc6F)c6ccc([nH]6)c(-c6c(F)cccc6F)c6nc(c(-c7c(F)cccc7F)c7ccc4[nH]7)C=C6)C=C5)cc3)c2)c(F)c1
REMARK SMILES IDX 15 1 14 2 12 3 13 4 11 6 8 7 9 8 75 9 10 10 7 11 6 12 3 13
REMARK SMILES IDX 4 14 78 15 5 16 76 17 77 18 2 19 1 20 16 21 17 22 18 23
REMARK SMILES IDX 19 24 20 26 21 27 22 28 74 29 23 30 73 31 24 32 25 33 26 34
REMARK SMILES IDX 67 35 27 36 72 37 66 38 68 39 28 40 71 41 65 42 64 43 29 45
REMARK SMILES IDX 55 46 38 47 54 48 39 49 42 50 53 51 69 52 40 53 41 54 52 56
REMARK SMILES IDX 70 57 43 58 30 59 31 60 36 61 32 62 33 63 35 64 37 65 34 66
REMARK SMILES IDX 56 67 57 68 62 69 58 70 59 71 61 72 63 73 60 74 44 75 45 76
REMARK SMILES IDX 50 77 46 78 47 79 49 80 51 81 48 82
REMARK H PARENT 14 5 18 25 68 44 42 55
REMARK Flexibility Score: inf
ROOT
ATOM      1  C   UNL A   1      37.040  20.493  25.161  1.00  0.00     0.118 C 
ENDROOT
BRANCH   1   2
ATOM      2  N   UNL A   1      37.297  21.883  25.481  1.00  0.00    -0.351 N 
ATOM      3  C   UNL A   1      36.544  23.025  25.344  1.00  0.00     0.261 C 
ATOM      4  O   UNL A   1      37.088  24.052  25.757  1.00  0.00    -0.268 OA
ATOM      5  H   UNL A   1      38.186  22.041  25.872  1.00  0.00     0.163 HD
BRANCH   3   6
ATOM      6  C   UNL A   1      35.198  22.998  24.786  1.00  0.00     0.093 A 
ATOM      7  C   UNL A   1      33.171  22.412  23.783  1.00  0.00     0.024 A 
ATOM      8  C   UNL A   1      32.805  23.571  24.421  1.00  0.00     0.081 A 
ATOM      9  C   UNL A   1      34.558  22.128  23.923  1.00  0.00     0.041 A 
ATOM     10  S   UNL A   1      34.132  24.286  25.224  1.00  0.00    -0.137 S 
BRANCH   7  11
ATOM     11  S   UNL A   1      32.079  21.330  22.950  1.00  0.00    -0.086 SA
BRANCH  11  12
ATOM     12  C   UNL A   1      32.372  19.710  23.629  1.00  0.00     0.048 A 
ATOM     13  C   UNL A   1      32.988  17.108  24.529  1.00  0.00     0.055 A 
ATOM     14  C   UNL A   1      32.825  18.153  25.444  1.00  0.00     0.021 A 
ATOM     15  C   UNL A   1      32.809  17.350  23.168  1.00  0.00     0.060 A 
ATOM     16  C   UNL A   1      32.516  19.445  24.996  1.00  0.00     0.020 A 
ATOM     17  C   UNL A   1      32.504  18.639  22.734  1.00  0.00     0.138 A 
ATOM     18  F   UNL A   1      32.351  18.831  21.414  1.00  0.00    -0.206 F 
BRANCH  13  19
ATOM     19  C   UNL A   1      33.362  15.804  24.985  1.00  0.00     0.099 C 
ATOM     20  N   UNL A   1      33.653  14.745  25.363  1.00  0.00    -0.192 NA
ENDBRANCH  13  19
ENDBRANCH  11  12
ENDBRANCH   7  11
ENDBRANCH   3   6
ENDBRANCH   1   2
BRANCH   1  21
ATOM     21  C   UNL A   1      38.346  19.727  24.971  1.00  0.00     0.042 C 
BRANCH  21  22
ATOM     22  C   UNL A   1      39.356  20.001  26.086  1.00  0.00     0.118 C 
BRANCH  22  23
ATOM     23  N   UNL A   1      40.477  19.068  26.042  1.00  0.00    -0.352 N 
ATOM     24  C   UNL A   1      41.828  19.301  26.063  1.00  0.00     0.251 C 
ATOM     25  H   UNL A   1      40.222  18.119  25.990  1.00  0.00     0.163 HD
ATOM     26  O   UNL A   1      42.602  18.399  25.755  1.00  0.00    -0.269 OA
BRANCH  24  27
ATOM     27  C   UNL A   1      42.355  20.623  26.451  1.00  0.00     0.039 A 
ATOM     28  C   UNL A   1      42.853  21.470  25.457  1.00  0.00     0.014 A 
ATOM     29  C   UNL A   1      42.398  21.014  27.792  1.00  0.00     0.014 A 
ATOM     30  C   UNL A   1      43.338  22.731  25.803  1.00  0.00     0.010 A 
ATOM     31  C   UNL A   1      42.800  22.303  28.125  1.00  0.00     0.010 A 
ATOM     32  C   UNL A   1      43.281  23.173  27.136  1.00  0.00    -0.014 A 
BRANCH  32  33
ATOM     33  C   UNL A   1      43.710  24.545  27.507  1.00  0.00     0.031 A 
ATOM     34  C   UNL A   1      42.690  25.580  27.895  1.00  0.00     0.074 A 
ATOM     35  C   UNL A   1      45.016  24.872  27.433  1.00  0.00     0.049 A 
ATOM     36  N   UNL A   1      42.867  26.843  28.191  1.00  0.00    -0.248 NA
ATOM     37  C   UNL A   1      41.282  25.149  27.934  1.00  0.00     0.031 C 
ATOM     38  C   UNL A   1      46.093  23.968  27.022  1.00  0.00     0.029 A 
ATOM     39  N   UNL A   1      45.659  26.058  27.687  1.00  0.00    -0.354 N 
ATOM     40  C   UNL A   1      41.600  27.358  28.428  1.00  0.00     0.074 A 
ATOM     41  C   UNL A   1      40.656  26.287  28.200  1.00  0.00     0.031 C 
ATOM     42  C   UNL A   1      47.262  24.624  27.073  1.00  0.00     0.029 A 
ATOM     43  C   UNL A   1      47.015  26.006  27.468  1.00  0.00     0.049 A 
ATOM     44  H   UNL A   1      45.193  26.867  27.998  1.00  0.00     0.167 HD
ATOM     45  C   UNL A   1      41.258  28.609  28.816  1.00  0.00     0.037 A 
ATOM     46  C   UNL A   1      47.951  26.970  27.554  1.00  0.00     0.037 A 
ATOM     47  C   UNL A   1      42.205  29.663  29.066  1.00  0.00     0.049 A 
ATOM     48  C   UNL A   1      47.537  28.354  27.976  1.00  0.00     0.074 A 
ATOM     49  C   UNL A   1      41.963  30.941  29.541  1.00  0.00     0.029 A 
ATOM     50  N   UNL A   1      43.571  29.569  28.847  1.00  0.00    -0.354 N 
ATOM     51  N   UNL A   1      46.344  28.802  28.286  1.00  0.00    -0.248 NA
ATOM     52  C   UNL A   1      48.598  29.366  28.067  1.00  0.00     0.031 C 
ATOM     53  C   UNL A   1      43.170  31.644  29.535  1.00  0.00     0.029 A 
ATOM     54  C   UNL A   1      44.178  30.781  29.136  1.00  0.00     0.049 A 
ATOM     55  H   UNL A   1      44.040  28.763  28.534  1.00  0.00     0.167 HD
ATOM     56  C   UNL A   1      46.518  30.134  28.642  1.00  0.00     0.074 A 
ATOM     57  C   UNL A   1      47.933  30.415  28.527  1.00  0.00     0.031 C 
ATOM     58  C   UNL A   1      45.590  31.044  29.028  1.00  0.00     0.037 A 
BRANCH  45  59
ATOM     59  C   UNL A   1      39.798  28.922  28.986  1.00  0.00     0.057 A 
ATOM     60  C   UNL A   1      38.981  29.283  27.906  1.00  0.00     0.134 A 
ATOM     61  C   UNL A   1      39.186  28.787  30.240  1.00  0.00     0.134 A 
ATOM     62  F   UNL A   1      39.503  29.441  26.680  1.00  0.00    -0.206 F 
ATOM     63  C   UNL A   1      37.613  29.513  28.071  1.00  0.00     0.040 A 
ATOM     64  C   UNL A   1      37.815  28.982  30.411  1.00  0.00     0.040 A 
ATOM     65  F   UNL A   1      39.909  28.437  31.316  1.00  0.00    -0.206 F 
ATOM     66  C   UNL A   1      37.026  29.351  29.324  1.00  0.00     0.006 A 
ENDBRANCH  45  59
BRANCH  46  67
ATOM     67  C   UNL A   1      49.370  26.675  27.221  1.00  0.00     0.057 A 
ATOM     68  C   UNL A   1      49.854  26.792  25.912  1.00  0.00     0.134 A 
ATOM     69  C   UNL A   1      50.268  26.224  28.197  1.00  0.00     0.134 A 
ATOM     70  F   UNL A   1      49.041  27.205  24.927  1.00  0.00    -0.206 F 
ATOM     71  C   UNL A   1      51.160  26.433  25.578  1.00  0.00     0.040 A 
ATOM     72  C   UNL A   1      51.588  25.897  27.885  1.00  0.00     0.040 A 
ATOM     73  F   UNL A   1      49.876  26.101  29.475  1.00  0.00    -0.206 F 
ATOM     74  C   UNL A   1      52.033  25.986  26.567  1.00  0.00     0.006 A 
ENDBRANCH  46  67
BRANCH  58  75
ATOM     75  C   UNL A   1      46.079  32.413  29.404  1.00  0.00     0.057 A 
ATOM     76  C   UNL A   1      46.490  32.728  30.706  1.00  0.00     0.134 A 
ATOM     77  C   UNL A   1      46.179  33.421  28.435  1.00  0.00     0.134 A 
ATOM     78  F   UNL A   1      46.412  31.814  31.684  1.00  0.00    -0.206 F 
ATOM     79  C   UNL A   1      46.953  34.003  31.036  1.00  0.00     0.040 A 
ATOM     80  C   UNL A   1      46.675  34.688  28.745  1.00  0.00     0.040 A 
ATOM     81  F   UNL A   1      45.815  33.185  27.166  1.00  0.00    -0.206 F 
ATOM     82  C   UNL A   1      47.055  34.984  30.052  1.00  0.00     0.006 A 
ENDBRANCH  58  75
ENDBRANCH  32  33
ENDBRANCH  24  27
ENDBRANCH  22  23
ENDBRANCH  21  22
ENDBRANCH   1  21
TORSDOF 13
ENDMDL
MODEL 3
REMARK VINA RESULT:     -11.2      4.403      9.337
REMARK SMILES N#Cc1ccc(Sc2csc(C(=O)NCCCNC(=O)c3ccc(-c4c5nc(c(-c6c(F)cccc6F)c6ccc([nH]6)c(-c6c(F)cccc6F)c6nc(c(-c7c(F)cccc7F)c7ccc4[nH]7)C=C6)C=C5)cc3)c2)c(F)c1
REMARK SMILES IDX 15 1 14 2 12 3 13 4 11 6 8 7 9 8 75 9 10 10 7 11 6 12 3 13
REMARK SMILES IDX 4 14 78 15 5 16 76 17 77 18 2 19 1 20 16 21 17 22 18 23
REMARK SMILES IDX 19 24 20 26 21 27 22 28 74 29 23 30 73 31 24 32 25 33 26 34
REMARK SMILES IDX 67 35 27 36 72 37 66 38 68 39 28 40 71 41 65 42 64 43 29 45
REMARK SMILES IDX 55 46 38 47 54 48 39 49 42 50 53 51 69 52 40 53 41 54 52 56
REMARK SMILES IDX 70 57 43 58 30 59 31 60 36 61 32 62 33 63 35 64 37 65 34 66
REMARK SMILES IDX 56 67 57 68 62 69 58 70 59 71 61 72 63 73 60 74 44 75 45 76
REMARK SMILES IDX 50 77 46 78 47 79 49 80 51 81 48 82
REMARK H PARENT 14 5 18 25 68 44 42 55
REMARK Flexibility Score: inf
ROOT
ATOM      1  C   UNL A   1      35.843  34.520  29.117  1.00  0.00     0.118 C 
ENDROOT
BRANCH   1   2
ATOM      2  N   UNL A   1      37.285  34.653  29.075  1.00  0.00    -0.351 N 
ATOM      3  C   UNL A   1      38.284  34.224  29.916  1.00  0.00     0.261 C 
ATOM      4  O   UNL A   1      39.427  34.502  29.541  1.00  0.00    -0.268 OA
ATOM      5  H   UNL A   1      37.614  35.149  28.292  1.00  0.00     0.163 HD
BRANCH   3   6
ATOM      6  C   UNL A   1      37.999  33.469  31.129  1.00  0.00     0.093 A 
ATOM      7  C   UNL A   1      37.749  31.824  32.770  1.00  0.00     0.024 A 
ATOM      8  C   UNL A   1      37.647  32.957  33.538  1.00  0.00     0.081 A 
ATOM      9  C   UNL A   1      37.867  32.116  31.383  1.00  0.00     0.041 A 
ATOM     10  S   UNL A   1      37.740  34.369  32.582  1.00  0.00    -0.137 S 
BRANCH   7  11
ATOM     11  S   UNL A   1      37.814  30.190  33.386  1.00  0.00    -0.086 SA
BRANCH  11  12
ATOM     12  C   UNL A   1      39.536  29.733  33.401  1.00  0.00     0.048 A 
ATOM     13  C   UNL A   1      42.227  28.910  33.216  1.00  0.00     0.055 A 
ATOM     14  C   UNL A   1      41.907  30.174  33.719  1.00  0.00     0.021 A 
ATOM     15  C   UNL A   1      41.205  28.040  32.839  1.00  0.00     0.060 A 
ATOM     16  C   UNL A   1      40.570  30.582  33.814  1.00  0.00     0.020 A 
ATOM     17  C   UNL A   1      39.879  28.456  32.934  1.00  0.00     0.138 A 
ATOM     18  F   UNL A   1      38.925  27.592  32.550  1.00  0.00    -0.206 F 
BRANCH  13  19
ATOM     19  C   UNL A   1      43.596  28.519  33.066  1.00  0.00     0.099 C 
ATOM     20  N   UNL A   1      44.710  28.209  32.956  1.00  0.00    -0.192 NA
ENDBRANCH  13  19
ENDBRANCH  11  12
ENDBRANCH   7  11
ENDBRANCH   3   6
ENDBRANCH   1   2
BRANCH   1  21
ATOM     21  C   UNL A   1      35.394  33.236  28.425  1.00  0.00     0.042 C 
BRANCH  21  22
ATOM     22  C   UNL A   1      34.801  32.219  29.400  1.00  0.00     0.118 C 
BRANCH  22  23
ATOM     23  N   UNL A   1      34.233  31.069  28.706  1.00  0.00    -0.352 N 
ATOM     24  C   UNL A   1      34.847  30.010  28.089  1.00  0.00     0.251 C 
ATOM     25  H   UNL A   1      33.249  31.050  28.676  1.00  0.00     0.163 HD
ATOM     26  O   UNL A   1      34.198  29.287  27.339  1.00  0.00    -0.269 OA
BRANCH  24  27
ATOM     27  C   UNL A   1      36.279  29.737  28.318  1.00  0.00     0.039 A 
ATOM     28  C   UNL A   1      36.677  29.199  29.544  1.00  0.00     0.014 A 
ATOM     29  C   UNL A   1      37.234  30.047  27.345  1.00  0.00     0.014 A 
ATOM     30  C   UNL A   1      38.024  28.917  29.770  1.00  0.00     0.010 A 
ATOM     31  C   UNL A   1      38.562  29.685  27.538  1.00  0.00     0.010 A 
ATOM     32  C   UNL A   1      38.973  29.122  28.755  1.00  0.00    -0.014 A 
BRANCH  32  33
ATOM     33  C   UNL A   1      40.396  28.744  28.948  1.00  0.00     0.031 A 
ATOM     34  C   UNL A   1      41.383  29.748  29.478  1.00  0.00     0.074 A 
ATOM     35  C   UNL A   1      40.808  27.513  28.585  1.00  0.00     0.049 A 
ATOM     36  N   UNL A   1      42.674  29.622  29.655  1.00  0.00    -0.248 NA
ATOM     37  C   UNL A   1      40.858  31.077  29.833  1.00  0.00     0.031 C 
ATOM     38  C   UNL A   1      39.953  26.469  28.013  1.00  0.00     0.029 A 
ATOM     39  N   UNL A   1      42.051  26.934  28.629  1.00  0.00    -0.354 N 
ATOM     40  C   UNL A   1      43.115  30.854  30.120  1.00  0.00     0.074 A 
ATOM     41  C   UNL A   1      41.966  31.730  30.156  1.00  0.00     0.031 C 
ATOM     42  C   UNL A   1      40.692  25.373  27.781  1.00  0.00     0.029 A 
ATOM     43  C   UNL A   1      42.079  25.650  28.136  1.00  0.00     0.049 A 
ATOM     44  H   UNL A   1      42.847  27.393  28.982  1.00  0.00     0.167 HD
ATOM     45  C   UNL A   1      44.364  31.214  30.496  1.00  0.00     0.037 A 
ATOM     46  C   UNL A   1      43.111  24.802  27.969  1.00  0.00     0.037 A 
ATOM     47  C   UNL A   1      45.498  30.328  30.480  1.00  0.00     0.049 A 
ATOM     48  C   UNL A   1      44.490  25.237  28.386  1.00  0.00     0.074 A 
ATOM     49  C   UNL A   1      46.788  30.576  30.919  1.00  0.00     0.029 A 
ATOM     50  N   UNL A   1      45.484  29.032  29.989  1.00  0.00    -0.354 N 
ATOM     51  N   UNL A   1      44.875  26.376  28.910  1.00  0.00    -0.248 NA
ATOM     52  C   UNL A   1      45.578  24.268  28.195  1.00  0.00     0.031 C 
ATOM     53  C   UNL A   1      47.571  29.459  30.621  1.00  0.00     0.029 A 
ATOM     54  C   UNL A   1      46.754  28.484  30.074  1.00  0.00     0.049 A 
ATOM     55  H   UNL A   1      44.692  28.570  29.633  1.00  0.00     0.167 HD
ATOM     56  C   UNL A   1      46.238  26.246  29.143  1.00  0.00     0.074 A 
ATOM     57  C   UNL A   1      46.608  24.913  28.720  1.00  0.00     0.031 C 
ATOM     58  C   UNL A   1      47.107  27.150  29.659  1.00  0.00     0.037 A 
BRANCH  45  59
ATOM     59  C   UNL A   1      44.586  32.630  30.947  1.00  0.00     0.057 A 
ATOM     60  C   UNL A   1      44.598  32.989  32.302  1.00  0.00     0.134 A 
ATOM     61  C   UNL A   1      44.866  33.635  30.012  1.00  0.00     0.134 A 
ATOM     62  F   UNL A   1      44.329  32.079  33.250  1.00  0.00    -0.206 F 
ATOM     63  C   UNL A   1      44.865  34.299  32.707  1.00  0.00     0.040 A 
ATOM     64  C   UNL A   1      45.165  34.940  30.406  1.00  0.00     0.040 A 
ATOM     65  F   UNL A   1      44.877  33.359  28.698  1.00  0.00    -0.206 F 
ATOM     66  C   UNL A   1      45.161  35.275  31.758  1.00  0.00     0.006 A 
ENDBRANCH  45  59
BRANCH  46  67
ATOM     67  C   UNL A   1      42.892  23.459  27.366  1.00  0.00     0.057 A 
ATOM     68  C   UNL A   1      43.049  23.241  25.992  1.00  0.00     0.134 A 
ATOM     69  C   UNL A   1      42.476  22.371  28.144  1.00  0.00     0.134 A 
ATOM     70  F   UNL A   1      43.431  24.245  25.189  1.00  0.00    -0.206 F 
ATOM     71  C   UNL A   1      42.761  22.006  25.409  1.00  0.00     0.040 A 
ATOM     72  C   UNL A   1      42.220  21.121  27.580  1.00  0.00     0.040 A 
ATOM     73  F   UNL A   1      42.318  22.506  29.470  1.00  0.00    -0.206 F 
ATOM     74  C   UNL A   1      42.347  20.941  26.204  1.00  0.00     0.006 A 
ENDBRANCH  46  67
BRANCH  58  75
ATOM     75  C   UNL A   1      48.532  26.713  29.844  1.00  0.00     0.057 A 
ATOM     76  C   UNL A   1      48.953  25.999  30.973  1.00  0.00     0.134 A 
ATOM     77  C   UNL A   1      49.488  26.974  28.853  1.00  0.00     0.134 A 
ATOM     78  F   UNL A   1      48.092  25.722  31.965  1.00  0.00    -0.206 F 
ATOM     79  C   UNL A   1      50.279  25.589  31.124  1.00  0.00     0.040 A 
ATOM     80  C   UNL A   1      50.808  26.538  28.976  1.00  0.00     0.040 A 
ATOM     81  F   UNL A   1      49.151  27.642  27.740  1.00  0.00    -0.206 F 
ATOM     82  C   UNL A   1      51.207  25.850  30.119  1.00  0.00     0.006 A 
ENDBRANCH  58  75
ENDBRANCH  32  33
ENDBRANCH  24  27
ENDBRANCH  22  23
ENDBRANCH  21  22
ENDBRANCH   1  21
TORSDOF 13
ENDMDL
