MODEL 1
REMARK VINA RESULT:     -11.4      0.000      0.000
REMARK SMILES O=C(NCCCNC(=O)c1cc(S(=O)(=O)C/C(Cl)=C/Cl)ccc1Cl)c1ccc(-c2c3nc(c(-c4c(F)cccc4F)c4ccc([nH]4)c(-c4c(F)cccc4F)c4nc(c(-c5c(F)cccc5F)c5ccc2[nH]5)C=C4)C=C3)cc1
REMARK SMILES IDX 5 1 4 2 3 3 1 4 2 5 25 7 26 8 78 9 27 10 77 11 28 12 29 13
REMARK SMILES IDX 30 14 71 15 31 16 76 17 70 18 72 19 32 20 75 21 69 22 68 23
REMARK SMILES IDX 33 25 59 26 42 27 58 28 43 29 46 30 57 31 73 32 44 33 45 34
REMARK SMILES IDX 56 36 74 37 47 38 34 39 35 40 40 41 36 42 37 43 39 44 41 45
REMARK SMILES IDX 38 46 60 47 61 48 66 49 62 50 63 51 65 52 67 53 64 54 48 55
REMARK SMILES IDX 49 56 54 57 50 58 51 59 53 60 55 61 52 62 6 63 7 64 8 65
REMARK SMILES IDX 9 67 10 68 11 69 23 70 12 71 22 72 24 73 21 74 13 75 14 76
REMARK SMILES IDX 15 77 16 78 17 79 18 80 19 81 20 82
REMARK H PARENT 3 6 72 24 46 35 7 66
REMARK Flexibility Score: inf
ROOT
ATOM      1  C   UNL A   1      37.774  19.954  24.841  1.00  0.00     0.042 C 
ENDROOT
BRANCH   1   2
ATOM      2  C   UNL A   1      38.918  20.346  25.769  1.00  0.00     0.118 C 
BRANCH   2   3
ATOM      3  N   UNL A   1      40.038  19.414  25.737  1.00  0.00    -0.352 N 
ATOM      4  O   UNL A   1      42.165  18.683  25.811  1.00  0.00    -0.269 OA
ATOM      5  C   UNL A   1      41.368  19.588  26.044  1.00  0.00     0.251 C 
ATOM      6  H   UNL A   1      39.803  18.504  25.446  1.00  0.00     0.163 HD
BRANCH   5   7
ATOM      7  C   UNL A   1      41.859  20.862  26.615  1.00  0.00     0.039 A 
ATOM      8  C   UNL A   1      41.957  21.053  27.992  1.00  0.00     0.014 A 
ATOM      9  C   UNL A   1      42.244  21.891  25.747  1.00  0.00     0.014 A 
ATOM     10  C   UNL A   1      42.234  22.318  28.497  1.00  0.00     0.010 A 
ATOM     11  C   UNL A   1      42.629  23.134  26.260  1.00  0.00     0.010 A 
ATOM     12  C   UNL A   1      42.570  23.378  27.639  1.00  0.00    -0.014 A 
BRANCH  12  13
ATOM     13  C   UNL A   1      42.857  24.718  28.219  1.00  0.00     0.031 A 
ATOM     14  C   UNL A   1      44.270  25.155  28.502  1.00  0.00     0.074 A 
ATOM     15  C   UNL A   1      41.836  25.571  28.432  1.00  0.00     0.049 A 
ATOM     16  N   UNL A   1      44.702  26.312  28.941  1.00  0.00    -0.248 NA
ATOM     17  C   UNL A   1      45.337  24.169  28.274  1.00  0.00     0.031 C 
ATOM     18  C   UNL A   1      40.421  25.265  28.214  1.00  0.00     0.029 A 
ATOM     19  N   UNL A   1      41.832  26.878  28.846  1.00  0.00    -0.354 N 
ATOM     20  C   UNL A   1      46.079  26.182  29.071  1.00  0.00     0.074 A 
ATOM     21  C   UNL A   1      46.412  24.828  28.685  1.00  0.00     0.031 C 
ATOM     22  C   UNL A   1      39.693  26.371  28.427  1.00  0.00     0.029 A 
ATOM     23  C   UNL A   1      40.582  27.447  28.851  1.00  0.00     0.049 A 
ATOM     24  H   UNL A   1      42.646  27.364  29.114  1.00  0.00     0.167 HD
ATOM     25  C   UNL A   1      46.986  27.108  29.468  1.00  0.00     0.037 A 
ATOM     26  C   UNL A   1      40.189  28.696  29.159  1.00  0.00     0.037 A 
ATOM     27  C   UNL A   1      46.663  28.468  29.816  1.00  0.00     0.049 A 
ATOM     28  C   UNL A   1      41.216  29.708  29.575  1.00  0.00     0.074 A 
ATOM     29  C   UNL A   1      47.520  29.490  30.188  1.00  0.00     0.029 A 
ATOM     30  N   UNL A   1      45.382  28.997  29.827  1.00  0.00    -0.354 N 
ATOM     31  N   UNL A   1      42.516  29.575  29.665  1.00  0.00    -0.248 NA
ATOM     32  C   UNL A   1      40.719  31.043  29.936  1.00  0.00     0.031 C 
ATOM     33  C   UNL A   1      46.753  30.630  30.456  1.00  0.00     0.029 A 
ATOM     34  C   UNL A   1      45.423  30.327  30.213  1.00  0.00     0.049 A 
ATOM     35  H   UNL A   1      44.564  28.501  29.595  1.00  0.00     0.167 HD
ATOM     36  C   UNL A   1      42.996  30.811  30.073  1.00  0.00     0.074 A 
ATOM     37  C   UNL A   1      41.848  31.686  30.198  1.00  0.00     0.031 C 
ATOM     38  C   UNL A   1      44.273  31.187  30.325  1.00  0.00     0.037 A 
BRANCH  25  39
ATOM     39  C   UNL A   1      48.420  26.677  29.564  1.00  0.00     0.057 A 
ATOM     40  C   UNL A   1      49.340  26.923  28.537  1.00  0.00     0.134 A 
ATOM     41  C   UNL A   1      48.896  26.045  30.720  1.00  0.00     0.134 A 
ATOM     42  F   UNL A   1      48.945  27.513  27.398  1.00  0.00    -0.206 F 
ATOM     43  C   UNL A   1      50.677  26.536  28.647  1.00  0.00     0.040 A 
ATOM     44  C   UNL A   1      50.236  25.672  30.851  1.00  0.00     0.040 A 
ATOM     45  F   UNL A   1      48.070  25.786  31.744  1.00  0.00    -0.206 F 
ATOM     46  C   UNL A   1      51.130  25.914  29.810  1.00  0.00     0.006 A 
ENDBRANCH  25  39
BRANCH  26  47
ATOM     47  C   UNL A   1      38.755  29.063  29.062  1.00  0.00     0.057 A 
ATOM     48  C   UNL A   1      38.199  29.485  27.850  1.00  0.00     0.134 A 
ATOM     49  C   UNL A   1      37.908  28.990  30.173  1.00  0.00     0.134 A 
ATOM     50  F   UNL A   1      38.967  29.590  26.755  1.00  0.00    -0.206 F 
ATOM     51  C   UNL A   1      36.851  29.831  27.747  1.00  0.00     0.040 A 
ATOM     52  C   UNL A   1      36.553  29.310  30.080  1.00  0.00     0.040 A 
ATOM     53  F   UNL A   1      38.381  28.586  31.361  1.00  0.00    -0.206 F 
ATOM     54  C   UNL A   1      36.023  29.737  28.864  1.00  0.00     0.006 A 
ENDBRANCH  26  47
BRANCH  38  55
ATOM     55  C   UNL A   1      44.494  32.613  30.727  1.00  0.00     0.057 A 
ATOM     56  C   UNL A   1      44.697  33.623  29.780  1.00  0.00     0.134 A 
ATOM     57  C   UNL A   1      44.488  32.982  32.078  1.00  0.00     0.134 A 
ATOM     58  F   UNL A   1      44.729  33.331  28.470  1.00  0.00    -0.206 F 
ATOM     59  C   UNL A   1      44.911  34.948  30.162  1.00  0.00     0.040 A 
ATOM     60  C   UNL A   1      44.678  34.306  32.472  1.00  0.00     0.040 A 
ATOM     61  F   UNL A   1      44.292  32.061  33.035  1.00  0.00    -0.206 F 
ATOM     62  C   UNL A   1      44.898  35.292  31.513  1.00  0.00     0.006 A 
ENDBRANCH  38  55
ENDBRANCH  12  13
ENDBRANCH   5   7
ENDBRANCH   2   3
ENDBRANCH   1   2
BRANCH   1  63
ATOM     63  C   UNL A   1      36.672  20.995  24.716  1.00  0.00     0.118 C 
BRANCH  63  64
ATOM     64  N   UNL A   1      35.735  20.953  25.827  1.00  0.00    -0.352 N 
ATOM     65  C   UNL A   1      34.435  21.371  25.904  1.00  0.00     0.252 C 
ATOM     66  H   UNL A   1      36.094  20.562  26.656  1.00  0.00     0.163 HD
ATOM     67  O   UNL A   1      33.841  21.322  26.977  1.00  0.00    -0.269 OA
BRANCH  65  68
ATOM     68  C   UNL A   1      33.739  21.931  24.731  1.00  0.00     0.059 A 
ATOM     69  C   UNL A   1      33.906  23.304  24.496  1.00  0.00     0.035 A 
ATOM     70  C   UNL A   1      32.843  21.197  23.948  1.00  0.00     0.053 A 
ATOM     71  C   UNL A   1      33.198  23.934  23.463  1.00  0.00     0.068 A 
ATOM     72  C   UNL A   1      32.177  21.825  22.889  1.00  0.00     0.022 A 
ATOM     73  Cl  UNL A   1      32.434  19.549  24.268  1.00  0.00    -0.083 Cl
ATOM     74  C   UNL A   1      32.343  23.194  22.650  1.00  0.00     0.022 A 
BRANCH  71  75
ATOM     75  S   UNL A   1      33.378  25.699  23.326  1.00  0.00     0.183 S 
ATOM     76  O   UNL A   1      34.238  26.072  24.437  1.00  0.00    -0.223 OA
ATOM     77  O   UNL A   1      33.797  25.960  21.964  1.00  0.00    -0.223 OA
BRANCH  75  78
ATOM     78  C   UNL A   1      31.817  26.500  23.605  1.00  0.00     0.191 C 
BRANCH  78  79
ATOM     79  C   UNL A   1      31.513  26.721  25.061  1.00  0.00     0.045 C 
ATOM     80  Cl  UNL A   1      31.001  25.288  25.907  1.00  0.00    -0.087 Cl
ATOM     81  C   UNL A   1      31.734  27.867  25.720  1.00  0.00     0.097 C 
ATOM     82  Cl  UNL A   1      31.464  28.128  27.393  1.00  0.00    -0.092 Cl
ENDBRANCH  78  79
ENDBRANCH  75  78
ENDBRANCH  71  75
ENDBRANCH  65  68
ENDBRANCH  63  64
ENDBRANCH   1  63
TORSDOF 13
ENDMDL
MODEL 2
REMARK VINA RESULT:     -11.4      1.807      3.417
REMARK SMILES O=C(NCCCNC(=O)c1cc(S(=O)(=O)C/C(Cl)=C/Cl)ccc1Cl)c1ccc(-c2c3nc(c(-c4c(F)cccc4F)c4ccc([nH]4)c(-c4c(F)cccc4F)c4nc(c(-c5c(F)cccc5F)c5ccc2[nH]5)C=C4)C=C3)cc1
REMARK SMILES IDX 5 1 4 2 3 3 1 4 2 5 25 7 26 8 78 9 27 10 77 11 28 12 29 13
REMARK SMILES IDX 30 14 71 15 31 16 76 17 70 18 72 19 32 20 75 21 69 22 68 23
REMARK SMILES IDX 33 25 59 26 42 27 58 28 43 29 46 30 57 31 73 32 44 33 45 34
REMARK SMILES IDX 56 36 74 37 47 38 34 39 35 40 40 41 36 42 37 43 39 44 41 45
REMARK SMILES IDX 38 46 60 47 61 48 66 49 62 50 63 51 65 52 67 53 64 54 48 55
REMARK SMILES IDX 49 56 54 57 50 58 51 59 53 60 55 61 52 62 6 63 7 64 8 65
REMARK SMILES IDX 9 67 10 68 11 69 23 70 12 71 22 72 24 73 21 74 13 75 14 76
REMARK SMILES IDX 15 77 16 78 17 79 18 80 19 81 20 82
REMARK H PARENT 3 6 72 24 46 35 7 66
REMARK Flexibility Score: inf
ROOT
ATOM      1  C   UNL A   1      37.907  20.284  24.908  1.00  0.00     0.042 C 
ENDROOT
BRANCH   1   2
ATOM      2  C   UNL A   1      38.910  20.284  26.055  1.00  0.00     0.118 C 
BRANCH   2   3
ATOM      3  N   UNL A   1      40.068  19.431  25.817  1.00  0.00    -0.352 N 
ATOM      4  O   UNL A   1      42.224  18.837  25.566  1.00  0.00    -0.269 OA
ATOM      5  C   UNL A   1      41.414  19.672  25.961  1.00  0.00     0.251 C 
ATOM      6  H   UNL A   1      39.848  18.526  25.497  1.00  0.00     0.163 HD
BRANCH   5   7
ATOM      7  C   UNL A   1      41.903  20.940  26.548  1.00  0.00     0.039 A 
ATOM      8  C   UNL A   1      42.037  21.099  27.926  1.00  0.00     0.014 A 
ATOM      9  C   UNL A   1      42.251  21.994  25.694  1.00  0.00     0.014 A 
ATOM     10  C   UNL A   1      42.310  22.356  28.454  1.00  0.00     0.010 A 
ATOM     11  C   UNL A   1      42.633  23.230  26.226  1.00  0.00     0.010 A 
ATOM     12  C   UNL A   1      42.609  23.440  27.612  1.00  0.00    -0.014 A 
BRANCH  12  13
ATOM     13  C   UNL A   1      42.893  24.770  28.215  1.00  0.00     0.031 A 
ATOM     14  C   UNL A   1      44.305  25.199  28.519  1.00  0.00     0.074 A 
ATOM     15  C   UNL A   1      41.873  25.623  28.432  1.00  0.00     0.049 A 
ATOM     16  N   UNL A   1      44.735  26.348  28.980  1.00  0.00    -0.248 NA
ATOM     17  C   UNL A   1      45.372  24.214  28.286  1.00  0.00     0.031 C 
ATOM     18  C   UNL A   1      40.459  25.324  28.195  1.00  0.00     0.029 A 
ATOM     19  N   UNL A   1      41.868  26.924  28.867  1.00  0.00    -0.354 N 
ATOM     20  C   UNL A   1      46.111  26.212  29.122  1.00  0.00     0.074 A 
ATOM     21  C   UNL A   1      46.444  24.864  28.717  1.00  0.00     0.031 C 
ATOM     22  C   UNL A   1      39.732  26.428  28.419  1.00  0.00     0.029 A 
ATOM     23  C   UNL A   1      40.619  27.496  28.868  1.00  0.00     0.049 A 
ATOM     24  H   UNL A   1      42.681  27.402  29.150  1.00  0.00     0.167 HD
ATOM     25  C   UNL A   1      47.016  27.130  29.542  1.00  0.00     0.037 A 
ATOM     26  C   UNL A   1      40.227  28.741  29.192  1.00  0.00     0.037 A 
ATOM     27  C   UNL A   1      46.694  28.484  29.908  1.00  0.00     0.049 A 
ATOM     28  C   UNL A   1      41.252  29.743  29.634  1.00  0.00     0.074 A 
ATOM     29  C   UNL A   1      47.549  29.498  30.304  1.00  0.00     0.029 A 
ATOM     30  N   UNL A   1      45.414  29.017  29.914  1.00  0.00    -0.354 N 
ATOM     31  N   UNL A   1      42.551  29.605  29.734  1.00  0.00    -0.248 NA
ATOM     32  C   UNL A   1      40.755  31.073  30.011  1.00  0.00     0.031 C 
ATOM     33  C   UNL A   1      46.783  30.636  30.582  1.00  0.00     0.029 A 
ATOM     34  C   UNL A   1      45.455  30.341  30.322  1.00  0.00     0.049 A 
ATOM     35  H   UNL A   1      44.596  28.527  29.667  1.00  0.00     0.167 HD
ATOM     36  C   UNL A   1      43.030  30.834  30.166  1.00  0.00     0.074 A 
ATOM     37  C   UNL A   1      41.884  31.709  30.293  1.00  0.00     0.031 C 
ATOM     38  C   UNL A   1      44.306  31.202  30.436  1.00  0.00     0.037 A 
BRANCH  25  39
ATOM     39  C   UNL A   1      48.449  26.693  29.645  1.00  0.00     0.057 A 
ATOM     40  C   UNL A   1      49.375  26.938  28.624  1.00  0.00     0.134 A 
ATOM     41  C   UNL A   1      48.916  26.056  30.802  1.00  0.00     0.134 A 
ATOM     42  F   UNL A   1      48.989  27.533  27.484  1.00  0.00    -0.206 F 
ATOM     43  C   UNL A   1      50.710  26.547  28.741  1.00  0.00     0.040 A 
ATOM     44  C   UNL A   1      50.253  25.678  30.939  1.00  0.00     0.040 A 
ATOM     45  F   UNL A   1      48.082  25.797  31.820  1.00  0.00    -0.206 F 
ATOM     46  C   UNL A   1      51.154  25.920  29.904  1.00  0.00     0.006 A 
ENDBRANCH  25  39
BRANCH  26  47
ATOM     47  C   UNL A   1      38.795  29.113  29.087  1.00  0.00     0.057 A 
ATOM     48  C   UNL A   1      38.247  29.536  27.872  1.00  0.00     0.134 A 
ATOM     49  C   UNL A   1      37.941  29.044  30.194  1.00  0.00     0.134 A 
ATOM     50  F   UNL A   1      39.021  29.638  26.780  1.00  0.00    -0.206 F 
ATOM     51  C   UNL A   1      36.901  29.887  27.761  1.00  0.00     0.040 A 
ATOM     52  C   UNL A   1      36.588  29.369  30.092  1.00  0.00     0.040 A 
ATOM     53  F   UNL A   1      38.407  28.640  31.384  1.00  0.00    -0.206 F 
ATOM     54  C   UNL A   1      36.067  29.797  28.873  1.00  0.00     0.006 A 
ENDBRANCH  26  47
BRANCH  38  55
ATOM     55  C   UNL A   1      44.527  32.620  30.863  1.00  0.00     0.057 A 
ATOM     56  C   UNL A   1      44.743  33.645  29.933  1.00  0.00     0.134 A 
ATOM     57  C   UNL A   1      44.506  32.969  32.219  1.00  0.00     0.134 A 
ATOM     58  F   UNL A   1      44.788  33.372  28.620  1.00  0.00    -0.206 F 
ATOM     59  C   UNL A   1      44.957  34.963  30.339  1.00  0.00     0.040 A 
ATOM     60  C   UNL A   1      44.697  34.286  32.636  1.00  0.00     0.040 A 
ATOM     61  F   UNL A   1      44.298  32.034  33.159  1.00  0.00    -0.206 F 
ATOM     62  C   UNL A   1      44.930  35.286  31.694  1.00  0.00     0.006 A 
ENDBRANCH  38  55
ENDBRANCH  12  13
ENDBRANCH   5   7
ENDBRANCH   2   3
ENDBRANCH   1   2
BRANCH   1  63
ATOM     63  C   UNL A   1      37.336  21.652  24.563  1.00  0.00     0.118 C 
BRANCH  63  64
ATOM     64  N   UNL A   1      36.725  22.306  25.708  1.00  0.00    -0.352 N 
ATOM     65  C   UNL A   1      35.414  22.601  25.963  1.00  0.00     0.252 C 
ATOM     66  H   UNL A   1      37.356  22.582  26.411  1.00  0.00     0.163 HD
ATOM     67  O   UNL A   1      35.117  23.245  26.965  1.00  0.00    -0.269 OA
BRANCH  65  68
ATOM     68  C   UNL A   1      34.344  22.207  25.029  1.00  0.00     0.059 A 
ATOM     69  C   UNL A   1      33.976  20.852  25.028  1.00  0.00     0.035 A 
ATOM     70  C   UNL A   1      33.792  23.075  24.082  1.00  0.00     0.053 A 
ATOM     71  C   UNL A   1      33.040  20.376  24.100  1.00  0.00     0.068 A 
ATOM     72  C   UNL A   1      32.823  22.600  23.191  1.00  0.00     0.022 A 
ATOM     73  Cl  UNL A   1      34.308  24.712  23.885  1.00  0.00    -0.083 Cl
ATOM     74  C   UNL A   1      32.453  21.251  23.189  1.00  0.00     0.022 A 
BRANCH  71  75
ATOM     75  S   UNL A   1      32.736  18.623  24.093  1.00  0.00     0.183 S 
ATOM     76  O   UNL A   1      32.054  18.359  25.349  1.00  0.00    -0.223 OA
ATOM     77  O   UNL A   1      32.078  18.330  22.836  1.00  0.00    -0.223 OA
BRANCH  75  78
ATOM     78  C   UNL A   1      34.271  17.731  24.154  1.00  0.00     0.191 C 
BRANCH  78  79
ATOM     79  C   UNL A   1      34.139  16.359  24.751  1.00  0.00     0.045 C 
ATOM     80  Cl  UNL A   1      35.621  15.723  25.409  1.00  0.00    -0.087 Cl
ATOM     81  C   UNL A   1      32.980  15.705  24.909  1.00  0.00     0.097 C 
ATOM     82  Cl  UNL A   1      32.789  14.169  25.650  1.00  0.00    -0.092 Cl
ENDBRANCH  78  79
ENDBRANCH  75  78
ENDBRANCH  71  75
ENDBRANCH  65  68
ENDBRANCH  63  64
ENDBRANCH   1  63
TORSDOF 13
ENDMDL
MODEL 3
REMARK VINA RESULT:     -11.4      2.514      7.672
REMARK SMILES O=C(NCCCNC(=O)c1cc(S(=O)(=O)C/C(Cl)=C/Cl)ccc1Cl)c1ccc(-c2c3nc(c(-c4c(F)cccc4F)c4ccc([nH]4)c(-c4c(F)cccc4F)c4nc(c(-c5c(F)cccc5F)c5ccc2[nH]5)C=C4)C=C3)cc1
REMARK SMILES IDX 5 1 4 2 3 3 1 4 2 5 25 7 26 8 78 9 27 10 77 11 28 12 29 13
REMARK SMILES IDX 30 14 71 15 31 16 76 17 70 18 72 19 32 20 75 21 69 22 68 23
REMARK SMILES IDX 33 25 59 26 42 27 58 28 43 29 46 30 57 31 73 32 44 33 45 34
REMARK SMILES IDX 56 36 74 37 47 38 34 39 35 40 40 41 36 42 37 43 39 44 41 45
REMARK SMILES IDX 38 46 60 47 61 48 66 49 62 50 63 51 65 52 67 53 64 54 48 55
REMARK SMILES IDX 49 56 54 57 50 58 51 59 53 60 55 61 52 62 6 63 7 64 8 65
REMARK SMILES IDX 9 67 10 68 11 69 23 70 12 71 22 72 24 73 21 74 13 75 14 76
REMARK SMILES IDX 15 77 16 78 17 79 18 80 19 81 20 82
REMARK H PARENT 3 6 72 24 46 35 7 66
REMARK Flexibility Score: inf
ROOT
ATOM      1  C   UNL A   1      34.030  28.420  25.908  1.00  0.00     0.042 C 
ENDROOT
BRANCH   1   2
ATOM      2  C   UNL A   1      33.637  28.614  27.367  1.00  0.00     0.118 C 
BRANCH   2   3
ATOM      3  N   UNL A   1      33.720  29.999  27.813  1.00  0.00    -0.352 N 
ATOM      4  O   UNL A   1      34.553  31.842  28.801  1.00  0.00    -0.269 OA
ATOM      5  C   UNL A   1      34.757  30.708  28.374  1.00  0.00     0.251 C 
ATOM      6  H   UNL A   1      32.892  30.516  27.693  1.00  0.00     0.163 HD
BRANCH   5   7
ATOM      7  C   UNL A   1      36.105  30.111  28.508  1.00  0.00     0.039 A 
ATOM      8  C   UNL A   1      36.496  29.452  29.673  1.00  0.00     0.014 A 
ATOM      9  C   UNL A   1      36.997  30.201  27.433  1.00  0.00     0.014 A 
ATOM     10  C   UNL A   1      37.824  29.076  29.842  1.00  0.00     0.010 A 
ATOM     11  C   UNL A   1      38.305  29.722  27.566  1.00  0.00     0.010 A 
ATOM     12  C   UNL A   1      38.748  29.209  28.793  1.00  0.00    -0.014 A 
BRANCH  12  13
ATOM     13  C   UNL A   1      40.160  28.797  29.014  1.00  0.00     0.031 A 
ATOM     14  C   UNL A   1      40.659  27.452  28.553  1.00  0.00     0.074 A 
ATOM     15  C   UNL A   1      41.016  29.670  29.580  1.00  0.00     0.049 A 
ATOM     16  N   UNL A   1      41.873  26.962  28.605  1.00  0.00    -0.248 NA
ATOM     17  C   UNL A   1      39.670  26.533  27.969  1.00  0.00     0.031 C 
ATOM     18  C   UNL A   1      40.657  30.998  30.084  1.00  0.00     0.029 A 
ATOM     19  N   UNL A   1      42.368  29.589  29.796  1.00  0.00    -0.354 N 
ATOM     20  C   UNL A   1      41.788  25.673  28.091  1.00  0.00     0.074 A 
ATOM     21  C   UNL A   1      40.400  25.447  27.752  1.00  0.00     0.031 C 
ATOM     22  C   UNL A   1      41.768  31.632  30.484  1.00  0.00     0.029 A 
ATOM     23  C   UNL A   1      42.909  30.739  30.318  1.00  0.00     0.049 A 
ATOM     24  H   UNL A   1      42.901  28.785  29.595  1.00  0.00     0.167 HD
ATOM     25  C   UNL A   1      42.777  24.764  27.911  1.00  0.00     0.037 A 
ATOM     26  C   UNL A   1      44.182  31.046  30.628  1.00  0.00     0.037 A 
ATOM     27  C   UNL A   1      44.165  24.999  28.211  1.00  0.00     0.049 A 
ATOM     28  C   UNL A   1      45.260  30.028  30.399  1.00  0.00     0.074 A 
ATOM     29  C   UNL A   1      45.245  24.154  28.021  1.00  0.00     0.029 A 
ATOM     30  N   UNL A   1      44.667  26.170  28.758  1.00  0.00    -0.354 N 
ATOM     31  N   UNL A   1      45.164  28.826  29.886  1.00  0.00    -0.248 NA
ATOM     32  C   UNL A   1      46.622  30.409  30.795  1.00  0.00     0.031 C 
ATOM     33  C   UNL A   1      46.397  24.800  28.483  1.00  0.00     0.029 A 
ATOM     34  C   UNL A   1      46.039  26.064  28.925  1.00  0.00     0.049 A 
ATOM     35  H   UNL A   1      44.129  26.960  28.993  1.00  0.00     0.167 HD
ATOM     36  C   UNL A   1      46.454  28.314  29.879  1.00  0.00     0.074 A 
ATOM     37  C   UNL A   1      47.316  29.342  30.424  1.00  0.00     0.031 C 
ATOM     38  C   UNL A   1      46.884  27.099  29.462  1.00  0.00     0.037 A 
BRANCH  25  39
ATOM     39  C   UNL A   1      42.389  23.416  27.375  1.00  0.00     0.057 A 
ATOM     40  C   UNL A   1      42.429  23.122  26.007  1.00  0.00     0.134 A 
ATOM     41  C   UNL A   1      42.011  22.387  28.247  1.00  0.00     0.134 A 
ATOM     42  F   UNL A   1      42.770  24.067  25.118  1.00  0.00    -0.206 F 
ATOM     43  C   UNL A   1      42.088  21.857  25.523  1.00  0.00     0.040 A 
ATOM     44  C   UNL A   1      41.688  21.112  27.777  1.00  0.00     0.040 A 
ATOM     45  F   UNL A   1      41.959  22.600  29.571  1.00  0.00    -0.206 F 
ATOM     46  C   UNL A   1      41.721  20.846  26.410  1.00  0.00     0.006 A 
ENDBRANCH  25  39
BRANCH  26  47
ATOM     47  C   UNL A   1      44.505  32.388  31.171  1.00  0.00     0.057 A 
ATOM     48  C   UNL A   1      44.451  32.642  32.545  1.00  0.00     0.134 A 
ATOM     49  C   UNL A   1      44.886  33.440  30.331  1.00  0.00     0.134 A 
ATOM     50  F   UNL A   1      44.076  31.675  33.397  1.00  0.00    -0.206 F 
ATOM     51  C   UNL A   1      44.755  33.900  33.067  1.00  0.00     0.040 A 
ATOM     52  C   UNL A   1      45.216  34.697  30.841  1.00  0.00     0.040 A 
ATOM     53  F   UNL A   1      44.963  33.256  29.006  1.00  0.00    -0.206 F 
ATOM     54  C   UNL A   1      45.145  34.930  32.213  1.00  0.00     0.006 A 
ENDBRANCH  26  47
BRANCH  38  55
ATOM     55  C   UNL A   1      48.356  26.834  29.548  1.00  0.00     0.057 A 
ATOM     56  C   UNL A   1      48.929  26.211  30.664  1.00  0.00     0.134 A 
ATOM     57  C   UNL A   1      49.208  27.191  28.495  1.00  0.00     0.134 A 
ATOM     58  F   UNL A   1      48.167  25.858  31.711  1.00  0.00    -0.206 F 
ATOM     59  C   UNL A   1      50.302  25.976  30.741  1.00  0.00     0.040 A 
ATOM     60  C   UNL A   1      50.579  26.941  28.552  1.00  0.00     0.040 A 
ATOM     61  F   UNL A   1      48.719  27.785  27.396  1.00  0.00    -0.206 F 
ATOM     62  C   UNL A   1      51.130  26.338  29.680  1.00  0.00     0.006 A 
ENDBRANCH  38  55
ENDBRANCH  12  13
ENDBRANCH   5   7
ENDBRANCH   2   3
ENDBRANCH   1   2
BRANCH   1  63
ATOM     63  C   UNL A   1      33.205  29.225  24.915  1.00  0.00     0.118 C 
BRANCH  63  64
ATOM     64  N   UNL A   1      33.725  29.141  23.560  1.00  0.00    -0.352 N 
ATOM     65  C   UNL A   1      33.659  28.123  22.648  1.00  0.00     0.252 C 
ATOM     66  H   UNL A   1      34.201  29.944  23.249  1.00  0.00     0.163 HD
ATOM     67  O   UNL A   1      34.247  28.225  21.576  1.00  0.00    -0.269 OA
BRANCH  65  68
ATOM     68  C   UNL A   1      32.936  26.874  22.946  1.00  0.00     0.059 A 
ATOM     69  C   UNL A   1      33.719  25.736  23.194  1.00  0.00     0.035 A 
ATOM     70  C   UNL A   1      31.545  26.753  22.863  1.00  0.00     0.053 A 
ATOM     71  C   UNL A   1      33.110  24.488  23.384  1.00  0.00     0.068 A 
ATOM     72  C   UNL A   1      30.944  25.512  23.102  1.00  0.00     0.022 A 
ATOM     73  Cl  UNL A   1      30.509  28.052  22.390  1.00  0.00    -0.083 Cl
ATOM     74  C   UNL A   1      31.722  24.376  23.351  1.00  0.00     0.022 A 
BRANCH  71  75
ATOM     75  S   UNL A   1      34.190  23.085  23.561  1.00  0.00     0.183 S 
ATOM     76  O   UNL A   1      33.317  21.928  23.450  1.00  0.00    -0.223 OA
ATOM     77  O   UNL A   1      35.265  23.277  22.610  1.00  0.00    -0.223 OA
BRANCH  75  78
ATOM     78  C   UNL A   1      34.879  23.042  25.198  1.00  0.00     0.191 C 
BRANCH  78  79
ATOM     79  C   UNL A   1      36.275  22.487  25.242  1.00  0.00     0.045 C 
ATOM     80  Cl  UNL A   1      37.482  23.634  25.752  1.00  0.00    -0.087 Cl
ATOM     81  C   UNL A   1      36.589  21.198  25.048  1.00  0.00     0.097 C 
ATOM     82  Cl  UNL A   1      38.162  20.523  25.160  1.00  0.00    -0.092 Cl
ENDBRANCH  78  79
ENDBRANCH  75  78
ENDBRANCH  71  75
ENDBRANCH  65  68
ENDBRANCH  63  64
ENDBRANCH   1  63
TORSDOF 13
ENDMDL
