MODEL 1
REMARK VINA RESULT:     -12.2      0.000      0.000
REMARK SMILES O=C(NCCCNC(=O)c1ccccc1NS(=O)(=O)c1cccc([N+](=O)[O-])c1)c1ccc(-c2c3nc(c(-c4c(F)cccc4F)c4ccc([nH]4)c(-c4c(F)cccc4F)c4nc(c(-c5c(F)cccc5F)c5ccc2[nH]5)C=C4)C=C3)cc1
REMARK SMILES IDX 6 1 5 2 4 3 3 4 1 5 2 6 29 8 30 9 82 10 31 11 81 12 32 13
REMARK SMILES IDX 33 14 34 15 75 16 35 17 80 18 74 19 76 20 36 21 79 22 73 23
REMARK SMILES IDX 72 24 37 26 63 27 46 28 62 29 47 30 50 31 61 32 77 33 48 34
REMARK SMILES IDX 49 35 60 37 78 38 51 39 38 40 39 41 44 42 40 43 41 44 43 45
REMARK SMILES IDX 45 46 42 47 64 48 65 49 70 50 66 51 67 52 69 53 71 54 68 55
REMARK SMILES IDX 52 56 53 57 58 58 54 59 55 60 57 61 59 62 56 63 7 64 8 65
REMARK SMILES IDX 9 67 10 68 11 69 15 70 12 71 14 72 13 73 16 74 17 76 18 77
REMARK SMILES IDX 19 78 20 79 21 80 28 81 22 82 24 83 23 84 25 85 26 86 27 87
REMARK H PARENT 3 7 76 25 50 36 7 66 16 75
REMARK Flexibility Score: inf
ROOT
ATOM      1  C   UNL A   1      32.074  30.117  26.448  1.00  0.00     0.118 C 
ENDROOT
BRANCH   1   2
ATOM      2  C   UNL A   1      31.688  31.497  26.932  1.00  0.00     0.042 C 
BRANCH   2   3
ATOM      3  C   UNL A   1      32.752  32.550  26.694  1.00  0.00     0.118 C 
BRANCH   3   4
ATOM      4  N   UNL A   1      32.466  33.819  27.349  1.00  0.00    -0.352 N 
ATOM      5  O   UNL A   1      32.582  35.407  28.948  1.00  0.00    -0.269 OA
ATOM      6  C   UNL A   1      33.055  34.391  28.450  1.00  0.00     0.251 C 
ATOM      7  H   UNL A   1      31.742  34.346  26.941  1.00  0.00     0.163 HD
BRANCH   6   8
ATOM      8  C   UNL A   1      34.252  33.764  29.046  1.00  0.00     0.039 A 
ATOM      9  C   UNL A   1      34.121  32.687  29.925  1.00  0.00     0.014 A 
ATOM     10  C   UNL A   1      35.519  34.252  28.713  1.00  0.00     0.014 A 
ATOM     11  C   UNL A   1      35.234  32.205  30.595  1.00  0.00     0.010 A 
ATOM     12  C   UNL A   1      36.651  33.684  29.300  1.00  0.00     0.010 A 
ATOM     13  C   UNL A   1      36.514  32.668  30.259  1.00  0.00    -0.014 A 
BRANCH  13  14
ATOM     14  C   UNL A   1      37.695  31.975  30.822  1.00  0.00     0.031 A 
ATOM     15  C   UNL A   1      38.430  30.923  30.050  1.00  0.00     0.074 A 
ATOM     16  C   UNL A   1      38.089  32.321  32.065  1.00  0.00     0.049 A 
ATOM     17  N   UNL A   1      39.456  30.201  30.422  1.00  0.00    -0.248 NA
ATOM     18  C   UNL A   1      37.955  30.630  28.688  1.00  0.00     0.031 C 
ATOM     19  C   UNL A   1      37.429  33.324  32.909  1.00  0.00     0.029 A 
ATOM     20  N   UNL A   1      39.132  31.878  32.833  1.00  0.00    -0.354 N 
ATOM     21  C   UNL A   1      39.733  29.353  29.360  1.00  0.00     0.074 A 
ATOM     22  C   UNL A   1      38.762  29.641  28.325  1.00  0.00     0.031 C 
ATOM     23  C   UNL A   1      38.098  33.440  34.062  1.00  0.00     0.029 A 
ATOM     24  C   UNL A   1      39.183  32.468  34.074  1.00  0.00     0.049 A 
ATOM     25  H   UNL A   1      39.782  31.204  32.529  1.00  0.00     0.167 HD
ATOM     26  C   UNL A   1      40.710  28.420  29.266  1.00  0.00     0.037 A 
ATOM     27  C   UNL A   1      39.985  32.224  35.124  1.00  0.00     0.037 A 
ATOM     28  C   UNL A   1      41.685  28.166  30.297  1.00  0.00     0.049 A 
ATOM     29  C   UNL A   1      41.034  31.161  34.997  1.00  0.00     0.074 A 
ATOM     30  C   UNL A   1      42.767  27.304  30.264  1.00  0.00     0.029 A 
ATOM     31  N   UNL A   1      41.686  28.762  31.550  1.00  0.00    -0.354 N 
ATOM     32  N   UNL A   1      41.326  30.414  33.961  1.00  0.00    -0.248 NA
ATOM     33  C   UNL A   1      41.853  30.897  36.186  1.00  0.00     0.031 C 
ATOM     34  C   UNL A   1      43.389  27.335  31.515  1.00  0.00     0.029 A 
ATOM     35  C   UNL A   1      42.724  28.252  32.313  1.00  0.00     0.049 A 
ATOM     36  H   UNL A   1      41.045  29.446  31.850  1.00  0.00     0.167 HD
ATOM     37  C   UNL A   1      42.365  29.592  34.370  1.00  0.00     0.074 A 
ATOM     38  C   UNL A   1      42.672  29.954  35.739  1.00  0.00     0.031 C 
ATOM     39  C   UNL A   1      43.004  28.620  33.677  1.00  0.00     0.037 A 
BRANCH  26  40
ATOM     40  C   UNL A   1      40.774  27.581  28.025  1.00  0.00     0.057 A 
ATOM     41  C   UNL A   1      41.527  27.961  26.908  1.00  0.00     0.134 A 
ATOM     42  C   UNL A   1      40.147  26.327  27.987  1.00  0.00     0.134 A 
ATOM     43  F   UNL A   1      42.147  29.151  26.879  1.00  0.00    -0.206 F 
ATOM     44  C   UNL A   1      41.650  27.127  25.795  1.00  0.00     0.040 A 
ATOM     45  C   UNL A   1      40.278  25.478  26.887  1.00  0.00     0.040 A 
ATOM     46  F   UNL A   1      39.416  25.900  29.027  1.00  0.00    -0.206 F 
ATOM     47  C   UNL A   1      41.034  25.877  25.787  1.00  0.00     0.006 A 
ENDBRANCH  26  40
BRANCH  27  48
ATOM     48  C   UNL A   1      39.784  32.962  36.395  1.00  0.00     0.057 A 
ATOM     49  C   UNL A   1      38.854  32.535  37.347  1.00  0.00     0.134 A 
ATOM     50  C   UNL A   1      40.527  34.113  36.690  1.00  0.00     0.134 A 
ATOM     51  F   UNL A   1      38.102  31.448  37.116  1.00  0.00    -0.206 F 
ATOM     52  C   UNL A   1      38.655  33.234  38.538  1.00  0.00     0.040 A 
ATOM     53  C   UNL A   1      40.361  34.805  37.888  1.00  0.00     0.040 A 
ATOM     54  F   UNL A   1      41.444  34.569  35.822  1.00  0.00    -0.206 F 
ATOM     55  C   UNL A   1      39.415  34.370  38.814  1.00  0.00     0.006 A 
ENDBRANCH  27  48
BRANCH  39  56
ATOM     56  C   UNL A   1      44.094  27.884  34.392  1.00  0.00     0.057 A 
ATOM     57  C   UNL A   1      43.848  26.674  35.052  1.00  0.00     0.134 A 
ATOM     58  C   UNL A   1      45.407  28.370  34.392  1.00  0.00     0.134 A 
ATOM     59  F   UNL A   1      42.607  26.167  35.103  1.00  0.00    -0.206 F 
ATOM     60  C   UNL A   1      44.869  25.979  35.701  1.00  0.00     0.040 A 
ATOM     61  C   UNL A   1      46.441  27.672  35.016  1.00  0.00     0.040 A 
ATOM     62  F   UNL A   1      45.707  29.522  33.773  1.00  0.00    -0.206 F 
ATOM     63  C   UNL A   1      46.171  26.475  35.677  1.00  0.00     0.006 A 
ENDBRANCH  39  56
ENDBRANCH  13  14
ENDBRANCH   6   8
ENDBRANCH   3   4
ENDBRANCH   2   3
ENDBRANCH   1   2
BRANCH   1  64
ATOM     64  N   UNL A   1      32.689  30.100  25.143  1.00  0.00    -0.352 N 
ATOM     65  C   UNL A   1      32.952  29.022  24.351  1.00  0.00     0.253 C 
ATOM     66  H   UNL A   1      32.953  30.976  24.780  1.00  0.00     0.163 HD
ATOM     67  O   UNL A   1      33.556  29.177  23.294  1.00  0.00    -0.269 OA
BRANCH  65  68
ATOM     68  C   UNL A   1      32.560  27.659  24.754  1.00  0.00     0.063 A 
ATOM     69  C   UNL A   1      33.630  26.771  24.967  1.00  0.00     0.016 A 
ATOM     70  C   UNL A   1      31.240  27.178  24.694  1.00  0.00     0.062 A 
ATOM     71  C   UNL A   1      33.400  25.402  25.087  1.00  0.00     0.001 A 
ATOM     72  C   UNL A   1      31.050  25.791  24.706  1.00  0.00     0.027 A 
ATOM     73  C   UNL A   1      32.112  24.909  24.922  1.00  0.00     0.002 A 
BRANCH  70  74
ATOM     74  N   UNL A   1      30.066  27.997  24.581  1.00  0.00    -0.279 N 
ATOM     75  H   UNL A   1      29.677  28.388  25.396  1.00  0.00     0.180 HD
BRANCH  74  76
ATOM     76  S   UNL A   1      29.326  28.312  23.080  1.00  0.00     0.262 S 
ATOM     77  O   UNL A   1      30.251  28.048  21.993  1.00  0.00    -0.201 OA
ATOM     78  O   UNL A   1      28.055  27.631  23.126  1.00  0.00    -0.201 OA
BRANCH  76  79
ATOM     79  C   UNL A   1      29.008  30.054  22.991  1.00  0.00     0.094 A 
ATOM     80  C   UNL A   1      29.542  30.883  23.993  1.00  0.00     0.023 A 
ATOM     81  C   UNL A   1      28.384  30.607  21.874  1.00  0.00     0.107 A 
ATOM     82  C   UNL A   1      29.324  32.257  23.961  1.00  0.00     0.008 A 
ATOM     83  C   UNL A   1      28.231  31.999  21.820  1.00  0.00     0.270 A 
ATOM     84  C   UNL A   1      28.660  32.821  22.876  1.00  0.00     0.086 A 
BRANCH  83  85
ATOM     85  N   UNL A   1      27.654  32.618  20.625  1.00  0.00     0.062 N 
ATOM     86  O   UNL A   1      27.500  31.901  19.627  1.00  0.00    -0.258 OA
ATOM     87  O   UNL A   1      27.345  33.816  20.694  1.00  0.00    -0.258 OA
ENDBRANCH  83  85
ENDBRANCH  76  79
ENDBRANCH  74  76
ENDBRANCH  70  74
ENDBRANCH  65  68
ENDBRANCH   1  64
TORSDOF 14
ENDMDL
MODEL 2
REMARK VINA RESULT:     -11.9      5.078      9.728
REMARK SMILES O=C(NCCCNC(=O)c1ccccc1NS(=O)(=O)c1cccc([N+](=O)[O-])c1)c1ccc(-c2c3nc(c(-c4c(F)cccc4F)c4ccc([nH]4)c(-c4c(F)cccc4F)c4nc(c(-c5c(F)cccc5F)c5ccc2[nH]5)C=C4)C=C3)cc1
REMARK SMILES IDX 6 1 5 2 4 3 3 4 1 5 2 6 29 8 30 9 82 10 31 11 81 12 32 13
REMARK SMILES IDX 33 14 34 15 75 16 35 17 80 18 74 19 76 20 36 21 79 22 73 23
REMARK SMILES IDX 72 24 37 26 63 27 46 28 62 29 47 30 50 31 61 32 77 33 48 34
REMARK SMILES IDX 49 35 60 37 78 38 51 39 38 40 39 41 44 42 40 43 41 44 43 45
REMARK SMILES IDX 45 46 42 47 64 48 65 49 70 50 66 51 67 52 69 53 71 54 68 55
REMARK SMILES IDX 52 56 53 57 58 58 54 59 55 60 57 61 59 62 56 63 7 64 8 65
REMARK SMILES IDX 9 67 10 68 11 69 15 70 12 71 14 72 13 73 16 74 17 76 18 77
REMARK SMILES IDX 19 78 20 79 21 80 28 81 22 82 24 83 23 84 25 85 26 86 27 87
REMARK H PARENT 3 7 76 25 50 36 7 66 16 75
REMARK Flexibility Score: inf
ROOT
ATOM      1  C   UNL A   1      36.310  20.644  24.780  1.00  0.00     0.118 C 
ENDROOT
BRANCH   1   2
ATOM      2  C   UNL A   1      37.410  19.628  25.000  1.00  0.00     0.042 C 
BRANCH   2   3
ATOM      3  C   UNL A   1      38.645  20.196  25.668  1.00  0.00     0.118 C 
BRANCH   3   4
ATOM      4  N   UNL A   1      39.746  19.245  25.752  1.00  0.00    -0.352 N 
ATOM      5  O   UNL A   1      41.883  18.550  25.953  1.00  0.00    -0.269 OA
ATOM      6  C   UNL A   1      41.064  19.454  26.075  1.00  0.00     0.251 C 
ATOM      7  H   UNL A   1      39.508  18.312  25.546  1.00  0.00     0.163 HD
BRANCH   6   8
ATOM      8  C   UNL A   1      41.497  20.783  26.552  1.00  0.00     0.039 A 
ATOM      9  C   UNL A   1      41.850  21.780  25.641  1.00  0.00     0.014 A 
ATOM     10  C   UNL A   1      41.540  21.038  27.926  1.00  0.00     0.014 A 
ATOM     11  C   UNL A   1      42.397  22.968  26.095  1.00  0.00     0.010 A 
ATOM     12  C   UNL A   1      41.980  22.282  28.382  1.00  0.00     0.010 A 
ATOM     13  C   UNL A   1      42.429  23.249  27.469  1.00  0.00    -0.014 A 
BRANCH  13  14
ATOM     14  C   UNL A   1      42.804  24.611  27.911  1.00  0.00     0.031 A 
ATOM     15  C   UNL A   1      41.768  25.645  28.233  1.00  0.00     0.074 A 
ATOM     16  C   UNL A   1      44.117  24.896  28.013  1.00  0.00     0.049 A 
ATOM     17  N   UNL A   1      41.940  26.891  28.594  1.00  0.00    -0.248 NA
ATOM     18  C   UNL A   1      40.356  25.241  28.128  1.00  0.00     0.031 C 
ATOM     19  C   UNL A   1      45.208  23.963  27.707  1.00  0.00     0.029 A 
ATOM     20  N   UNL A   1      44.763  26.040  28.403  1.00  0.00    -0.354 N 
ATOM     21  C   UNL A   1      40.668  27.427  28.734  1.00  0.00     0.074 A 
ATOM     22  C   UNL A   1      39.727  26.375  28.411  1.00  0.00     0.031 C 
ATOM     23  C   UNL A   1      46.381  24.560  27.946  1.00  0.00     0.029 A 
ATOM     24  C   UNL A   1      46.132  25.939  28.346  1.00  0.00     0.049 A 
ATOM     25  H   UNL A   1      44.293  26.854  28.694  1.00  0.00     0.167 HD
ATOM     26  C   UNL A   1      40.326  28.686  29.098  1.00  0.00     0.037 A 
ATOM     27  C   UNL A   1      47.085  26.863  28.549  1.00  0.00     0.037 A 
ATOM     28  C   UNL A   1      41.277  29.713  29.443  1.00  0.00     0.049 A 
ATOM     29  C   UNL A   1      46.670  28.255  28.918  1.00  0.00     0.074 A 
ATOM     30  C   UNL A   1      41.029  30.993  29.908  1.00  0.00     0.029 A 
ATOM     31  N   UNL A   1      42.654  29.581  29.345  1.00  0.00    -0.354 N 
ATOM     32  N   UNL A   1      45.463  28.729  29.112  1.00  0.00    -0.248 NA
ATOM     33  C   UNL A   1      47.743  29.243  29.082  1.00  0.00     0.031 C 
ATOM     34  C   UNL A   1      42.254  31.655  30.038  1.00  0.00     0.029 A 
ATOM     35  C   UNL A   1      43.267  30.773  29.699  1.00  0.00     0.049 A 
ATOM     36  H   UNL A   1      43.125  28.763  29.067  1.00  0.00     0.167 HD
ATOM     37  C   UNL A   1      45.630  30.070  29.424  1.00  0.00     0.074 A 
ATOM     38  C   UNL A   1      47.057  30.326  29.422  1.00  0.00     0.031 C 
ATOM     39  C   UNL A   1      44.687  31.008  29.681  1.00  0.00     0.037 A 
BRANCH  26  40
ATOM     40  C   UNL A   1      38.870  29.046  29.126  1.00  0.00     0.057 A 
ATOM     41  C   UNL A   1      38.104  28.959  30.294  1.00  0.00     0.134 A 
ATOM     42  C   UNL A   1      38.253  29.578  27.984  1.00  0.00     0.134 A 
ATOM     43  F   UNL A   1      38.634  28.454  31.418  1.00  0.00    -0.206 F 
ATOM     44  C   UNL A   1      36.774  29.384  30.326  1.00  0.00     0.040 A 
ATOM     45  C   UNL A   1      36.930  30.024  28.010  1.00  0.00     0.040 A 
ATOM     46  F   UNL A   1      38.934  29.696  26.835  1.00  0.00    -0.206 F 
ATOM     47  C   UNL A   1      36.187  29.928  29.184  1.00  0.00     0.006 A 
ENDBRANCH  26  40
BRANCH  27  48
ATOM     48  C   UNL A   1      48.513  26.511  28.351  1.00  0.00     0.057 A 
ATOM     49  C   UNL A   1      49.138  26.674  27.112  1.00  0.00     0.134 A 
ATOM     50  C   UNL A   1      49.287  26.008  29.405  1.00  0.00     0.134 A 
ATOM     51  F   UNL A   1      48.446  27.138  26.062  1.00  0.00    -0.206 F 
ATOM     52  C   UNL A   1      50.478  26.332  26.921  1.00  0.00     0.040 A 
ATOM     53  C   UNL A   1      50.634  25.690  29.237  1.00  0.00     0.040 A 
ATOM     54  F   UNL A   1      48.748  25.838  30.623  1.00  0.00    -0.206 F 
ATOM     55  C   UNL A   1      51.231  25.844  27.988  1.00  0.00     0.006 A 
ENDBRANCH  27  48
BRANCH  39  56
ATOM     56  C   UNL A   1      45.174  32.391  29.981  1.00  0.00     0.057 A 
ATOM     57  C   UNL A   1      45.298  33.356  28.974  1.00  0.00     0.134 A 
ATOM     58  C   UNL A   1      45.487  32.773  31.291  1.00  0.00     0.134 A 
ATOM     59  F   UNL A   1      45.031  33.046  27.697  1.00  0.00    -0.206 F 
ATOM     60  C   UNL A   1      45.732  34.652  29.258  1.00  0.00     0.040 A 
ATOM     61  C   UNL A   1      45.898  34.071  31.591  1.00  0.00     0.040 A 
ATOM     62  F   UNL A   1      45.383  31.895  32.299  1.00  0.00    -0.206 F 
ATOM     63  C   UNL A   1      46.026  35.014  30.572  1.00  0.00     0.006 A 
ENDBRANCH  39  56
ENDBRANCH  13  14
ENDBRANCH   6   8
ENDBRANCH   3   4
ENDBRANCH   2   3
ENDBRANCH   1   2
BRANCH   1  64
ATOM     64  N   UNL A   1      35.549  20.954  25.966  1.00  0.00    -0.352 N 
ATOM     65  C   UNL A   1      34.196  21.066  26.091  1.00  0.00     0.253 C 
ATOM     66  H   UNL A   1      36.072  21.103  26.786  1.00  0.00     0.163 HD
ATOM     67  O   UNL A   1      33.712  21.415  27.164  1.00  0.00    -0.269 OA
BRANCH  65  68
ATOM     68  C   UNL A   1      33.296  20.816  24.951  1.00  0.00     0.063 A 
ATOM     69  C   UNL A   1      33.084  19.458  24.646  1.00  0.00     0.016 A 
ATOM     70  C   UNL A   1      32.868  21.818  24.061  1.00  0.00     0.062 A 
ATOM     71  C   UNL A   1      32.479  19.089  23.447  1.00  0.00     0.001 A 
ATOM     72  C   UNL A   1      32.367  21.415  22.818  1.00  0.00     0.027 A 
ATOM     73  C   UNL A   1      32.152  20.068  22.517  1.00  0.00     0.002 A 
BRANCH  70  74
ATOM     74  N   UNL A   1      32.940  23.230  24.310  1.00  0.00    -0.279 N 
ATOM     75  H   UNL A   1      32.140  23.697  24.643  1.00  0.00     0.180 HD
BRANCH  74  76
ATOM     76  S   UNL A   1      34.368  24.121  24.049  1.00  0.00     0.262 S 
ATOM     77  O   UNL A   1      35.206  24.095  25.233  1.00  0.00    -0.201 OA
ATOM     78  O   UNL A   1      34.888  23.654  22.787  1.00  0.00    -0.201 OA
BRANCH  76  79
ATOM     79  C   UNL A   1      33.911  25.824  23.854  1.00  0.00     0.094 A 
ATOM     80  C   UNL A   1      33.653  26.303  22.559  1.00  0.00     0.023 A 
ATOM     81  C   UNL A   1      33.660  26.624  24.967  1.00  0.00     0.107 A 
ATOM     82  C   UNL A   1      33.286  27.630  22.358  1.00  0.00     0.008 A 
ATOM     83  C   UNL A   1      33.224  27.938  24.755  1.00  0.00     0.270 A 
ATOM     84  C   UNL A   1      33.076  28.457  23.458  1.00  0.00     0.086 A 
BRANCH  83  85
ATOM     85  N   UNL A   1      32.873  28.779  25.902  1.00  0.00     0.062 N 
ATOM     86  O   UNL A   1      31.716  28.697  26.338  1.00  0.00    -0.258 OA
ATOM     87  O   UNL A   1      33.758  29.508  26.370  1.00  0.00    -0.258 OA
ENDBRANCH  83  85
ENDBRANCH  76  79
ENDBRANCH  74  76
ENDBRANCH  70  74
ENDBRANCH  65  68
ENDBRANCH   1  64
TORSDOF 14
ENDMDL
MODEL 3
REMARK VINA RESULT:     -11.9      0.943      1.936
REMARK SMILES O=C(NCCCNC(=O)c1ccccc1NS(=O)(=O)c1cccc([N+](=O)[O-])c1)c1ccc(-c2c3nc(c(-c4c(F)cccc4F)c4ccc([nH]4)c(-c4c(F)cccc4F)c4nc(c(-c5c(F)cccc5F)c5ccc2[nH]5)C=C4)C=C3)cc1
REMARK SMILES IDX 6 1 5 2 4 3 3 4 1 5 2 6 29 8 30 9 82 10 31 11 81 12 32 13
REMARK SMILES IDX 33 14 34 15 75 16 35 17 80 18 74 19 76 20 36 21 79 22 73 23
REMARK SMILES IDX 72 24 37 26 63 27 46 28 62 29 47 30 50 31 61 32 77 33 48 34
REMARK SMILES IDX 49 35 60 37 78 38 51 39 38 40 39 41 44 42 40 43 41 44 43 45
REMARK SMILES IDX 45 46 42 47 64 48 65 49 70 50 66 51 67 52 69 53 71 54 68 55
REMARK SMILES IDX 52 56 53 57 58 58 54 59 55 60 57 61 59 62 56 63 7 64 8 65
REMARK SMILES IDX 9 67 10 68 11 69 15 70 12 71 14 72 13 73 16 74 17 76 18 77
REMARK SMILES IDX 19 78 20 79 21 80 28 81 22 82 24 83 23 84 25 85 26 86 27 87
REMARK H PARENT 3 7 76 25 50 36 7 66 16 75
REMARK Flexibility Score: inf
ROOT
ATOM      1  C   UNL A   1      32.203  30.137  26.487  1.00  0.00     0.118 C 
ENDROOT
BRANCH   1   2
ATOM      2  C   UNL A   1      31.756  31.522  26.899  1.00  0.00     0.042 C 
BRANCH   2   3
ATOM      3  C   UNL A   1      32.863  32.556  26.878  1.00  0.00     0.118 C 
BRANCH   3   4
ATOM      4  N   UNL A   1      32.522  33.783  27.585  1.00  0.00    -0.352 N 
ATOM      5  O   UNL A   1      32.610  35.333  29.223  1.00  0.00    -0.269 OA
ATOM      6  C   UNL A   1      33.127  34.369  28.670  1.00  0.00     0.251 C 
ATOM      7  H   UNL A   1      31.740  34.265  27.232  1.00  0.00     0.163 HD
BRANCH   6   8
ATOM      8  C   UNL A   1      34.398  33.818  29.183  1.00  0.00     0.039 A 
ATOM      9  C   UNL A   1      34.399  32.934  30.264  1.00  0.00     0.014 A 
ATOM     10  C   UNL A   1      35.600  34.180  28.568  1.00  0.00     0.014 A 
ATOM     11  C   UNL A   1      35.599  32.543  30.833  1.00  0.00     0.010 A 
ATOM     12  C   UNL A   1      36.806  33.687  29.070  1.00  0.00     0.010 A 
ATOM     13  C   UNL A   1      36.814  32.879  30.218  1.00  0.00    -0.014 A 
BRANCH  13  14
ATOM     14  C   UNL A   1      38.062  32.258  30.714  1.00  0.00     0.031 A 
ATOM     15  C   UNL A   1      38.624  31.016  30.090  1.00  0.00     0.074 A 
ATOM     16  C   UNL A   1      38.682  32.846  31.757  1.00  0.00     0.049 A 
ATOM     17  N   UNL A   1      39.685  30.333  30.437  1.00  0.00    -0.248 NA
ATOM     18  C   UNL A   1      37.903  30.458  28.934  1.00  0.00     0.031 C 
ATOM     19  C   UNL A   1      38.208  34.050  32.449  1.00  0.00     0.029 A 
ATOM     20  N   UNL A   1      39.838  32.522  32.416  1.00  0.00    -0.354 N 
ATOM     21  C   UNL A   1      39.746  29.255  29.567  1.00  0.00     0.074 A 
ATOM     22  C   UNL A   1      38.611  29.364  28.676  1.00  0.00     0.031 C 
ATOM     23  C   UNL A   1      39.077  34.378  33.412  1.00  0.00     0.029 A 
ATOM     24  C   UNL A   1      40.125  33.369  33.461  1.00  0.00     0.049 A 
ATOM     25  H   UNL A   1      40.407  31.758  32.168  1.00  0.00     0.167 HD
ATOM     26  C   UNL A   1      40.671  28.266  29.524  1.00  0.00     0.037 A 
ATOM     27  C   UNL A   1      41.098  33.316  34.385  1.00  0.00     0.037 A 
ATOM     28  C   UNL A   1      41.811  28.189  30.403  1.00  0.00     0.049 A 
ATOM     29  C   UNL A   1      42.084  32.189  34.328  1.00  0.00     0.074 A 
ATOM     30  C   UNL A   1      42.851  27.275  30.383  1.00  0.00     0.029 A 
ATOM     31  N   UNL A   1      42.051  29.047  31.465  1.00  0.00    -0.354 N 
ATOM     32  N   UNL A   1      42.169  31.213  33.457  1.00  0.00    -0.248 NA
ATOM     33  C   UNL A   1      43.100  32.146  35.387  1.00  0.00     0.031 C 
ATOM     34  C   UNL A   1      43.690  27.546  31.468  1.00  0.00     0.029 A 
ATOM     35  C   UNL A   1      43.199  28.657  32.136  1.00  0.00     0.049 A 
ATOM     36  H   UNL A   1      41.490  29.819  31.706  1.00  0.00     0.167 HD
ATOM     37  C   UNL A   1      43.247  30.441  33.859  1.00  0.00     0.074 A 
ATOM     38  C   UNL A   1      43.804  31.078  35.035  1.00  0.00     0.031 C 
ATOM     39  C   UNL A   1      43.730  29.300  33.309  1.00  0.00     0.037 A 
BRANCH  26  40
ATOM     40  C   UNL A   1      40.492  27.169  28.516  1.00  0.00     0.057 A 
ATOM     41  C   UNL A   1      39.608  26.105  28.725  1.00  0.00     0.134 A 
ATOM     42  C   UNL A   1      41.148  27.235  27.279  1.00  0.00     0.134 A 
ATOM     43  F   UNL A   1      38.954  25.982  29.889  1.00  0.00    -0.206 F 
ATOM     44  C   UNL A   1      39.385  25.141  27.739  1.00  0.00     0.040 A 
ATOM     45  C   UNL A   1      40.918  26.287  26.279  1.00  0.00     0.040 A 
ATOM     46  F   UNL A   1      42.003  28.234  27.013  1.00  0.00    -0.206 F 
ATOM     47  C   UNL A   1      40.033  25.237  26.508  1.00  0.00     0.006 A 
ENDBRANCH  26  40
BRANCH  27  48
ATOM     48  C   UNL A   1      41.147  34.329  35.467  1.00  0.00     0.057 A 
ATOM     49  C   UNL A   1      41.903  35.498  35.338  1.00  0.00     0.134 A 
ATOM     50  C   UNL A   1      40.428  34.153  36.657  1.00  0.00     0.134 A 
ATOM     51  F   UNL A   1      42.624  35.716  34.228  1.00  0.00    -0.206 F 
ATOM     52  C   UNL A   1      41.960  36.447  36.360  1.00  0.00     0.040 A 
ATOM     53  C   UNL A   1      40.451  35.106  37.674  1.00  0.00     0.040 A 
ATOM     54  F   UNL A   1      39.674  33.058  36.839  1.00  0.00    -0.206 F 
ATOM     55  C   UNL A   1      41.227  36.255  37.530  1.00  0.00     0.006 A 
ENDBRANCH  27  48
BRANCH  39  56
ATOM     56  C   UNL A   1      44.916  28.677  33.976  1.00  0.00     0.057 A 
ATOM     57  C   UNL A   1      46.223  29.050  33.641  1.00  0.00     0.134 A 
ATOM     58  C   UNL A   1      44.751  27.722  34.986  1.00  0.00     0.134 A 
ATOM     59  F   UNL A   1      46.446  29.947  32.668  1.00  0.00    -0.206 F 
ATOM     60  C   UNL A   1      47.327  28.483  34.277  1.00  0.00     0.040 A 
ATOM     61  C   UNL A   1      45.846  27.166  35.647  1.00  0.00     0.040 A 
ATOM     62  F   UNL A   1      43.524  27.327  35.356  1.00  0.00    -0.206 F 
ATOM     63  C   UNL A   1      47.140  27.544  35.289  1.00  0.00     0.006 A 
ENDBRANCH  39  56
ENDBRANCH  13  14
ENDBRANCH   6   8
ENDBRANCH   3   4
ENDBRANCH   2   3
ENDBRANCH   1   2
BRANCH   1  64
ATOM     64  N   UNL A   1      32.805  30.078  25.177  1.00  0.00    -0.352 N 
ATOM     65  C   UNL A   1      33.004  28.981  24.393  1.00  0.00     0.253 C 
ATOM     66  H   UNL A   1      33.110  30.936  24.804  1.00  0.00     0.163 HD
ATOM     67  O   UNL A   1      33.607  29.096  23.328  1.00  0.00    -0.269 OA
BRANCH  65  68
ATOM     68  C   UNL A   1      32.547  27.644  24.811  1.00  0.00     0.063 A 
ATOM     69  C   UNL A   1      33.575  26.714  25.058  1.00  0.00     0.016 A 
ATOM     70  C   UNL A   1      31.209  27.219  24.735  1.00  0.00     0.062 A 
ATOM     71  C   UNL A   1      33.283  25.359  25.198  1.00  0.00     0.001 A 
ATOM     72  C   UNL A   1      30.960  25.842  24.767  1.00  0.00     0.027 A 
ATOM     73  C   UNL A   1      31.978  24.919  25.018  1.00  0.00     0.002 A 
BRANCH  70  74
ATOM     74  N   UNL A   1      30.074  28.084  24.587  1.00  0.00    -0.279 N 
ATOM     75  H   UNL A   1      29.700  28.522  25.385  1.00  0.00     0.180 HD
BRANCH  74  76
ATOM     76  S   UNL A   1      29.355  28.379  23.071  1.00  0.00     0.262 S 
ATOM     77  O   UNL A   1      30.289  28.084  22.001  1.00  0.00    -0.201 OA
ATOM     78  O   UNL A   1      28.075  27.714  23.116  1.00  0.00    -0.201 OA
BRANCH  76  79
ATOM     79  C   UNL A   1      29.059  30.123  22.946  1.00  0.00     0.094 A 
ATOM     80  C   UNL A   1      29.640  30.971  23.904  1.00  0.00     0.023 A 
ATOM     81  C   UNL A   1      28.401  30.655  21.838  1.00  0.00     0.107 A 
ATOM     82  C   UNL A   1      29.441  32.347  23.842  1.00  0.00     0.008 A 
ATOM     83  C   UNL A   1      28.266  32.047  21.750  1.00  0.00     0.270 A 
ATOM     84  C   UNL A   1      28.745  32.891  22.766  1.00  0.00     0.086 A 
BRANCH  83  85
ATOM     85  N   UNL A   1      27.653  32.642  20.560  1.00  0.00     0.062 N 
ATOM     86  O   UNL A   1      27.270  33.817  20.641  1.00  0.00    -0.258 OA
ATOM     87  O   UNL A   1      27.569  31.936  19.546  1.00  0.00    -0.258 OA
ENDBRANCH  83  85
ENDBRANCH  76  79
ENDBRANCH  74  76
ENDBRANCH  70  74
ENDBRANCH  65  68
ENDBRANCH   1  64
TORSDOF 14
ENDMDL
