MODEL 1
REMARK VINA RESULT:     -10.9      0.000      0.000
REMARK SMILES CC(C)[C@H](CO)NS(=O)(=O)c1ccc(C(=O)NCCCNC(=O)c2ccc(-c3c4nc(c(-c5c(F)cccc5F)c5ccc([nH]5)c(-c5c(F)cccc5F)c5nc(c(-c6c(F)cccc6F)c6ccc3[nH]6)C=C5)C=C4)cc2)cn1
REMARK SMILES IDX 15 1 16 2 17 3 14 5 11 6 12 7 79 8 13 9 78 10 8 11 9 12
REMARK SMILES IDX 10 13 7 14 4 16 2 17 1 18 3 19 5 20 6 21 18 23 19 24 20 25
REMARK SMILES IDX 21 26 22 27 23 29 24 30 25 31 77 32 26 33 76 34 27 35 28 36
REMARK SMILES IDX 29 37 70 38 30 39 75 40 69 41 71 42 31 43 74 44 68 45 67 46
REMARK SMILES IDX 32 48 58 49 41 50 57 51 42 52 45 53 56 54 72 55 43 56 44 57
REMARK SMILES IDX 55 59 73 60 46 61 33 62 34 63 39 64 35 65 36 66 38 67 40 68
REMARK SMILES IDX 37 69 59 70 60 71 65 72 61 73 62 74 64 75 66 76 63 77 47 78
REMARK SMILES IDX 48 79 53 80 49 81 50 82 52 83 54 84 51 85
REMARK H PARENT 17 4 7 15 6 22 21 28 71 47 45 58
REMARK Flexibility Score: inf
ROOT
ATOM      1  C   UNL A   1      35.093  21.991  25.920  1.00  0.00     0.252 C 
ATOM      2  O   UNL A   1      34.474  21.773  26.960  1.00  0.00    -0.269 OA
ATOM      3  N   UNL A   1      36.198  21.221  25.657  1.00  0.00    -0.352 N 
ATOM      4  H   UNL A   1      36.424  20.584  26.372  1.00  0.00     0.163 HD
ENDROOT
BRANCH   1   5
ATOM      5  C   UNL A   1      34.593  23.035  24.995  1.00  0.00     0.058 A 
ATOM      6  C   UNL A   1      33.631  24.762  23.097  1.00  0.00     0.170 A 
ATOM      7  C   UNL A   1      34.283  25.297  24.193  1.00  0.00     0.043 A 
ATOM      8  N   UNL A   1      33.396  23.435  22.913  1.00  0.00    -0.243 NA
ATOM      9  C   UNL A   1      34.742  24.413  25.167  1.00  0.00     0.018 A 
ATOM     10  C   UNL A   1      33.889  22.607  23.869  1.00  0.00     0.126 A 
BRANCH   6  11
ATOM     11  S   UNL A   1      33.092  25.832  21.769  1.00  0.00     0.258 S 
ATOM     12  O   UNL A   1      33.236  25.132  20.513  1.00  0.00    -0.205 OA
ATOM     13  O   UNL A   1      33.743  27.117  21.947  1.00  0.00    -0.205 OA
BRANCH  11  14
ATOM     14  N   UNL A   1      31.435  26.139  22.008  1.00  0.00    -0.204 NA
ATOM     15  H   UNL A   1      31.116  26.655  21.188  1.00  0.00     0.141 HD
BRANCH  14  16
ATOM     16  C   UNL A   1      30.953  26.903  23.206  1.00  0.00     0.098 C 
BRANCH  16  17
ATOM     17  C   UNL A   1      30.161  26.034  24.219  1.00  0.00     0.003 C 
ATOM     18  C   UNL A   1      30.616  26.157  25.673  1.00  0.00     0.009 C 
ATOM     19  C   UNL A   1      28.668  26.403  24.169  1.00  0.00     0.009 C 
ENDBRANCH  16  17
BRANCH  16  20
ATOM     20  C   UNL A   1      30.052  28.033  22.633  1.00  0.00     0.176 C 
BRANCH  20  21
ATOM     21  O   UNL A   1      30.747  28.775  21.628  1.00  0.00    -0.395 OA
ATOM     22  H   UNL A   1      31.700  28.608  21.703  1.00  0.00     0.210 HD
ENDBRANCH  20  21
ENDBRANCH  16  20
ENDBRANCH  14  16
ENDBRANCH  11  14
ENDBRANCH   6  11
ENDBRANCH   1   5
BRANCH   3  23
ATOM     23  C   UNL A   1      37.095  21.174  24.516  1.00  0.00     0.118 C 
BRANCH  23  24
ATOM     24  C   UNL A   1      38.075  20.008  24.637  1.00  0.00     0.042 C 
BRANCH  24  25
ATOM     25  C   UNL A   1      38.842  20.004  25.955  1.00  0.00     0.118 C 
BRANCH  25  26
ATOM     26  N   UNL A   1      40.069  19.228  25.860  1.00  0.00    -0.352 N 
ATOM     27  C   UNL A   1      41.377  19.622  25.975  1.00  0.00     0.251 C 
ATOM     28  H   UNL A   1      39.940  18.268  25.684  1.00  0.00     0.163 HD
ATOM     29  O   UNL A   1      42.267  18.865  25.598  1.00  0.00    -0.269 OA
BRANCH  27  30
ATOM     30  C   UNL A   1      41.724  20.942  26.542  1.00  0.00     0.039 A 
ATOM     31  C   UNL A   1      42.119  21.963  25.672  1.00  0.00     0.014 A 
ATOM     32  C   UNL A   1      41.720  21.164  27.921  1.00  0.00     0.014 A 
ATOM     33  C   UNL A   1      42.464  23.214  26.181  1.00  0.00     0.010 A 
ATOM     34  C   UNL A   1      41.983  22.436  28.423  1.00  0.00     0.010 A 
ATOM     35  C   UNL A   1      42.369  23.470  27.559  1.00  0.00    -0.014 A 
BRANCH  35  36
ATOM     36  C   UNL A   1      42.669  24.816  28.107  1.00  0.00     0.031 A 
ATOM     37  C   UNL A   1      44.068  25.181  28.516  1.00  0.00     0.074 A 
ATOM     38  C   UNL A   1      41.662  25.694  28.281  1.00  0.00     0.049 A 
ATOM     39  N   UNL A   1      44.513  26.295  29.039  1.00  0.00    -0.248 NA
ATOM     40  C   UNL A   1      45.101  24.148  28.339  1.00  0.00     0.031 C 
ATOM     41  C   UNL A   1      40.254  25.438  27.968  1.00  0.00     0.029 A 
ATOM     42  N   UNL A   1      41.667  26.977  28.766  1.00  0.00    -0.354 N 
ATOM     43  C   UNL A   1      45.870  26.094  29.262  1.00  0.00     0.074 A 
ATOM     44  C   UNL A   1      46.162  24.730  28.875  1.00  0.00     0.031 C 
ATOM     45  C   UNL A   1      39.537  26.541  28.235  1.00  0.00     0.029 A 
ATOM     46  C   UNL A   1      40.425  27.564  28.777  1.00  0.00     0.049 A 
ATOM     47  H   UNL A   1      42.482  27.433  29.077  1.00  0.00     0.167 HD
ATOM     48  C   UNL A   1      46.792  26.972  29.722  1.00  0.00     0.037 A 
ATOM     49  C   UNL A   1      40.045  28.790  29.181  1.00  0.00     0.037 A 
ATOM     50  C   UNL A   1      46.494  28.331  30.096  1.00  0.00     0.049 A 
ATOM     51  C   UNL A   1      41.083  29.742  29.705  1.00  0.00     0.074 A 
ATOM     52  C   UNL A   1      47.365  29.320  30.522  1.00  0.00     0.029 A 
ATOM     53  N   UNL A   1      45.225  28.890  30.095  1.00  0.00    -0.354 N 
ATOM     54  N   UNL A   1      42.375  29.564  29.841  1.00  0.00    -0.248 NA
ATOM     55  C   UNL A   1      40.610  31.068  30.124  1.00  0.00     0.031 C 
ATOM     56  C   UNL A   1      46.613  30.458  30.834  1.00  0.00     0.029 A 
ATOM     57  C   UNL A   1      45.283  30.201  30.543  1.00  0.00     0.049 A 
ATOM     58  H   UNL A   1      44.402  28.424  29.818  1.00  0.00     0.167 HD
ATOM     59  C   UNL A   1      42.874  30.760  30.337  1.00  0.00     0.074 A 
ATOM     60  C   UNL A   1      41.746  31.663  30.458  1.00  0.00     0.031 C 
ATOM     61  C   UNL A   1      44.149  31.085  30.663  1.00  0.00     0.037 A 
BRANCH  48  62
ATOM     62  C   UNL A   1      48.208  26.483  29.853  1.00  0.00     0.057 A 
ATOM     63  C   UNL A   1      48.669  25.849  31.016  1.00  0.00     0.134 A 
ATOM     64  C   UNL A   1      49.118  26.633  28.799  1.00  0.00     0.134 A 
ATOM     65  F   UNL A   1      47.855  25.682  32.069  1.00  0.00    -0.206 F 
ATOM     66  C   UNL A   1      49.991  25.415  31.138  1.00  0.00     0.040 A 
ATOM     67  C   UNL A   1      50.433  26.175  28.898  1.00  0.00     0.040 A 
ATOM     68  F   UNL A   1      48.744  27.223  27.654  1.00  0.00    -0.206 F 
ATOM     69  C   UNL A   1      50.876  25.573  30.074  1.00  0.00     0.006 A 
ENDBRANCH  48  62
BRANCH  49  70
ATOM     70  C   UNL A   1      38.619  29.195  29.076  1.00  0.00     0.057 A 
ATOM     71  C   UNL A   1      37.768  29.128  30.184  1.00  0.00     0.134 A 
ATOM     72  C   UNL A   1      38.078  29.665  27.873  1.00  0.00     0.134 A 
ATOM     73  F   UNL A   1      38.225  28.671  31.360  1.00  0.00    -0.206 F 
ATOM     74  C   UNL A   1      36.424  29.497  30.098  1.00  0.00     0.040 A 
ATOM     75  C   UNL A   1      36.743  30.064  27.780  1.00  0.00     0.040 A 
ATOM     76  F   UNL A   1      38.845  29.765  26.778  1.00  0.00    -0.206 F 
ATOM     77  C   UNL A   1      35.911  29.973  28.893  1.00  0.00     0.006 A 
ENDBRANCH  49  70
BRANCH  61  78
ATOM     78  C   UNL A   1      44.395  32.483  31.155  1.00  0.00     0.057 A 
ATOM     79  C   UNL A   1      44.673  33.540  30.279  1.00  0.00     0.134 A 
ATOM     80  C   UNL A   1      44.332  32.778  32.523  1.00  0.00     0.134 A 
ATOM     81  F   UNL A   1      44.761  33.324  28.957  1.00  0.00    -0.206 F 
ATOM     82  C   UNL A   1      44.908  34.834  30.748  1.00  0.00     0.040 A 
ATOM     83  C   UNL A   1      44.533  34.073  33.001  1.00  0.00     0.040 A 
ATOM     84  F   UNL A   1      44.060  31.815  33.416  1.00  0.00    -0.206 F 
ATOM     85  C   UNL A   1      44.832  35.104  32.113  1.00  0.00     0.006 A 
ENDBRANCH  61  78
ENDBRANCH  35  36
ENDBRANCH  27  30
ENDBRANCH  25  26
ENDBRANCH  24  25
ENDBRANCH  23  24
ENDBRANCH   3  23
TORSDOF 16
ENDMDL
MODEL 2
REMARK VINA RESULT:     -10.9      1.451      2.091
REMARK SMILES CC(C)[C@H](CO)NS(=O)(=O)c1ccc(C(=O)NCCCNC(=O)c2ccc(-c3c4nc(c(-c5c(F)cccc5F)c5ccc([nH]5)c(-c5c(F)cccc5F)c5nc(c(-c6c(F)cccc6F)c6ccc3[nH]6)C=C5)C=C4)cc2)cn1
REMARK SMILES IDX 15 1 16 2 17 3 14 5 11 6 12 7 79 8 13 9 78 10 8 11 9 12
REMARK SMILES IDX 10 13 7 14 4 16 2 17 1 18 3 19 5 20 6 21 18 23 19 24 20 25
REMARK SMILES IDX 21 26 22 27 23 29 24 30 25 31 77 32 26 33 76 34 27 35 28 36
REMARK SMILES IDX 29 37 70 38 30 39 75 40 69 41 71 42 31 43 74 44 68 45 67 46
REMARK SMILES IDX 32 48 58 49 41 50 57 51 42 52 45 53 56 54 72 55 43 56 44 57
REMARK SMILES IDX 55 59 73 60 46 61 33 62 34 63 39 64 35 65 36 66 38 67 40 68
REMARK SMILES IDX 37 69 59 70 60 71 65 72 61 73 62 74 64 75 66 76 63 77 47 78
REMARK SMILES IDX 48 79 53 80 49 81 50 82 52 83 54 84 51 85
REMARK H PARENT 17 4 7 15 6 22 21 28 71 47 45 58
REMARK Flexibility Score: inf
ROOT
ATOM      1  C   UNL A   1      37.389  23.317  25.469  1.00  0.00     0.252 C 
ATOM      2  O   UNL A   1      38.181  24.172  25.863  1.00  0.00    -0.269 OA
ATOM      3  N   UNL A   1      37.903  22.141  24.985  1.00  0.00    -0.352 N 
ATOM      4  H   UNL A   1      38.886  22.115  24.951  1.00  0.00     0.163 HD
ENDROOT
BRANCH   1   5
ATOM      5  C   UNL A   1      35.936  23.586  25.576  1.00  0.00     0.058 A 
ATOM      6  C   UNL A   1      33.244  23.899  25.986  1.00  0.00     0.170 A 
ATOM      7  C   UNL A   1      33.780  24.368  24.801  1.00  0.00     0.043 A 
ATOM      8  N   UNL A   1      33.967  23.327  26.986  1.00  0.00    -0.243 NA
ATOM      9  C   UNL A   1      35.154  24.231  24.615  1.00  0.00     0.018 A 
ATOM     10  C   UNL A   1      35.297  23.183  26.749  1.00  0.00     0.126 A 
BRANCH   6  11
ATOM     11  S   UNL A   1      31.477  23.966  26.255  1.00  0.00     0.258 S 
ATOM     12  O   UNL A   1      31.161  23.272  27.482  1.00  0.00    -0.205 OA
ATOM     13  O   UNL A   1      30.829  23.563  25.021  1.00  0.00    -0.205 OA
BRANCH  11  14
ATOM     14  N   UNL A   1      31.058  25.603  26.459  1.00  0.00    -0.204 NA
ATOM     15  H   UNL A   1      30.040  25.648  26.420  1.00  0.00     0.141 HD
BRANCH  14  16
ATOM     16  C   UNL A   1      31.567  26.657  25.521  1.00  0.00     0.098 C 
BRANCH  16  17
ATOM     17  C   UNL A   1      32.165  27.895  26.242  1.00  0.00     0.003 C 
ATOM     18  C   UNL A   1      31.616  28.156  27.644  1.00  0.00     0.009 C 
ATOM     19  C   UNL A   1      33.691  27.741  26.364  1.00  0.00     0.009 C 
ENDBRANCH  16  17
BRANCH  16  20
ATOM     20  C   UNL A   1      30.339  27.065  24.660  1.00  0.00     0.176 C 
BRANCH  20  21
ATOM     21  O   UNL A   1      30.572  28.314  24.004  1.00  0.00    -0.395 OA
ATOM     22  H   UNL A   1      29.818  28.905  24.156  1.00  0.00     0.210 HD
ENDBRANCH  20  21
ENDBRANCH  16  20
ENDBRANCH  14  16
ENDBRANCH  11  14
ENDBRANCH   6  11
ENDBRANCH   1   5
BRANCH   3  23
ATOM     23  C   UNL A   1      37.261  20.928  24.512  1.00  0.00     0.118 C 
BRANCH  23  24
ATOM     24  C   UNL A   1      38.086  19.694  24.873  1.00  0.00     0.042 C 
BRANCH  24  25
ATOM     25  C   UNL A   1      39.035  19.930  26.044  1.00  0.00     0.118 C 
BRANCH  25  26
ATOM     26  N   UNL A   1      40.281  19.196  25.881  1.00  0.00    -0.352 N 
ATOM     27  C   UNL A   1      41.579  19.631  25.943  1.00  0.00     0.251 C 
ATOM     28  H   UNL A   1      40.175  18.235  25.696  1.00  0.00     0.163 HD
ATOM     29  O   UNL A   1      42.475  18.909  25.514  1.00  0.00    -0.269 OA
BRANCH  27  30
ATOM     30  C   UNL A   1      41.909  20.954  26.515  1.00  0.00     0.039 A 
ATOM     31  C   UNL A   1      42.270  21.988  25.646  1.00  0.00     0.014 A 
ATOM     32  C   UNL A   1      41.922  21.166  27.896  1.00  0.00     0.014 A 
ATOM     33  C   UNL A   1      42.599  23.243  26.159  1.00  0.00     0.010 A 
ATOM     34  C   UNL A   1      42.168  22.439  28.402  1.00  0.00     0.010 A 
ATOM     35  C   UNL A   1      42.520  23.487  27.541  1.00  0.00    -0.014 A 
BRANCH  35  36
ATOM     36  C   UNL A   1      42.801  24.835  28.094  1.00  0.00     0.031 A 
ATOM     37  C   UNL A   1      44.195  25.215  28.507  1.00  0.00     0.074 A 
ATOM     38  C   UNL A   1      41.784  25.699  28.269  1.00  0.00     0.049 A 
ATOM     39  N   UNL A   1      44.625  26.333  29.035  1.00  0.00    -0.248 NA
ATOM     40  C   UNL A   1      45.241  24.196  28.329  1.00  0.00     0.031 C 
ATOM     41  C   UNL A   1      40.380  25.427  27.951  1.00  0.00     0.029 A 
ATOM     42  N   UNL A   1      41.771  26.981  28.758  1.00  0.00    -0.354 N 
ATOM     43  C   UNL A   1      45.984  26.148  29.260  1.00  0.00     0.074 A 
ATOM     44  C   UNL A   1      46.294  24.790  28.870  1.00  0.00     0.031 C 
ATOM     45  C   UNL A   1      39.649  26.520  28.220  1.00  0.00     0.029 A 
ATOM     46  C   UNL A   1      40.522  27.552  28.768  1.00  0.00     0.049 A 
ATOM     47  H   UNL A   1      42.579  27.446  29.072  1.00  0.00     0.167 HD
ATOM     48  C   UNL A   1      46.894  27.036  29.726  1.00  0.00     0.037 A 
ATOM     49  C   UNL A   1      40.125  28.772  29.175  1.00  0.00     0.037 A 
ATOM     50  C   UNL A   1      46.578  28.390  30.104  1.00  0.00     0.049 A 
ATOM     51  C   UNL A   1      41.151  29.735  29.705  1.00  0.00     0.074 A 
ATOM     52  C   UNL A   1      47.435  29.388  30.536  1.00  0.00     0.029 A 
ATOM     53  N   UNL A   1      45.302  28.934  30.102  1.00  0.00    -0.354 N 
ATOM     54  N   UNL A   1      42.444  29.572  29.844  1.00  0.00    -0.248 NA
ATOM     55  C   UNL A   1      40.660  31.053  30.127  1.00  0.00     0.031 C 
ATOM     56  C   UNL A   1      46.669  30.516  30.849  1.00  0.00     0.029 A 
ATOM     57  C   UNL A   1      45.343  30.243  30.554  1.00  0.00     0.049 A 
ATOM     58  H   UNL A   1      44.486  28.458  29.821  1.00  0.00     0.167 HD
ATOM     59  C   UNL A   1      42.927  30.773  30.345  1.00  0.00     0.074 A 
ATOM     60  C   UNL A   1      41.788  31.661  30.466  1.00  0.00     0.031 C 
ATOM     61  C   UNL A   1      44.198  31.113  30.675  1.00  0.00     0.037 A 
BRANCH  48  62
ATOM     62  C   UNL A   1      48.315  26.565  29.859  1.00  0.00     0.057 A 
ATOM     63  C   UNL A   1      48.782  25.931  31.020  1.00  0.00     0.134 A 
ATOM     64  C   UNL A   1      49.226  26.730  28.808  1.00  0.00     0.134 A 
ATOM     65  F   UNL A   1      47.967  25.749  32.070  1.00  0.00    -0.206 F 
ATOM     66  C   UNL A   1      50.109  25.514  31.144  1.00  0.00     0.040 A 
ATOM     67  C   UNL A   1      50.547  26.288  28.908  1.00  0.00     0.040 A 
ATOM     68  F   UNL A   1      48.848  27.320  27.664  1.00  0.00    -0.206 F 
ATOM     69  C   UNL A   1      50.994  25.687  30.082  1.00  0.00     0.006 A 
ENDBRANCH  48  62
BRANCH  49  70
ATOM     70  C   UNL A   1      38.695  29.159  29.068  1.00  0.00     0.057 A 
ATOM     71  C   UNL A   1      37.851  29.111  30.182  1.00  0.00     0.134 A 
ATOM     72  C   UNL A   1      38.143  29.594  27.857  1.00  0.00     0.134 A 
ATOM     73  F   UNL A   1      38.319  28.689  31.367  1.00  0.00    -0.206 F 
ATOM     74  C   UNL A   1      36.503  29.464  30.095  1.00  0.00     0.040 A 
ATOM     75  C   UNL A   1      36.804  29.976  27.761  1.00  0.00     0.040 A 
ATOM     76  F   UNL A   1      38.902  29.674  26.755  1.00  0.00    -0.206 F 
ATOM     77  C   UNL A   1      35.978  29.904  28.881  1.00  0.00     0.006 A 
ENDBRANCH  49  70
BRANCH  61  78
ATOM     78  C   UNL A   1      44.425  32.512  31.172  1.00  0.00     0.057 A 
ATOM     79  C   UNL A   1      44.394  32.830  32.536  1.00  0.00     0.134 A 
ATOM     80  C   UNL A   1      44.700  33.551  30.273  1.00  0.00     0.134 A 
ATOM     81  F   UNL A   1      44.123  31.884  33.449  1.00  0.00    -0.206 F 
ATOM     82  C   UNL A   1      44.598  34.135  32.985  1.00  0.00     0.040 A 
ATOM     83  C   UNL A   1      44.937  34.853  30.713  1.00  0.00     0.040 A 
ATOM     84  F   UNL A   1      44.755  33.315  28.954  1.00  0.00    -0.206 F 
ATOM     85  C   UNL A   1      44.877  35.150  32.073  1.00  0.00     0.006 A 
ENDBRANCH  61  78
ENDBRANCH  35  36
ENDBRANCH  27  30
ENDBRANCH  25  26
ENDBRANCH  24  25
ENDBRANCH  23  24
ENDBRANCH   3  23
TORSDOF 16
ENDMDL
MODEL 3
REMARK VINA RESULT:     -10.8      3.636      8.781
REMARK SMILES CC(C)[C@H](CO)NS(=O)(=O)c1ccc(C(=O)NCCCNC(=O)c2ccc(-c3c4nc(c(-c5c(F)cccc5F)c5ccc([nH]5)c(-c5c(F)cccc5F)c5nc(c(-c6c(F)cccc6F)c6ccc3[nH]6)C=C5)C=C4)cc2)cn1
REMARK SMILES IDX 15 1 16 2 17 3 14 5 11 6 12 7 79 8 13 9 78 10 8 11 9 12
REMARK SMILES IDX 10 13 7 14 4 16 2 17 1 18 3 19 5 20 6 21 18 23 19 24 20 25
REMARK SMILES IDX 21 26 22 27 23 29 24 30 25 31 77 32 26 33 76 34 27 35 28 36
REMARK SMILES IDX 29 37 70 38 30 39 75 40 69 41 71 42 31 43 74 44 68 45 67 46
REMARK SMILES IDX 32 48 58 49 41 50 57 51 42 52 45 53 56 54 72 55 43 56 44 57
REMARK SMILES IDX 55 59 73 60 46 61 33 62 34 63 39 64 35 65 36 66 38 67 40 68
REMARK SMILES IDX 37 69 59 70 60 71 65 72 61 73 62 74 64 75 66 76 63 77 47 78
REMARK SMILES IDX 48 79 53 80 49 81 50 82 52 83 54 84 51 85
REMARK H PARENT 17 4 7 15 6 22 21 28 71 47 45 58
REMARK Flexibility Score: inf
ROOT
ATOM      1  C   UNL A   1      33.817  29.039  27.087  1.00  0.00     0.252 C 
ATOM      2  O   UNL A   1      34.869  28.992  27.722  1.00  0.00    -0.269 OA
ATOM      3  N   UNL A   1      32.921  30.029  27.401  1.00  0.00    -0.352 N 
ATOM      4  H   UNL A   1      33.192  30.591  28.162  1.00  0.00     0.163 HD
ENDROOT
BRANCH   1   5
ATOM      5  C   UNL A   1      33.594  28.058  25.998  1.00  0.00     0.058 A 
ATOM      6  C   UNL A   1      33.265  26.445  23.808  1.00  0.00     0.170 A 
ATOM      7  C   UNL A   1      32.694  26.044  25.002  1.00  0.00     0.043 A 
ATOM      8  N   UNL A   1      34.016  27.567  23.651  1.00  0.00    -0.243 NA
ATOM      9  C   UNL A   1      32.893  26.856  26.117  1.00  0.00     0.018 A 
ATOM     10  C   UNL A   1      34.156  28.346  24.754  1.00  0.00     0.126 A 
BRANCH   6  11
ATOM     11  S   UNL A   1      32.979  25.495  22.320  1.00  0.00     0.258 S 
ATOM     12  O   UNL A   1      33.470  26.240  21.184  1.00  0.00    -0.205 OA
ATOM     13  O   UNL A   1      31.597  25.053  22.338  1.00  0.00    -0.205 OA
BRANCH  11  14
ATOM     14  N   UNL A   1      33.901  24.069  22.445  1.00  0.00    -0.204 NA
ATOM     15  H   UNL A   1      33.570  23.446  21.708  1.00  0.00     0.141 HD
BRANCH  14  16
ATOM     16  C   UNL A   1      33.913  23.263  23.710  1.00  0.00     0.098 C 
BRANCH  16  17
ATOM     17  C   UNL A   1      35.341  22.974  24.248  1.00  0.00     0.003 C 
ATOM     18  C   UNL A   1      36.449  23.009  23.196  1.00  0.00     0.009 C 
ATOM     19  C   UNL A   1      35.705  23.999  25.337  1.00  0.00     0.009 C 
ENDBRANCH  16  17
BRANCH  16  20
ATOM     20  C   UNL A   1      33.184  21.936  23.357  1.00  0.00     0.176 C 
BRANCH  20  21
ATOM     21  O   UNL A   1      32.134  22.171  22.414  1.00  0.00    -0.395 OA
ATOM     22  H   UNL A   1      32.517  22.322  21.535  1.00  0.00     0.210 HD
ENDBRANCH  20  21
ENDBRANCH  16  20
ENDBRANCH  14  16
ENDBRANCH  11  14
ENDBRANCH   6  11
ENDBRANCH   1   5
BRANCH   3  23
ATOM     23  C   UNL A   1      31.644  30.398  26.817  1.00  0.00     0.118 C 
BRANCH  23  24
ATOM     24  C   UNL A   1      31.430  31.910  26.879  1.00  0.00     0.042 C 
BRANCH  24  25
ATOM     25  C   UNL A   1      32.732  32.696  26.991  1.00  0.00     0.118 C 
BRANCH  25  26
ATOM     26  N   UNL A   1      32.529  33.981  27.641  1.00  0.00    -0.352 N 
ATOM     27  C   UNL A   1      33.176  34.545  28.710  1.00  0.00     0.251 C 
ATOM     28  H   UNL A   1      31.813  34.533  27.253  1.00  0.00     0.163 HD
ATOM     29  O   UNL A   1      32.678  35.519  29.268  1.00  0.00    -0.269 OA
BRANCH  27  30
ATOM     30  C   UNL A   1      34.459  33.995  29.196  1.00  0.00     0.039 A 
ATOM     31  C   UNL A   1      34.448  33.157  30.315  1.00  0.00     0.014 A 
ATOM     32  C   UNL A   1      35.672  34.342  28.596  1.00  0.00     0.014 A 
ATOM     33  C   UNL A   1      35.646  32.634  30.802  1.00  0.00     0.010 A 
ATOM     34  C   UNL A   1      36.857  33.754  29.030  1.00  0.00     0.010 A 
ATOM     35  C   UNL A   1      36.857  32.903  30.144  1.00  0.00    -0.014 A 
BRANCH  35  36
ATOM     36  C   UNL A   1      38.130  32.299  30.611  1.00  0.00     0.031 A 
ATOM     37  C   UNL A   1      38.629  31.013  30.016  1.00  0.00     0.074 A 
ATOM     38  C   UNL A   1      38.810  32.891  31.612  1.00  0.00     0.049 A 
ATOM     39  N   UNL A   1      39.701  30.323  30.316  1.00  0.00    -0.248 NA
ATOM     40  C   UNL A   1      37.802  30.405  28.961  1.00  0.00     0.031 C 
ATOM     41  C   UNL A   1      38.400  34.116  32.303  1.00  0.00     0.029 A 
ATOM     42  N   UNL A   1      39.987  32.542  32.223  1.00  0.00    -0.354 N 
ATOM     43  C   UNL A   1      39.671  29.201  29.498  1.00  0.00     0.074 A 
ATOM     44  C   UNL A   1      38.444  29.270  28.734  1.00  0.00     0.031 C 
ATOM     45  C   UNL A   1      39.328  34.435  33.218  1.00  0.00     0.029 A 
ATOM     46  C   UNL A   1      40.373  33.417  33.209  1.00  0.00     0.049 A 
ATOM     47  H   UNL A   1      40.504  31.741  31.980  1.00  0.00     0.167 HD
ATOM     48  C   UNL A   1      40.593  28.216  29.377  1.00  0.00     0.037 A 
ATOM     49  C   UNL A   1      41.451  33.400  34.016  1.00  0.00     0.037 A 
ATOM     50  C   UNL A   1      41.816  28.160  30.135  1.00  0.00     0.049 A 
ATOM     51  C   UNL A   1      42.451  32.288  33.875  1.00  0.00     0.074 A 
ATOM     52  C   UNL A   1      42.843  27.236  30.050  1.00  0.00     0.029 A 
ATOM     53  N   UNL A   1      42.174  29.064  31.125  1.00  0.00    -0.354 N 
ATOM     54  N   UNL A   1      42.447  31.272  33.047  1.00  0.00    -0.248 NA
ATOM     55  C   UNL A   1      43.609  32.325  34.777  1.00  0.00     0.031 C 
ATOM     56  C   UNL A   1      43.794  27.549  31.027  1.00  0.00     0.029 A 
ATOM     57  C   UNL A   1      43.391  28.702  31.680  1.00  0.00     0.049 A 
ATOM     58  H   UNL A   1      41.640  29.847  31.395  1.00  0.00     0.167 HD
ATOM     59  C   UNL A   1      43.612  30.563  33.309  1.00  0.00     0.074 A 
ATOM     60  C   UNL A   1      44.306  31.278  34.361  1.00  0.00     0.031 C 
ATOM     61  C   UNL A   1      44.067  29.423  32.732  1.00  0.00     0.037 A 
BRANCH  48  62
ATOM     62  C   UNL A   1      40.305  27.117  28.393  1.00  0.00     0.057 A 
ATOM     63  C   UNL A   1      39.464  26.040  28.708  1.00  0.00     0.134 A 
ATOM     64  C   UNL A   1      40.861  27.142  27.108  1.00  0.00     0.134 A 
ATOM     65  F   UNL A   1      38.905  25.946  29.924  1.00  0.00    -0.206 F 
ATOM     66  C   UNL A   1      39.217  25.011  27.795  1.00  0.00     0.040 A 
ATOM     67  C   UNL A   1      40.596  26.136  26.176  1.00  0.00     0.040 A 
ATOM     68  F   UNL A   1      41.669  28.145  26.734  1.00  0.00    -0.206 F 
ATOM     69  C   UNL A   1      39.780  25.062  26.522  1.00  0.00     0.006 A 
ENDBRANCH  48  62
BRANCH  49  70
ATOM     70  C   UNL A   1      41.651  34.489  35.006  1.00  0.00     0.057 A 
ATOM     71  C   UNL A   1      42.380  35.636  34.677  1.00  0.00     0.134 A 
ATOM     72  C   UNL A   1      41.113  34.414  36.296  1.00  0.00     0.134 A 
ATOM     73  F   UNL A   1      42.933  35.759  33.461  1.00  0.00    -0.206 F 
ATOM     74  C   UNL A   1      42.584  36.664  35.600  1.00  0.00     0.040 A 
ATOM     75  C   UNL A   1      41.285  35.445  37.221  1.00  0.00     0.040 A 
ATOM     76  F   UNL A   1      40.393  33.346  36.670  1.00  0.00    -0.206 F 
ATOM     77  C   UNL A   1      42.029  36.572  36.875  1.00  0.00     0.006 A 
ENDBRANCH  49  70
BRANCH  61  78
ATOM     78  C   UNL A   1      45.391  28.897  33.208  1.00  0.00     0.057 A 
ATOM     79  C   UNL A   1      45.488  27.965  34.249  1.00  0.00     0.134 A 
ATOM     80  C   UNL A   1      46.583  29.313  32.601  1.00  0.00     0.134 A 
ATOM     81  F   UNL A   1      44.386  27.534  34.882  1.00  0.00    -0.206 F 
ATOM     82  C   UNL A   1      46.725  27.489  34.689  1.00  0.00     0.040 A 
ATOM     83  C   UNL A   1      47.822  28.820  33.011  1.00  0.00     0.040 A 
ATOM     84  F   UNL A   1      46.562  30.196  31.592  1.00  0.00    -0.206 F 
ATOM     85  C   UNL A   1      47.896  27.913  34.065  1.00  0.00     0.006 A 
ENDBRANCH  61  78
ENDBRANCH  35  36
ENDBRANCH  27  30
ENDBRANCH  25  26
ENDBRANCH  24  25
ENDBRANCH  23  24
ENDBRANCH   3  23
TORSDOF 16
ENDMDL
