MODEL 1
REMARK VINA RESULT:     -11.5      0.000      0.000
REMARK SMILES CCCCn1cc(C(N)=O)c2cc(C(=O)NCCCNC(=O)c3ccc(-c4c5nc(c(-c6c(F)cccc6F)c6ccc([nH]6)c(-c6c(F)cccc6F)c6nc(c(-c7c(F)cccc7F)c7ccc4[nH]7)C=C6)C=C5)cc3)cnc21
REMARK SMILES IDX 17 1 16 2 14 3 15 4 13 6 5 7 6 8 79 9 7 10 11 11 78 12 12 13
REMARK SMILES IDX 77 14 4 15 3 16 2 17 1 18 8 19 9 20 10 21 18 24 19 25 20 26
REMARK SMILES IDX 21 27 22 29 23 30 24 31 76 32 25 33 75 34 26 35 27 36 28 37
REMARK SMILES IDX 69 38 29 39 74 40 68 41 70 42 30 43 73 44 67 45 66 46 31 48
REMARK SMILES IDX 57 49 40 50 56 51 41 52 44 53 55 54 71 55 42 56 43 57 54 59
REMARK SMILES IDX 72 60 45 61 32 62 33 63 38 64 34 65 35 66 37 67 39 68 36 69
REMARK SMILES IDX 58 70 59 71 64 72 60 73 61 74 63 75 65 76 62 77 46 78 47 79
REMARK SMILES IDX 52 80 48 81 49 82 51 83 53 84 50 85
REMARK H PARENT 16 5 9 22 9 23 20 28 70 47 44 58
REMARK Flexibility Score: inf
ROOT
ATOM      1  C   UNL A   1      32.852  29.917  25.888  1.00  0.00     0.118 C 
ENDROOT
BRANCH   1   2
ATOM      2  N   UNL A   1      31.674  30.100  25.059  1.00  0.00    -0.352 N 
ATOM      3  C   UNL A   1      30.979  29.248  24.242  1.00  0.00     0.252 C 
ATOM      4  O   UNL A   1      29.967  29.688  23.693  1.00  0.00    -0.269 OA
ATOM      5  H   UNL A   1      31.303  31.013  25.089  1.00  0.00     0.163 HD
BRANCH   3   6
ATOM      6  C   UNL A   1      31.353  27.830  24.013  1.00  0.00     0.058 A 
ATOM      7  N   UNL A   1      32.305  23.890  23.659  1.00  0.00    -0.332 N 
ATOM      8  C   UNL A   1      31.607  23.304  24.676  1.00  0.00     0.102 A 
ATOM      9  C   UNL A   1      32.014  25.226  23.644  1.00  0.00     0.140 A 
ATOM     10  C   UNL A   1      31.001  24.286  25.450  1.00  0.00     0.066 A 
ATOM     11  C   UNL A   1      31.275  25.529  24.789  1.00  0.00     0.032 A 
ATOM     12  N   UNL A   1      32.391  26.075  22.672  1.00  0.00    -0.237 NA
ATOM     13  C   UNL A   1      30.980  26.894  24.990  1.00  0.00     0.028 A 
ATOM     14  C   UNL A   1      31.992  27.347  22.884  1.00  0.00     0.127 A 
BRANCH   7  15
ATOM     15  C   UNL A   1      33.150  23.212  22.692  1.00  0.00     0.123 C 
BRANCH  15  16
ATOM     16  C   UNL A   1      34.574  22.907  23.178  1.00  0.00     0.022 C 
BRANCH  16  17
ATOM     17  C   UNL A   1      35.235  23.973  24.058  1.00  0.00    -0.002 C 
ATOM     18  C   UNL A   1      35.342  23.585  25.526  1.00  0.00     0.004 C 
ENDBRANCH  16  17
ENDBRANCH  15  16
ENDBRANCH   7  15
BRANCH  10  19
ATOM     19  C   UNL A   1      30.247  23.937  26.652  1.00  0.00     0.250 C 
ATOM     20  N   UNL A   1      29.046  24.552  26.844  1.00  0.00    -0.366 N 
ATOM     21  O   UNL A   1      30.640  23.119  27.470  1.00  0.00    -0.269 OA
ATOM     22  H   UNL A   1      28.720  25.213  26.191  1.00  0.00     0.159 HD
ATOM     23  H   UNL A   1      28.503  24.335  27.637  1.00  0.00     0.159 HD
ENDBRANCH  10  19
ENDBRANCH   3   6
ENDBRANCH   1   2
BRANCH   1  24
ATOM     24  C   UNL A   1      32.868  30.904  27.065  1.00  0.00     0.042 C 
BRANCH  24  25
ATOM     25  C   UNL A   1      34.233  30.954  27.726  1.00  0.00     0.118 C 
BRANCH  25  26
ATOM     26  N   UNL A   1      34.265  31.947  28.794  1.00  0.00    -0.352 N 
ATOM     27  C   UNL A   1      35.089  32.038  29.886  1.00  0.00     0.251 C 
ATOM     28  H   UNL A   1      33.592  32.662  28.717  1.00  0.00     0.163 HD
ATOM     29  O   UNL A   1      34.779  32.766  30.824  1.00  0.00    -0.269 OA
BRANCH  27  30
ATOM     30  C   UNL A   1      36.340  31.265  29.936  1.00  0.00     0.039 A 
ATOM     31  C   UNL A   1      36.296  29.901  30.240  1.00  0.00     0.014 A 
ATOM     32  C   UNL A   1      37.562  31.908  29.735  1.00  0.00     0.014 A 
ATOM     33  C   UNL A   1      37.484  29.185  30.298  1.00  0.00     0.010 A 
ATOM     34  C   UNL A   1      38.723  31.181  29.665  1.00  0.00     0.010 A 
ATOM     35  C   UNL A   1      38.688  29.837  30.004  1.00  0.00    -0.014 A 
BRANCH  35  36
ATOM     36  C   UNL A   1      39.935  29.099  29.984  1.00  0.00     0.031 A 
ATOM     37  C   UNL A   1      40.565  28.915  31.313  1.00  0.00     0.074 A 
ATOM     38  C   UNL A   1      40.390  28.465  28.888  1.00  0.00     0.049 A 
ATOM     39  N   UNL A   1      41.623  29.505  31.759  1.00  0.00    -0.248 NA
ATOM     40  C   UNL A   1      39.872  28.092  32.312  1.00  0.00     0.031 C 
ATOM     41  C   UNL A   1      39.733  28.280  27.590  1.00  0.00     0.029 A 
ATOM     42  N   UNL A   1      41.544  27.766  28.748  1.00  0.00    -0.354 N 
ATOM     43  C   UNL A   1      41.850  28.980  33.026  1.00  0.00     0.074 A 
ATOM     44  C   UNL A   1      40.652  28.263  33.382  1.00  0.00     0.031 C 
ATOM     45  C   UNL A   1      40.408  27.348  26.877  1.00  0.00     0.029 A 
ATOM     46  C   UNL A   1      41.617  26.994  27.598  1.00  0.00     0.049 A 
ATOM     47  H   UNL A   1      42.272  27.803  29.410  1.00  0.00     0.167 HD
ATOM     48  C   UNL A   1      43.098  28.991  33.573  1.00  0.00     0.037 A 
ATOM     49  C   UNL A   1      42.597  26.109  27.293  1.00  0.00     0.037 A 
ATOM     50  C   UNL A   1      43.982  29.853  32.824  1.00  0.00     0.049 A 
ATOM     51  C   UNL A   1      43.785  26.471  28.111  1.00  0.00     0.074 A 
ATOM     52  C   UNL A   1      43.992  31.196  32.505  1.00  0.00     0.029 A 
ATOM     53  N   UNL A   1      44.853  29.254  31.944  1.00  0.00    -0.354 N 
ATOM     54  N   UNL A   1      44.481  27.560  27.928  1.00  0.00    -0.248 NA
ATOM     55  C   UNL A   1      43.919  25.863  29.427  1.00  0.00     0.031 C 
ATOM     56  C   UNL A   1      44.473  31.253  31.162  1.00  0.00     0.029 A 
ATOM     57  C   UNL A   1      44.787  29.952  30.766  1.00  0.00     0.049 A 
ATOM     58  H   UNL A   1      45.418  28.470  32.127  1.00  0.00     0.167 HD
ATOM     59  C   UNL A   1      44.774  28.011  29.207  1.00  0.00     0.074 A 
ATOM     60  C   UNL A   1      44.490  26.877  30.085  1.00  0.00     0.031 C 
ATOM     61  C   UNL A   1      44.937  29.343  29.465  1.00  0.00     0.037 A 
BRANCH  48  62
ATOM     62  C   UNL A   1      43.640  27.951  34.522  1.00  0.00     0.057 A 
ATOM     63  C   UNL A   1      43.790  28.138  35.909  1.00  0.00     0.134 A 
ATOM     64  C   UNL A   1      43.717  26.613  34.087  1.00  0.00     0.134 A 
ATOM     65  F   UNL A   1      43.687  29.338  36.491  1.00  0.00    -0.206 F 
ATOM     66  C   UNL A   1      43.951  27.074  36.803  1.00  0.00     0.040 A 
ATOM     67  C   UNL A   1      43.824  25.539  34.977  1.00  0.00     0.040 A 
ATOM     68  F   UNL A   1      43.598  26.304  32.787  1.00  0.00    -0.206 F 
ATOM     69  C   UNL A   1      43.927  25.767  36.343  1.00  0.00     0.006 A 
ENDBRANCH  48  62
BRANCH  49  70
ATOM     70  C   UNL A   1      42.502  24.841  26.539  1.00  0.00     0.057 A 
ATOM     71  C   UNL A   1      41.833  23.720  27.066  1.00  0.00     0.134 A 
ATOM     72  C   UNL A   1      43.297  24.607  25.410  1.00  0.00     0.134 A 
ATOM     73  F   UNL A   1      41.100  23.812  28.184  1.00  0.00    -0.206 F 
ATOM     74  C   UNL A   1      41.967  22.441  26.516  1.00  0.00     0.040 A 
ATOM     75  C   UNL A   1      43.445  23.330  24.853  1.00  0.00     0.040 A 
ATOM     76  F   UNL A   1      44.002  25.604  24.854  1.00  0.00    -0.206 F 
ATOM     77  C   UNL A   1      42.790  22.238  25.416  1.00  0.00     0.006 A 
ENDBRANCH  49  70
BRANCH  61  78
ATOM     78  C   UNL A   1      45.037  30.275  28.288  1.00  0.00     0.057 A 
ATOM     79  C   UNL A   1      46.304  30.668  27.846  1.00  0.00     0.134 A 
ATOM     80  C   UNL A   1      43.935  30.892  27.677  1.00  0.00     0.134 A 
ATOM     81  F   UNL A   1      47.407  30.168  28.426  1.00  0.00    -0.206 F 
ATOM     82  C   UNL A   1      46.471  31.617  26.836  1.00  0.00     0.040 A 
ATOM     83  C   UNL A   1      44.087  31.818  26.640  1.00  0.00     0.040 A 
ATOM     84  F   UNL A   1      42.687  30.661  28.100  1.00  0.00    -0.206 F 
ATOM     85  C   UNL A   1      45.360  32.186  26.219  1.00  0.00     0.006 A 
ENDBRANCH  61  78
ENDBRANCH  35  36
ENDBRANCH  27  30
ENDBRANCH  25  26
ENDBRANCH  24  25
ENDBRANCH   1  24
TORSDOF 14
ENDMDL
MODEL 2
REMARK VINA RESULT:     -11.3      2.885      8.006
REMARK SMILES CCCCn1cc(C(N)=O)c2cc(C(=O)NCCCNC(=O)c3ccc(-c4c5nc(c(-c6c(F)cccc6F)c6ccc([nH]6)c(-c6c(F)cccc6F)c6nc(c(-c7c(F)cccc7F)c7ccc4[nH]7)C=C6)C=C5)cc3)cnc21
REMARK SMILES IDX 17 1 16 2 14 3 15 4 13 6 5 7 6 8 79 9 7 10 11 11 78 12 12 13
REMARK SMILES IDX 77 14 4 15 3 16 2 17 1 18 8 19 9 20 10 21 18 24 19 25 20 26
REMARK SMILES IDX 21 27 22 29 23 30 24 31 76 32 25 33 75 34 26 35 27 36 28 37
REMARK SMILES IDX 69 38 29 39 74 40 68 41 70 42 30 43 73 44 67 45 66 46 31 48
REMARK SMILES IDX 57 49 40 50 56 51 41 52 44 53 55 54 71 55 42 56 43 57 54 59
REMARK SMILES IDX 72 60 45 61 32 62 33 63 38 64 34 65 35 66 37 67 39 68 36 69
REMARK SMILES IDX 58 70 59 71 64 72 60 73 61 74 63 75 65 76 62 77 46 78 47 79
REMARK SMILES IDX 52 80 48 81 49 82 51 83 53 84 50 85
REMARK H PARENT 16 5 9 22 9 23 20 28 70 47 44 58
REMARK Flexibility Score: inf
ROOT
ATOM      1  C   UNL A   1      37.717  21.779  25.056  1.00  0.00     0.118 C 
ENDROOT
BRANCH   1   2
ATOM      2  N   UNL A   1      36.562  20.909  24.919  1.00  0.00    -0.352 N 
ATOM      3  C   UNL A   1      35.216  21.161  24.896  1.00  0.00     0.252 C 
ATOM      4  O   UNL A   1      34.464  20.202  24.713  1.00  0.00    -0.269 OA
ATOM      5  H   UNL A   1      36.791  19.955  24.825  1.00  0.00     0.163 HD
BRANCH   3   6
ATOM      6  C   UNL A   1      34.623  22.513  25.043  1.00  0.00     0.058 A 
ATOM      7  N   UNL A   1      33.022  26.251  25.159  1.00  0.00    -0.332 N 
ATOM      8  C   UNL A   1      32.599  26.454  23.876  1.00  0.00     0.102 A 
ATOM      9  C   UNL A   1      33.534  24.987  25.254  1.00  0.00     0.140 A 
ATOM     10  C   UNL A   1      33.004  25.390  23.080  1.00  0.00     0.066 A 
ATOM     11  C   UNL A   1      33.619  24.447  23.969  1.00  0.00     0.032 A 
ATOM     12  N   UNL A   1      33.883  24.395  26.409  1.00  0.00    -0.237 NA
ATOM     13  C   UNL A   1      34.231  23.180  23.872  1.00  0.00     0.028 A 
ATOM     14  C   UNL A   1      34.372  23.147  26.247  1.00  0.00     0.127 A 
BRANCH   7  15
ATOM     15  C   UNL A   1      32.881  27.178  26.267  1.00  0.00     0.123 C 
BRANCH  15  16
ATOM     16  C   UNL A   1      34.023  28.193  26.412  1.00  0.00     0.022 C 
BRANCH  16  17
ATOM     17  C   UNL A   1      33.691  29.489  27.158  1.00  0.00    -0.002 C 
ATOM     18  C   UNL A   1      32.235  29.915  27.042  1.00  0.00     0.004 C 
ENDBRANCH  16  17
ENDBRANCH  15  16
ENDBRANCH   7  15
BRANCH  10  19
ATOM     19  C   UNL A   1      32.745  25.385  21.642  1.00  0.00     0.250 C 
ATOM     20  N   UNL A   1      31.823  26.269  21.164  1.00  0.00    -0.366 N 
ATOM     21  O   UNL A   1      33.322  24.642  20.863  1.00  0.00    -0.269 OA
ATOM     22  H   UNL A   1      31.352  26.872  21.783  1.00  0.00     0.159 HD
ATOM     23  H   UNL A   1      31.628  26.304  20.199  1.00  0.00     0.159 HD
ENDBRANCH  10  19
ENDBRANCH   3   6
ENDBRANCH   1   2
BRANCH   1  24
ATOM     24  C   UNL A   1      38.888  21.053  25.736  1.00  0.00     0.042 C 
BRANCH  24  25
ATOM     25  C   UNL A   1      39.793  22.028  26.467  1.00  0.00     0.118 C 
BRANCH  25  26
ATOM     26  N   UNL A   1      41.147  21.997  25.925  1.00  0.00    -0.352 N 
ATOM     27  C   UNL A   1      42.066  23.008  25.798  1.00  0.00     0.251 C 
ATOM     28  H   UNL A   1      41.446  21.117  25.602  1.00  0.00     0.163 HD
ATOM     29  O   UNL A   1      43.031  22.863  25.054  1.00  0.00    -0.269 OA
BRANCH  27  30
ATOM     30  C   UNL A   1      41.896  24.262  26.547  1.00  0.00     0.039 A 
ATOM     31  C   UNL A   1      42.416  24.369  27.841  1.00  0.00     0.014 A 
ATOM     32  C   UNL A   1      41.169  25.313  25.986  1.00  0.00     0.014 A 
ATOM     33  C   UNL A   1      42.237  25.552  28.544  1.00  0.00     0.010 A 
ATOM     34  C   UNL A   1      41.100  26.524  26.624  1.00  0.00     0.010 A 
ATOM     35  C   UNL A   1      41.582  26.622  27.921  1.00  0.00    -0.014 A 
BRANCH  35  36
ATOM     36  C   UNL A   1      41.445  27.894  28.603  1.00  0.00     0.031 A 
ATOM     37  C   UNL A   1      42.499  28.885  28.282  1.00  0.00     0.074 A 
ATOM     38  C   UNL A   1      40.352  28.224  29.316  1.00  0.00     0.049 A 
ATOM     39  N   UNL A   1      43.464  29.267  29.049  1.00  0.00    -0.248 NA
ATOM     40  C   UNL A   1      42.578  29.410  26.913  1.00  0.00     0.031 C 
ATOM     41  C   UNL A   1      39.091  27.490  29.465  1.00  0.00     0.029 A 
ATOM     42  N   UNL A   1      40.122  29.368  30.007  1.00  0.00    -0.354 N 
ATOM     43  C   UNL A   1      44.163  30.234  28.335  1.00  0.00     0.074 A 
ATOM     44  C   UNL A   1      43.690  30.146  26.977  1.00  0.00     0.031 C 
ATOM     45  C   UNL A   1      38.165  28.303  30.025  1.00  0.00     0.029 A 
ATOM     46  C   UNL A   1      38.808  29.546  30.412  1.00  0.00     0.049 A 
ATOM     47  H   UNL A   1      40.832  30.021  30.206  1.00  0.00     0.167 HD
ATOM     48  C   UNL A   1      44.903  31.178  28.979  1.00  0.00     0.037 A 
ATOM     49  C   UNL A   1      38.297  30.657  30.995  1.00  0.00     0.037 A 
ATOM     50  C   UNL A   1      45.086  30.831  30.369  1.00  0.00     0.049 A 
ATOM     51  C   UNL A   1      39.439  31.413  31.574  1.00  0.00     0.074 A 
ATOM     52  C   UNL A   1      45.659  29.769  31.040  1.00  0.00     0.029 A 
ATOM     53  N   UNL A   1      44.285  31.466  31.289  1.00  0.00    -0.354 N 
ATOM     54  N   UNL A   1      40.137  30.996  32.594  1.00  0.00    -0.248 NA
ATOM     55  C   UNL A   1      40.100  32.400  30.732  1.00  0.00     0.031 C 
ATOM     56  C   UNL A   1      44.803  29.535  32.159  1.00  0.00     0.029 A 
ATOM     57  C   UNL A   1      43.801  30.507  32.139  1.00  0.00     0.049 A 
ATOM     58  H   UNL A   1      44.097  32.431  31.330  1.00  0.00     0.167 HD
ATOM     59  C   UNL A   1      41.450  31.314  32.278  1.00  0.00     0.074 A 
ATOM     60  C   UNL A   1      41.356  32.264  31.170  1.00  0.00     0.031 C 
ATOM     61  C   UNL A   1      42.490  30.560  32.744  1.00  0.00     0.037 A 
BRANCH  48  62
ATOM     62  C   UNL A   1      45.133  32.587  28.489  1.00  0.00     0.057 A 
ATOM     63  C   UNL A   1      46.318  33.035  27.876  1.00  0.00     0.134 A 
ATOM     64  C   UNL A   1      44.022  33.439  28.337  1.00  0.00     0.134 A 
ATOM     65  F   UNL A   1      47.447  32.318  27.877  1.00  0.00    -0.206 F 
ATOM     66  C   UNL A   1      46.382  34.212  27.124  1.00  0.00     0.040 A 
ATOM     67  C   UNL A   1      44.061  34.590  27.543  1.00  0.00     0.040 A 
ATOM     68  F   UNL A   1      42.835  33.128  28.882  1.00  0.00    -0.206 F 
ATOM     69  C   UNL A   1      45.241  34.973  26.921  1.00  0.00     0.006 A 
ENDBRANCH  48  62
BRANCH  49  70
ATOM     70  C   UNL A   1      36.938  31.228  30.875  1.00  0.00     0.057 A 
ATOM     71  C   UNL A   1      36.460  31.740  29.655  1.00  0.00     0.134 A 
ATOM     72  C   UNL A   1      36.179  31.539  32.011  1.00  0.00     0.134 A 
ATOM     73  F   UNL A   1      37.141  31.564  28.514  1.00  0.00    -0.206 F 
ATOM     74  C   UNL A   1      35.310  32.533  29.574  1.00  0.00     0.040 A 
ATOM     75  C   UNL A   1      35.030  32.337  31.945  1.00  0.00     0.040 A 
ATOM     76  F   UNL A   1      36.571  31.127  33.226  1.00  0.00    -0.206 F 
ATOM     77  C   UNL A   1      34.600  32.849  30.724  1.00  0.00     0.006 A 
ENDBRANCH  49  70
BRANCH  61  78
ATOM     78  C   UNL A   1      42.189  29.535  33.803  1.00  0.00     0.057 A 
ATOM     79  C   UNL A   1      42.405  29.868  35.144  1.00  0.00     0.134 A 
ATOM     80  C   UNL A   1      41.831  28.205  33.532  1.00  0.00     0.134 A 
ATOM     81  F   UNL A   1      42.811  31.105  35.476  1.00  0.00    -0.206 F 
ATOM     82  C   UNL A   1      42.257  28.932  36.170  1.00  0.00     0.040 A 
ATOM     83  C   UNL A   1      41.645  27.267  34.553  1.00  0.00     0.040 A 
ATOM     84  F   UNL A   1      41.704  27.762  32.277  1.00  0.00    -0.206 F 
ATOM     85  C   UNL A   1      41.863  27.630  35.877  1.00  0.00     0.006 A 
ENDBRANCH  61  78
ENDBRANCH  35  36
ENDBRANCH  27  30
ENDBRANCH  25  26
ENDBRANCH  24  25
ENDBRANCH   1  24
TORSDOF 14
ENDMDL
MODEL 3
REMARK VINA RESULT:     -11.2      2.089      6.331
REMARK SMILES CCCCn1cc(C(N)=O)c2cc(C(=O)NCCCNC(=O)c3ccc(-c4c5nc(c(-c6c(F)cccc6F)c6ccc([nH]6)c(-c6c(F)cccc6F)c6nc(c(-c7c(F)cccc7F)c7ccc4[nH]7)C=C6)C=C5)cc3)cnc21
REMARK SMILES IDX 17 1 16 2 14 3 15 4 13 6 5 7 6 8 79 9 7 10 11 11 78 12 12 13
REMARK SMILES IDX 77 14 4 15 3 16 2 17 1 18 8 19 9 20 10 21 18 24 19 25 20 26
REMARK SMILES IDX 21 27 22 29 23 30 24 31 76 32 25 33 75 34 26 35 27 36 28 37
REMARK SMILES IDX 69 38 29 39 74 40 68 41 70 42 30 43 73 44 67 45 66 46 31 48
REMARK SMILES IDX 57 49 40 50 56 51 41 52 44 53 55 54 71 55 42 56 43 57 54 59
REMARK SMILES IDX 72 60 45 61 32 62 33 63 38 64 34 65 35 66 37 67 39 68 36 69
REMARK SMILES IDX 58 70 59 71 64 72 60 73 61 74 63 75 65 76 62 77 46 78 47 79
REMARK SMILES IDX 52 80 48 81 49 82 51 83 53 84 50 85
REMARK H PARENT 16 5 9 22 9 23 20 28 70 47 44 58
REMARK Flexibility Score: inf
ROOT
ATOM      1  C   UNL A   1      33.260  29.450  27.048  1.00  0.00     0.118 C 
ENDROOT
BRANCH   1   2
ATOM      2  N   UNL A   1      32.732  29.642  25.709  1.00  0.00    -0.352 N 
ATOM      3  C   UNL A   1      32.507  28.775  24.673  1.00  0.00     0.252 C 
ATOM      4  O   UNL A   1      31.993  29.234  23.652  1.00  0.00    -0.269 OA
ATOM      5  H   UNL A   1      32.491  30.576  25.506  1.00  0.00     0.163 HD
BRANCH   3   6
ATOM      6  C   UNL A   1      32.812  27.323  24.726  1.00  0.00     0.058 A 
ATOM      7  N   UNL A   1      33.453  23.322  25.085  1.00  0.00    -0.332 N 
ATOM      8  C   UNL A   1      32.325  22.876  25.714  1.00  0.00     0.102 A 
ATOM      9  C   UNL A   1      33.323  24.664  24.857  1.00  0.00     0.140 A 
ATOM     10  C   UNL A   1      31.532  23.960  26.069  1.00  0.00     0.066 A 
ATOM     11  C   UNL A   1      32.184  25.116  25.526  1.00  0.00     0.032 A 
ATOM     12  N   UNL A   1      34.169  25.392  24.108  1.00  0.00    -0.237 NA
ATOM     13  C   UNL A   1      31.959  26.509  25.487  1.00  0.00     0.028 A 
ATOM     14  C   UNL A   1      33.837  26.698  24.038  1.00  0.00     0.127 A 
BRANCH   7  15
ATOM     15  C   UNL A   1      34.572  22.507  24.647  1.00  0.00     0.123 C 
BRANCH  15  16
ATOM     16  C   UNL A   1      35.799  22.543  25.568  1.00  0.00     0.022 C 
BRANCH  16  17
ATOM     17  C   UNL A   1      36.891  23.556  25.210  1.00  0.00    -0.002 C 
ATOM     18  C   UNL A   1      38.046  23.598  26.199  1.00  0.00     0.004 C 
ENDBRANCH  16  17
ENDBRANCH  15  16
ENDBRANCH   7  15
BRANCH  10  19
ATOM     19  C   UNL A   1      30.295  23.772  26.823  1.00  0.00     0.250 C 
ATOM     20  N   UNL A   1      29.266  24.630  26.572  1.00  0.00    -0.366 N 
ATOM     21  O   UNL A   1      30.145  22.881  27.646  1.00  0.00    -0.269 OA
ATOM     22  H   UNL A   1      29.376  25.352  25.911  1.00  0.00     0.159 HD
ATOM     23  H   UNL A   1      28.411  24.529  27.052  1.00  0.00     0.159 HD
ENDBRANCH  10  19
ENDBRANCH   3   6
ENDBRANCH   1   2
BRANCH   1  24
ATOM     24  C   UNL A   1      34.678  28.860  27.014  1.00  0.00     0.042 C 
BRANCH  24  25
ATOM     25  C   UNL A   1      35.702  29.851  27.533  1.00  0.00     0.118 C 
BRANCH  25  26
ATOM     26  N   UNL A   1      35.623  29.978  28.984  1.00  0.00    -0.352 N 
ATOM     27  C   UNL A   1      36.486  29.536  29.954  1.00  0.00     0.251 C 
ATOM     28  H   UNL A   1      34.829  30.454  29.318  1.00  0.00     0.163 HD
ATOM     29  O   UNL A   1      36.111  29.472  31.121  1.00  0.00    -0.269 OA
BRANCH  27  30
ATOM     30  C   UNL A   1      37.856  29.136  29.599  1.00  0.00     0.039 A 
ATOM     31  C   UNL A   1      38.490  29.740  28.509  1.00  0.00     0.014 A 
ATOM     32  C   UNL A   1      38.491  28.120  30.314  1.00  0.00     0.014 A 
ATOM     33  C   UNL A   1      39.778  29.345  28.174  1.00  0.00     0.010 A 
ATOM     34  C   UNL A   1      39.805  27.817  30.068  1.00  0.00     0.010 A 
ATOM     35  C   UNL A   1      40.425  28.387  28.965  1.00  0.00    -0.014 A 
BRANCH  35  36
ATOM     36  C   UNL A   1      41.795  28.007  28.684  1.00  0.00     0.031 A 
ATOM     37  C   UNL A   1      41.942  26.770  27.881  1.00  0.00     0.074 A 
ATOM     38  C   UNL A   1      42.842  28.806  28.958  1.00  0.00     0.049 A 
ATOM     39  N   UNL A   1      42.347  25.618  28.298  1.00  0.00    -0.248 NA
ATOM     40  C   UNL A   1      41.456  26.769  26.496  1.00  0.00     0.031 C 
ATOM     41  C   UNL A   1      42.846  30.187  29.453  1.00  0.00     0.029 A 
ATOM     42  N   UNL A   1      44.160  28.551  28.759  1.00  0.00    -0.354 N 
ATOM     43  C   UNL A   1      42.361  24.789  27.182  1.00  0.00     0.074 A 
ATOM     44  C   UNL A   1      41.635  25.491  26.155  1.00  0.00     0.031 C 
ATOM     45  C   UNL A   1      44.088  30.707  29.315  1.00  0.00     0.029 A 
ATOM     46  C   UNL A   1      44.988  29.657  28.875  1.00  0.00     0.049 A 
ATOM     47  H   UNL A   1      44.501  27.651  28.548  1.00  0.00     0.167 HD
ATOM     48  C   UNL A   1      43.171  23.695  27.135  1.00  0.00     0.037 A 
ATOM     49  C   UNL A   1      46.313  29.693  28.594  1.00  0.00     0.037 A 
ATOM     50  C   UNL A   1      43.705  23.393  28.442  1.00  0.00     0.049 A 
ATOM     51  C   UNL A   1      46.810  28.292  28.641  1.00  0.00     0.074 A 
ATOM     52  C   UNL A   1      43.158  23.069  29.668  1.00  0.00     0.029 A 
ATOM     53  N   UNL A   1      44.996  23.789  28.703  1.00  0.00    -0.354 N 
ATOM     54  N   UNL A   1      46.892  27.593  29.739  1.00  0.00    -0.248 NA
ATOM     55  C   UNL A   1      46.773  27.514  27.411  1.00  0.00     0.031 C 
ATOM     56  C   UNL A   1      43.969  23.750  30.625  1.00  0.00     0.029 A 
ATOM     57  C   UNL A   1      44.997  24.392  29.934  1.00  0.00     0.049 A 
ATOM     58  H   UNL A   1      45.775  23.661  28.115  1.00  0.00     0.167 HD
ATOM     59  C   UNL A   1      46.471  26.320  29.380  1.00  0.00     0.074 A 
ATOM     60  C   UNL A   1      46.508  26.306  27.918  1.00  0.00     0.031 C 
ATOM     61  C   UNL A   1      45.857  25.499  30.283  1.00  0.00     0.037 A 
BRANCH  48  62
ATOM     62  C   UNL A   1      43.798  23.130  25.884  1.00  0.00     0.057 A 
ATOM     63  C   UNL A   1      44.704  23.826  25.062  1.00  0.00     0.134 A 
ATOM     64  C   UNL A   1      43.740  21.740  25.668  1.00  0.00     0.134 A 
ATOM     65  F   UNL A   1      44.921  25.141  25.179  1.00  0.00    -0.206 F 
ATOM     66  C   UNL A   1      45.530  23.184  24.134  1.00  0.00     0.040 A 
ATOM     67  C   UNL A   1      44.598  21.081  24.780  1.00  0.00     0.040 A 
ATOM     68  F   UNL A   1      42.909  20.965  26.382  1.00  0.00    -0.206 F 
ATOM     69  C   UNL A   1      45.508  21.803  24.019  1.00  0.00     0.006 A 
ENDBRANCH  48  62
BRANCH  49  70
ATOM     70  C   UNL A   1      47.118  30.809  28.053  1.00  0.00     0.057 A 
ATOM     71  C   UNL A   1      48.138  31.416  28.809  1.00  0.00     0.134 A 
ATOM     72  C   UNL A   1      46.727  31.490  26.893  1.00  0.00     0.134 A 
ATOM     73  F   UNL A   1      48.545  30.890  29.973  1.00  0.00    -0.206 F 
ATOM     74  C   UNL A   1      48.716  32.637  28.445  1.00  0.00     0.040 A 
ATOM     75  C   UNL A   1      47.292  32.717  26.520  1.00  0.00     0.040 A 
ATOM     76  F   UNL A   1      45.738  31.011  26.123  1.00  0.00    -0.206 F 
ATOM     77  C   UNL A   1      48.281  33.301  27.306  1.00  0.00     0.006 A 
ENDBRANCH  49  70
BRANCH  61  78
ATOM     78  C   UNL A   1      45.874  25.914  31.729  1.00  0.00     0.057 A 
ATOM     79  C   UNL A   1      44.807  26.667  32.226  1.00  0.00     0.134 A 
ATOM     80  C   UNL A   1      46.963  25.714  32.592  1.00  0.00     0.134 A 
ATOM     81  F   UNL A   1      43.757  26.954  31.439  1.00  0.00    -0.206 F 
ATOM     82  C   UNL A   1      44.809  27.184  33.524  1.00  0.00     0.040 A 
ATOM     83  C   UNL A   1      46.963  26.195  33.906  1.00  0.00     0.040 A 
ATOM     84  F   UNL A   1      48.074  25.097  32.177  1.00  0.00    -0.206 F 
ATOM     85  C   UNL A   1      45.884  26.937  34.373  1.00  0.00     0.006 A 
ENDBRANCH  61  78
ENDBRANCH  35  36
ENDBRANCH  27  30
ENDBRANCH  25  26
ENDBRANCH  24  25
ENDBRANCH   1  24
TORSDOF 14
ENDMDL
