MODEL 1
REMARK VINA RESULT:     -13.6      0.000      0.000
REMARK SMILES Cc1cnc2nc(-c3cc(F)c(F)cc3C(=O)NCCCNC(=O)c3ccc(-c4c5nc(c(-c6c(F)cccc6F)c6ccc([nH]6)c(-c6c(F)cccc6F)c6nc(c(-c7c(F)cccc7F)c7ccc4[nH]7)C=C6)C=C5)cc3)[nH]c2c1
REMARK SMILES IDX 20 1 19 2 18 3 16 4 17 5 15 7 8 8 9 9 10 10 14 11 11 12
REMARK SMILES IDX 12 13 13 14 7 15 1 16 2 17 3 18 81 19 4 20 80 21 5 22 79 23
REMARK SMILES IDX 6 24 21 26 22 27 23 28 24 30 25 31 26 32 78 33 27 34 77 35
REMARK SMILES IDX 28 36 29 37 30 38 71 39 31 40 76 41 70 42 72 43 32 44 75 45
REMARK SMILES IDX 69 46 68 47 33 49 59 50 42 51 58 52 43 53 46 54 57 55 73 56
REMARK SMILES IDX 44 57 45 58 56 60 74 61 47 62 34 63 35 64 40 65 36 66 37 67
REMARK SMILES IDX 39 68 41 69 38 70 60 71 61 72 66 73 62 74 63 75 65 76 67 77
REMARK SMILES IDX 64 78 48 79 49 80 54 81 50 82 51 83 53 84 55 85 52 86
REMARK H PARENT 18 6 79 25 22 29 72 48 46 59
REMARK Flexibility Score: inf
ROOT
ATOM      1  C   UNL A   1      37.862  20.479  25.018  1.00  0.00     0.042 C 
ENDROOT
BRANCH   1   2
ATOM      2  C   UNL A   1      37.183  21.830  24.931  1.00  0.00     0.118 C 
BRANCH   2   3
ATOM      3  N   UNL A   1      36.185  22.076  25.911  1.00  0.00    -0.352 N 
ATOM      4  C   UNL A   1      34.971  21.477  26.081  1.00  0.00     0.252 C 
ATOM      5  O   UNL A   1      34.558  21.545  27.247  1.00  0.00    -0.269 OA
ATOM      6  H   UNL A   1      36.401  22.782  26.562  1.00  0.00     0.163 HD
BRANCH   4   7
ATOM      7  C   UNL A   1      34.053  20.889  25.017  1.00  0.00     0.053 A 
ATOM      8  C   UNL A   1      33.243  21.424  23.963  1.00  0.00     0.033 A 
ATOM      9  C   UNL A   1      32.490  20.525  23.163  1.00  0.00     0.055 A 
ATOM     10  C   UNL A   1      32.505  19.154  23.381  1.00  0.00     0.159 A 
ATOM     11  C   UNL A   1      34.030  19.473  25.188  1.00  0.00     0.057 A 
ATOM     12  F   UNL A   1      31.757  18.356  22.609  1.00  0.00    -0.204 F 
ATOM     13  C   UNL A   1      33.275  18.629  24.390  1.00  0.00     0.159 A 
ATOM     14  F   UNL A   1      33.294  17.310  24.622  1.00  0.00    -0.204 F 
BRANCH   8  15
ATOM     15  C   UNL A   1      33.048  22.825  23.546  1.00  0.00     0.141 A 
ATOM     16  C   UNL A   1      33.576  28.729  23.837  1.00  0.00     0.046 C 
ATOM     17  C   UNL A   1      33.324  27.314  23.400  1.00  0.00    -0.031 A 
ATOM     18  C   UNL A   1      33.564  26.918  22.080  1.00  0.00     0.117 A 
ATOM     19  C   UNL A   1      32.898  26.348  24.318  1.00  0.00     0.035 A 
ATOM     20  N   UNL A   1      33.510  25.646  21.607  1.00  0.00    -0.235 NA
ATOM     21  C   UNL A   1      32.849  25.038  23.836  1.00  0.00     0.085 A 
ATOM     22  C   UNL A   1      33.146  24.719  22.519  1.00  0.00     0.178 A 
ATOM     23  N   UNL A   1      32.648  23.816  24.432  1.00  0.00    -0.337 N 
ATOM     24  N   UNL A   1      33.198  23.352  22.340  1.00  0.00    -0.209 NA
ATOM     25  H   UNL A   1      32.284  23.669  25.335  1.00  0.00     0.168 HD
ENDBRANCH   8  15
ENDBRANCH   4   7
ENDBRANCH   2   3
ENDBRANCH   1   2
BRANCH   1  26
ATOM     26  C   UNL A   1      39.148  20.638  25.794  1.00  0.00     0.118 C 
BRANCH  26  27
ATOM     27  N   UNL A   1      40.019  19.445  25.867  1.00  0.00    -0.352 N 
ATOM     28  C   UNL A   1      41.417  19.384  25.967  1.00  0.00     0.251 C 
ATOM     29  H   UNL A   1      39.555  18.576  25.842  1.00  0.00     0.163 HD
ATOM     30  O   UNL A   1      42.063  18.376  25.817  1.00  0.00    -0.269 OA
BRANCH  28  31
ATOM     31  C   UNL A   1      42.085  20.641  26.327  1.00  0.00     0.039 A 
ATOM     32  C   UNL A   1      42.326  21.700  25.448  1.00  0.00     0.014 A 
ATOM     33  C   UNL A   1      42.188  20.805  27.685  1.00  0.00     0.014 A 
ATOM     34  C   UNL A   1      42.585  22.948  26.011  1.00  0.00     0.010 A 
ATOM     35  C   UNL A   1      41.834  22.036  28.105  1.00  0.00     0.010 A 
ATOM     36  C   UNL A   1      42.326  23.090  27.375  1.00  0.00    -0.014 A 
BRANCH  36  37
ATOM     37  C   UNL A   1      42.473  24.277  28.183  1.00  0.00     0.031 A 
ATOM     38  C   UNL A   1      41.341  25.219  28.105  1.00  0.00     0.074 A 
ATOM     39  C   UNL A   1      43.390  24.298  29.183  1.00  0.00     0.049 A 
ATOM     40  N   UNL A   1      41.330  26.373  27.534  1.00  0.00    -0.248 NA
ATOM     41  C   UNL A   1      40.015  24.761  28.554  1.00  0.00     0.031 C 
ATOM     42  C   UNL A   1      44.330  23.252  29.634  1.00  0.00     0.029 A 
ATOM     43  N   UNL A   1      43.592  25.275  30.100  1.00  0.00    -0.354 N 
ATOM     44  C   UNL A   1      40.061  26.888  27.754  1.00  0.00     0.074 A 
ATOM     45  C   UNL A   1      39.242  25.778  28.168  1.00  0.00     0.031 C 
ATOM     46  C   UNL A   1      44.822  23.564  30.853  1.00  0.00     0.029 A 
ATOM     47  C   UNL A   1      44.392  24.904  31.179  1.00  0.00     0.049 A 
ATOM     48  H   UNL A   1      43.204  26.176  30.011  1.00  0.00     0.167 HD
ATOM     49  C   UNL A   1      39.846  28.231  27.813  1.00  0.00     0.037 A 
ATOM     50  C   UNL A   1      44.634  25.678  32.265  1.00  0.00     0.037 A 
ATOM     51  C   UNL A   1      41.004  28.961  27.353  1.00  0.00     0.049 A 
ATOM     52  C   UNL A   1      44.321  27.080  31.854  1.00  0.00     0.074 A 
ATOM     53  C   UNL A   1      41.692  28.988  26.153  1.00  0.00     0.029 A 
ATOM     54  N   UNL A   1      41.896  29.417  28.300  1.00  0.00    -0.354 N 
ATOM     55  N   UNL A   1      44.989  27.720  30.926  1.00  0.00    -0.248 NA
ATOM     56  C   UNL A   1      42.952  27.538  32.060  1.00  0.00     0.031 C 
ATOM     57  C   UNL A   1      43.071  28.944  26.522  1.00  0.00     0.029 A 
ATOM     58  C   UNL A   1      43.154  29.005  27.915  1.00  0.00     0.049 A 
ATOM     59  H   UNL A   1      41.675  29.942  29.102  1.00  0.00     0.167 HD
ATOM     60  C   UNL A   1      44.025  28.373  30.163  1.00  0.00     0.074 A 
ATOM     61  C   UNL A   1      42.789  28.253  30.941  1.00  0.00     0.031 C 
ATOM     62  C   UNL A   1      44.221  28.671  28.842  1.00  0.00     0.037 A 
BRANCH  49  63
ATOM     63  C   UNL A   1      38.717  28.875  28.564  1.00  0.00     0.057 A 
ATOM     64  C   UNL A   1      38.565  28.634  29.938  1.00  0.00     0.134 A 
ATOM     65  C   UNL A   1      37.646  29.558  27.951  1.00  0.00     0.134 A 
ATOM     66  F   UNL A   1      39.500  27.961  30.624  1.00  0.00    -0.206 F 
ATOM     67  C   UNL A   1      37.422  29.028  30.645  1.00  0.00     0.040 A 
ATOM     68  C   UNL A   1      36.527  30.005  28.657  1.00  0.00     0.040 A 
ATOM     69  F   UNL A   1      37.583  29.745  26.626  1.00  0.00    -0.206 F 
ATOM     70  C   UNL A   1      36.401  29.722  30.007  1.00  0.00     0.006 A 
ENDBRANCH  49  63
BRANCH  50  71
ATOM     71  C   UNL A   1      44.729  25.225  33.673  1.00  0.00     0.057 A 
ATOM     72  C   UNL A   1      45.538  25.889  34.604  1.00  0.00     0.134 A 
ATOM     73  C   UNL A   1      43.831  24.278  34.206  1.00  0.00     0.134 A 
ATOM     74  F   UNL A   1      46.397  26.837  34.201  1.00  0.00    -0.206 F 
ATOM     75  C   UNL A   1      45.448  25.641  35.982  1.00  0.00     0.040 A 
ATOM     76  C   UNL A   1      43.734  24.017  35.577  1.00  0.00     0.040 A 
ATOM     77  F   UNL A   1      42.956  23.633  33.421  1.00  0.00    -0.206 F 
ATOM     78  C   UNL A   1      44.536  24.710  36.473  1.00  0.00     0.006 A 
ENDBRANCH  50  71
BRANCH  62  79
ATOM     79  C   UNL A   1      45.584  28.412  28.231  1.00  0.00     0.057 A 
ATOM     80  C   UNL A   1      45.920  27.259  27.500  1.00  0.00     0.134 A 
ATOM     81  C   UNL A   1      46.525  29.447  28.201  1.00  0.00     0.134 A 
ATOM     82  F   UNL A   1      45.063  26.244  27.377  1.00  0.00    -0.206 F 
ATOM     83  C   UNL A   1      47.127  27.130  26.803  1.00  0.00     0.040 A 
ATOM     84  C   UNL A   1      47.725  29.345  27.485  1.00  0.00     0.040 A 
ATOM     85  F   UNL A   1      46.267  30.609  28.821  1.00  0.00    -0.206 F 
ATOM     86  C   UNL A   1      48.033  28.182  26.787  1.00  0.00     0.006 A 
ENDBRANCH  62  79
ENDBRANCH  36  37
ENDBRANCH  28  31
ENDBRANCH  26  27
ENDBRANCH   1  26
TORSDOF 11
ENDMDL
MODEL 2
REMARK VINA RESULT:     -13.5      1.856      3.644
REMARK SMILES Cc1cnc2nc(-c3cc(F)c(F)cc3C(=O)NCCCNC(=O)c3ccc(-c4c5nc(c(-c6c(F)cccc6F)c6ccc([nH]6)c(-c6c(F)cccc6F)c6nc(c(-c7c(F)cccc7F)c7ccc4[nH]7)C=C6)C=C5)cc3)[nH]c2c1
REMARK SMILES IDX 20 1 19 2 18 3 16 4 17 5 15 7 8 8 9 9 10 10 14 11 11 12
REMARK SMILES IDX 12 13 13 14 7 15 1 16 2 17 3 18 81 19 4 20 80 21 5 22 79 23
REMARK SMILES IDX 6 24 21 26 22 27 23 28 24 30 25 31 26 32 78 33 27 34 77 35
REMARK SMILES IDX 28 36 29 37 30 38 71 39 31 40 76 41 70 42 72 43 32 44 75 45
REMARK SMILES IDX 69 46 68 47 33 49 59 50 42 51 58 52 43 53 46 54 57 55 73 56
REMARK SMILES IDX 44 57 45 58 56 60 74 61 47 62 34 63 35 64 40 65 36 66 37 67
REMARK SMILES IDX 39 68 41 69 38 70 60 71 61 72 66 73 62 74 63 75 65 76 67 77
REMARK SMILES IDX 64 78 48 79 49 80 54 81 50 82 51 83 53 84 55 85 52 86
REMARK H PARENT 18 6 79 25 22 29 72 48 46 59
REMARK Flexibility Score: inf
ROOT
ATOM      1  C   UNL A   1      37.710  20.802  24.982  1.00  0.00     0.042 C 
ENDROOT
BRANCH   1   2
ATOM      2  C   UNL A   1      36.928  22.083  25.184  1.00  0.00     0.118 C 
BRANCH   2   3
ATOM      3  N   UNL A   1      36.291  22.598  24.024  1.00  0.00    -0.352 N 
ATOM      4  C   UNL A   1      35.102  23.257  23.908  1.00  0.00     0.252 C 
ATOM      5  O   UNL A   1      35.047  23.983  22.907  1.00  0.00    -0.269 OA
ATOM      6  H   UNL A   1      36.779  22.460  23.180  1.00  0.00     0.163 HD
BRANCH   4   7
ATOM      7  C   UNL A   1      33.848  23.093  24.758  1.00  0.00     0.053 A 
ATOM      8  C   UNL A   1      33.144  21.985  25.331  1.00  0.00     0.033 A 
ATOM      9  C   UNL A   1      31.961  22.242  26.072  1.00  0.00     0.055 A 
ATOM     10  C   UNL A   1      31.463  23.526  26.245  1.00  0.00     0.159 A 
ATOM     11  C   UNL A   1      33.290  24.388  24.974  1.00  0.00     0.057 A 
ATOM     12  F   UNL A   1      30.331  23.707  26.935  1.00  0.00    -0.204 F 
ATOM     13  C   UNL A   1      32.127  24.597  25.698  1.00  0.00     0.159 A 
ATOM     14  F   UNL A   1      31.657  25.842  25.844  1.00  0.00    -0.204 F 
BRANCH   8  15
ATOM     15  C   UNL A   1      33.455  20.544  25.277  1.00  0.00     0.141 A 
ATOM     16  C   UNL A   1      32.351  14.714  25.393  1.00  0.00     0.046 C 
ATOM     17  C   UNL A   1      32.972  16.071  25.216  1.00  0.00    -0.031 A 
ATOM     18  C   UNL A   1      33.831  16.332  24.144  1.00  0.00     0.117 A 
ATOM     19  C   UNL A   1      32.660  17.119  26.089  1.00  0.00     0.035 A 
ATOM     20  N   UNL A   1      34.334  17.546  23.803  1.00  0.00    -0.235 NA
ATOM     21  C   UNL A   1      33.170  18.370  25.737  1.00  0.00     0.085 A 
ATOM     22  C   UNL A   1      33.982  18.556  24.628  1.00  0.00     0.178 A 
ATOM     23  N   UNL A   1      32.971  19.642  26.216  1.00  0.00    -0.337 N 
ATOM     24  N   UNL A   1      34.204  19.898  24.397  1.00  0.00    -0.209 NA
ATOM     25  H   UNL A   1      32.554  19.875  27.076  1.00  0.00     0.168 HD
ENDBRANCH   8  15
ENDBRANCH   4   7
ENDBRANCH   2   3
ENDBRANCH   1   2
BRANCH   1  26
ATOM     26  C   UNL A   1      38.990  20.890  25.779  1.00  0.00     0.118 C 
BRANCH  26  27
ATOM     27  N   UNL A   1      39.797  19.653  25.858  1.00  0.00    -0.352 N 
ATOM     28  C   UNL A   1      41.187  19.520  25.991  1.00  0.00     0.251 C 
ATOM     29  H   UNL A   1      39.291  18.809  25.812  1.00  0.00     0.163 HD
ATOM     30  O   UNL A   1      41.785  18.482  25.844  1.00  0.00    -0.269 OA
BRANCH  28  31
ATOM     31  C   UNL A   1      41.910  20.738  26.382  1.00  0.00     0.039 A 
ATOM     32  C   UNL A   1      42.292  21.757  25.506  1.00  0.00     0.014 A 
ATOM     33  C   UNL A   1      41.915  20.926  27.741  1.00  0.00     0.014 A 
ATOM     34  C   UNL A   1      42.590  22.998  26.067  1.00  0.00     0.010 A 
ATOM     35  C   UNL A   1      41.614  22.186  28.109  1.00  0.00     0.010 A 
ATOM     36  C   UNL A   1      42.233  23.189  27.402  1.00  0.00    -0.014 A 
BRANCH  36  37
ATOM     37  C   UNL A   1      42.398  24.381  28.199  1.00  0.00     0.031 A 
ATOM     38  C   UNL A   1      41.265  25.324  28.134  1.00  0.00     0.074 A 
ATOM     39  C   UNL A   1      43.332  24.408  29.181  1.00  0.00     0.049 A 
ATOM     40  N   UNL A   1      41.245  26.474  27.556  1.00  0.00    -0.248 NA
ATOM     41  C   UNL A   1      39.948  24.871  28.611  1.00  0.00     0.031 C 
ATOM     42  C   UNL A   1      44.279  23.364  29.623  1.00  0.00     0.029 A 
ATOM     43  N   UNL A   1      43.553  25.392  30.088  1.00  0.00    -0.354 N 
ATOM     44  C   UNL A   1      39.981  26.992  27.795  1.00  0.00     0.074 A 
ATOM     45  C   UNL A   1      39.169  25.887  28.232  1.00  0.00     0.031 C 
ATOM     46  C   UNL A   1      44.794  23.684  30.830  1.00  0.00     0.029 A 
ATOM     47  C   UNL A   1      44.372  25.027  31.155  1.00  0.00     0.049 A 
ATOM     48  H   UNL A   1      43.164  26.292  29.999  1.00  0.00     0.167 HD
ATOM     49  C   UNL A   1      39.770  28.336  27.848  1.00  0.00     0.037 A 
ATOM     50  C   UNL A   1      44.635  25.808  32.230  1.00  0.00     0.037 A 
ATOM     51  C   UNL A   1      40.920  29.061  27.361  1.00  0.00     0.049 A 
ATOM     52  C   UNL A   1      44.316  27.208  31.815  1.00  0.00     0.074 A 
ATOM     53  C   UNL A   1      41.586  29.078  26.149  1.00  0.00     0.029 A 
ATOM     54  N   UNL A   1      41.830  29.523  28.288  1.00  0.00    -0.354 N 
ATOM     55  N   UNL A   1      44.968  27.840  30.870  1.00  0.00    -0.248 NA
ATOM     56  C   UNL A   1      42.952  27.669  32.042  1.00  0.00     0.031 C 
ATOM     57  C   UNL A   1      42.972  29.034  26.493  1.00  0.00     0.029 A 
ATOM     58  C   UNL A   1      43.080  29.106  27.883  1.00  0.00     0.049 A 
ATOM     59  H   UNL A   1      41.625  30.053  29.091  1.00  0.00     0.167 HD
ATOM     60  C   UNL A   1      43.991  28.489  30.120  1.00  0.00     0.074 A 
ATOM     61  C   UNL A   1      42.769  28.377  30.921  1.00  0.00     0.031 C 
ATOM     62  C   UNL A   1      44.163  28.777  28.793  1.00  0.00     0.037 A 
BRANCH  49  63
ATOM     63  C   UNL A   1      38.655  28.987  28.614  1.00  0.00     0.057 A 
ATOM     64  C   UNL A   1      38.542  28.776  29.997  1.00  0.00     0.134 A 
ATOM     65  C   UNL A   1      37.562  29.647  28.016  1.00  0.00     0.134 A 
ATOM     66  F   UNL A   1      39.502  28.127  30.673  1.00  0.00    -0.206 F 
ATOM     67  C   UNL A   1      37.415  29.177  30.726  1.00  0.00     0.040 A 
ATOM     68  C   UNL A   1      36.458  30.101  28.741  1.00  0.00     0.040 A 
ATOM     69  F   UNL A   1      37.462  29.804  26.689  1.00  0.00    -0.206 F 
ATOM     70  C   UNL A   1      36.372  29.847  30.100  1.00  0.00     0.006 A 
ENDBRANCH  49  63
BRANCH  50  71
ATOM     71  C   UNL A   1      44.755  25.366  33.639  1.00  0.00     0.057 A 
ATOM     72  C   UNL A   1      43.626  25.162  34.443  1.00  0.00     0.134 A 
ATOM     73  C   UNL A   1      45.974  24.886  34.161  1.00  0.00     0.134 A 
ATOM     74  F   UNL A   1      42.413  25.546  34.018  1.00  0.00    -0.206 F 
ATOM     75  C   UNL A   1      43.699  24.506  35.681  1.00  0.00     0.040 A 
ATOM     76  C   UNL A   1      46.063  24.235  35.396  1.00  0.00     0.040 A 
ATOM     77  F   UNL A   1      47.108  24.958  33.450  1.00  0.00    -0.206 F 
ATOM     78  C   UNL A   1      44.919  24.031  36.156  1.00  0.00     0.006 A 
ENDBRANCH  50  71
BRANCH  62  79
ATOM     79  C   UNL A   1      45.515  28.512  28.159  1.00  0.00     0.057 A 
ATOM     80  C   UNL A   1      45.836  27.351  27.432  1.00  0.00     0.134 A 
ATOM     81  C   UNL A   1      46.455  29.545  28.102  1.00  0.00     0.134 A 
ATOM     82  F   UNL A   1      44.977  26.336  27.335  1.00  0.00    -0.206 F 
ATOM     83  C   UNL A   1      47.030  27.215  26.714  1.00  0.00     0.040 A 
ATOM     84  C   UNL A   1      47.641  29.436  27.365  1.00  0.00     0.040 A 
ATOM     85  F   UNL A   1      46.209  30.713  28.716  1.00  0.00    -0.206 F 
ATOM     86  C   UNL A   1      47.936  28.266  26.672  1.00  0.00     0.006 A 
ENDBRANCH  62  79
ENDBRANCH  36  37
ENDBRANCH  28  31
ENDBRANCH  26  27
ENDBRANCH   1  26
TORSDOF 11
ENDMDL
MODEL 3
REMARK VINA RESULT:     -13.3      4.784      9.511
REMARK SMILES Cc1cnc2nc(-c3cc(F)c(F)cc3C(=O)NCCCNC(=O)c3ccc(-c4c5nc(c(-c6c(F)cccc6F)c6ccc([nH]6)c(-c6c(F)cccc6F)c6nc(c(-c7c(F)cccc7F)c7ccc4[nH]7)C=C6)C=C5)cc3)[nH]c2c1
REMARK SMILES IDX 20 1 19 2 18 3 16 4 17 5 15 7 8 8 9 9 10 10 14 11 11 12
REMARK SMILES IDX 12 13 13 14 7 15 1 16 2 17 3 18 81 19 4 20 80 21 5 22 79 23
REMARK SMILES IDX 6 24 21 26 22 27 23 28 24 30 25 31 26 32 78 33 27 34 77 35
REMARK SMILES IDX 28 36 29 37 30 38 71 39 31 40 76 41 70 42 72 43 32 44 75 45
REMARK SMILES IDX 69 46 68 47 33 49 59 50 42 51 58 52 43 53 46 54 57 55 73 56
REMARK SMILES IDX 44 57 45 58 56 60 74 61 47 62 34 63 35 64 40 65 36 66 37 67
REMARK SMILES IDX 39 68 41 69 38 70 60 71 61 72 66 73 62 74 63 75 65 76 67 77
REMARK SMILES IDX 64 78 48 79 49 80 54 81 50 82 51 83 53 84 55 85 52 86
REMARK H PARENT 18 6 79 25 22 29 72 48 46 59
REMARK Flexibility Score: inf
ROOT
ATOM      1  C   UNL A   1      31.858  31.250  26.799  1.00  0.00     0.042 C 
ENDROOT
BRANCH   1   2
ATOM      2  C   UNL A   1      32.201  29.798  27.062  1.00  0.00     0.118 C 
BRANCH   2   3
ATOM      3  N   UNL A   1      32.892  29.135  26.014  1.00  0.00    -0.352 N 
ATOM      4  C   UNL A   1      32.472  28.839  24.750  1.00  0.00     0.252 C 
ATOM      5  O   UNL A   1      33.407  28.713  23.947  1.00  0.00    -0.269 OA
ATOM      6  H   UNL A   1      33.809  28.846  26.231  1.00  0.00     0.163 HD
BRANCH   4   7
ATOM      7  C   UNL A   1      31.059  28.523  24.278  1.00  0.00     0.053 A 
ATOM      8  C   UNL A   1      30.194  27.383  24.343  1.00  0.00     0.033 A 
ATOM      9  C   UNL A   1      28.907  27.472  23.751  1.00  0.00     0.055 A 
ATOM     10  C   UNL A   1      28.471  28.620  23.103  1.00  0.00     0.159 A 
ATOM     11  C   UNL A   1      30.553  29.674  23.603  1.00  0.00     0.057 A 
ATOM     12  F   UNL A   1      27.255  28.640  22.544  1.00  0.00    -0.204 F 
ATOM     13  C   UNL A   1      29.291  29.720  23.031  1.00  0.00     0.159 A 
ATOM     14  F   UNL A   1      28.893  30.832  22.401  1.00  0.00    -0.204 F 
BRANCH   8  15
ATOM     15  C   UNL A   1      30.427  26.061  24.952  1.00  0.00     0.141 A 
ATOM     16  C   UNL A   1      32.875  20.688  25.563  1.00  0.00     0.046 C 
ATOM     17  C   UNL A   1      32.135  21.979  25.773  1.00  0.00    -0.031 A 
ATOM     18  C   UNL A   1      32.106  22.592  27.030  1.00  0.00     0.117 A 
ATOM     19  C   UNL A   1      31.507  22.625  24.703  1.00  0.00     0.035 A 
ATOM     20  N   UNL A   1      31.595  23.820  27.307  1.00  0.00    -0.235 NA
ATOM     21  C   UNL A   1      30.988  23.892  24.983  1.00  0.00     0.085 A 
ATOM     22  C   UNL A   1      31.038  24.451  26.251  1.00  0.00     0.178 A 
ATOM     23  N   UNL A   1      30.458  24.891  24.203  1.00  0.00    -0.337 N 
ATOM     24  N   UNL A   1      30.625  25.767  26.228  1.00  0.00    -0.209 NA
ATOM     25  H   UNL A   1      30.154  24.795  23.273  1.00  0.00     0.168 HD
ENDBRANCH   8  15
ENDBRANCH   4   7
ENDBRANCH   2   3
ENDBRANCH   1   2
BRANCH   1  26
ATOM     26  C   UNL A   1      32.912  32.118  27.443  1.00  0.00     0.118 C 
BRANCH  26  27
ATOM     27  N   UNL A   1      32.583  33.553  27.582  1.00  0.00    -0.352 N 
ATOM     28  C   UNL A   1      33.063  34.476  28.524  1.00  0.00     0.251 C 
ATOM     29  H   UNL A   1      31.942  33.909  26.925  1.00  0.00     0.163 HD
ATOM     30  O   UNL A   1      32.592  35.574  28.695  1.00  0.00    -0.269 OA
BRANCH  28  31
ATOM     31  C   UNL A   1      34.241  34.051  29.290  1.00  0.00     0.039 A 
ATOM     32  C   UNL A   1      34.236  33.082  30.296  1.00  0.00     0.014 A 
ATOM     33  C   UNL A   1      35.414  34.482  28.722  1.00  0.00     0.014 A 
ATOM     34  C   UNL A   1      35.460  32.507  30.632  1.00  0.00     0.010 A 
ATOM     35  C   UNL A   1      36.357  33.523  28.646  1.00  0.00     0.010 A 
ATOM     36  C   UNL A   1      36.529  32.751  29.770  1.00  0.00    -0.014 A 
BRANCH  36  37
ATOM     37  C   UNL A   1      37.879  32.249  29.871  1.00  0.00     0.031 A 
ATOM     38  C   UNL A   1      38.072  30.894  29.321  1.00  0.00     0.074 A 
ATOM     39  C   UNL A   1      38.900  33.111  30.102  1.00  0.00     0.049 A 
ATOM     40  N   UNL A   1      38.292  29.812  29.983  1.00  0.00    -0.248 NA
ATOM     41  C   UNL A   1      37.821  30.677  27.886  1.00  0.00     0.031 C 
ATOM     42  C   UNL A   1      38.886  34.578  30.275  1.00  0.00     0.029 A 
ATOM     43  N   UNL A   1      40.227  32.836  30.122  1.00  0.00    -0.354 N 
ATOM     44  C   UNL A   1      38.437  28.813  29.032  1.00  0.00     0.074 A 
ATOM     45  C   UNL A   1      37.910  29.348  27.803  1.00  0.00     0.031 C 
ATOM     46  C   UNL A   1      40.138  35.071  30.153  1.00  0.00     0.029 A 
ATOM     47  C   UNL A   1      41.055  33.957  30.089  1.00  0.00     0.049 A 
ATOM     48  H   UNL A   1      40.578  31.916  30.156  1.00  0.00     0.167 HD
ATOM     49  C   UNL A   1      39.202  27.714  29.276  1.00  0.00     0.037 A 
ATOM     50  C   UNL A   1      42.405  33.918  29.989  1.00  0.00     0.037 A 
ATOM     51  C   UNL A   1      39.560  27.632  30.673  1.00  0.00     0.049 A 
ATOM     52  C   UNL A   1      42.815  32.545  30.411  1.00  0.00     0.074 A 
ATOM     53  C   UNL A   1      38.818  27.540  31.837  1.00  0.00     0.029 A 
ATOM     54  N   UNL A   1      40.784  28.135  31.055  1.00  0.00    -0.354 N 
ATOM     55  N   UNL A   1      42.633  32.086  31.625  1.00  0.00    -0.248 NA
ATOM     56  C   UNL A   1      42.890  31.528  29.369  1.00  0.00     0.031 C 
ATOM     57  C   UNL A   1      39.430  28.469  32.734  1.00  0.00     0.029 A 
ATOM     58  C   UNL A   1      40.568  28.989  32.114  1.00  0.00     0.049 A 
ATOM     59  H   UNL A   1      41.654  27.923  30.646  1.00  0.00     0.167 HD
ATOM     60  C   UNL A   1      42.172  30.782  31.460  1.00  0.00     0.074 A 
ATOM     61  C   UNL A   1      42.392  30.485  30.043  1.00  0.00     0.031 C 
ATOM     62  C   UNL A   1      41.367  30.172  32.384  1.00  0.00     0.037 A 
BRANCH  49  63
ATOM     63  C   UNL A   1      39.869  26.894  28.210  1.00  0.00     0.057 A 
ATOM     64  C   UNL A   1      40.751  27.507  27.307  1.00  0.00     0.134 A 
ATOM     65  C   UNL A   1      39.521  25.563  27.900  1.00  0.00     0.134 A 
ATOM     66  F   UNL A   1      41.127  28.784  27.474  1.00  0.00    -0.206 F 
ATOM     67  C   UNL A   1      41.236  26.849  26.169  1.00  0.00     0.040 A 
ATOM     68  C   UNL A   1      40.041  24.878  26.800  1.00  0.00     0.040 A 
ATOM     69  F   UNL A   1      38.591  24.889  28.591  1.00  0.00    -0.206 F 
ATOM     70  C   UNL A   1      40.887  25.528  25.917  1.00  0.00     0.006 A 
ENDBRANCH  49  63
BRANCH  50  71
ATOM     71  C   UNL A   1      43.262  34.836  29.201  1.00  0.00     0.057 A 
ATOM     72  C   UNL A   1      43.496  34.631  27.836  1.00  0.00     0.134 A 
ATOM     73  C   UNL A   1      43.671  36.085  29.713  1.00  0.00     0.134 A 
ATOM     74  F   UNL A   1      43.107  33.491  27.245  1.00  0.00    -0.206 F 
ATOM     75  C   UNL A   1      44.084  35.612  27.023  1.00  0.00     0.040 A 
ATOM     76  C   UNL A   1      44.262  37.070  28.916  1.00  0.00     0.040 A 
ATOM     77  F   UNL A   1      43.433  36.423  30.988  1.00  0.00    -0.206 F 
ATOM     78  C   UNL A   1      44.459  36.841  27.561  1.00  0.00     0.006 A 
ENDBRANCH  50  71
BRANCH  62  79
ATOM     79  C   UNL A   1      41.089  30.885  33.693  1.00  0.00     0.057 A 
ATOM     80  C   UNL A   1      39.946  31.664  33.946  1.00  0.00     0.134 A 
ATOM     81  C   UNL A   1      41.897  30.611  34.802  1.00  0.00     0.134 A 
ATOM     82  F   UNL A   1      39.052  31.912  32.988  1.00  0.00    -0.206 F 
ATOM     83  C   UNL A   1      39.636  32.162  35.217  1.00  0.00     0.040 A 
ATOM     84  C   UNL A   1      41.586  31.079  36.086  1.00  0.00     0.040 A 
ATOM     85  F   UNL A   1      42.978  29.828  34.670  1.00  0.00    -0.206 F 
ATOM     86  C   UNL A   1      40.455  31.862  36.297  1.00  0.00     0.006 A 
ENDBRANCH  62  79
ENDBRANCH  36  37
ENDBRANCH  28  31
ENDBRANCH  26  27
ENDBRANCH   1  26
TORSDOF 11
ENDMDL
