MODEL 1
REMARK VINA RESULT:     -10.8      0.000      0.000
REMARK SMILES C[C@@H](C(=O)NCCCNC(=O)c1ccc(-c2c3nc(c(-c4c(F)cccc4F)c4ccc([nH]4)c(-c4c(F)cccc4F)c4nc(c(-c5c(F)cccc5F)c5ccc2[nH]5)C=C4)C=C3)cc1)c1ccc(-c2cccc(OC(=O)Nc3ccccc3)c2)c(F)c1
REMARK SMILES IDX 3 1 4 2 5 3 2 5 1 6 66 7 67 8 88 9 68 10 86 11 69 12 87 13
REMARK SMILES IDX 70 14 71 15 85 16 72 17 74 18 73 19 75 20 76 21 77 22 78 23
REMARK SMILES IDX 79 25 80 26 84 27 81 28 83 29 82 30 6 31 7 32 8 33 9 34
REMARK SMILES IDX 10 35 11 37 12 38 13 39 65 40 14 41 64 42 15 43 16 44 17 45
REMARK SMILES IDX 58 46 18 47 63 48 57 49 59 50 19 51 62 52 56 53 55 54 20 56
REMARK SMILES IDX 46 57 29 58 45 59 30 60 33 61 44 62 60 63 31 64 32 65 43 67
REMARK SMILES IDX 61 68 34 69 21 70 22 71 27 72 23 73 24 74 26 75 28 76 25 77
REMARK SMILES IDX 47 78 48 79 53 80 49 81 50 82 52 83 54 84 51 85 35 86 36 87
REMARK SMILES IDX 41 88 37 89 38 90 40 91 42 92 39 93
REMARK H PARENT 5 4 78 24 9 36 59 55 33 66
REMARK Flexibility Score: inf
ROOT
ATOM      1  C   UNL A   1      32.957  36.493  30.390  1.00  0.00     0.227 C 
ATOM      2  O   UNL A   1      32.928  37.711  30.574  1.00  0.00    -0.274 OA
ATOM      3  N   UNL A   1      33.213  36.098  29.109  1.00  0.00    -0.356 N 
ATOM      4  H   UNL A   1      33.405  36.836  28.487  1.00  0.00     0.163 HD
ENDROOT
BRANCH   1   5
ATOM      5  C   UNL A   1      32.759  35.444  31.499  1.00  0.00     0.105 C 
ATOM      6  C   UNL A   1      31.986  35.989  32.699  1.00  0.00     0.023 C 
BRANCH   5   7
ATOM      7  C   UNL A   1      34.043  34.813  32.025  1.00  0.00    -0.033 A 
ATOM      8  C   UNL A   1      34.956  35.512  32.826  1.00  0.00     0.005 A 
ATOM      9  C   UNL A   1      34.287  33.455  31.779  1.00  0.00     0.044 A 
ATOM     10  C   UNL A   1      36.116  34.895  33.307  1.00  0.00     0.012 A 
ATOM     11  C   UNL A   1      35.431  32.841  32.284  1.00  0.00     0.131 A 
ATOM     12  C   UNL A   1      36.382  33.547  33.034  1.00  0.00     0.018 A 
ATOM     13  F   UNL A   1      35.601  31.534  32.025  1.00  0.00    -0.206 F 
BRANCH  12  14
ATOM     14  C   UNL A   1      37.647  32.928  33.460  1.00  0.00    -0.012 A 
ATOM     15  C   UNL A   1      38.854  33.647  33.497  1.00  0.00     0.009 A 
ATOM     16  C   UNL A   1      37.675  31.562  33.787  1.00  0.00     0.056 A 
ATOM     17  C   UNL A   1      40.052  33.018  33.847  1.00  0.00     0.004 A 
ATOM     18  C   UNL A   1      38.870  30.934  34.118  1.00  0.00     0.133 A 
ATOM     19  C   UNL A   1      40.062  31.659  34.156  1.00  0.00     0.047 A 
BRANCH  18  20
ATOM     20  O   UNL A   1      38.987  29.554  34.408  1.00  0.00    -0.410 OA
BRANCH  20  21
ATOM     21  C   UNL A   1      38.759  28.502  33.520  1.00  0.00     0.417 C 
ATOM     22  O   UNL A   1      37.686  28.225  32.990  1.00  0.00    -0.224 OA
ATOM     23  N   UNL A   1      39.884  27.809  33.153  1.00  0.00    -0.291 N 
ATOM     24  H   UNL A   1      39.747  27.160  32.423  1.00  0.00     0.173 HD
BRANCH  23  25
ATOM     25  C   UNL A   1      41.194  27.872  33.644  1.00  0.00     0.044 A 
ATOM     26  C   UNL A   1      41.549  26.932  34.618  1.00  0.00     0.026 A 
ATOM     27  C   UNL A   1      42.133  28.825  33.245  1.00  0.00     0.026 A 
ATOM     28  C   UNL A   1      42.841  26.912  35.148  1.00  0.00     0.002 A 
ATOM     29  C   UNL A   1      43.420  28.817  33.789  1.00  0.00     0.002 A 
ATOM     30  C   UNL A   1      43.777  27.855  34.731  1.00  0.00     0.000 A 
ENDBRANCH  23  25
ENDBRANCH  20  21
ENDBRANCH  18  20
ENDBRANCH  12  14
ENDBRANCH   5   7
ENDBRANCH   1   5
BRANCH   3  31
ATOM     31  C   UNL A   1      33.248  34.780  28.509  1.00  0.00     0.117 C 
BRANCH  31  32
ATOM     32  C   UNL A   1      34.618  34.469  27.911  1.00  0.00     0.042 C 
BRANCH  32  33
ATOM     33  C   UNL A   1      35.174  33.102  28.292  1.00  0.00     0.118 C 
BRANCH  33  34
ATOM     34  N   UNL A   1      34.230  32.021  28.053  1.00  0.00    -0.352 N 
ATOM     35  C   UNL A   1      34.462  30.674  27.920  1.00  0.00     0.251 C 
ATOM     36  H   UNL A   1      33.288  32.295  27.974  1.00  0.00     0.163 HD
ATOM     37  O   UNL A   1      33.562  29.927  27.549  1.00  0.00    -0.269 OA
BRANCH  35  38
ATOM     38  C   UNL A   1      35.805  30.127  28.202  1.00  0.00     0.039 A 
ATOM     39  C   UNL A   1      36.761  30.120  27.183  1.00  0.00     0.014 A 
ATOM     40  C   UNL A   1      36.121  29.628  29.468  1.00  0.00     0.014 A 
ATOM     41  C   UNL A   1      38.059  29.682  27.455  1.00  0.00     0.010 A 
ATOM     42  C   UNL A   1      37.432  29.265  29.757  1.00  0.00     0.010 A 
ATOM     43  C   UNL A   1      38.414  29.289  28.754  1.00  0.00    -0.014 A 
BRANCH  43  44
ATOM     44  C   UNL A   1      39.802  28.896  29.102  1.00  0.00     0.031 A 
ATOM     45  C   UNL A   1      40.727  29.899  29.731  1.00  0.00     0.074 A 
ATOM     46  C   UNL A   1      40.261  27.679  28.753  1.00  0.00     0.049 A 
ATOM     47  N   UNL A   1      42.012  29.811  29.963  1.00  0.00    -0.248 NA
ATOM     48  C   UNL A   1      40.131  31.188  30.117  1.00  0.00     0.031 C 
ATOM     49  C   UNL A   1      39.476  26.633  28.098  1.00  0.00     0.029 A 
ATOM     50  N   UNL A   1      41.514  27.129  28.872  1.00  0.00    -0.354 N 
ATOM     51  C   UNL A   1      42.383  31.039  30.494  1.00  0.00     0.074 A 
ATOM     52  C   UNL A   1      41.197  31.869  30.508  1.00  0.00     0.031 C 
ATOM     53  C   UNL A   1      40.264  25.571  27.868  1.00  0.00     0.029 A 
ATOM     54  C   UNL A   1      41.618  25.877  28.321  1.00  0.00     0.049 A 
ATOM     55  H   UNL A   1      42.266  27.590  29.310  1.00  0.00     0.167 HD
ATOM     56  C   UNL A   1      43.597  31.432  30.945  1.00  0.00     0.037 A 
ATOM     57  C   UNL A   1      42.688  25.072  28.171  1.00  0.00     0.037 A 
ATOM     58  C   UNL A   1      44.766  30.594  30.952  1.00  0.00     0.049 A 
ATOM     59  C   UNL A   1      44.028  25.526  28.679  1.00  0.00     0.074 A 
ATOM     60  C   UNL A   1      46.025  30.873  31.454  1.00  0.00     0.029 A 
ATOM     61  N   UNL A   1      44.818  29.312  30.426  1.00  0.00    -0.354 N 
ATOM     62  N   UNL A   1      44.352  26.664  29.243  1.00  0.00    -0.248 NA
ATOM     63  C   UNL A   1      45.148  24.587  28.534  1.00  0.00     0.031 C 
ATOM     64  C   UNL A   1      46.852  29.777  31.190  1.00  0.00     0.029 A 
ATOM     65  C   UNL A   1      46.095  28.795  30.569  1.00  0.00     0.049 A 
ATOM     66  H   UNL A   1      44.060  28.838  30.013  1.00  0.00     0.167 HD
ATOM     67  C   UNL A   1      45.705  26.570  29.543  1.00  0.00     0.074 A 
ATOM     68  C   UNL A   1      46.140  25.260  29.104  1.00  0.00     0.031 C 
ATOM     69  C   UNL A   1      46.511  27.485  30.133  1.00  0.00     0.037 A 
BRANCH  56  70
ATOM     70  C   UNL A   1      43.716  32.839  31.459  1.00  0.00     0.057 A 
ATOM     71  C   UNL A   1      43.579  33.146  32.819  1.00  0.00     0.134 A 
ATOM     72  C   UNL A   1      43.976  33.899  30.582  1.00  0.00     0.134 A 
ATOM     73  F   UNL A   1      43.318  32.178  33.711  1.00  0.00    -0.206 F 
ATOM     74  C   UNL A   1      43.657  34.459  33.283  1.00  0.00     0.040 A 
ATOM     75  C   UNL A   1      44.085  35.214  31.038  1.00  0.00     0.040 A 
ATOM     76  F   UNL A   1      44.126  33.676  29.267  1.00  0.00    -0.206 F 
ATOM     77  C   UNL A   1      43.915  35.498  32.391  1.00  0.00     0.006 A 
ENDBRANCH  56  70
BRANCH  57  78
ATOM     78  C   UNL A   1      42.525  23.752  27.513  1.00  0.00     0.057 A 
ATOM     79  C   UNL A   1      42.609  23.622  26.123  1.00  0.00     0.134 A 
ATOM     80  C   UNL A   1      42.314  22.587  28.260  1.00  0.00     0.134 A 
ATOM     81  F   UNL A   1      42.794  24.705  25.354  1.00  0.00    -0.206 F 
ATOM     82  C   UNL A   1      42.481  22.381  25.497  1.00  0.00     0.040 A 
ATOM     83  C   UNL A   1      42.207  21.337  27.649  1.00  0.00     0.040 A 
ATOM     84  F   UNL A   1      42.234  22.645  29.598  1.00  0.00    -0.206 F 
ATOM     85  C   UNL A   1      42.286  21.232  26.261  1.00  0.00     0.006 A 
ENDBRANCH  57  78
BRANCH  69  86
ATOM     86  C   UNL A   1      47.940  27.097  30.375  1.00  0.00     0.057 A 
ATOM     87  C   UNL A   1      48.327  26.383  31.516  1.00  0.00     0.134 A 
ATOM     88  C   UNL A   1      48.923  27.374  29.417  1.00  0.00     0.134 A 
ATOM     89  F   UNL A   1      47.435  26.098  32.476  1.00  0.00    -0.206 F 
ATOM     90  C   UNL A   1      49.647  25.964  31.697  1.00  0.00     0.040 A 
ATOM     91  C   UNL A   1      50.240  26.940  29.577  1.00  0.00     0.040 A 
ATOM     92  F   UNL A   1      48.614  28.047  28.299  1.00  0.00    -0.206 F 
ATOM     93  C   UNL A   1      50.604  26.234  30.721  1.00  0.00     0.006 A 
ENDBRANCH  69  86
ENDBRANCH  43  44
ENDBRANCH  35  38
ENDBRANCH  33  34
ENDBRANCH  32  33
ENDBRANCH  31  32
ENDBRANCH   3  31
TORSDOF 15
ENDMDL
MODEL 2
REMARK VINA RESULT:     -10.7      1.892      3.361
REMARK SMILES C[C@@H](C(=O)NCCCNC(=O)c1ccc(-c2c3nc(c(-c4c(F)cccc4F)c4ccc([nH]4)c(-c4c(F)cccc4F)c4nc(c(-c5c(F)cccc5F)c5ccc2[nH]5)C=C4)C=C3)cc1)c1ccc(-c2cccc(OC(=O)Nc3ccccc3)c2)c(F)c1
REMARK SMILES IDX 3 1 4 2 5 3 2 5 1 6 66 7 67 8 88 9 68 10 86 11 69 12 87 13
REMARK SMILES IDX 70 14 71 15 85 16 72 17 74 18 73 19 75 20 76 21 77 22 78 23
REMARK SMILES IDX 79 25 80 26 84 27 81 28 83 29 82 30 6 31 7 32 8 33 9 34
REMARK SMILES IDX 10 35 11 37 12 38 13 39 65 40 14 41 64 42 15 43 16 44 17 45
REMARK SMILES IDX 58 46 18 47 63 48 57 49 59 50 19 51 62 52 56 53 55 54 20 56
REMARK SMILES IDX 46 57 29 58 45 59 30 60 33 61 44 62 60 63 31 64 32 65 43 67
REMARK SMILES IDX 61 68 34 69 21 70 22 71 27 72 23 73 24 74 26 75 28 76 25 77
REMARK SMILES IDX 47 78 48 79 53 80 49 81 50 82 52 83 54 84 51 85 35 86 36 87
REMARK SMILES IDX 41 88 37 89 38 90 40 91 42 92 39 93
REMARK H PARENT 5 4 78 24 9 36 59 55 33 66
REMARK Flexibility Score: inf
ROOT
ATOM      1  C   UNL A   1      37.506  33.999  31.974  1.00  0.00     0.227 C 
ATOM      2  O   UNL A   1      37.722  34.991  32.673  1.00  0.00    -0.274 OA
ATOM      3  N   UNL A   1      37.666  34.182  30.632  1.00  0.00    -0.356 N 
ATOM      4  H   UNL A   1      37.996  35.073  30.378  1.00  0.00     0.163 HD
ENDROOT
BRANCH   1   5
ATOM      5  C   UNL A   1      37.111  32.618  32.527  1.00  0.00     0.105 C 
ATOM      6  C   UNL A   1      36.204  32.707  33.754  1.00  0.00     0.023 C 
BRANCH   5   7
ATOM      7  C   UNL A   1      38.282  31.709  32.883  1.00  0.00    -0.033 A 
ATOM      8  C   UNL A   1      39.455  32.189  33.484  1.00  0.00     0.005 A 
ATOM      9  C   UNL A   1      38.157  30.327  32.691  1.00  0.00     0.044 A 
ATOM     10  C   UNL A   1      40.503  31.323  33.814  1.00  0.00     0.012 A 
ATOM     11  C   UNL A   1      39.194  29.468  33.048  1.00  0.00     0.131 A 
ATOM     12  C   UNL A   1      40.396  29.943  33.592  1.00  0.00     0.018 A 
ATOM     13  F   UNL A   1      39.009  28.153  32.851  1.00  0.00    -0.206 F 
BRANCH  12  14
ATOM     14  C   UNL A   1      41.535  29.049  33.851  1.00  0.00    -0.012 A 
ATOM     15  C   UNL A   1      42.674  29.031  33.028  1.00  0.00     0.009 A 
ATOM     16  C   UNL A   1      41.473  28.138  34.920  1.00  0.00     0.056 A 
ATOM     17  C   UNL A   1      43.715  28.129  33.263  1.00  0.00     0.004 A 
ATOM     18  C   UNL A   1      42.501  27.229  35.142  1.00  0.00     0.133 A 
ATOM     19  C   UNL A   1      43.628  27.225  34.320  1.00  0.00     0.047 A 
BRANCH  18  20
ATOM     20  O   UNL A   1      42.486  26.249  36.162  1.00  0.00    -0.410 OA
BRANCH  20  21
ATOM     21  C   UNL A   1      41.578  25.196  36.281  1.00  0.00     0.417 C 
ATOM     22  O   UNL A   1      40.431  25.278  36.710  1.00  0.00    -0.224 OA
ATOM     23  N   UNL A   1      42.014  24.004  35.762  1.00  0.00    -0.291 N 
ATOM     24  H   UNL A   1      41.328  23.299  35.719  1.00  0.00     0.173 HD
BRANCH  23  25
ATOM     25  C   UNL A   1      43.276  23.625  35.284  1.00  0.00     0.044 A 
ATOM     26  C   UNL A   1      43.389  23.401  33.908  1.00  0.00     0.026 A 
ATOM     27  C   UNL A   1      44.394  23.432  36.098  1.00  0.00     0.026 A 
ATOM     28  C   UNL A   1      44.614  23.039  33.346  1.00  0.00     0.002 A 
ATOM     29  C   UNL A   1      45.616  23.051  35.538  1.00  0.00     0.002 A 
ATOM     30  C   UNL A   1      45.728  22.866  34.162  1.00  0.00     0.000 A 
ENDBRANCH  23  25
ENDBRANCH  20  21
ENDBRANCH  18  20
ENDBRANCH  12  14
ENDBRANCH   5   7
ENDBRANCH   1   5
BRANCH   3  31
ATOM     31  C   UNL A   1      37.432  33.288  29.516  1.00  0.00     0.117 C 
BRANCH  31  32
ATOM     32  C   UNL A   1      36.017  33.436  28.961  1.00  0.00     0.042 C 
BRANCH  32  33
ATOM     33  C   UNL A   1      34.970  32.590  29.677  1.00  0.00     0.118 C 
BRANCH  33  34
ATOM     34  N   UNL A   1      34.215  31.738  28.771  1.00  0.00    -0.352 N 
ATOM     35  C   UNL A   1      34.635  30.654  28.041  1.00  0.00     0.251 C 
ATOM     36  H   UNL A   1      33.265  31.973  28.667  1.00  0.00     0.163 HD
ATOM     37  O   UNL A   1      33.898  30.158  27.194  1.00  0.00    -0.269 OA
BRANCH  35  38
ATOM     38  C   UNL A   1      35.987  30.099  28.258  1.00  0.00     0.039 A 
ATOM     39  C   UNL A   1      36.942  30.227  27.246  1.00  0.00     0.014 A 
ATOM     40  C   UNL A   1      36.312  29.460  29.457  1.00  0.00     0.014 A 
ATOM     41  C   UNL A   1      38.248  29.780  27.466  1.00  0.00     0.010 A 
ATOM     42  C   UNL A   1      37.628  29.085  29.702  1.00  0.00     0.010 A 
ATOM     43  C   UNL A   1      38.609  29.242  28.710  1.00  0.00    -0.014 A 
BRANCH  43  44
ATOM     44  C   UNL A   1      40.004  28.833  29.011  1.00  0.00     0.031 A 
ATOM     45  C   UNL A   1      40.975  29.839  29.559  1.00  0.00     0.074 A 
ATOM     46  C   UNL A   1      40.423  27.595  28.688  1.00  0.00     0.049 A 
ATOM     47  N   UNL A   1      42.268  29.732  29.738  1.00  0.00    -0.248 NA
ATOM     48  C   UNL A   1      40.423  31.153  29.923  1.00  0.00     0.031 C 
ATOM     49  C   UNL A   1      39.589  26.543  28.108  1.00  0.00     0.029 A 
ATOM     50  N   UNL A   1      41.669  27.023  28.772  1.00  0.00    -0.354 N 
ATOM     51  C   UNL A   1      42.686  30.970  30.206  1.00  0.00     0.074 A 
ATOM     52  C   UNL A   1      41.519  31.826  30.241  1.00  0.00     0.031 C 
ATOM     53  C   UNL A   1      40.344  25.456  27.884  1.00  0.00     0.029 A 
ATOM     54  C   UNL A   1      41.723  25.749  28.264  1.00  0.00     0.049 A 
ATOM     55  H   UNL A   1      42.449  27.484  29.158  1.00  0.00     0.167 HD
ATOM     56  C   UNL A   1      43.926  31.355  30.587  1.00  0.00     0.037 A 
ATOM     57  C   UNL A   1      42.770  24.917  28.097  1.00  0.00     0.037 A 
ATOM     58  C   UNL A   1      45.078  30.492  30.574  1.00  0.00     0.049 A 
ATOM     59  C   UNL A   1      44.139  25.361  28.528  1.00  0.00     0.074 A 
ATOM     60  C   UNL A   1      46.363  30.763  31.009  1.00  0.00     0.029 A 
ATOM     61  N   UNL A   1      45.082  29.191  30.095  1.00  0.00    -0.354 N 
ATOM     62  N   UNL A   1      44.511  26.512  29.034  1.00  0.00    -0.248 NA
ATOM     63  C   UNL A   1      45.233  24.394  28.370  1.00  0.00     0.031 C 
ATOM     64  C   UNL A   1      47.156  29.640  30.750  1.00  0.00     0.029 A 
ATOM     65  C   UNL A   1      46.354  28.653  30.200  1.00  0.00     0.049 A 
ATOM     66  H   UNL A   1      44.297  28.719  29.734  1.00  0.00     0.167 HD
ATOM     67  C   UNL A   1      45.873  26.400  29.277  1.00  0.00     0.074 A 
ATOM     68  C   UNL A   1      46.263  25.066  28.870  1.00  0.00     0.031 C 
ATOM     69  C   UNL A   1      46.724  27.319  29.797  1.00  0.00     0.037 A 
BRANCH  56  70
ATOM     70  C   UNL A   1      44.097  32.776  31.042  1.00  0.00     0.057 A 
ATOM     71  C   UNL A   1      44.401  33.810  30.146  1.00  0.00     0.134 A 
ATOM     72  C   UNL A   1      43.949  33.116  32.392  1.00  0.00     0.134 A 
ATOM     73  F   UNL A   1      44.567  33.551  28.840  1.00  0.00    -0.206 F 
ATOM     74  C   UNL A   1      44.592  35.121  30.582  1.00  0.00     0.040 A 
ATOM     75  C   UNL A   1      44.109  34.429  32.836  1.00  0.00     0.040 A 
ATOM     76  F   UNL A   1      43.650  32.177  33.303  1.00  0.00    -0.206 F 
ATOM     77  C   UNL A   1      44.442  35.435  31.932  1.00  0.00     0.006 A 
ENDBRANCH  56  70
BRANCH  57  78
ATOM     78  C   UNL A   1      42.551  23.578  27.498  1.00  0.00     0.057 A 
ATOM     79  C   UNL A   1      42.232  22.473  28.294  1.00  0.00     0.134 A 
ATOM     80  C   UNL A   1      42.624  23.379  26.114  1.00  0.00     0.134 A 
ATOM     81  F   UNL A   1      42.164  22.600  29.627  1.00  0.00    -0.206 F 
ATOM     82  C   UNL A   1      42.001  21.214  27.736  1.00  0.00     0.040 A 
ATOM     83  C   UNL A   1      42.373  22.131  25.541  1.00  0.00     0.040 A 
ATOM     84  F   UNL A   1      42.916  24.401  25.296  1.00  0.00    -0.206 F 
ATOM     85  C   UNL A   1      42.064  21.042  26.354  1.00  0.00     0.006 A 
ENDBRANCH  57  78
BRANCH  69  86
ATOM     86  C   UNL A   1      48.154  26.910  29.990  1.00  0.00     0.057 A 
ATOM     87  C   UNL A   1      48.568  26.181  31.111  1.00  0.00     0.134 A 
ATOM     88  C   UNL A   1      49.109  27.182  29.003  1.00  0.00     0.134 A 
ATOM     89  F   UNL A   1      47.703  25.899  32.097  1.00  0.00    -0.206 F 
ATOM     90  C   UNL A   1      49.886  25.743  31.247  1.00  0.00     0.040 A 
ATOM     91  C   UNL A   1      50.425  26.730  29.117  1.00  0.00     0.040 A 
ATOM     92  F   UNL A   1      48.774  27.869  27.901  1.00  0.00    -0.206 F 
ATOM     93  C   UNL A   1      50.815  26.008  30.243  1.00  0.00     0.006 A 
ENDBRANCH  69  86
ENDBRANCH  43  44
ENDBRANCH  35  38
ENDBRANCH  33  34
ENDBRANCH  32  33
ENDBRANCH  31  32
ENDBRANCH   3  31
TORSDOF 15
ENDMDL
MODEL 3
REMARK VINA RESULT:     -10.6      4.976     11.215
REMARK SMILES C[C@@H](C(=O)NCCCNC(=O)c1ccc(-c2c3nc(c(-c4c(F)cccc4F)c4ccc([nH]4)c(-c4c(F)cccc4F)c4nc(c(-c5c(F)cccc5F)c5ccc2[nH]5)C=C4)C=C3)cc1)c1ccc(-c2cccc(OC(=O)Nc3ccccc3)c2)c(F)c1
REMARK SMILES IDX 3 1 4 2 5 3 2 5 1 6 66 7 67 8 88 9 68 10 86 11 69 12 87 13
REMARK SMILES IDX 70 14 71 15 85 16 72 17 74 18 73 19 75 20 76 21 77 22 78 23
REMARK SMILES IDX 79 25 80 26 84 27 81 28 83 29 82 30 6 31 7 32 8 33 9 34
REMARK SMILES IDX 10 35 11 37 12 38 13 39 65 40 14 41 64 42 15 43 16 44 17 45
REMARK SMILES IDX 58 46 18 47 63 48 57 49 59 50 19 51 62 52 56 53 55 54 20 56
REMARK SMILES IDX 46 57 29 58 45 59 30 60 33 61 44 62 60 63 31 64 32 65 43 67
REMARK SMILES IDX 61 68 34 69 21 70 22 71 27 72 23 73 24 74 26 75 28 76 25 77
REMARK SMILES IDX 47 78 48 79 53 80 49 81 50 82 52 83 54 84 51 85 35 86 36 87
REMARK SMILES IDX 41 88 37 89 38 90 40 91 42 92 39 93
REMARK H PARENT 5 4 78 24 9 36 59 55 33 66
REMARK Flexibility Score: inf
ROOT
ATOM      1  C   UNL A   1      41.460  21.525  27.664  1.00  0.00     0.227 C 
ATOM      2  O   UNL A   1      41.679  22.417  28.486  1.00  0.00    -0.274 OA
ATOM      3  N   UNL A   1      41.692  20.254  28.100  1.00  0.00    -0.356 N 
ATOM      4  H   UNL A   1      41.951  20.189  29.047  1.00  0.00     0.163 HD
ENDROOT
BRANCH   1   5
ATOM      5  C   UNL A   1      40.931  21.771  26.239  1.00  0.00     0.105 C 
ATOM      6  C   UNL A   1      41.775  22.779  25.459  1.00  0.00     0.023 C 
BRANCH   5   7
ATOM      7  C   UNL A   1      39.478  22.229  26.163  1.00  0.00    -0.033 A 
ATOM      8  C   UNL A   1      39.071  23.518  26.536  1.00  0.00     0.005 A 
ATOM      9  C   UNL A   1      38.519  21.366  25.618  1.00  0.00     0.044 A 
ATOM     10  C   UNL A   1      37.732  23.909  26.436  1.00  0.00     0.012 A 
ATOM     11  C   UNL A   1      37.192  21.773  25.495  1.00  0.00     0.131 A 
ATOM     12  C   UNL A   1      36.762  23.037  25.922  1.00  0.00     0.018 A 
ATOM     13  F   UNL A   1      36.323  20.906  24.952  1.00  0.00    -0.206 F 
BRANCH  12  14
ATOM     14  C   UNL A   1      35.341  23.417  25.907  1.00  0.00    -0.012 A 
ATOM     15  C   UNL A   1      34.454  23.032  26.927  1.00  0.00     0.009 A 
ATOM     16  C   UNL A   1      34.827  24.140  24.817  1.00  0.00     0.056 A 
ATOM     17  C   UNL A   1      33.096  23.356  26.857  1.00  0.00     0.004 A 
ATOM     18  C   UNL A   1      33.474  24.446  24.739  1.00  0.00     0.133 A 
ATOM     19  C   UNL A   1      32.604  24.062  25.761  1.00  0.00     0.047 A 
BRANCH  18  20
ATOM     20  O   UNL A   1      32.875  25.123  23.651  1.00  0.00    -0.410 OA
BRANCH  20  21
ATOM     21  C   UNL A   1      33.469  26.112  22.866  1.00  0.00     0.417 C 
ATOM     22  O   UNL A   1      33.920  25.960  21.734  1.00  0.00    -0.224 OA
ATOM     23  N   UNL A   1      33.428  27.372  23.406  1.00  0.00    -0.291 N 
ATOM     24  H   UNL A   1      33.720  28.089  22.798  1.00  0.00     0.173 HD
BRANCH  23  25
ATOM     25  C   UNL A   1      33.040  27.804  24.681  1.00  0.00     0.044 A 
ATOM     26  C   UNL A   1      34.037  27.856  25.661  1.00  0.00     0.026 A 
ATOM     27  C   UNL A   1      31.732  28.149  25.024  1.00  0.00     0.026 A 
ATOM     28  C   UNL A   1      33.740  28.294  26.953  1.00  0.00     0.002 A 
ATOM     29  C   UNL A   1      31.431  28.570  26.322  1.00  0.00     0.002 A 
ATOM     30  C   UNL A   1      32.436  28.652  27.282  1.00  0.00     0.000 A 
ENDBRANCH  23  25
ENDBRANCH  20  21
ENDBRANCH  18  20
ENDBRANCH  12  14
ENDBRANCH   5   7
ENDBRANCH   1   5
BRANCH   3  31
ATOM     31  C   UNL A   1      41.623  18.983  27.408  1.00  0.00     0.117 C 
BRANCH  31  32
ATOM     32  C   UNL A   1      42.947  18.636  26.732  1.00  0.00     0.042 C 
BRANCH  32  33
ATOM     33  C   UNL A   1      43.038  19.066  25.272  1.00  0.00     0.118 C 
BRANCH  33  34
ATOM     34  N   UNL A   1      44.335  18.779  24.677  1.00  0.00    -0.352 N 
ATOM     35  C   UNL A   1      45.357  19.638  24.359  1.00  0.00     0.251 C 
ATOM     36  H   UNL A   1      44.503  17.831  24.473  1.00  0.00     0.163 HD
ATOM     37  O   UNL A   1      46.315  19.241  23.703  1.00  0.00    -0.269 OA
BRANCH  35  38
ATOM     38  C   UNL A   1      45.293  21.051  24.787  1.00  0.00     0.039 A 
ATOM     39  C   UNL A   1      45.520  21.363  26.130  1.00  0.00     0.014 A 
ATOM     40  C   UNL A   1      45.015  22.063  23.865  1.00  0.00     0.014 A 
ATOM     41  C   UNL A   1      45.543  22.700  26.535  1.00  0.00     0.010 A 
ATOM     42  C   UNL A   1      45.114  23.394  24.254  1.00  0.00     0.010 A 
ATOM     43  C   UNL A   1      45.380  23.726  25.593  1.00  0.00    -0.014 A 
BRANCH  43  44
ATOM     44  C   UNL A   1      45.480  25.158  25.969  1.00  0.00     0.031 A 
ATOM     45  C   UNL A   1      46.817  25.843  25.950  1.00  0.00     0.074 A 
ATOM     46  C   UNL A   1      44.394  25.807  26.431  1.00  0.00     0.049 A 
ATOM     47  N   UNL A   1      47.146  27.031  26.392  1.00  0.00    -0.248 NA
ATOM     48  C   UNL A   1      47.940  25.075  25.391  1.00  0.00     0.031 C 
ATOM     49  C   UNL A   1      43.051  25.239  26.541  1.00  0.00     0.029 A 
ATOM     50  N   UNL A   1      44.259  27.080  26.928  1.00  0.00    -0.354 N 
ATOM     51  C   UNL A   1      48.516  27.139  26.191  1.00  0.00     0.074 A 
ATOM     52  C   UNL A   1      48.962  25.881  25.629  1.00  0.00     0.031 C 
ATOM     53  C   UNL A   1      42.228  26.156  27.074  1.00  0.00     0.029 A 
ATOM     54  C   UNL A   1      42.995  27.360  27.383  1.00  0.00     0.049 A 
ATOM     55  H   UNL A   1      44.998  27.730  26.955  1.00  0.00     0.167 HD
ATOM     56  C   UNL A   1      49.325  28.196  26.436  1.00  0.00     0.037 A 
ATOM     57  C   UNL A   1      42.510  28.452  28.005  1.00  0.00     0.037 A 
ATOM     58  C   UNL A   1      48.871  29.453  26.970  1.00  0.00     0.049 A 
ATOM     59  C   UNL A   1      43.423  29.616  28.267  1.00  0.00     0.074 A 
ATOM     60  C   UNL A   1      49.597  30.610  27.187  1.00  0.00     0.029 A 
ATOM     61  N   UNL A   1      47.571  29.712  27.376  1.00  0.00    -0.354 N 
ATOM     62  N   UNL A   1      44.703  29.734  28.010  1.00  0.00    -0.248 NA
ATOM     63  C   UNL A   1      42.827  30.800  28.902  1.00  0.00     0.031 C 
ATOM     64  C   UNL A   1      48.746  31.556  27.768  1.00  0.00     0.029 A 
ATOM     65  C   UNL A   1      47.478  31.004  27.866  1.00  0.00     0.049 A 
ATOM     66  H   UNL A   1      46.824  29.073  27.324  1.00  0.00     0.167 HD
ATOM     67  C   UNL A   1      45.061  31.009  28.426  1.00  0.00     0.074 A 
ATOM     68  C   UNL A   1      43.861  31.631  28.948  1.00  0.00     0.031 C 
ATOM     69  C   UNL A   1      46.274  31.612  28.376  1.00  0.00     0.037 A 
BRANCH  56  70
ATOM     70  C   UNL A   1      50.787  28.028  26.134  1.00  0.00     0.057 A 
ATOM     71  C   UNL A   1      51.297  28.167  24.836  1.00  0.00     0.134 A 
ATOM     72  C   UNL A   1      51.696  27.728  27.155  1.00  0.00     0.134 A 
ATOM     73  F   UNL A   1      50.477  28.443  23.809  1.00  0.00    -0.206 F 
ATOM     74  C   UNL A   1      52.650  27.975  24.559  1.00  0.00     0.040 A 
ATOM     75  C   UNL A   1      53.057  27.562  26.895  1.00  0.00     0.040 A 
ATOM     76  F   UNL A   1      51.278  27.589  28.422  1.00  0.00    -0.206 F 
ATOM     77  C   UNL A   1      53.536  27.674  25.592  1.00  0.00     0.006 A 
ENDBRANCH  56  70
BRANCH  57  78
ATOM     78  C   UNL A   1      41.084  28.488  28.414  1.00  0.00     0.057 A 
ATOM     79  C   UNL A   1      40.695  28.135  29.710  1.00  0.00     0.134 A 
ATOM     80  C   UNL A   1      40.083  28.908  27.530  1.00  0.00     0.134 A 
ATOM     81  F   UNL A   1      41.607  27.711  30.596  1.00  0.00    -0.206 F 
ATOM     82  C   UNL A   1      39.358  28.189  30.112  1.00  0.00     0.040 A 
ATOM     83  C   UNL A   1      38.746  28.988  27.924  1.00  0.00     0.040 A 
ATOM     84  F   UNL A   1      40.394  29.270  26.276  1.00  0.00    -0.206 F 
ATOM     85  C   UNL A   1      38.380  28.624  29.219  1.00  0.00     0.006 A 
ENDBRANCH  57  78
BRANCH  69  86
ATOM     86  C   UNL A   1      46.366  33.027  28.864  1.00  0.00     0.057 A 
ATOM     87  C   UNL A   1      46.112  34.116  28.021  1.00  0.00     0.134 A 
ATOM     88  C   UNL A   1      46.636  33.297  30.211  1.00  0.00     0.134 A 
ATOM     89  F   UNL A   1      45.859  33.923  26.718  1.00  0.00    -0.206 F 
ATOM     90  C   UNL A   1      46.130  35.426  28.503  1.00  0.00     0.040 A 
ATOM     91  C   UNL A   1      46.634  34.601  30.708  1.00  0.00     0.040 A 
ATOM     92  F   UNL A   1      46.880  32.297  31.071  1.00  0.00    -0.206 F 
ATOM     93  C   UNL A   1      46.381  35.670  29.851  1.00  0.00     0.006 A 
ENDBRANCH  69  86
ENDBRANCH  43  44
ENDBRANCH  35  38
ENDBRANCH  33  34
ENDBRANCH  32  33
ENDBRANCH  31  32
ENDBRANCH   3  31
TORSDOF 15
ENDMDL
