MODEL 1
REMARK VINA RESULT:     -12.0      0.000      0.000
REMARK SMILES Cc1ccc(C(=O)[C@@H](C)[C@H](C)C(=O)NCCCNC(=O)c2ccc(-c3c4nc(c(-c5c(F)cccc5F)c5ccc([nH]5)c(-c5c(F)cccc5F)c5nc(c(-c6c(F)cccc6F)c6ccc3[nH]6)C=C5)C=C4)cc2)cc1
REMARK SMILES IDX 15 1 14 2 12 3 13 4 10 6 11 7 8 8 9 9 6 10 7 11 5 12 1 13
REMARK SMILES IDX 2 14 3 15 76 16 4 17 75 18 16 19 17 20 18 21 19 22 20 24
REMARK SMILES IDX 21 25 22 26 74 27 23 28 73 29 24 30 25 31 26 32 67 33 27 34
REMARK SMILES IDX 72 35 66 36 68 37 28 38 71 39 65 40 64 41 29 43 55 44 38 45
REMARK SMILES IDX 54 46 39 47 42 48 53 49 69 50 40 51 41 52 52 54 70 55 43 56
REMARK SMILES IDX 30 57 31 58 36 59 32 60 33 61 35 62 37 63 34 64 56 65 57 66
REMARK SMILES IDX 62 67 58 68 59 69 61 70 63 71 60 72 44 73 45 74 50 75 46 76
REMARK SMILES IDX 47 77 49 78 51 79 48 80
REMARK H PARENT 14 5 18 23 68 42 42 53
REMARK Flexibility Score: inf
ROOT
ATOM      1  C   UNL A   1      33.013  30.476  26.648  1.00  0.00     0.117 C 
ENDROOT
BRANCH   1   2
ATOM      2  N   UNL A   1      32.146  29.533  27.337  1.00  0.00    -0.356 N 
ATOM      3  C   UNL A   1      31.693  28.274  27.157  1.00  0.00     0.223 C 
ATOM      4  O   UNL A   1      31.039  27.829  28.113  1.00  0.00    -0.275 OA
ATOM      5  H   UNL A   1      31.789  29.922  28.167  1.00  0.00     0.163 HD
BRANCH   3   6
ATOM      6  C   UNL A   1      31.845  27.393  25.908  1.00  0.00     0.086 C 
ATOM      7  C   UNL A   1      33.309  27.041  25.649  1.00  0.00     0.019 C 
BRANCH   6   8
ATOM      8  C   UNL A   1      30.740  26.355  25.554  1.00  0.00     0.070 C 
ATOM      9  C   UNL A   1      30.870  24.941  26.112  1.00  0.00     0.017 C 
BRANCH   8  10
ATOM     10  C   UNL A   1      30.153  26.351  24.123  1.00  0.00     0.166 C 
ATOM     11  O   UNL A   1      30.131  25.298  23.480  1.00  0.00    -0.294 OA
BRANCH  10  12
ATOM     12  C   UNL A   1      29.618  27.579  23.452  1.00  0.00     0.018 A 
ATOM     13  C   UNL A   1      28.035  30.998  21.316  1.00  0.00     0.044 C 
ATOM     14  C   UNL A   1      28.605  29.815  22.040  1.00  0.00    -0.051 A 
ATOM     15  C   UNL A   1      29.971  29.531  22.032  1.00  0.00     0.004 A 
ATOM     16  C   UNL A   1      27.761  28.972  22.754  1.00  0.00     0.004 A 
ATOM     17  C   UNL A   1      30.473  28.412  22.719  1.00  0.00     0.012 A 
ATOM     18  C   UNL A   1      28.271  27.897  23.481  1.00  0.00     0.012 A 
ENDBRANCH  10  12
ENDBRANCH   8  10
ENDBRANCH   6   8
ENDBRANCH   3   6
ENDBRANCH   1   2
BRANCH   1  19
ATOM     19  C   UNL A   1      34.408  30.539  27.240  1.00  0.00     0.042 C 
BRANCH  19  20
ATOM     20  C   UNL A   1      34.490  31.326  28.544  1.00  0.00     0.118 C 
BRANCH  20  21
ATOM     21  N   UNL A   1      35.704  32.110  28.784  1.00  0.00    -0.352 N 
ATOM     22  C   UNL A   1      37.016  31.651  28.962  1.00  0.00     0.251 C 
ATOM     23  H   UNL A   1      35.582  33.086  28.825  1.00  0.00     0.163 HD
ATOM     24  O   UNL A   1      37.937  32.409  29.128  1.00  0.00    -0.269 OA
BRANCH  22  25
ATOM     25  C   UNL A   1      37.251  30.193  28.800  1.00  0.00     0.039 A 
ATOM     26  C   UNL A   1      37.287  29.448  29.982  1.00  0.00     0.014 A 
ATOM     27  C   UNL A   1      37.896  29.757  27.652  1.00  0.00     0.014 A 
ATOM     28  C   UNL A   1      38.258  28.461  30.116  1.00  0.00     0.010 A 
ATOM     29  C   UNL A   1      38.934  28.861  27.824  1.00  0.00     0.010 A 
ATOM     30  C   UNL A   1      39.183  28.291  29.088  1.00  0.00    -0.014 A 
BRANCH  30  31
ATOM     31  C   UNL A   1      40.542  27.773  29.302  1.00  0.00     0.031 A 
ATOM     32  C   UNL A   1      40.907  26.405  28.852  1.00  0.00     0.074 A 
ATOM     33  C   UNL A   1      41.528  28.608  29.724  1.00  0.00     0.049 A 
ATOM     34  N   UNL A   1      42.076  25.881  29.008  1.00  0.00    -0.248 NA
ATOM     35  C   UNL A   1      39.953  25.479  28.246  1.00  0.00     0.031 C 
ATOM     36  C   UNL A   1      42.969  28.439  29.535  1.00  0.00     0.029 A 
ATOM     37  N   UNL A   1      41.430  29.686  30.621  1.00  0.00    -0.354 N 
ATOM     38  C   UNL A   1      42.113  24.697  28.317  1.00  0.00     0.074 A 
ATOM     39  C   UNL A   1      40.746  24.446  27.942  1.00  0.00     0.031 C 
ATOM     40  C   UNL A   1      43.622  29.141  30.470  1.00  0.00     0.029 A 
ATOM     41  C   UNL A   1      42.628  29.665  31.384  1.00  0.00     0.049 A 
ATOM     42  H   UNL A   1      40.686  30.324  30.705  1.00  0.00     0.167 HD
ATOM     43  C   UNL A   1      43.325  24.122  28.079  1.00  0.00     0.037 A 
ATOM     44  C   UNL A   1      42.621  29.455  32.733  1.00  0.00     0.037 A 
ATOM     45  C   UNL A   1      44.341  24.663  28.984  1.00  0.00     0.049 A 
ATOM     46  C   UNL A   1      43.378  28.230  33.203  1.00  0.00     0.074 A 
ATOM     47  C   UNL A   1      45.423  25.517  28.882  1.00  0.00     0.029 A 
ATOM     48  N   UNL A   1      44.152  24.448  30.338  1.00  0.00    -0.354 N 
ATOM     49  N   UNL A   1      44.007  27.402  32.417  1.00  0.00    -0.248 NA
ATOM     50  C   UNL A   1      43.385  27.780  34.599  1.00  0.00     0.031 C 
ATOM     51  C   UNL A   1      45.843  25.854  30.209  1.00  0.00     0.029 A 
ATOM     52  C   UNL A   1      45.025  25.188  31.104  1.00  0.00     0.049 A 
ATOM     53  H   UNL A   1      43.474  23.839  30.709  1.00  0.00     0.167 HD
ATOM     54  C   UNL A   1      44.366  26.291  33.132  1.00  0.00     0.074 A 
ATOM     55  C   UNL A   1      43.994  26.587  34.501  1.00  0.00     0.031 C 
ATOM     56  C   UNL A   1      44.863  25.166  32.548  1.00  0.00     0.037 A 
BRANCH  43  57
ATOM     57  C   UNL A   1      43.638  23.113  26.994  1.00  0.00     0.057 A 
ATOM     58  C   UNL A   1      43.055  21.829  27.035  1.00  0.00     0.134 A 
ATOM     59  C   UNL A   1      44.579  23.278  25.959  1.00  0.00     0.134 A 
ATOM     60  F   UNL A   1      42.153  21.494  27.969  1.00  0.00    -0.206 F 
ATOM     61  C   UNL A   1      43.385  20.805  26.135  1.00  0.00     0.040 A 
ATOM     62  C   UNL A   1      44.887  22.277  25.026  1.00  0.00     0.040 A 
ATOM     63  F   UNL A   1      45.303  24.390  25.810  1.00  0.00    -0.206 F 
ATOM     64  C   UNL A   1      44.300  21.029  25.119  1.00  0.00     0.006 A 
ENDBRANCH  43  57
BRANCH  44  65
ATOM     65  C   UNL A   1      41.413  30.005  33.391  1.00  0.00     0.057 A 
ATOM     66  C   UNL A   1      41.380  31.375  33.700  1.00  0.00     0.134 A 
ATOM     67  C   UNL A   1      40.196  29.319  33.366  1.00  0.00     0.134 A 
ATOM     68  F   UNL A   1      42.517  32.088  33.733  1.00  0.00    -0.206 F 
ATOM     69  C   UNL A   1      40.176  32.059  33.867  1.00  0.00     0.040 A 
ATOM     70  C   UNL A   1      38.984  29.993  33.539  1.00  0.00     0.040 A 
ATOM     71  F   UNL A   1      40.155  28.016  33.051  1.00  0.00    -0.206 F 
ATOM     72  C   UNL A   1      38.970  31.370  33.753  1.00  0.00     0.006 A 
ENDBRANCH  44  65
BRANCH  56  73
ATOM     73  C   UNL A   1      45.185  23.926  33.321  1.00  0.00     0.057 A 
ATOM     74  C   UNL A   1      44.230  22.929  33.550  1.00  0.00     0.134 A 
ATOM     75  C   UNL A   1      46.425  23.759  33.965  1.00  0.00     0.134 A 
ATOM     76  F   UNL A   1      43.018  22.998  32.980  1.00  0.00    -0.206 F 
ATOM     77  C   UNL A   1      44.489  21.835  34.385  1.00  0.00     0.040 A 
ATOM     78  C   UNL A   1      46.682  22.695  34.831  1.00  0.00     0.040 A 
ATOM     79  F   UNL A   1      47.436  24.618  33.760  1.00  0.00    -0.206 F 
ATOM     80  C   UNL A   1      45.709  21.728  35.045  1.00  0.00     0.006 A 
ENDBRANCH  56  73
ENDBRANCH  30  31
ENDBRANCH  22  25
ENDBRANCH  20  21
ENDBRANCH  19  20
ENDBRANCH   1  19
TORSDOF 13
ENDMDL
MODEL 2
REMARK VINA RESULT:     -11.9      1.226      2.939
REMARK SMILES Cc1ccc(C(=O)[C@@H](C)[C@H](C)C(=O)NCCCNC(=O)c2ccc(-c3c4nc(c(-c5c(F)cccc5F)c5ccc([nH]5)c(-c5c(F)cccc5F)c5nc(c(-c6c(F)cccc6F)c6ccc3[nH]6)C=C5)C=C4)cc2)cc1
REMARK SMILES IDX 15 1 14 2 12 3 13 4 10 6 11 7 8 8 9 9 6 10 7 11 5 12 1 13
REMARK SMILES IDX 2 14 3 15 76 16 4 17 75 18 16 19 17 20 18 21 19 22 20 24
REMARK SMILES IDX 21 25 22 26 74 27 23 28 73 29 24 30 25 31 26 32 67 33 27 34
REMARK SMILES IDX 72 35 66 36 68 37 28 38 71 39 65 40 64 41 29 43 55 44 38 45
REMARK SMILES IDX 54 46 39 47 42 48 53 49 69 50 40 51 41 52 52 54 70 55 43 56
REMARK SMILES IDX 30 57 31 58 36 59 32 60 33 61 35 62 37 63 34 64 56 65 57 66
REMARK SMILES IDX 62 67 58 68 59 69 61 70 63 71 60 72 44 73 45 74 50 75 46 76
REMARK SMILES IDX 47 77 49 78 51 79 48 80
REMARK H PARENT 14 5 18 23 68 42 42 53
REMARK Flexibility Score: inf
ROOT
ATOM      1  C   UNL A   1      32.422  30.790  26.864  1.00  0.00     0.117 C 
ENDROOT
BRANCH   1   2
ATOM      2  N   UNL A   1      31.941  29.455  27.184  1.00  0.00    -0.356 N 
ATOM      3  C   UNL A   1      31.764  28.276  26.551  1.00  0.00     0.223 C 
ATOM      4  O   UNL A   1      31.421  27.346  27.297  1.00  0.00    -0.275 OA
ATOM      5  H   UNL A   1      31.667  29.395  28.128  1.00  0.00     0.163 HD
BRANCH   3   6
ATOM      6  C   UNL A   1      31.876  27.996  25.045  1.00  0.00     0.086 C 
ATOM      7  C   UNL A   1      30.859  28.814  24.249  1.00  0.00     0.019 C 
BRANCH   6   8
ATOM      8  C   UNL A   1      33.266  27.693  24.416  1.00  0.00     0.070 C 
ATOM      9  C   UNL A   1      33.902  28.752  23.519  1.00  0.00     0.017 C 
BRANCH   8  10
ATOM     10  C   UNL A   1      33.556  26.263  23.902  1.00  0.00     0.166 C 
ATOM     11  O   UNL A   1      33.674  26.066  22.690  1.00  0.00    -0.294 OA
BRANCH  10  12
ATOM     12  C   UNL A   1      33.685  25.076  24.807  1.00  0.00     0.018 A 
ATOM     13  C   UNL A   1      34.056  21.797  27.613  1.00  0.00     0.044 C 
ATOM     14  C   UNL A   1      33.952  22.940  26.647  1.00  0.00    -0.051 A 
ATOM     15  C   UNL A   1      35.082  23.560  26.113  1.00  0.00     0.004 A 
ATOM     16  C   UNL A   1      32.700  23.400  26.256  1.00  0.00     0.004 A 
ATOM     17  C   UNL A   1      34.951  24.631  25.212  1.00  0.00     0.012 A 
ATOM     18  C   UNL A   1      32.576  24.424  25.319  1.00  0.00     0.012 A 
ENDBRANCH  10  12
ENDBRANCH   8  10
ENDBRANCH   6   8
ENDBRANCH   3   6
ENDBRANCH   1   2
BRANCH   1  19
ATOM     19  C   UNL A   1      33.916  30.947  27.073  1.00  0.00     0.042 C 
BRANCH  19  20
ATOM     20  C   UNL A   1      34.315  31.186  28.526  1.00  0.00     0.118 C 
BRANCH  20  21
ATOM     21  N   UNL A   1      35.492  32.022  28.773  1.00  0.00    -0.352 N 
ATOM     22  C   UNL A   1      36.825  31.622  28.935  1.00  0.00     0.251 C 
ATOM     23  H   UNL A   1      35.324  32.990  28.834  1.00  0.00     0.163 HD
ATOM     24  O   UNL A   1      37.711  32.419  29.111  1.00  0.00    -0.269 OA
BRANCH  22  25
ATOM     25  C   UNL A   1      37.128  30.180  28.744  1.00  0.00     0.039 A 
ATOM     26  C   UNL A   1      37.157  29.406  29.907  1.00  0.00     0.014 A 
ATOM     27  C   UNL A   1      37.828  29.803  27.608  1.00  0.00     0.014 A 
ATOM     28  C   UNL A   1      38.164  28.456  30.049  1.00  0.00     0.010 A 
ATOM     29  C   UNL A   1      38.897  28.947  27.792  1.00  0.00     0.010 A 
ATOM     30  C   UNL A   1      39.129  28.354  29.048  1.00  0.00    -0.014 A 
BRANCH  30  31
ATOM     31  C   UNL A   1      40.501  27.887  29.295  1.00  0.00     0.031 A 
ATOM     32  C   UNL A   1      40.941  26.551  28.818  1.00  0.00     0.074 A 
ATOM     33  C   UNL A   1      41.434  28.750  29.775  1.00  0.00     0.049 A 
ATOM     34  N   UNL A   1      42.125  26.072  29.000  1.00  0.00    -0.248 NA
ATOM     35  C   UNL A   1      40.049  25.604  28.153  1.00  0.00     0.031 C 
ATOM     36  C   UNL A   1      42.888  28.649  29.633  1.00  0.00     0.029 A 
ATOM     37  N   UNL A   1      41.260  29.795  30.700  1.00  0.00    -0.354 N 
ATOM     38  C   UNL A   1      42.237  24.913  28.276  1.00  0.00     0.074 A 
ATOM     39  C   UNL A   1      40.896  24.615  27.847  1.00  0.00     0.031 C 
ATOM     40  C   UNL A   1      43.478  29.349  30.610  1.00  0.00     0.029 A 
ATOM     41  C   UNL A   1      42.431  29.802  31.504  1.00  0.00     0.049 A 
ATOM     42  H   UNL A   1      40.486  30.398  30.775  1.00  0.00     0.167 HD
ATOM     43  C   UNL A   1      43.480  24.397  28.064  1.00  0.00     0.037 A 
ATOM     44  C   UNL A   1      42.388  29.551  32.844  1.00  0.00     0.037 A 
ATOM     45  C   UNL A   1      44.440  24.953  29.020  1.00  0.00     0.049 A 
ATOM     46  C   UNL A   1      43.181  28.344  33.305  1.00  0.00     0.074 A 
ATOM     47  C   UNL A   1      45.487  25.855  28.982  1.00  0.00     0.029 A 
ATOM     48  N   UNL A   1      44.215  24.689  30.360  1.00  0.00    -0.354 N 
ATOM     49  N   UNL A   1      43.872  27.568  32.517  1.00  0.00    -0.248 NA
ATOM     50  C   UNL A   1      43.160  27.853  34.687  1.00  0.00     0.031 C 
ATOM     51  C   UNL A   1      45.846  26.169  30.331  1.00  0.00     0.029 A 
ATOM     52  C   UNL A   1      45.028  25.441  31.177  1.00  0.00     0.049 A 
ATOM     53  H   UNL A   1      43.552  24.040  30.689  1.00  0.00     0.167 HD
ATOM     54  C   UNL A   1      44.254  26.453  33.212  1.00  0.00     0.074 A 
ATOM     55  C   UNL A   1      43.824  26.691  34.575  1.00  0.00     0.031 C 
ATOM     56  C   UNL A   1      44.819  25.368  32.613  1.00  0.00     0.037 A 
BRANCH  43  57
ATOM     57  C   UNL A   1      43.873  23.436  26.963  1.00  0.00     0.057 A 
ATOM     58  C   UNL A   1      44.678  23.880  25.893  1.00  0.00     0.134 A 
ATOM     59  C   UNL A   1      43.412  22.112  26.818  1.00  0.00     0.134 A 
ATOM     60  F   UNL A   1      45.185  25.121  25.860  1.00  0.00    -0.206 F 
ATOM     61  C   UNL A   1      44.986  23.083  24.780  1.00  0.00     0.040 A 
ATOM     62  C   UNL A   1      43.748  21.291  25.732  1.00  0.00     0.040 A 
ATOM     63  F   UNL A   1      42.567  21.543  27.679  1.00  0.00    -0.206 F 
ATOM     64  C   UNL A   1      44.528  21.779  24.699  1.00  0.00     0.006 A 
ENDBRANCH  43  57
BRANCH  44  65
ATOM     65  C   UNL A   1      41.135  30.028  33.475  1.00  0.00     0.057 A 
ATOM     66  C   UNL A   1      41.042  31.380  33.846  1.00  0.00     0.134 A 
ATOM     67  C   UNL A   1      39.945  29.304  33.366  1.00  0.00     0.134 A 
ATOM     68  F   UNL A   1      42.151  32.127  33.960  1.00  0.00    -0.206 F 
ATOM     69  C   UNL A   1      39.808  32.015  33.993  1.00  0.00     0.040 A 
ATOM     70  C   UNL A   1      38.704  29.929  33.520  1.00  0.00     0.040 A 
ATOM     71  F   UNL A   1      39.962  28.018  32.991  1.00  0.00    -0.206 F 
ATOM     72  C   UNL A   1      38.633  31.293  33.796  1.00  0.00     0.006 A 
ENDBRANCH  44  65
BRANCH  56  73
ATOM     73  C   UNL A   1      45.168  24.120  33.361  1.00  0.00     0.057 A 
ATOM     74  C   UNL A   1      44.229  23.108  33.589  1.00  0.00     0.134 A 
ATOM     75  C   UNL A   1      46.421  23.958  33.982  1.00  0.00     0.134 A 
ATOM     76  F   UNL A   1      43.007  23.171  33.039  1.00  0.00    -0.206 F 
ATOM     77  C   UNL A   1      44.514  22.004  34.401  1.00  0.00     0.040 A 
ATOM     78  C   UNL A   1      46.704  22.883  34.826  1.00  0.00     0.040 A 
ATOM     79  F   UNL A   1      47.418  24.832  33.775  1.00  0.00    -0.206 F 
ATOM     80  C   UNL A   1      45.747  21.901  35.040  1.00  0.00     0.006 A 
ENDBRANCH  56  73
ENDBRANCH  30  31
ENDBRANCH  22  25
ENDBRANCH  20  21
ENDBRANCH  19  20
ENDBRANCH   1  19
TORSDOF 13
ENDMDL
MODEL 3
REMARK VINA RESULT:     -11.7      4.354      9.358
REMARK SMILES Cc1ccc(C(=O)[C@@H](C)[C@H](C)C(=O)NCCCNC(=O)c2ccc(-c3c4nc(c(-c5c(F)cccc5F)c5ccc([nH]5)c(-c5c(F)cccc5F)c5nc(c(-c6c(F)cccc6F)c6ccc3[nH]6)C=C5)C=C4)cc2)cc1
REMARK SMILES IDX 15 1 14 2 12 3 13 4 10 6 11 7 8 8 9 9 6 10 7 11 5 12 1 13
REMARK SMILES IDX 2 14 3 15 76 16 4 17 75 18 16 19 17 20 18 21 19 22 20 24
REMARK SMILES IDX 21 25 22 26 74 27 23 28 73 29 24 30 25 31 26 32 67 33 27 34
REMARK SMILES IDX 72 35 66 36 68 37 28 38 71 39 65 40 64 41 29 43 55 44 38 45
REMARK SMILES IDX 54 46 39 47 42 48 53 49 69 50 40 51 41 52 52 54 70 55 43 56
REMARK SMILES IDX 30 57 31 58 36 59 32 60 33 61 35 62 37 63 34 64 56 65 57 66
REMARK SMILES IDX 62 67 58 68 59 69 61 70 63 71 60 72 44 73 45 74 50 75 46 76
REMARK SMILES IDX 47 77 49 78 51 79 48 80
REMARK H PARENT 14 5 18 23 68 42 42 53
REMARK Flexibility Score: inf
ROOT
ATOM      1  C   UNL A   1      37.433  21.453  24.614  1.00  0.00     0.117 C 
ENDROOT
BRANCH   1   2
ATOM      2  N   UNL A   1      36.375  20.471  24.786  1.00  0.00    -0.356 N 
ATOM      3  C   UNL A   1      35.042  20.461  25.001  1.00  0.00     0.223 C 
ATOM      4  O   UNL A   1      34.529  19.332  24.959  1.00  0.00    -0.275 OA
ATOM      5  H   UNL A   1      36.731  19.554  24.732  1.00  0.00     0.163 HD
BRANCH   3   6
ATOM      6  C   UNL A   1      34.140  21.656  25.344  1.00  0.00     0.086 C 
ATOM      7  C   UNL A   1      34.640  22.392  26.588  1.00  0.00     0.019 C 
BRANCH   6   8
ATOM      8  C   UNL A   1      33.465  22.469  24.202  1.00  0.00     0.070 C 
ATOM      9  C   UNL A   1      32.593  21.721  23.197  1.00  0.00     0.017 C 
BRANCH   8  10
ATOM     10  C   UNL A   1      34.265  23.607  23.524  1.00  0.00     0.166 C 
ATOM     11  O   UNL A   1      35.185  23.325  22.751  1.00  0.00    -0.294 OA
BRANCH  10  12
ATOM     12  C   UNL A   1      33.996  25.059  23.772  1.00  0.00     0.018 A 
ATOM     13  C   UNL A   1      32.984  29.205  24.517  1.00  0.00     0.044 C 
ATOM     14  C   UNL A   1      33.321  27.770  24.236  1.00  0.00    -0.051 A 
ATOM     15  C   UNL A   1      33.323  27.253  22.940  1.00  0.00     0.004 A 
ATOM     16  C   UNL A   1      33.654  26.923  25.286  1.00  0.00     0.004 A 
ATOM     17  C   UNL A   1      33.642  25.903  22.711  1.00  0.00     0.012 A 
ATOM     18  C   UNL A   1      34.026  25.600  25.046  1.00  0.00     0.012 A 
ENDBRANCH  10  12
ENDBRANCH   8  10
ENDBRANCH   6   8
ENDBRANCH   3   6
ENDBRANCH   1   2
BRANCH   1  19
ATOM     19  C   UNL A   1      38.666  21.149  25.444  1.00  0.00     0.042 C 
BRANCH  19  20
ATOM     20  C   UNL A   1      38.974  22.204  26.501  1.00  0.00     0.118 C 
BRANCH  20  21
ATOM     21  N   UNL A   1      40.384  22.458  26.809  1.00  0.00    -0.352 N 
ATOM     22  C   UNL A   1      41.044  23.690  26.906  1.00  0.00     0.251 C 
ATOM     23  H   UNL A   1      40.937  21.661  26.968  1.00  0.00     0.163 HD
ATOM     24  O   UNL A   1      42.212  23.764  27.192  1.00  0.00    -0.269 OA
BRANCH  22  25
ATOM     25  C   UNL A   1      40.215  24.916  26.775  1.00  0.00     0.039 A 
ATOM     26  C   UNL A   1      40.779  25.955  26.032  1.00  0.00     0.014 A 
ATOM     27  C   UNL A   1      39.251  25.161  27.743  1.00  0.00     0.014 A 
ATOM     28  C   UNL A   1      40.645  27.258  26.502  1.00  0.00     0.010 A 
ATOM     29  C   UNL A   1      39.216  26.435  28.276  1.00  0.00     0.010 A 
ATOM     30  C   UNL A   1      39.998  27.465  27.718  1.00  0.00    -0.014 A 
BRANCH  30  31
ATOM     31  C   UNL A   1      40.287  28.603  28.603  1.00  0.00     0.031 A 
ATOM     32  C   UNL A   1      39.275  29.670  28.813  1.00  0.00     0.074 A 
ATOM     33  C   UNL A   1      41.392  28.585  29.393  1.00  0.00     0.049 A 
ATOM     34  N   UNL A   1      39.456  30.699  29.570  1.00  0.00    -0.248 NA
ATOM     35  C   UNL A   1      37.988  29.702  28.122  1.00  0.00     0.031 C 
ATOM     36  C   UNL A   1      41.602  29.327  30.637  1.00  0.00     0.029 A 
ATOM     37  N   UNL A   1      42.660  28.050  29.104  1.00  0.00    -0.354 N 
ATOM     38  C   UNL A   1      38.265  31.371  29.678  1.00  0.00     0.074 A 
ATOM     39  C   UNL A   1      37.412  30.769  28.688  1.00  0.00     0.031 C 
ATOM     40  C   UNL A   1      42.916  29.460  30.857  1.00  0.00     0.029 A 
ATOM     41  C   UNL A   1      43.599  28.939  29.690  1.00  0.00     0.049 A 
ATOM     42  H   UNL A   1      42.857  27.229  28.599  1.00  0.00     0.167 HD
ATOM     43  C   UNL A   1      38.133  32.303  30.662  1.00  0.00     0.037 A 
ATOM     44  C   UNL A   1      44.498  29.637  28.938  1.00  0.00     0.037 A 
ATOM     45  C   UNL A   1      39.445  32.723  31.158  1.00  0.00     0.049 A 
ATOM     46  C   UNL A   1      44.388  31.146  29.027  1.00  0.00     0.074 A 
ATOM     47  C   UNL A   1      40.196  32.527  32.303  1.00  0.00     0.029 A 
ATOM     48  N   UNL A   1      40.290  33.340  30.251  1.00  0.00    -0.354 N 
ATOM     49  N   UNL A   1      43.513  31.782  29.756  1.00  0.00    -0.248 NA
ATOM     50  C   UNL A   1      45.190  32.058  28.204  1.00  0.00     0.031 C 
ATOM     51  C   UNL A   1      41.524  32.990  32.041  1.00  0.00     0.029 A 
ATOM     52  C   UNL A   1      41.566  33.480  30.748  1.00  0.00     0.049 A 
ATOM     53  H   UNL A   1      40.010  33.643  29.357  1.00  0.00     0.167 HD
ATOM     54  C   UNL A   1      43.530  33.109  29.418  1.00  0.00     0.074 A 
ATOM     55  C   UNL A   1      44.622  33.245  28.474  1.00  0.00     0.031 C 
ATOM     56  C   UNL A   1      42.597  33.995  29.863  1.00  0.00     0.037 A 
BRANCH  43  57
ATOM     57  C   UNL A   1      36.830  32.812  31.242  1.00  0.00     0.057 A 
ATOM     58  C   UNL A   1      36.025  33.700  30.497  1.00  0.00     0.134 A 
ATOM     59  C   UNL A   1      36.360  32.578  32.549  1.00  0.00     0.134 A 
ATOM     60  F   UNL A   1      36.338  34.049  29.241  1.00  0.00    -0.206 F 
ATOM     61  C   UNL A   1      34.868  34.304  31.011  1.00  0.00     0.040 A 
ATOM     62  C   UNL A   1      35.182  33.140  33.060  1.00  0.00     0.040 A 
ATOM     63  F   UNL A   1      37.030  31.840  33.437  1.00  0.00    -0.206 F 
ATOM     64  C   UNL A   1      34.436  34.019  32.296  1.00  0.00     0.006 A 
ENDBRANCH  43  57
BRANCH  44  65
ATOM     65  C   UNL A   1      44.936  28.894  27.733  1.00  0.00     0.057 A 
ATOM     66  C   UNL A   1      45.984  27.966  27.859  1.00  0.00     0.134 A 
ATOM     67  C   UNL A   1      44.121  28.798  26.602  1.00  0.00     0.134 A 
ATOM     68  F   UNL A   1      46.795  28.005  28.928  1.00  0.00    -0.206 F 
ATOM     69  C   UNL A   1      46.145  26.917  26.954  1.00  0.00     0.040 A 
ATOM     70  C   UNL A   1      44.279  27.755  25.685  1.00  0.00     0.040 A 
ATOM     71  F   UNL A   1      43.088  29.635  26.434  1.00  0.00    -0.206 F 
ATOM     72  C   UNL A   1      45.267  26.792  25.880  1.00  0.00     0.006 A 
ENDBRANCH  44  65
BRANCH  56  73
ATOM     73  C   UNL A   1      42.573  35.428  29.435  1.00  0.00     0.057 A 
ATOM     74  C   UNL A   1      41.822  35.858  28.335  1.00  0.00     0.134 A 
ATOM     75  C   UNL A   1      43.402  36.393  30.038  1.00  0.00     0.134 A 
ATOM     76  F   UNL A   1      41.002  35.013  27.693  1.00  0.00    -0.206 F 
ATOM     77  C   UNL A   1      41.903  37.170  27.851  1.00  0.00     0.040 A 
ATOM     78  C   UNL A   1      43.522  37.692  29.541  1.00  0.00     0.040 A 
ATOM     79  F   UNL A   1      44.111  36.108  31.141  1.00  0.00    -0.206 F 
ATOM     80  C   UNL A   1      42.771  38.084  28.441  1.00  0.00     0.006 A 
ENDBRANCH  56  73
ENDBRANCH  30  31
ENDBRANCH  22  25
ENDBRANCH  20  21
ENDBRANCH  19  20
ENDBRANCH   1  19
TORSDOF 13
ENDMDL
