MODEL 1
REMARK VINA RESULT:     -10.8      0.000      0.000
REMARK SMILES CC1C[NH+]([C@H]2COC[C@@H]2C(=O)NCCCNC(=O)c2ccc(-c3c4nc(c(-c5c(F)cccc5F)c5ccc([nH]5)c(-c5c(F)cccc5F)c5nc(c(-c6c(F)cccc6F)c6ccc3[nH]6)C=C5)C=C4)cc2)C1
REMARK SMILES IDX 14 1 13 2 12 3 10 4 11 5 9 7 5 8 6 9 7 10 8 11 4 12 1 13
REMARK SMILES IDX 2 14 3 15 73 16 15 18 16 19 17 20 18 22 19 23 20 24 72 25
REMARK SMILES IDX 21 26 71 27 22 28 23 29 24 30 65 31 25 32 70 33 64 34 66 35
REMARK SMILES IDX 26 36 69 37 63 38 62 39 27 41 53 42 36 43 52 44 37 45 40 46
REMARK SMILES IDX 51 47 67 48 38 49 39 50 50 52 68 53 41 54 28 55 29 56 34 57
REMARK SMILES IDX 30 58 31 59 33 60 35 61 32 62 54 63 55 64 60 65 56 66 57 67
REMARK SMILES IDX 59 68 61 69 58 70 42 71 43 72 48 73 44 74 45 75 47 76 49 77
REMARK SMILES IDX 46 78
REMARK H PARENT 12 6 4 17 16 21 66 40 40 51
REMARK Flexibility Score: inf
ROOT
ATOM      1  C   UNL A   1      35.183  33.349  28.095  1.00  0.00     0.042 C 
ENDROOT
BRANCH   1   2
ATOM      2  C   UNL A   1      35.262  34.792  28.589  1.00  0.00     0.117 C 
BRANCH   2   3
ATOM      3  N   UNL A   1      33.970  35.453  28.542  1.00  0.00    -0.356 N 
ATOM      4  C   UNL A   1      33.246  36.052  29.531  1.00  0.00     0.231 C 
ATOM      5  O   UNL A   1      32.149  36.512  29.218  1.00  0.00    -0.274 OA
ATOM      6  H   UNL A   1      33.548  35.471  27.653  1.00  0.00     0.163 HD
BRANCH   4   7
ATOM      7  C   UNL A   1      33.818  36.145  30.939  1.00  0.00     0.164 C 
ATOM      8  C   UNL A   1      33.189  35.118  31.878  1.00  0.00     0.225 C 
ATOM      9  C   UNL A   1      31.941  35.877  32.350  1.00  0.00     0.226 C 
ATOM     10  O   UNL A   1      32.281  37.269  32.399  1.00  0.00    -0.374 OA
ATOM     11  C   UNL A   1      33.452  37.473  31.589  1.00  0.00     0.180 C 
BRANCH   8  12
ATOM     12  N   UNL A   1      34.190  34.667  32.871  1.00  0.00    -0.329 N 
ATOM     13  C   UNL A   1      36.273  31.921  32.765  1.00  0.00     0.020 C 
ATOM     14  C   UNL A   1      35.636  33.200  33.266  1.00  0.00     0.096 C 
ATOM     15  C   UNL A   1      35.509  34.372  32.259  1.00  0.00     0.271 C 
ATOM     16  C   UNL A   1      34.090  33.244  33.282  1.00  0.00     0.271 C 
ATOM     17  H   UNL A   1      34.066  35.403  33.566  1.00  0.00     0.348 HD
ENDBRANCH   8  12
ENDBRANCH   4   7
ENDBRANCH   2   3
ENDBRANCH   1   2
BRANCH   1  18
ATOM     18  C   UNL A   1      34.597  32.356  29.098  1.00  0.00     0.118 C 
BRANCH  18  19
ATOM     19  N   UNL A   1      34.029  31.173  28.470  1.00  0.00    -0.352 N 
ATOM     20  C   UNL A   1      34.640  30.022  28.038  1.00  0.00     0.251 C 
ATOM     21  H   UNL A   1      33.055  31.202  28.333  1.00  0.00     0.163 HD
ATOM     22  O   UNL A   1      33.986  29.194  27.404  1.00  0.00    -0.269 OA
BRANCH  20  23
ATOM     23  C   UNL A   1      36.077  29.774  28.295  1.00  0.00     0.039 A 
ATOM     24  C   UNL A   1      36.459  29.311  29.559  1.00  0.00     0.014 A 
ATOM     25  C   UNL A   1      37.051  30.019  27.323  1.00  0.00     0.014 A 
ATOM     26  C   UNL A   1      37.802  29.030  29.824  1.00  0.00     0.010 A 
ATOM     27  C   UNL A   1      38.382  29.677  27.568  1.00  0.00     0.010 A 
ATOM     28  C   UNL A   1      38.771  29.175  28.819  1.00  0.00    -0.014 A 
BRANCH  28  29
ATOM     29  C   UNL A   1      40.186  28.785  29.054  1.00  0.00     0.031 A 
ATOM     30  C   UNL A   1      41.162  29.765  29.647  1.00  0.00     0.074 A 
ATOM     31  C   UNL A   1      40.614  27.567  28.666  1.00  0.00     0.049 A 
ATOM     32  N   UNL A   1      42.448  29.630  29.851  1.00  0.00    -0.248 NA
ATOM     33  C   UNL A   1      40.628  31.078  30.040  1.00  0.00     0.031 C 
ATOM     34  C   UNL A   1      39.785  26.540  28.033  1.00  0.00     0.029 A 
ATOM     35  N   UNL A   1      41.860  26.993  28.730  1.00  0.00    -0.354 N 
ATOM     36  C   UNL A   1      42.880  30.844  30.372  1.00  0.00     0.074 A 
ATOM     37  C   UNL A   1      41.726  31.715  30.420  1.00  0.00     0.031 C 
ATOM     38  C   UNL A   1      40.540  25.460  27.777  1.00  0.00     0.029 A 
ATOM     39  C   UNL A   1      41.913  25.729  28.193  1.00  0.00     0.049 A 
ATOM     40  H   UNL A   1      42.642  27.444  29.124  1.00  0.00     0.167 HD
ATOM     41  C   UNL A   1      44.121  31.195  30.786  1.00  0.00     0.037 A 
ATOM     42  C   UNL A   1      42.951  24.885  28.040  1.00  0.00     0.037 A 
ATOM     43  C   UNL A   1      45.262  30.316  30.774  1.00  0.00     0.049 A 
ATOM     44  C   UNL A   1      44.315  25.294  28.522  1.00  0.00     0.074 A 
ATOM     45  C   UNL A   1      46.538  30.555  31.255  1.00  0.00     0.029 A 
ATOM     46  N   UNL A   1      45.267  29.032  30.253  1.00  0.00    -0.354 N 
ATOM     47  N   UNL A   1      44.688  26.416  29.088  1.00  0.00    -0.248 NA
ATOM     48  C   UNL A   1      45.400  24.318  28.351  1.00  0.00     0.031 C 
ATOM     49  C   UNL A   1      47.326  29.432  30.986  1.00  0.00     0.029 A 
ATOM     50  C   UNL A   1      46.530  28.476  30.378  1.00  0.00     0.049 A 
ATOM     51  H   UNL A   1      44.487  28.581  29.854  1.00  0.00     0.167 HD
ATOM     52  C   UNL A   1      46.042  26.270  29.365  1.00  0.00     0.074 A 
ATOM     53  C   UNL A   1      46.421  24.947  28.917  1.00  0.00     0.031 C 
ATOM     54  C   UNL A   1      46.894  27.154  29.937  1.00  0.00     0.037 A 
BRANCH  41  55
ATOM     55  C   UNL A   1      44.318  32.592  31.294  1.00  0.00     0.057 A 
ATOM     56  C   UNL A   1      44.647  33.651  30.438  1.00  0.00     0.134 A 
ATOM     57  C   UNL A   1      44.121  32.892  32.647  1.00  0.00     0.134 A 
ATOM     58  F   UNL A   1      44.857  33.429  29.132  1.00  0.00    -0.206 F 
ATOM     59  C   UNL A   1      44.791  34.956  30.914  1.00  0.00     0.040 A 
ATOM     60  C   UNL A   1      44.239  34.197  33.131  1.00  0.00     0.040 A 
ATOM     61  F   UNL A   1      43.797  31.926  33.520  1.00  0.00    -0.206 F 
ATOM     62  C   UNL A   1      44.580  35.233  32.263  1.00  0.00     0.006 A 
ENDBRANCH  41  55
BRANCH  42  63
ATOM     63  C   UNL A   1      42.745  23.559  27.406  1.00  0.00     0.057 A 
ATOM     64  C   UNL A   1      42.896  23.387  26.024  1.00  0.00     0.134 A 
ATOM     65  C   UNL A   1      42.372  22.439  28.159  1.00  0.00     0.134 A 
ATOM     66  F   UNL A   1      43.233  24.427  25.248  1.00  0.00    -0.206 F 
ATOM     67  C   UNL A   1      42.663  22.154  25.412  1.00  0.00     0.040 A 
ATOM     68  C   UNL A   1      42.160  21.195  27.562  1.00  0.00     0.040 A 
ATOM     69  F   UNL A   1      42.217  22.537  29.487  1.00  0.00    -0.206 F 
ATOM     70  C   UNL A   1      42.296  21.053  26.182  1.00  0.00     0.006 A 
ENDBRANCH  42  63
BRANCH  54  71
ATOM     71  C   UNL A   1      48.311  26.708  30.144  1.00  0.00     0.057 A 
ATOM     72  C   UNL A   1      49.317  26.987  29.211  1.00  0.00     0.134 A 
ATOM     73  C   UNL A   1      48.679  26.024  31.309  1.00  0.00     0.134 A 
ATOM     74  F   UNL A   1      49.026  27.627  28.069  1.00  0.00    -0.206 F 
ATOM     75  C   UNL A   1      50.636  26.582  29.420  1.00  0.00     0.040 A 
ATOM     76  C   UNL A   1      50.000  25.636  31.542  1.00  0.00     0.040 A 
ATOM     77  F   UNL A   1      47.765  25.733  32.247  1.00  0.00    -0.206 F 
ATOM     78  C   UNL A   1      50.981  25.910  30.592  1.00  0.00     0.006 A 
ENDBRANCH  54  71
ENDBRANCH  28  29
ENDBRANCH  20  23
ENDBRANCH  18  19
ENDBRANCH   1  18
TORSDOF 11
ENDMDL
MODEL 2
REMARK VINA RESULT:     -10.7      5.092     12.389
REMARK SMILES CC1C[NH+]([C@H]2COC[C@@H]2C(=O)NCCCNC(=O)c2ccc(-c3c4nc(c(-c5c(F)cccc5F)c5ccc([nH]5)c(-c5c(F)cccc5F)c5nc(c(-c6c(F)cccc6F)c6ccc3[nH]6)C=C5)C=C4)cc2)C1
REMARK SMILES IDX 14 1 13 2 12 3 10 4 11 5 9 7 5 8 6 9 7 10 8 11 4 12 1 13
REMARK SMILES IDX 2 14 3 15 73 16 15 18 16 19 17 20 18 22 19 23 20 24 72 25
REMARK SMILES IDX 21 26 71 27 22 28 23 29 24 30 65 31 25 32 70 33 64 34 66 35
REMARK SMILES IDX 26 36 69 37 63 38 62 39 27 41 53 42 36 43 52 44 37 45 40 46
REMARK SMILES IDX 51 47 67 48 38 49 39 50 50 52 68 53 41 54 28 55 29 56 34 57
REMARK SMILES IDX 30 58 31 59 33 60 35 61 32 62 54 63 55 64 60 65 56 66 57 67
REMARK SMILES IDX 59 68 61 69 58 70 42 71 43 72 48 73 44 74 45 75 47 76 49 77
REMARK SMILES IDX 46 78
REMARK H PARENT 12 6 4 17 16 21 66 40 40 51
REMARK Flexibility Score: inf
ROOT
ATOM      1  C   UNL A   1      41.030  21.762  27.344  1.00  0.00     0.042 C 
ENDROOT
BRANCH   1   2
ATOM      2  C   UNL A   1      41.849  21.343  26.125  1.00  0.00     0.117 C 
BRANCH   2   3
ATOM      3  N   UNL A   1      41.967  19.900  26.022  1.00  0.00    -0.356 N 
ATOM      4  C   UNL A   1      43.050  19.119  25.744  1.00  0.00     0.231 C 
ATOM      5  O   UNL A   1      42.861  17.905  25.685  1.00  0.00    -0.274 OA
ATOM      6  H   UNL A   1      41.131  19.405  26.177  1.00  0.00     0.163 HD
BRANCH   4   7
ATOM      7  C   UNL A   1      44.417  19.760  25.546  1.00  0.00     0.164 C 
ATOM      8  C   UNL A   1      44.565  20.364  24.151  1.00  0.00     0.225 C 
ATOM      9  C   UNL A   1      45.038  19.143  23.350  1.00  0.00     0.226 C 
ATOM     10  O   UNL A   1      45.832  18.337  24.229  1.00  0.00    -0.374 OA
ATOM     11  C   UNL A   1      45.522  18.712  25.584  1.00  0.00     0.180 C 
BRANCH   8  12
ATOM     12  N   UNL A   1      45.419  21.572  24.216  1.00  0.00    -0.329 N 
ATOM     13  C   UNL A   1      44.646  24.721  25.390  1.00  0.00     0.020 C 
ATOM     14  C   UNL A   1      45.461  23.581  24.815  1.00  0.00     0.096 C 
ATOM     15  C   UNL A   1      45.394  22.218  25.551  1.00  0.00     0.271 C 
ATOM     16  C   UNL A   1      44.831  22.805  23.635  1.00  0.00     0.271 C 
ATOM     17  H   UNL A   1      46.272  21.183  23.816  1.00  0.00     0.348 HD
ENDBRANCH   8  12
ENDBRANCH   4   7
ENDBRANCH   2   3
ENDBRANCH   1   2
BRANCH   1  18
ATOM     18  C   UNL A   1      40.285  23.088  27.195  1.00  0.00     0.118 C 
BRANCH  18  19
ATOM     19  N   UNL A   1      40.795  23.915  26.112  1.00  0.00    -0.352 N 
ATOM     20  C   UNL A   1      41.034  25.266  26.068  1.00  0.00     0.251 C 
ATOM     21  H   UNL A   1      41.000  23.430  25.280  1.00  0.00     0.163 HD
ATOM     22  O   UNL A   1      41.341  25.790  24.997  1.00  0.00    -0.269 OA
BRANCH  20  23
ATOM     23  C   UNL A   1      40.901  26.108  27.279  1.00  0.00     0.039 A 
ATOM     24  C   UNL A   1      41.802  27.163  27.461  1.00  0.00     0.014 A 
ATOM     25  C   UNL A   1      39.927  25.854  28.248  1.00  0.00     0.014 A 
ATOM     26  C   UNL A   1      41.682  28.001  28.573  1.00  0.00     0.010 A 
ATOM     27  C   UNL A   1      39.768  26.729  29.323  1.00  0.00     0.010 A 
ATOM     28  C   UNL A   1      40.641  27.814  29.495  1.00  0.00    -0.014 A 
BRANCH  28  29
ATOM     29  C   UNL A   1      40.438  28.756  30.628  1.00  0.00     0.031 A 
ATOM     30  C   UNL A   1      39.376  29.819  30.560  1.00  0.00     0.074 A 
ATOM     31  C   UNL A   1      41.262  28.701  31.694  1.00  0.00     0.049 A 
ATOM     32  N   UNL A   1      39.106  30.774  31.414  1.00  0.00    -0.248 NA
ATOM     33  C   UNL A   1      38.520  29.825  29.364  1.00  0.00     0.031 C 
ATOM     34  C   UNL A   1      42.364  27.752  31.864  1.00  0.00     0.029 A 
ATOM     35  N   UNL A   1      41.311  29.472  32.829  1.00  0.00    -0.354 N 
ATOM     36  C   UNL A   1      38.069  31.507  30.850  1.00  0.00     0.074 A 
ATOM     37  C   UNL A   1      37.781  30.908  29.565  1.00  0.00     0.031 C 
ATOM     38  C   UNL A   1      42.973  27.991  33.037  1.00  0.00     0.029 A 
ATOM     39  C   UNL A   1      42.331  29.130  33.685  1.00  0.00     0.049 A 
ATOM     40  H   UNL A   1      40.676  30.202  33.012  1.00  0.00     0.167 HD
ATOM     41  C   UNL A   1      37.408  32.572  31.363  1.00  0.00     0.037 A 
ATOM     42  C   UNL A   1      42.714  29.677  34.854  1.00  0.00     0.037 A 
ATOM     43  C   UNL A   1      37.667  33.145  32.658  1.00  0.00     0.049 A 
ATOM     44  C   UNL A   1      41.952  30.849  35.408  1.00  0.00     0.074 A 
ATOM     45  C   UNL A   1      36.990  34.169  33.298  1.00  0.00     0.029 A 
ATOM     46  N   UNL A   1      38.686  32.748  33.510  1.00  0.00    -0.354 N 
ATOM     47  N   UNL A   1      40.920  31.477  34.899  1.00  0.00    -0.248 NA
ATOM     48  C   UNL A   1      42.403  31.383  36.700  1.00  0.00     0.031 C 
ATOM     49  C   UNL A   1      37.626  34.420  34.518  1.00  0.00     0.029 A 
ATOM     50  C   UNL A   1      38.671  33.523  34.658  1.00  0.00     0.049 A 
ATOM     51  H   UNL A   1      39.326  32.021  33.326  1.00  0.00     0.167 HD
ATOM     52  C   UNL A   1      40.583  32.462  35.820  1.00  0.00     0.074 A 
ATOM     53  C   UNL A   1      41.510  32.338  36.924  1.00  0.00     0.031 C 
ATOM     54  C   UNL A   1      39.594  33.385  35.755  1.00  0.00     0.037 A 
BRANCH  41  55
ATOM     55  C   UNL A   1      36.329  33.193  30.525  1.00  0.00     0.057 A 
ATOM     56  C   UNL A   1      34.971  33.008  30.812  1.00  0.00     0.134 A 
ATOM     57  C   UNL A   1      36.655  34.032  29.452  1.00  0.00     0.134 A 
ATOM     58  F   UNL A   1      34.592  32.209  31.821  1.00  0.00    -0.206 F 
ATOM     59  C   UNL A   1      33.974  33.620  30.049  1.00  0.00     0.040 A 
ATOM     60  C   UNL A   1      35.668  34.669  28.697  1.00  0.00     0.040 A 
ATOM     61  F   UNL A   1      37.937  34.258  29.128  1.00  0.00    -0.206 F 
ATOM     62  C   UNL A   1      34.323  34.460  28.993  1.00  0.00     0.006 A 
ENDBRANCH  41  55
BRANCH  42  63
ATOM     63  C   UNL A   1      43.875  29.120  35.591  1.00  0.00     0.057 A 
ATOM     64  C   UNL A   1      43.712  28.093  36.529  1.00  0.00     0.134 A 
ATOM     65  C   UNL A   1      45.170  29.612  35.392  1.00  0.00     0.134 A 
ATOM     66  F   UNL A   1      42.492  27.594  36.777  1.00  0.00    -0.206 F 
ATOM     67  C   UNL A   1      44.791  27.591  37.258  1.00  0.00     0.040 A 
ATOM     68  C   UNL A   1      46.263  29.102  36.097  1.00  0.00     0.040 A 
ATOM     69  F   UNL A   1      45.394  30.591  34.502  1.00  0.00    -0.206 F 
ATOM     70  C   UNL A   1      46.072  28.094  37.041  1.00  0.00     0.006 A 
ENDBRANCH  42  63
BRANCH  54  71
ATOM     71  C   UNL A   1      39.440  34.312  36.925  1.00  0.00     0.057 A 
ATOM     72  C   UNL A   1      38.787  33.917  38.099  1.00  0.00     0.134 A 
ATOM     73  C   UNL A   1      39.985  35.601  36.889  1.00  0.00     0.134 A 
ATOM     74  F   UNL A   1      38.232  32.700  38.192  1.00  0.00    -0.206 F 
ATOM     75  C   UNL A   1      38.663  34.781  39.188  1.00  0.00     0.040 A 
ATOM     76  C   UNL A   1      39.890  36.465  37.980  1.00  0.00     0.040 A 
ATOM     77  F   UNL A   1      40.631  36.038  35.796  1.00  0.00    -0.206 F 
ATOM     78  C   UNL A   1      39.222  36.057  39.133  1.00  0.00     0.006 A 
ENDBRANCH  54  71
ENDBRANCH  28  29
ENDBRANCH  20  23
ENDBRANCH  18  19
ENDBRANCH   1  18
TORSDOF 11
ENDMDL
MODEL 3
REMARK VINA RESULT:     -10.7      2.205      6.849
REMARK SMILES CC1C[NH+]([C@H]2COC[C@@H]2C(=O)NCCCNC(=O)c2ccc(-c3c4nc(c(-c5c(F)cccc5F)c5ccc([nH]5)c(-c5c(F)cccc5F)c5nc(c(-c6c(F)cccc6F)c6ccc3[nH]6)C=C5)C=C4)cc2)C1
REMARK SMILES IDX 14 1 13 2 12 3 10 4 11 5 9 7 5 8 6 9 7 10 8 11 4 12 1 13
REMARK SMILES IDX 2 14 3 15 73 16 15 18 16 19 17 20 18 22 19 23 20 24 72 25
REMARK SMILES IDX 21 26 71 27 22 28 23 29 24 30 65 31 25 32 70 33 64 34 66 35
REMARK SMILES IDX 26 36 69 37 63 38 62 39 27 41 53 42 36 43 52 44 37 45 40 46
REMARK SMILES IDX 51 47 67 48 38 49 39 50 50 52 68 53 41 54 28 55 29 56 34 57
REMARK SMILES IDX 30 58 31 59 33 60 35 61 32 62 54 63 55 64 60 65 56 66 57 67
REMARK SMILES IDX 59 68 61 69 58 70 42 71 43 72 48 73 44 74 45 75 47 76 49 77
REMARK SMILES IDX 46 78
REMARK H PARENT 12 6 4 17 16 21 66 40 40 51
REMARK Flexibility Score: inf
ROOT
ATOM      1  C   UNL A   1      35.249  33.168  28.105  1.00  0.00     0.042 C 
ENDROOT
BRANCH   1   2
ATOM      2  C   UNL A   1      34.469  33.609  29.341  1.00  0.00     0.117 C 
BRANCH   2   3
ATOM      3  N   UNL A   1      33.514  34.659  29.033  1.00  0.00    -0.356 N 
ATOM      4  C   UNL A   1      33.100  35.723  29.777  1.00  0.00     0.231 C 
ATOM      5  O   UNL A   1      32.242  36.451  29.279  1.00  0.00    -0.274 OA
ATOM      6  H   UNL A   1      33.099  34.590  28.143  1.00  0.00     0.163 HD
BRANCH   4   7
ATOM      7  C   UNL A   1      33.714  35.976  31.148  1.00  0.00     0.164 C 
ATOM      8  C   UNL A   1      33.108  35.070  32.218  1.00  0.00     0.225 C 
ATOM      9  C   UNL A   1      31.878  35.888  32.634  1.00  0.00     0.226 C 
ATOM     10  O   UNL A   1      32.225  37.273  32.511  1.00  0.00    -0.374 OA
ATOM     11  C   UNL A   1      33.372  37.374  31.649  1.00  0.00     0.180 C 
BRANCH   8  12
ATOM     12  N   UNL A   1      34.137  34.730  33.227  1.00  0.00    -0.329 N 
ATOM     13  C   UNL A   1      36.520  32.239  33.149  1.00  0.00     0.020 C 
ATOM     14  C   UNL A   1      35.732  33.435  33.643  1.00  0.00     0.096 C 
ATOM     15  C   UNL A   1      35.491  34.590  32.638  1.00  0.00     0.271 C 
ATOM     16  C   UNL A   1      34.191  33.303  33.631  1.00  0.00     0.271 C 
ATOM     17  H   UNL A   1      33.917  35.443  33.922  1.00  0.00     0.348 HD
ENDBRANCH   8  12
ENDBRANCH   4   7
ENDBRANCH   2   3
ENDBRANCH   1   2
BRANCH   1  18
ATOM     18  C   UNL A   1      35.714  31.712  28.122  1.00  0.00     0.118 C 
BRANCH  18  19
ATOM     19  N   UNL A   1      35.502  31.056  29.403  1.00  0.00    -0.352 N 
ATOM     20  C   UNL A   1      36.316  30.204  30.106  1.00  0.00     0.251 C 
ATOM     21  H   UNL A   1      34.638  31.253  29.833  1.00  0.00     0.163 HD
ATOM     22  O   UNL A   1      35.882  29.650  31.116  1.00  0.00    -0.269 OA
BRANCH  20  23
ATOM     23  C   UNL A   1      37.697  29.917  29.655  1.00  0.00     0.039 A 
ATOM     24  C   UNL A   1      38.693  29.745  30.622  1.00  0.00     0.014 A 
ATOM     25  C   UNL A   1      38.028  29.847  28.299  1.00  0.00     0.014 A 
ATOM     26  C   UNL A   1      40.000  29.435  30.234  1.00  0.00     0.010 A 
ATOM     27  C   UNL A   1      39.317  29.475  27.914  1.00  0.00     0.010 A 
ATOM     28  C   UNL A   1      40.315  29.261  28.877  1.00  0.00    -0.014 A 
BRANCH  28  29
ATOM     29  C   UNL A   1      41.675  28.833  28.453  1.00  0.00     0.031 A 
ATOM     30  C   UNL A   1      41.947  27.402  28.081  1.00  0.00     0.074 A 
ATOM     31  C   UNL A   1      42.688  29.723  28.472  1.00  0.00     0.049 A 
ATOM     32  N   UNL A   1      43.081  26.831  27.762  1.00  0.00    -0.248 NA
ATOM     33  C   UNL A   1      40.796  26.484  28.090  1.00  0.00     0.031 C 
ATOM     34  C   UNL A   1      42.572  31.130  28.861  1.00  0.00     0.029 A 
ATOM     35  N   UNL A   1      44.019  29.571  28.173  1.00  0.00    -0.354 N 
ATOM     36  C   UNL A   1      42.787  25.488  27.557  1.00  0.00     0.074 A 
ATOM     37  C   UNL A   1      41.374  25.322  27.821  1.00  0.00     0.031 C 
ATOM     38  C   UNL A   1      43.778  31.713  28.768  1.00  0.00     0.029 A 
ATOM     39  C   UNL A   1      44.759  30.717  28.349  1.00  0.00     0.049 A 
ATOM     40  H   UNL A   1      44.409  28.721  27.863  1.00  0.00     0.167 HD
ATOM     41  C   UNL A   1      43.616  24.489  27.171  1.00  0.00     0.037 A 
ATOM     42  C   UNL A   1      46.079  30.939  28.201  1.00  0.00     0.037 A 
ATOM     43  C   UNL A   1      45.014  24.661  26.871  1.00  0.00     0.049 A 
ATOM     44  C   UNL A   1      46.973  29.815  27.755  1.00  0.00     0.074 A 
ATOM     45  C   UNL A   1      45.912  23.724  26.387  1.00  0.00     0.029 A 
ATOM     46  N   UNL A   1      45.718  25.844  27.028  1.00  0.00    -0.354 N 
ATOM     47  N   UNL A   1      46.662  28.570  27.487  1.00  0.00    -0.248 NA
ATOM     48  C   UNL A   1      48.398  30.128  27.587  1.00  0.00     0.031 C 
ATOM     49  C   UNL A   1      47.169  24.330  26.293  1.00  0.00     0.029 A 
ATOM     50  C   UNL A   1      47.044  25.655  26.675  1.00  0.00     0.049 A 
ATOM     51  H   UNL A   1      45.331  26.694  27.343  1.00  0.00     0.167 HD
ATOM     52  C   UNL A   1      47.847  27.960  27.092  1.00  0.00     0.074 A 
ATOM     53  C   UNL A   1      48.878  28.975  27.142  1.00  0.00     0.031 C 
ATOM     54  C   UNL A   1      48.060  26.675  26.721  1.00  0.00     0.037 A 
BRANCH  41  55
ATOM     55  C   UNL A   1      43.036  23.111  27.043  1.00  0.00     0.057 A 
ATOM     56  C   UNL A   1      42.754  22.320  28.164  1.00  0.00     0.134 A 
ATOM     57  C   UNL A   1      42.703  22.593  25.785  1.00  0.00     0.134 A 
ATOM     58  F   UNL A   1      43.057  22.755  29.396  1.00  0.00    -0.206 F 
ATOM     59  C   UNL A   1      42.179  21.055  28.037  1.00  0.00     0.040 A 
ATOM     60  C   UNL A   1      42.105  21.338  25.647  1.00  0.00     0.040 A 
ATOM     61  F   UNL A   1      42.939  23.302  24.671  1.00  0.00    -0.206 F 
ATOM     62  C   UNL A   1      41.846  20.563  26.776  1.00  0.00     0.006 A 
ENDBRANCH  41  55
BRANCH  42  63
ATOM     63  C   UNL A   1      46.641  32.285  28.470  1.00  0.00     0.057 A 
ATOM     64  C   UNL A   1      46.709  33.255  27.461  1.00  0.00     0.134 A 
ATOM     65  C   UNL A   1      47.141  32.629  29.731  1.00  0.00     0.134 A 
ATOM     66  F   UNL A   1      46.264  32.977  26.227  1.00  0.00    -0.206 F 
ATOM     67  C   UNL A   1      47.275  34.510  27.692  1.00  0.00     0.040 A 
ATOM     68  C   UNL A   1      47.687  33.890  29.982  1.00  0.00     0.040 A 
ATOM     69  F   UNL A   1      47.098  31.748  30.740  1.00  0.00    -0.206 F 
ATOM     70  C   UNL A   1      47.763  34.831  28.956  1.00  0.00     0.006 A 
ENDBRANCH  42  63
BRANCH  54  71
ATOM     71  C   UNL A   1      49.453  26.300  26.308  1.00  0.00     0.057 A 
ATOM     72  C   UNL A   1      49.940  26.572  25.023  1.00  0.00     0.134 A 
ATOM     73  C   UNL A   1      50.327  25.694  27.218  1.00  0.00     0.134 A 
ATOM     74  F   UNL A   1      49.149  27.139  24.101  1.00  0.00    -0.206 F 
ATOM     75  C   UNL A   1      51.243  26.234  24.653  1.00  0.00     0.040 A 
ATOM     76  C   UNL A   1      51.639  25.374  26.868  1.00  0.00     0.040 A 
ATOM     77  F   UNL A   1      49.924  25.414  28.467  1.00  0.00    -0.206 F 
ATOM     78  C   UNL A   1      52.099  25.639  25.580  1.00  0.00     0.006 A 
ENDBRANCH  54  71
ENDBRANCH  28  29
ENDBRANCH  20  23
ENDBRANCH  18  19
ENDBRANCH   1  18
TORSDOF 11
ENDMDL
