MODEL 1
REMARK VINA RESULT:     -13.6      0.000      0.000
REMARK SMILES Cc1ccc(C(=O)N2C[C@@H](C(=O)NCCCNC(=O)c3ccc(-c4c5nc(c(-c6c(F)cccc6F)c6ccc([nH]6)c(-c6c(F)cccc6F)c6nc(c(-c7c(F)cccc7F)c7ccc4[nH]7)C=C6)C=C5)cc3)C[C@H](C(=O)N3CCOCC3)C2)cc1F
REMARK SMILES IDX 15 1 14 2 13 3 11 4 12 5 10 7 8 8 9 9 84 10 75 11 74 12 6 13
REMARK SMILES IDX 7 14 5 15 1 16 2 17 3 18 86 19 4 20 85 21 87 22 76 23 77 24
REMARK SMILES IDX 78 25 79 26 83 27 80 28 82 29 81 30 16 31 17 32 18 33 19 35
REMARK SMILES IDX 20 36 21 37 73 38 22 39 72 40 23 41 24 42 25 43 66 44 26 45
REMARK SMILES IDX 71 46 65 47 67 48 27 49 70 50 64 51 63 52 28 54 54 55 37 56
REMARK SMILES IDX 53 57 38 58 41 59 52 60 68 61 39 62 40 63 51 65 69 66 42 67
REMARK SMILES IDX 29 68 30 69 35 70 31 71 32 72 34 73 36 74 33 75 55 76 56 77
REMARK SMILES IDX 61 78 57 79 58 80 60 81 62 82 59 83 43 84 44 85 49 86 45 87
REMARK SMILES IDX 46 88 48 89 50 90 47 91
REMARK H PARENT 13 6 17 34 67 53 41 64
REMARK Flexibility Score: inf
ROOT
ATOM      1  C   UNL A   1      32.641  31.379  27.246  1.00  0.00     0.042 C 
ENDROOT
BRANCH   1   2
ATOM      2  C   UNL A   1      32.805  29.922  26.868  1.00  0.00     0.117 C 
BRANCH   2   3
ATOM      3  N   UNL A   1      33.496  29.767  25.599  1.00  0.00    -0.356 N 
ATOM      4  C   UNL A   1      33.078  29.107  24.491  1.00  0.00     0.224 C 
ATOM      5  O   UNL A   1      33.856  28.953  23.550  1.00  0.00    -0.275 OA
ATOM      6  H   UNL A   1      34.381  30.196  25.536  1.00  0.00     0.163 HD
BRANCH   4   7
ATOM      7  C   UNL A   1      31.664  28.583  24.440  1.00  0.00     0.099 C 
ATOM      8  N   UNL A   1      30.498  26.354  24.697  1.00  0.00    -0.337 N 
ATOM      9  C   UNL A   1      31.602  27.208  25.099  1.00  0.00     0.133 C 
ATOM     10  C   UNL A   1      30.047  26.395  23.306  1.00  0.00     0.133 C 
ATOM     11  C   UNL A   1      29.864  27.818  22.756  1.00  0.00     0.099 C 
ATOM     12  C   UNL A   1      31.038  28.738  23.051  1.00  0.00     0.030 C 
BRANCH   8  13
ATOM     13  C   UNL A   1      30.163  25.374  25.630  1.00  0.00     0.254 C 
ATOM     14  O   UNL A   1      29.318  25.565  26.504  1.00  0.00    -0.269 OA
BRANCH  13  15
ATOM     15  C   UNL A   1      30.877  24.086  25.696  1.00  0.00     0.042 A 
ATOM     16  C   UNL A   1      33.992  21.133  25.717  1.00  0.00     0.047 C 
ATOM     17  C   UNL A   1      32.836  22.086  25.712  1.00  0.00    -0.015 A 
ATOM     18  C   UNL A   1      32.104  22.344  24.545  1.00  0.00     0.007 A 
ATOM     19  C   UNL A   1      32.531  22.801  26.875  1.00  0.00     0.126 A 
ATOM     20  C   UNL A   1      31.130  23.349  24.533  1.00  0.00     0.014 A 
ATOM     21  C   UNL A   1      31.564  23.797  26.876  1.00  0.00     0.053 A 
ATOM     22  F   UNL A   1      33.229  22.578  27.998  1.00  0.00    -0.207 F 
ENDBRANCH  13  15
ENDBRANCH   8  13
BRANCH  11  23
ATOM     23  C   UNL A   1      28.440  28.308  23.034  1.00  0.00     0.227 C 
ATOM     24  O   UNL A   1      27.763  27.677  23.855  1.00  0.00    -0.275 OA
ATOM     25  N   UNL A   1      28.038  29.546  22.609  1.00  0.00    -0.338 N 
ATOM     26  C   UNL A   1      28.030  30.084  21.249  1.00  0.00     0.148 C 
ATOM     27  C   UNL A   1      27.365  30.429  23.555  1.00  0.00     0.148 C 
ATOM     28  C   UNL A   1      28.666  31.483  21.239  1.00  0.00     0.181 C 
ATOM     29  C   UNL A   1      28.047  31.801  23.504  1.00  0.00     0.181 C 
ATOM     30  O   UNL A   1      27.996  32.348  22.172  1.00  0.00    -0.378 OA
ENDBRANCH  11  23
ENDBRANCH   4   7
ENDBRANCH   2   3
ENDBRANCH   1   2
BRANCH   1  31
ATOM     31  C   UNL A   1      33.977  31.950  27.607  1.00  0.00     0.118 C 
BRANCH  31  32
ATOM     32  N   UNL A   1      33.852  33.098  28.514  1.00  0.00    -0.352 N 
ATOM     33  C   UNL A   1      34.489  33.271  29.722  1.00  0.00     0.251 C 
ATOM     34  H   UNL A   1      33.248  33.821  28.229  1.00  0.00     0.163 HD
ATOM     35  O   UNL A   1      34.173  34.135  30.515  1.00  0.00    -0.269 OA
BRANCH  33  36
ATOM     36  C   UNL A   1      35.638  32.400  29.952  1.00  0.00     0.039 A 
ATOM     37  C   UNL A   1      35.544  31.155  30.572  1.00  0.00     0.014 A 
ATOM     38  C   UNL A   1      36.841  32.896  29.463  1.00  0.00     0.014 A 
ATOM     39  C   UNL A   1      36.715  30.426  30.718  1.00  0.00     0.010 A 
ATOM     40  C   UNL A   1      37.865  32.041  29.281  1.00  0.00     0.010 A 
ATOM     41  C   UNL A   1      37.861  30.905  30.077  1.00  0.00    -0.014 A 
BRANCH  41  42
ATOM     42  C   UNL A   1      39.202  30.402  30.246  1.00  0.00     0.031 A 
ATOM     43  C   UNL A   1      39.559  29.179  29.549  1.00  0.00     0.074 A 
ATOM     44  C   UNL A   1      40.038  31.250  30.892  1.00  0.00     0.049 A 
ATOM     45  N   UNL A   1      40.377  28.302  29.994  1.00  0.00    -0.248 NA
ATOM     46  C   UNL A   1      38.942  28.808  28.278  1.00  0.00     0.031 C 
ATOM     47  C   UNL A   1      41.481  31.289  31.005  1.00  0.00     0.029 A 
ATOM     48  N   UNL A   1      39.623  32.318  31.705  1.00  0.00    -0.354 N 
ATOM     49  C   UNL A   1      40.714  27.519  28.913  1.00  0.00     0.074 A 
ATOM     50  C   UNL A   1      39.654  27.724  27.955  1.00  0.00     0.031 C 
ATOM     51  C   UNL A   1      41.806  32.070  32.058  1.00  0.00     0.029 A 
ATOM     52  C   UNL A   1      40.570  32.481  32.714  1.00  0.00     0.049 A 
ATOM     53  H   UNL A   1      38.808  32.855  31.582  1.00  0.00     0.167 HD
ATOM     54  C   UNL A   1      41.978  27.009  28.861  1.00  0.00     0.037 A 
ATOM     55  C   UNL A   1      40.170  32.166  33.982  1.00  0.00     0.037 A 
ATOM     56  C   UNL A   1      42.742  27.496  30.020  1.00  0.00     0.049 A 
ATOM     57  C   UNL A   1      40.807  30.869  34.408  1.00  0.00     0.074 A 
ATOM     58  C   UNL A   1      43.627  28.555  30.156  1.00  0.00     0.029 A 
ATOM     59  N   UNL A   1      42.328  27.171  31.310  1.00  0.00    -0.354 N 
ATOM     60  N   UNL A   1      41.210  29.945  33.576  1.00  0.00    -0.248 NA
ATOM     61  C   UNL A   1      41.141  30.566  35.794  1.00  0.00     0.031 C 
ATOM     62  C   UNL A   1      43.679  28.913  31.531  1.00  0.00     0.029 A 
ATOM     63  C   UNL A   1      42.826  28.076  32.232  1.00  0.00     0.049 A 
ATOM     64  H   UNL A   1      41.757  26.400  31.535  1.00  0.00     0.167 HD
ATOM     65  C   UNL A   1      41.903  28.988  34.261  1.00  0.00     0.074 A 
ATOM     66  C   UNL A   1      41.820  29.415  35.648  1.00  0.00     0.031 C 
ATOM     67  C   UNL A   1      42.519  27.932  33.650  1.00  0.00     0.037 A 
BRANCH  54  68
ATOM     68  C   UNL A   1      42.623  26.397  27.635  1.00  0.00     0.057 A 
ATOM     69  C   UNL A   1      42.959  25.028  27.612  1.00  0.00     0.134 A 
ATOM     70  C   UNL A   1      42.933  27.083  26.445  1.00  0.00     0.134 A 
ATOM     71  F   UNL A   1      42.657  24.211  28.628  1.00  0.00    -0.206 F 
ATOM     72  C   UNL A   1      43.613  24.415  26.535  1.00  0.00     0.040 A 
ATOM     73  C   UNL A   1      43.625  26.492  25.376  1.00  0.00     0.040 A 
ATOM     74  F   UNL A   1      42.528  28.338  26.224  1.00  0.00    -0.206 F 
ATOM     75  C   UNL A   1      43.970  25.152  25.418  1.00  0.00     0.006 A 
ENDBRANCH  54  68
BRANCH  55  76
ATOM     76  C   UNL A   1      38.756  32.617  34.235  1.00  0.00     0.057 A 
ATOM     77  C   UNL A   1      38.522  34.009  34.191  1.00  0.00     0.134 A 
ATOM     78  C   UNL A   1      37.649  31.792  34.000  1.00  0.00     0.134 A 
ATOM     79  F   UNL A   1      39.526  34.865  34.435  1.00  0.00    -0.206 F 
ATOM     80  C   UNL A   1      37.309  34.550  33.745  1.00  0.00     0.040 A 
ATOM     81  C   UNL A   1      36.419  32.329  33.584  1.00  0.00     0.040 A 
ATOM     82  F   UNL A   1      37.768  30.458  34.036  1.00  0.00    -0.206 F 
ATOM     83  C   UNL A   1      36.266  33.704  33.395  1.00  0.00     0.006 A 
ENDBRANCH  55  76
BRANCH  67  84
ATOM     84  C   UNL A   1      42.975  26.681  34.355  1.00  0.00     0.057 A 
ATOM     85  C   UNL A   1      42.102  25.773  34.970  1.00  0.00     0.134 A 
ATOM     86  C   UNL A   1      44.321  26.259  34.276  1.00  0.00     0.134 A 
ATOM     87  F   UNL A   1      40.778  25.976  35.004  1.00  0.00    -0.206 F 
ATOM     88  C   UNL A   1      42.545  24.571  35.528  1.00  0.00     0.040 A 
ATOM     89  C   UNL A   1      44.758  25.025  34.756  1.00  0.00     0.040 A 
ATOM     90  F   UNL A   1      45.270  27.009  33.695  1.00  0.00    -0.206 F 
ATOM     91  C   UNL A   1      43.873  24.184  35.407  1.00  0.00     0.006 A 
ENDBRANCH  67  84
ENDBRANCH  41  42
ENDBRANCH  33  36
ENDBRANCH  31  32
ENDBRANCH   1  31
TORSDOF 13
ENDMDL
MODEL 2
REMARK VINA RESULT:     -13.6      1.362      1.740
REMARK SMILES Cc1ccc(C(=O)N2C[C@@H](C(=O)NCCCNC(=O)c3ccc(-c4c5nc(c(-c6c(F)cccc6F)c6ccc([nH]6)c(-c6c(F)cccc6F)c6nc(c(-c7c(F)cccc7F)c7ccc4[nH]7)C=C6)C=C5)cc3)C[C@H](C(=O)N3CCOCC3)C2)cc1F
REMARK SMILES IDX 15 1 14 2 13 3 11 4 12 5 10 7 8 8 9 9 84 10 75 11 74 12 6 13
REMARK SMILES IDX 7 14 5 15 1 16 2 17 3 18 86 19 4 20 85 21 87 22 76 23 77 24
REMARK SMILES IDX 78 25 79 26 83 27 80 28 82 29 81 30 16 31 17 32 18 33 19 35
REMARK SMILES IDX 20 36 21 37 73 38 22 39 72 40 23 41 24 42 25 43 66 44 26 45
REMARK SMILES IDX 71 46 65 47 67 48 27 49 70 50 64 51 63 52 28 54 54 55 37 56
REMARK SMILES IDX 53 57 38 58 41 59 52 60 68 61 39 62 40 63 51 65 69 66 42 67
REMARK SMILES IDX 29 68 30 69 35 70 31 71 32 72 34 73 36 74 33 75 55 76 56 77
REMARK SMILES IDX 61 78 57 79 58 80 60 81 62 82 59 83 43 84 44 85 49 86 45 87
REMARK SMILES IDX 46 88 48 89 50 90 47 91
REMARK H PARENT 13 6 17 34 67 53 41 64
REMARK Flexibility Score: inf
ROOT
ATOM      1  C   UNL A   1      33.179  31.423  27.230  1.00  0.00     0.042 C 
ENDROOT
BRANCH   1   2
ATOM      2  C   UNL A   1      33.446  30.019  26.729  1.00  0.00     0.117 C 
BRANCH   2   3
ATOM      3  N   UNL A   1      32.728  29.022  27.505  1.00  0.00    -0.356 N 
ATOM      4  C   UNL A   1      31.788  28.142  27.078  1.00  0.00     0.224 C 
ATOM      5  O   UNL A   1      31.176  27.465  27.902  1.00  0.00    -0.275 OA
ATOM      6  H   UNL A   1      32.950  28.981  28.463  1.00  0.00     0.163 HD
BRANCH   4   7
ATOM      7  C   UNL A   1      31.524  28.015  25.597  1.00  0.00     0.099 C 
ATOM      8  N   UNL A   1      32.785  27.249  23.544  1.00  0.00    -0.337 N 
ATOM      9  C   UNL A   1      32.558  27.086  24.969  1.00  0.00     0.133 C 
ATOM     10  C   UNL A   1      32.734  28.595  22.973  1.00  0.00     0.133 C 
ATOM     11  C   UNL A   1      31.519  29.417  23.430  1.00  0.00     0.099 C 
ATOM     12  C   UNL A   1      31.289  29.375  24.932  1.00  0.00     0.030 C 
BRANCH   8  13
ATOM     13  C   UNL A   1      33.304  26.120  22.913  1.00  0.00     0.254 C 
ATOM     14  O   UNL A   1      33.979  26.196  21.887  1.00  0.00    -0.269 OA
BRANCH  13  15
ATOM     15  C   UNL A   1      32.985  24.756  23.374  1.00  0.00     0.042 A 
ATOM     16  C   UNL A   1      32.481  20.495  23.500  1.00  0.00     0.047 C 
ATOM     17  C   UNL A   1      32.611  21.987  23.548  1.00  0.00    -0.015 A 
ATOM     18  C   UNL A   1      31.526  22.826  23.259  1.00  0.00     0.007 A 
ATOM     19  C   UNL A   1      33.862  22.560  23.803  1.00  0.00     0.126 A 
ATOM     20  C   UNL A   1      31.713  24.210  23.163  1.00  0.00     0.014 A 
ATOM     21  C   UNL A   1      34.058  23.930  23.715  1.00  0.00     0.053 A 
ATOM     22  F   UNL A   1      34.914  21.772  24.068  1.00  0.00    -0.207 F 
ENDBRANCH  13  15
ENDBRANCH   8  13
BRANCH  11  23
ATOM     23  C   UNL A   1      30.340  29.176  22.484  1.00  0.00     0.227 C 
ATOM     24  O   UNL A   1      30.239  28.061  21.958  1.00  0.00    -0.275 OA
ATOM     25  N   UNL A   1      29.292  30.058  22.444  1.00  0.00    -0.338 N 
ATOM     26  C   UNL A   1      29.317  31.491  22.157  1.00  0.00     0.148 C 
ATOM     27  C   UNL A   1      27.932  29.536  22.524  1.00  0.00     0.148 C 
ATOM     28  C   UNL A   1      28.503  32.249  23.217  1.00  0.00     0.181 C 
ATOM     29  C   UNL A   1      27.175  30.325  23.599  1.00  0.00     0.181 C 
ATOM     30  O   UNL A   1      27.163  31.731  23.288  1.00  0.00    -0.378 OA
ENDBRANCH  11  23
ENDBRANCH   4   7
ENDBRANCH   2   3
ENDBRANCH   1   2
BRANCH   1  31
ATOM     31  C   UNL A   1      34.446  32.003  27.777  1.00  0.00     0.118 C 
BRANCH  31  32
ATOM     32  N   UNL A   1      34.187  32.920  28.894  1.00  0.00    -0.352 N 
ATOM     33  C   UNL A   1      34.723  32.853  30.161  1.00  0.00     0.251 C 
ATOM     34  H   UNL A   1      33.564  33.661  28.720  1.00  0.00     0.163 HD
ATOM     35  O   UNL A   1      34.301  33.510  31.091  1.00  0.00    -0.269 OA
BRANCH  33  36
ATOM     36  C   UNL A   1      35.902  32.001  30.295  1.00  0.00     0.039 A 
ATOM     37  C   UNL A   1      35.850  30.687  30.756  1.00  0.00     0.014 A 
ATOM     38  C   UNL A   1      37.089  32.596  29.883  1.00  0.00     0.014 A 
ATOM     39  C   UNL A   1      37.045  29.987  30.825  1.00  0.00     0.010 A 
ATOM     40  C   UNL A   1      38.145  31.806  29.610  1.00  0.00     0.010 A 
ATOM     41  C   UNL A   1      38.178  30.582  30.260  1.00  0.00    -0.014 A 
BRANCH  41  42
ATOM     42  C   UNL A   1      39.535  30.110  30.381  1.00  0.00     0.031 A 
ATOM     43  C   UNL A   1      39.908  28.924  29.631  1.00  0.00     0.074 A 
ATOM     44  C   UNL A   1      40.362  30.956  31.040  1.00  0.00     0.049 A 
ATOM     45  N   UNL A   1      40.760  28.054  30.025  1.00  0.00    -0.248 NA
ATOM     46  C   UNL A   1      39.272  28.583  28.360  1.00  0.00     0.031 C 
ATOM     47  C   UNL A   1      41.806  31.031  31.123  1.00  0.00     0.029 A 
ATOM     48  N   UNL A   1      39.938  31.981  31.901  1.00  0.00    -0.354 N 
ATOM     49  C   UNL A   1      41.092  27.321  28.909  1.00  0.00     0.074 A 
ATOM     50  C   UNL A   1      40.006  27.531  27.982  1.00  0.00     0.031 C 
ATOM     51  C   UNL A   1      42.135  31.781  32.197  1.00  0.00     0.029 A 
ATOM     52  C   UNL A   1      40.903  32.133  32.894  1.00  0.00     0.049 A 
ATOM     53  H   UNL A   1      39.106  32.500  31.816  1.00  0.00     0.167 HD
ATOM     54  C   UNL A   1      42.367  26.848  28.811  1.00  0.00     0.037 A 
ATOM     55  C   UNL A   1      40.540  31.761  34.159  1.00  0.00     0.037 A 
ATOM     56  C   UNL A   1      43.144  27.312  29.970  1.00  0.00     0.049 A 
ATOM     57  C   UNL A   1      41.221  30.467  34.522  1.00  0.00     0.074 A 
ATOM     58  C   UNL A   1      44.004  28.390  30.126  1.00  0.00     0.029 A 
ATOM     59  N   UNL A   1      42.769  26.928  31.255  1.00  0.00    -0.354 N 
ATOM     60  N   UNL A   1      41.629  29.586  33.647  1.00  0.00    -0.248 NA
ATOM     61  C   UNL A   1      41.594  30.123  35.888  1.00  0.00     0.031 C 
ATOM     62  C   UNL A   1      44.078  28.697  31.512  1.00  0.00     0.029 A 
ATOM     63  C   UNL A   1      43.263  27.812  32.199  1.00  0.00     0.049 A 
ATOM     64  H   UNL A   1      42.224  26.135  31.464  1.00  0.00     0.167 HD
ATOM     65  C   UNL A   1      42.362  28.623  34.281  1.00  0.00     0.074 A 
ATOM     66  C   UNL A   1      42.300  28.997  35.685  1.00  0.00     0.031 C 
ATOM     67  C   UNL A   1      42.992  27.608  33.617  1.00  0.00     0.037 A 
BRANCH  54  68
ATOM     68  C   UNL A   1      43.000  26.299  27.548  1.00  0.00     0.057 A 
ATOM     69  C   UNL A   1      42.942  24.920  27.261  1.00  0.00     0.134 A 
ATOM     70  C   UNL A   1      43.671  27.059  26.572  1.00  0.00     0.134 A 
ATOM     71  F   UNL A   1      42.269  24.065  28.041  1.00  0.00    -0.206 F 
ATOM     72  C   UNL A   1      43.560  24.341  26.144  1.00  0.00     0.040 A 
ATOM     73  C   UNL A   1      44.330  26.488  25.471  1.00  0.00     0.040 A 
ATOM     74  F   UNL A   1      43.671  28.396  26.591  1.00  0.00    -0.206 F 
ATOM     75  C   UNL A   1      44.278  25.122  25.254  1.00  0.00     0.006 A 
ENDBRANCH  54  68
BRANCH  55  76
ATOM     76  C   UNL A   1      39.121  32.164  34.459  1.00  0.00     0.057 A 
ATOM     77  C   UNL A   1      38.873  33.548  34.591  1.00  0.00     0.134 A 
ATOM     78  C   UNL A   1      38.023  31.366  34.114  1.00  0.00     0.134 A 
ATOM     79  F   UNL A   1      39.869  34.375  34.948  1.00  0.00    -0.206 F 
ATOM     80  C   UNL A   1      37.658  34.131  34.211  1.00  0.00     0.040 A 
ATOM     81  C   UNL A   1      36.790  31.940  33.763  1.00  0.00     0.040 A 
ATOM     82  F   UNL A   1      38.155  30.039  33.981  1.00  0.00    -0.206 F 
ATOM     83  C   UNL A   1      36.625  33.327  33.750  1.00  0.00     0.006 A 
ENDBRANCH  55  76
BRANCH  67  84
ATOM     84  C   UNL A   1      43.497  26.345  34.265  1.00  0.00     0.057 A 
ATOM     85  C   UNL A   1      42.670  25.424  34.923  1.00  0.00     0.134 A 
ATOM     86  C   UNL A   1      44.835  25.927  34.084  1.00  0.00     0.134 A 
ATOM     87  F   UNL A   1      41.352  25.624  35.053  1.00  0.00    -0.206 F 
ATOM     88  C   UNL A   1      43.152  24.212  35.426  1.00  0.00     0.040 A 
ATOM     89  C   UNL A   1      45.305  24.685  34.508  1.00  0.00     0.040 A 
ATOM     90  F   UNL A   1      45.741  26.689  33.452  1.00  0.00    -0.206 F 
ATOM     91  C   UNL A   1      44.468  23.830  35.204  1.00  0.00     0.006 A 
ENDBRANCH  67  84
ENDBRANCH  41  42
ENDBRANCH  33  36
ENDBRANCH  31  32
ENDBRANCH   1  31
TORSDOF 13
ENDMDL
MODEL 3
REMARK VINA RESULT:     -13.5      2.627      4.005
REMARK SMILES Cc1ccc(C(=O)N2C[C@@H](C(=O)NCCCNC(=O)c3ccc(-c4c5nc(c(-c6c(F)cccc6F)c6ccc([nH]6)c(-c6c(F)cccc6F)c6nc(c(-c7c(F)cccc7F)c7ccc4[nH]7)C=C6)C=C5)cc3)C[C@H](C(=O)N3CCOCC3)C2)cc1F
REMARK SMILES IDX 15 1 14 2 13 3 11 4 12 5 10 7 8 8 9 9 84 10 75 11 74 12 6 13
REMARK SMILES IDX 7 14 5 15 1 16 2 17 3 18 86 19 4 20 85 21 87 22 76 23 77 24
REMARK SMILES IDX 78 25 79 26 83 27 80 28 82 29 81 30 16 31 17 32 18 33 19 35
REMARK SMILES IDX 20 36 21 37 73 38 22 39 72 40 23 41 24 42 25 43 66 44 26 45
REMARK SMILES IDX 71 46 65 47 67 48 27 49 70 50 64 51 63 52 28 54 54 55 37 56
REMARK SMILES IDX 53 57 38 58 41 59 52 60 68 61 39 62 40 63 51 65 69 66 42 67
REMARK SMILES IDX 29 68 30 69 35 70 31 71 32 72 34 73 36 74 33 75 55 76 56 77
REMARK SMILES IDX 61 78 57 79 58 80 60 81 62 82 59 83 43 84 44 85 49 86 45 87
REMARK SMILES IDX 46 88 48 89 50 90 47 91
REMARK H PARENT 13 6 17 34 67 53 41 64
REMARK Flexibility Score: inf
ROOT
ATOM      1  C   UNL A   1      33.310  29.692  26.116  1.00  0.00     0.042 C 
ENDROOT
BRANCH   1   2
ATOM      2  C   UNL A   1      33.398  28.325  25.471  1.00  0.00     0.117 C 
BRANCH   2   3
ATOM      3  N   UNL A   1      33.617  28.416  24.038  1.00  0.00    -0.356 N 
ATOM      4  C   UNL A   1      33.691  27.408  23.134  1.00  0.00     0.224 C 
ATOM      5  O   UNL A   1      34.028  27.657  21.978  1.00  0.00    -0.275 OA
ATOM      6  H   UNL A   1      33.728  29.326  23.677  1.00  0.00     0.163 HD
BRANCH   4   7
ATOM      7  C   UNL A   1      33.350  26.005  23.572  1.00  0.00     0.099 C 
ATOM      8  N   UNL A   1      34.589  23.972  24.424  1.00  0.00    -0.337 N 
ATOM      9  C   UNL A   1      34.509  25.421  24.373  1.00  0.00     0.133 C 
ATOM     10  C   UNL A   1      34.206  23.204  23.238  1.00  0.00     0.133 C 
ATOM     11  C   UNL A   1      32.880  23.657  22.608  1.00  0.00     0.099 C 
ATOM     12  C   UNL A   1      32.778  25.163  22.427  1.00  0.00     0.030 C 
BRANCH   8  13
ATOM     13  C   UNL A   1      35.289  23.474  25.521  1.00  0.00     0.254 C 
ATOM     14  O   UNL A   1      34.890  23.624  26.676  1.00  0.00    -0.269 OA
BRANCH  13  15
ATOM     15  C   UNL A   1      36.609  22.832  25.376  1.00  0.00     0.042 A 
ATOM     16  C   UNL A   1      40.067  20.387  26.075  1.00  0.00     0.047 C 
ATOM     17  C   UNL A   1      38.910  21.283  25.751  1.00  0.00    -0.015 A 
ATOM     18  C   UNL A   1      38.902  22.633  26.126  1.00  0.00     0.007 A 
ATOM     19  C   UNL A   1      37.774  20.744  25.137  1.00  0.00     0.126 A 
ATOM     20  C   UNL A   1      37.750  23.407  25.947  1.00  0.00     0.014 A 
ATOM     21  C   UNL A   1      36.628  21.502  24.950  1.00  0.00     0.053 A 
ATOM     22  F   UNL A   1      37.758  19.451  24.784  1.00  0.00    -0.207 F 
ENDBRANCH  13  15
ENDBRANCH   8  13
BRANCH  11  23
ATOM     23  C   UNL A   1      31.713  22.897  23.243  1.00  0.00     0.227 C 
ATOM     24  O   UNL A   1      31.404  21.802  22.757  1.00  0.00    -0.275 OA
ATOM     25  N   UNL A   1      31.222  23.277  24.464  1.00  0.00    -0.338 N 
ATOM     26  C   UNL A   1      30.683  24.575  24.866  1.00  0.00     0.148 C 
ATOM     27  C   UNL A   1      31.027  22.259  25.491  1.00  0.00     0.148 C 
ATOM     28  C   UNL A   1      31.315  25.013  26.196  1.00  0.00     0.181 C 
ATOM     29  C   UNL A   1      31.684  22.749  26.787  1.00  0.00     0.181 C 
ATOM     30  O   UNL A   1      31.117  24.006  27.204  1.00  0.00    -0.378 OA
ENDBRANCH  11  23
ENDBRANCH   4   7
ENDBRANCH   2   3
ENDBRANCH   1   2
BRANCH   1  31
ATOM     31  C   UNL A   1      34.216  29.737  27.307  1.00  0.00     0.118 C 
BRANCH  31  32
ATOM     32  N   UNL A   1      34.143  31.031  27.998  1.00  0.00    -0.352 N 
ATOM     33  C   UNL A   1      34.928  31.454  29.047  1.00  0.00     0.251 C 
ATOM     34  H   UNL A   1      33.460  31.663  27.678  1.00  0.00     0.163 HD
ATOM     35  O   UNL A   1      34.670  32.441  29.707  1.00  0.00    -0.269 OA
BRANCH  33  36
ATOM     36  C   UNL A   1      36.152  30.686  29.259  1.00  0.00     0.039 A 
ATOM     37  C   UNL A   1      36.278  29.699  30.235  1.00  0.00     0.014 A 
ATOM     38  C   UNL A   1      37.181  30.991  28.376  1.00  0.00     0.014 A 
ATOM     39  C   UNL A   1      37.495  29.040  30.322  1.00  0.00     0.010 A 
ATOM     40  C   UNL A   1      38.190  30.111  28.233  1.00  0.00     0.010 A 
ATOM     41  C   UNL A   1      38.436  29.282  29.316  1.00  0.00    -0.014 A 
BRANCH  41  42
ATOM     42  C   UNL A   1      39.810  28.843  29.315  1.00  0.00     0.031 A 
ATOM     43  C   UNL A   1      40.097  27.520  28.787  1.00  0.00     0.074 A 
ATOM     44  C   UNL A   1      40.704  29.809  29.634  1.00  0.00     0.049 A 
ATOM     45  N   UNL A   1      41.027  26.754  29.216  1.00  0.00    -0.248 NA
ATOM     46  C   UNL A   1      39.279  26.914  27.739  1.00  0.00     0.031 C 
ATOM     47  C   UNL A   1      42.140  29.894  29.464  1.00  0.00     0.029 A 
ATOM     48  N   UNL A   1      40.389  30.998  30.312  1.00  0.00    -0.354 N 
ATOM     49  C   UNL A   1      41.201  25.795  28.245  1.00  0.00     0.074 A 
ATOM     50  C   UNL A   1      39.976  25.803  27.482  1.00  0.00     0.031 C 
ATOM     51  C   UNL A   1      42.610  30.859  30.285  1.00  0.00     0.029 A 
ATOM     52  C   UNL A   1      41.494  31.358  31.080  1.00  0.00     0.049 A 
ATOM     53  H   UNL A   1      39.538  31.489  30.253  1.00  0.00     0.167 HD
ATOM     54  C   UNL A   1      42.459  25.307  28.045  1.00  0.00     0.037 A 
ATOM     55  C   UNL A   1      41.348  31.271  32.436  1.00  0.00     0.037 A 
ATOM     56  C   UNL A   1      43.395  26.010  28.937  1.00  0.00     0.049 A 
ATOM     57  C   UNL A   1      42.119  30.084  32.954  1.00  0.00     0.074 A 
ATOM     58  C   UNL A   1      44.234  27.092  28.717  1.00  0.00     0.029 A 
ATOM     59  N   UNL A   1      43.240  25.915  30.318  1.00  0.00    -0.354 N 
ATOM     60  N   UNL A   1      42.410  29.033  32.234  1.00  0.00    -0.248 NA
ATOM     61  C   UNL A   1      42.714  30.044  34.283  1.00  0.00     0.031 C 
ATOM     62  C   UNL A   1      44.517  27.693  29.974  1.00  0.00     0.029 A 
ATOM     63  C   UNL A   1      43.850  26.981  30.957  1.00  0.00     0.049 A 
ATOM     64  H   UNL A   1      42.761  25.188  30.777  1.00  0.00     0.167 HD
ATOM     65  C   UNL A   1      43.265  28.228  32.934  1.00  0.00     0.074 A 
ATOM     66  C   UNL A   1      43.415  28.898  34.215  1.00  0.00     0.031 C 
ATOM     67  C   UNL A   1      43.814  27.091  32.411  1.00  0.00     0.037 A 
BRANCH  54  68
ATOM     68  C   UNL A   1      42.901  24.495  26.845  1.00  0.00     0.057 A 
ATOM     69  C   UNL A   1      42.674  23.104  26.800  1.00  0.00     0.134 A 
ATOM     70  C   UNL A   1      43.543  25.007  25.702  1.00  0.00     0.134 A 
ATOM     71  F   UNL A   1      42.000  22.468  27.767  1.00  0.00    -0.206 F 
ATOM     72  C   UNL A   1      43.113  22.287  25.749  1.00  0.00     0.040 A 
ATOM     73  C   UNL A   1      44.025  24.196  24.663  1.00  0.00     0.040 A 
ATOM     74  F   UNL A   1      43.681  26.321  25.496  1.00  0.00    -0.206 F 
ATOM     75  C   UNL A   1      43.812  22.828  24.683  1.00  0.00     0.006 A 
ENDBRANCH  54  68
BRANCH  55  76
ATOM     76  C   UNL A   1      39.983  31.735  32.868  1.00  0.00     0.057 A 
ATOM     77  C   UNL A   1      39.109  30.744  33.366  1.00  0.00     0.134 A 
ATOM     78  C   UNL A   1      39.729  33.050  33.276  1.00  0.00     0.134 A 
ATOM     79  F   UNL A   1      39.269  29.463  32.996  1.00  0.00    -0.206 F 
ATOM     80  C   UNL A   1      38.164  31.011  34.364  1.00  0.00     0.040 A 
ATOM     81  C   UNL A   1      38.760  33.333  34.254  1.00  0.00     0.040 A 
ATOM     82  F   UNL A   1      40.493  34.062  32.844  1.00  0.00    -0.206 F 
ATOM     83  C   UNL A   1      38.020  32.306  34.845  1.00  0.00     0.006 A 
ENDBRANCH  55  76
BRANCH  67  84
ATOM     84  C   UNL A   1      44.455  25.997  33.225  1.00  0.00     0.057 A 
ATOM     85  C   UNL A   1      43.756  25.194  34.137  1.00  0.00     0.134 A 
ATOM     86  C   UNL A   1      45.787  25.598  32.973  1.00  0.00     0.134 A 
ATOM     87  F   UNL A   1      42.449  25.370  34.377  1.00  0.00    -0.206 F 
ATOM     88  C   UNL A   1      44.355  24.121  34.802  1.00  0.00     0.040 A 
ATOM     89  C   UNL A   1      46.369  24.480  33.569  1.00  0.00     0.040 A 
ATOM     90  F   UNL A   1      46.576  26.253  32.108  1.00  0.00    -0.206 F 
ATOM     91  C   UNL A   1      45.660  23.749  34.507  1.00  0.00     0.006 A 
ENDBRANCH  67  84
ENDBRANCH  41  42
ENDBRANCH  33  36
ENDBRANCH  31  32
ENDBRANCH   1  31
TORSDOF 13
ENDMDL
