MODEL 1
REMARK VINA RESULT:     -12.4      0.000      0.000
REMARK SMILES CS(=O)(=O)N1C[C@@H]2C[N@H+](Cc3cccnc3N)C[C@]2(C(=O)NCCCNC(=O)c2ccc(-c3c4nc(c(-c5c(F)cccc5F)c5ccc([nH]5)c(-c5c(F)cccc5F)c5nc(c(-c6c(F)cccc6F)c6ccc3[nH]6)C=C5)C=C4)cc2)C1
REMARK SMILES IDX 23 1 22 2 20 3 21 4 19 6 5 7 6 8 83 9 7 10 8 11 18 12 9 13
REMARK SMILES IDX 2 15 1 16 3 17 4 18 10 19 11 20 12 21 16 22 13 23 15 24
REMARK SMILES IDX 14 25 17 26 24 29 25 30 26 31 27 32 28 34 29 35 30 36 82 37
REMARK SMILES IDX 31 38 81 39 32 40 33 41 34 42 75 43 35 44 80 45 74 46 76 47
REMARK SMILES IDX 36 48 79 49 73 50 72 51 37 53 63 54 46 55 62 56 47 57 50 58
REMARK SMILES IDX 61 59 77 60 48 61 49 62 60 64 78 65 51 66 38 67 39 68 44 69
REMARK SMILES IDX 40 70 41 71 43 72 45 73 42 74 64 75 65 76 70 77 66 78 67 79
REMARK SMILES IDX 69 80 71 81 68 82 52 83 53 84 58 85 54 86 55 87 57 88 59 89
REMARK SMILES IDX 56 90
REMARK H PARENT 22 5 9 14 17 27 17 28 26 33 76 52 50 63
REMARK Flexibility Score: inf
ROOT
ATOM      1  C   UNL A   1      36.992  21.124  24.782  1.00  0.00     0.117 C 
ENDROOT
BRANCH   1   2
ATOM      2  N   UNL A   1      36.242  21.193  26.019  1.00  0.00    -0.355 N 
ATOM      3  C   UNL A   1      34.923  21.583  26.172  1.00  0.00     0.233 C 
ATOM      4  O   UNL A   1      34.551  21.870  27.310  1.00  0.00    -0.274 OA
ATOM      5  H   UNL A   1      36.721  20.935  26.840  1.00  0.00     0.163 HD
BRANCH   3   6
ATOM      6  C   UNL A   1      33.993  21.613  24.875  1.00  0.00     0.121 C 
ATOM      7  N   UNL A   1      33.397  19.414  23.793  1.00  0.00    -0.200 NA
ATOM      8  C   UNL A   1      32.328  20.356  23.475  1.00  0.00     0.113 C 
ATOM      9  C   UNL A   1      34.112  20.013  24.958  1.00  0.00     0.125 C 
ATOM     10  C   UNL A   1      32.430  21.384  24.584  1.00  0.00     0.082 C 
ATOM     11  C   UNL A   1      31.734  22.673  24.145  1.00  0.00     0.268 C 
ATOM     12  C   UNL A   1      33.572  23.040  25.385  1.00  0.00     0.281 C 
ATOM     13  N   UNL A   1      32.727  23.687  24.384  1.00  0.00    -0.330 N 
ATOM     14  H   UNL A   1      32.327  24.564  24.718  1.00  0.00     0.348 HD
BRANCH   7  15
ATOM     15  S   UNL A   1      32.867  17.805  23.889  1.00  0.00     0.211 S 
ATOM     16  C   UNL A   1      34.334  16.940  24.397  1.00  0.00     0.176 C 
ATOM     17  O   UNL A   1      32.541  17.374  22.549  1.00  0.00    -0.213 OA
ATOM     18  O   UNL A   1      31.885  17.725  24.954  1.00  0.00    -0.213 OA
ENDBRANCH   7  15
BRANCH  13  19
ATOM     19  C   UNL A   1      33.363  24.346  23.222  1.00  0.00     0.302 C 
BRANCH  19  20
ATOM     20  C   UNL A   1      33.497  25.857  23.124  1.00  0.00     0.048 A 
ATOM     21  C   UNL A   1      33.696  26.634  24.276  1.00  0.00     0.015 A 
ATOM     22  C   UNL A   1      33.329  26.581  21.949  1.00  0.00     0.132 A 
ATOM     23  C   UNL A   1      33.996  27.991  24.191  1.00  0.00     0.021 A 
ATOM     24  N   UNL A   1      33.643  27.888  21.832  1.00  0.00    -0.239 NA
ATOM     25  C   UNL A   1      34.013  28.557  22.939  1.00  0.00     0.113 A 
BRANCH  22  26
ATOM     26  N   UNL A   1      32.817  26.028  20.796  1.00  0.00    -0.383 N 
ATOM     27  H   UNL A   1      31.855  26.097  20.600  1.00  0.00     0.158 HD
ATOM     28  H   UNL A   1      33.415  25.561  20.167  1.00  0.00     0.158 HD
ENDBRANCH  22  26
ENDBRANCH  19  20
ENDBRANCH  13  19
ENDBRANCH   3   6
ENDBRANCH   1   2
BRANCH   1  29
ATOM     29  C   UNL A   1      38.084  20.049  24.837  1.00  0.00     0.042 C 
BRANCH  29  30
ATOM     30  C   UNL A   1      39.013  20.191  26.021  1.00  0.00     0.118 C 
BRANCH  30  31
ATOM     31  N   UNL A   1      40.183  19.339  25.892  1.00  0.00    -0.352 N 
ATOM     32  C   UNL A   1      41.516  19.660  25.997  1.00  0.00     0.251 C 
ATOM     33  H   UNL A   1      39.994  18.392  25.701  1.00  0.00     0.163 HD
ATOM     34  O   UNL A   1      42.358  18.855  25.611  1.00  0.00    -0.269 OA
BRANCH  32  35
ATOM     35  C   UNL A   1      41.936  20.969  26.549  1.00  0.00     0.039 A 
ATOM     36  C   UNL A   1      42.291  21.996  25.669  1.00  0.00     0.014 A 
ATOM     37  C   UNL A   1      42.007  21.186  27.927  1.00  0.00     0.014 A 
ATOM     38  C   UNL A   1      42.665  23.244  26.172  1.00  0.00     0.010 A 
ATOM     39  C   UNL A   1      42.261  22.459  28.422  1.00  0.00     0.010 A 
ATOM     40  C   UNL A   1      42.621  23.496  27.553  1.00  0.00    -0.014 A 
BRANCH  40  41
ATOM     41  C   UNL A   1      42.986  24.820  28.115  1.00  0.00     0.031 A 
ATOM     42  C   UNL A   1      41.918  25.856  28.349  1.00  0.00     0.074 A 
ATOM     43  C   UNL A   1      44.278  25.112  28.357  1.00  0.00     0.049 A 
ATOM     44  N   UNL A   1      42.039  27.092  28.763  1.00  0.00    -0.248 NA
ATOM     45  C   UNL A   1      40.532  25.463  28.045  1.00  0.00     0.031 C 
ATOM     46  C   UNL A   1      45.409  24.210  28.121  1.00  0.00     0.029 A 
ATOM     47  N   UNL A   1      44.862  26.251  28.847  1.00  0.00    -0.354 N 
ATOM     48  C   UNL A   1      40.755  27.621  28.753  1.00  0.00     0.074 A 
ATOM     49  C   UNL A   1      39.879  26.600  28.226  1.00  0.00     0.031 C 
ATOM     50  C   UNL A   1      46.543  24.820  28.496  1.00  0.00     0.029 A 
ATOM     51  C   UNL A   1      46.229  26.168  28.955  1.00  0.00     0.049 A 
ATOM     52  H   UNL A   1      44.349  27.054  29.098  1.00  0.00     0.167 HD
ATOM     53  C   UNL A   1      40.336  28.838  29.174  1.00  0.00     0.037 A 
ATOM     54  C   UNL A   1      47.127  27.081  29.370  1.00  0.00     0.037 A 
ATOM     55  C   UNL A   1      41.210  29.842  29.720  1.00  0.00     0.049 A 
ATOM     56  C   UNL A   1      46.640  28.430  29.822  1.00  0.00     0.074 A 
ATOM     57  C   UNL A   1      40.884  31.087  30.226  1.00  0.00     0.029 A 
ATOM     58  N   UNL A   1      42.589  29.713  29.826  1.00  0.00    -0.354 N 
ATOM     59  N   UNL A   1      45.414  28.893  29.871  1.00  0.00    -0.248 NA
ATOM     60  C   UNL A   1      47.661  29.381  30.283  1.00  0.00     0.031 C 
ATOM     61  C   UNL A   1      42.069  31.734  30.590  1.00  0.00     0.029 A 
ATOM     62  C   UNL A   1      43.129  30.868  30.369  1.00  0.00     0.049 A 
ATOM     63  H   UNL A   1      43.105  28.920  29.557  1.00  0.00     0.167 HD
ATOM     64  C   UNL A   1      45.512  30.176  30.394  1.00  0.00     0.074 A 
ATOM     65  C   UNL A   1      46.916  30.410  30.662  1.00  0.00     0.031 C 
ATOM     66  C   UNL A   1      44.529  31.079  30.633  1.00  0.00     0.037 A 
BRANCH  53  67
ATOM     67  C   UNL A   1      38.870  29.146  29.063  1.00  0.00     0.057 A 
ATOM     68  C   UNL A   1      38.009  29.061  30.167  1.00  0.00     0.134 A 
ATOM     69  C   UNL A   1      38.313  29.555  27.845  1.00  0.00     0.134 A 
ATOM     70  F   UNL A   1      38.472  28.660  31.362  1.00  0.00    -0.206 F 
ATOM     71  C   UNL A   1      36.646  29.342  30.056  1.00  0.00     0.040 A 
ATOM     72  C   UNL A   1      36.957  29.871  27.729  1.00  0.00     0.040 A 
ATOM     73  F   UNL A   1      39.078  29.664  26.748  1.00  0.00    -0.206 F 
ATOM     74  C   UNL A   1      36.119  29.756  28.835  1.00  0.00     0.006 A 
ENDBRANCH  53  67
BRANCH  54  75
ATOM     75  C   UNL A   1      48.573  26.741  29.400  1.00  0.00     0.057 A 
ATOM     76  C   UNL A   1      49.411  27.049  28.321  1.00  0.00     0.134 A 
ATOM     77  C   UNL A   1      49.152  26.101  30.501  1.00  0.00     0.134 A 
ATOM     78  F   UNL A   1      48.913  27.650  27.230  1.00  0.00    -0.206 F 
ATOM     79  C   UNL A   1      50.766  26.713  28.327  1.00  0.00     0.040 A 
ATOM     80  C   UNL A   1      50.512  25.785  30.533  1.00  0.00     0.040 A 
ATOM     81  F   UNL A   1      48.408  25.788  31.572  1.00  0.00    -0.206 F 
ATOM     82  C   UNL A   1      51.321  26.083  29.439  1.00  0.00     0.006 A 
ENDBRANCH  54  75
BRANCH  66  83
ATOM     83  C   UNL A   1      44.934  32.387  31.249  1.00  0.00     0.057 A 
ATOM     84  C   UNL A   1      45.257  33.507  30.471  1.00  0.00     0.134 A 
ATOM     85  C   UNL A   1      44.957  32.540  32.642  1.00  0.00     0.134 A 
ATOM     86  F   UNL A   1      45.265  33.425  29.132  1.00  0.00    -0.206 F 
ATOM     87  C   UNL A   1      45.616  34.722  31.056  1.00  0.00     0.040 A 
ATOM     88  C   UNL A   1      45.282  33.758  33.237  1.00  0.00     0.040 A 
ATOM     89  F   UNL A   1      44.647  31.511  33.445  1.00  0.00    -0.206 F 
ATOM     90  C   UNL A   1      45.620  34.852  32.443  1.00  0.00     0.006 A 
ENDBRANCH  66  83
ENDBRANCH  40  41
ENDBRANCH  32  35
ENDBRANCH  30  31
ENDBRANCH  29  30
ENDBRANCH   1  29
TORSDOF 14
ENDMDL
MODEL 2
REMARK VINA RESULT:     -12.2      2.776      7.384
REMARK SMILES CS(=O)(=O)N1C[C@@H]2C[N@H+](Cc3cccnc3N)C[C@]2(C(=O)NCCCNC(=O)c2ccc(-c3c4nc(c(-c5c(F)cccc5F)c5ccc([nH]5)c(-c5c(F)cccc5F)c5nc(c(-c6c(F)cccc6F)c6ccc3[nH]6)C=C5)C=C4)cc2)C1
REMARK SMILES IDX 23 1 22 2 20 3 21 4 19 6 5 7 6 8 83 9 7 10 8 11 18 12 9 13
REMARK SMILES IDX 2 15 1 16 3 17 4 18 10 19 11 20 12 21 16 22 13 23 15 24
REMARK SMILES IDX 14 25 17 26 24 29 25 30 26 31 27 32 28 34 29 35 30 36 82 37
REMARK SMILES IDX 31 38 81 39 32 40 33 41 34 42 75 43 35 44 80 45 74 46 76 47
REMARK SMILES IDX 36 48 79 49 73 50 72 51 37 53 63 54 46 55 62 56 47 57 50 58
REMARK SMILES IDX 61 59 77 60 48 61 49 62 60 64 78 65 51 66 38 67 39 68 44 69
REMARK SMILES IDX 40 70 41 71 43 72 45 73 42 74 64 75 65 76 70 77 66 78 67 79
REMARK SMILES IDX 69 80 71 81 68 82 52 83 53 84 58 85 54 86 55 87 57 88 59 89
REMARK SMILES IDX 56 90
REMARK H PARENT 22 5 9 14 17 27 17 28 26 33 76 52 50 63
REMARK Flexibility Score: inf
ROOT
ATOM      1  C   UNL A   1      31.545  28.001  26.653  1.00  0.00     0.117 C 
ENDROOT
BRANCH   1   2
ATOM      2  N   UNL A   1      31.590  26.665  27.211  1.00  0.00    -0.355 N 
ATOM      3  C   UNL A   1      31.731  25.477  26.515  1.00  0.00     0.233 C 
ATOM      4  O   UNL A   1      31.444  24.440  27.114  1.00  0.00    -0.274 OA
ATOM      5  H   UNL A   1      31.512  26.594  28.190  1.00  0.00     0.163 HD
BRANCH   3   6
ATOM      6  C   UNL A   1      32.264  25.544  25.013  1.00  0.00     0.121 C 
ATOM      7  N   UNL A   1      34.583  24.672  24.538  1.00  0.00    -0.200 NA
ATOM      8  C   UNL A   1      33.812  24.546  23.304  1.00  0.00     0.113 C 
ATOM      9  C   UNL A   1      33.565  24.825  25.620  1.00  0.00     0.125 C 
ATOM     10  C   UNL A   1      32.378  24.505  23.793  1.00  0.00     0.082 C 
ATOM     11  C   UNL A   1      31.440  24.869  22.641  1.00  0.00     0.268 C 
ATOM     12  C   UNL A   1      30.743  25.652  24.629  1.00  0.00     0.281 C 
ATOM     13  N   UNL A   1      30.618  25.911  23.196  1.00  0.00    -0.330 N 
ATOM     14  H   UNL A   1      29.650  25.869  22.874  1.00  0.00     0.348 HD
BRANCH   7  15
ATOM     15  S   UNL A   1      35.788  23.489  24.701  1.00  0.00     0.211 S 
ATOM     16  C   UNL A   1      34.903  22.124  25.415  1.00  0.00     0.176 C 
ATOM     17  O   UNL A   1      36.734  23.966  25.683  1.00  0.00    -0.213 OA
ATOM     18  O   UNL A   1      36.226  23.117  23.369  1.00  0.00    -0.213 OA
ENDBRANCH   7  15
BRANCH  13  19
ATOM     19  C   UNL A   1      30.789  27.294  22.696  1.00  0.00     0.302 C 
BRANCH  19  20
ATOM     20  C   UNL A   1      29.647  28.296  22.689  1.00  0.00     0.048 A 
ATOM     21  C   UNL A   1      28.346  27.903  23.039  1.00  0.00     0.015 A 
ATOM     22  C   UNL A   1      29.764  29.609  22.245  1.00  0.00     0.132 A 
ATOM     23  C   UNL A   1      27.328  28.837  23.209  1.00  0.00     0.021 A 
ATOM     24  N   UNL A   1      28.806  30.542  22.426  1.00  0.00    -0.239 NA
ATOM     25  C   UNL A   1      27.627  30.152  22.945  1.00  0.00     0.113 A 
BRANCH  22  26
ATOM     26  N   UNL A   1      30.872  30.075  21.571  1.00  0.00    -0.383 N 
ATOM     27  H   UNL A   1      31.738  29.620  21.672  1.00  0.00     0.158 HD
ATOM     28  H   UNL A   1      30.797  30.865  20.988  1.00  0.00     0.158 HD
ENDBRANCH  22  26
ENDBRANCH  19  20
ENDBRANCH  13  19
ENDBRANCH   3   6
ENDBRANCH   1   2
BRANCH   1  29
ATOM     29  C   UNL A   1      32.918  28.453  26.144  1.00  0.00     0.042 C 
BRANCH  29  30
ATOM     30  C   UNL A   1      33.926  28.684  27.248  1.00  0.00     0.118 C 
BRANCH  30  31
ATOM     31  N   UNL A   1      33.863  30.044  27.758  1.00  0.00    -0.352 N 
ATOM     32  C   UNL A   1      34.788  30.746  28.493  1.00  0.00     0.251 C 
ATOM     33  H   UNL A   1      33.037  30.535  27.544  1.00  0.00     0.163 HD
ATOM     34  O   UNL A   1      34.450  31.793  29.038  1.00  0.00    -0.269 OA
BRANCH  32  35
ATOM     35  C   UNL A   1      36.172  30.241  28.648  1.00  0.00     0.039 A 
ATOM     36  C   UNL A   1      37.053  30.330  27.566  1.00  0.00     0.014 A 
ATOM     37  C   UNL A   1      36.603  29.658  29.842  1.00  0.00     0.014 A 
ATOM     38  C   UNL A   1      38.370  29.881  27.703  1.00  0.00     0.010 A 
ATOM     39  C   UNL A   1      37.940  29.325  30.016  1.00  0.00     0.010 A 
ATOM     40  C   UNL A   1      38.833  29.406  28.940  1.00  0.00    -0.014 A 
BRANCH  40  41
ATOM     41  C   UNL A   1      40.233  28.948  29.124  1.00  0.00     0.031 A 
ATOM     42  C   UNL A   1      41.256  29.881  29.717  1.00  0.00     0.074 A 
ATOM     43  C   UNL A   1      40.597  27.722  28.703  1.00  0.00     0.049 A 
ATOM     44  N   UNL A   1      42.539  29.699  29.893  1.00  0.00    -0.248 NA
ATOM     45  C   UNL A   1      40.779  31.209  30.137  1.00  0.00     0.031 C 
ATOM     46  C   UNL A   1      39.709  26.747  28.064  1.00  0.00     0.029 A 
ATOM     47  N   UNL A   1      41.811  27.087  28.741  1.00  0.00    -0.354 N 
ATOM     48  C   UNL A   1      43.019  30.888  30.426  1.00  0.00     0.074 A 
ATOM     49  C   UNL A   1      41.908  31.809  30.480  1.00  0.00     0.031 C 
ATOM     50  C   UNL A   1      40.402  25.629  27.801  1.00  0.00     0.029 A 
ATOM     51  C   UNL A   1      41.789  25.821  28.207  1.00  0.00     0.049 A 
ATOM     52  H   UNL A   1      42.624  27.500  29.115  1.00  0.00     0.167 HD
ATOM     53  C   UNL A   1      44.268  31.179  30.862  1.00  0.00     0.037 A 
ATOM     54  C   UNL A   1      42.779  24.922  28.057  1.00  0.00     0.037 A 
ATOM     55  C   UNL A   1      45.366  30.249  30.829  1.00  0.00     0.049 A 
ATOM     56  C   UNL A   1      44.161  25.270  28.538  1.00  0.00     0.074 A 
ATOM     57  C   UNL A   1      46.657  30.421  31.294  1.00  0.00     0.029 A 
ATOM     58  N   UNL A   1      45.298  28.970  30.293  1.00  0.00    -0.354 N 
ATOM     59  N   UNL A   1      44.585  26.375  29.103  1.00  0.00    -0.248 NA
ATOM     60  C   UNL A   1      45.199  24.245  28.366  1.00  0.00     0.031 C 
ATOM     61  C   UNL A   1      47.386  29.267  30.992  1.00  0.00     0.029 A 
ATOM     62  C   UNL A   1      46.534  28.350  30.395  1.00  0.00     0.049 A 
ATOM     63  H   UNL A   1      44.494  28.563  29.900  1.00  0.00     0.167 HD
ATOM     64  C   UNL A   1      45.931  26.168  29.381  1.00  0.00     0.074 A 
ATOM     65  C   UNL A   1      46.245  24.825  28.937  1.00  0.00     0.031 C 
ATOM     66  C   UNL A   1      46.825  27.011  29.953  1.00  0.00     0.037 A 
BRANCH  53  67
ATOM     67  C   UNL A   1      44.510  32.555  31.416  1.00  0.00     0.057 A 
ATOM     68  C   UNL A   1      44.335  32.848  32.776  1.00  0.00     0.134 A 
ATOM     69  C   UNL A   1      44.945  33.596  30.586  1.00  0.00     0.134 A 
ATOM     70  F   UNL A   1      43.905  31.902  33.626  1.00  0.00    -0.206 F 
ATOM     71  C   UNL A   1      44.554  34.130  33.283  1.00  0.00     0.040 A 
ATOM     72  C   UNL A   1      45.199  34.874  31.088  1.00  0.00     0.040 A 
ATOM     73  F   UNL A   1      45.139  33.386  29.275  1.00  0.00    -0.206 F 
ATOM     74  C   UNL A   1      44.996  35.145  32.438  1.00  0.00     0.006 A 
ENDBRANCH  53  67
BRANCH  54  75
ATOM     75  C   UNL A   1      42.495  23.598  27.445  1.00  0.00     0.057 A 
ATOM     76  C   UNL A   1      42.151  22.494  28.234  1.00  0.00     0.134 A 
ATOM     77  C   UNL A   1      42.562  23.402  26.060  1.00  0.00     0.134 A 
ATOM     78  F   UNL A   1      42.085  22.614  29.569  1.00  0.00    -0.206 F 
ATOM     79  C   UNL A   1      41.906  21.240  27.673  1.00  0.00     0.040 A 
ATOM     80  C   UNL A   1      42.291  22.161  25.482  1.00  0.00     0.040 A 
ATOM     81  F   UNL A   1      42.875  24.421  25.246  1.00  0.00    -0.206 F 
ATOM     82  C   UNL A   1      41.970  21.072  26.291  1.00  0.00     0.006 A 
ENDBRANCH  54  75
BRANCH  66  83
ATOM     83  C   UNL A   1      48.218  26.493  30.167  1.00  0.00     0.057 A 
ATOM     84  C   UNL A   1      48.581  25.795  31.326  1.00  0.00     0.134 A 
ATOM     85  C   UNL A   1      49.196  26.658  29.177  1.00  0.00     0.134 A 
ATOM     86  F   UNL A   1      47.695  25.612  32.316  1.00  0.00    -0.206 F 
ATOM     87  C   UNL A   1      49.876  25.305  31.504  1.00  0.00     0.040 A 
ATOM     88  C   UNL A   1      50.484  26.144  29.331  1.00  0.00     0.040 A 
ATOM     89  F   UNL A   1      48.911  27.307  28.038  1.00  0.00    -0.206 F 
ATOM     90  C   UNL A   1      50.828  25.471  30.501  1.00  0.00     0.006 A 
ENDBRANCH  66  83
ENDBRANCH  40  41
ENDBRANCH  32  35
ENDBRANCH  30  31
ENDBRANCH  29  30
ENDBRANCH   1  29
TORSDOF 14
ENDMDL
MODEL 3
REMARK VINA RESULT:     -12.2      0.326      6.240
REMARK SMILES CS(=O)(=O)N1C[C@@H]2C[N@H+](Cc3cccnc3N)C[C@]2(C(=O)NCCCNC(=O)c2ccc(-c3c4nc(c(-c5c(F)cccc5F)c5ccc([nH]5)c(-c5c(F)cccc5F)c5nc(c(-c6c(F)cccc6F)c6ccc3[nH]6)C=C5)C=C4)cc2)C1
REMARK SMILES IDX 23 1 22 2 20 3 21 4 19 6 5 7 6 8 83 9 7 10 8 11 18 12 9 13
REMARK SMILES IDX 2 15 1 16 3 17 4 18 10 19 11 20 12 21 16 22 13 23 15 24
REMARK SMILES IDX 14 25 17 26 24 29 25 30 26 31 27 32 28 34 29 35 30 36 82 37
REMARK SMILES IDX 31 38 81 39 32 40 33 41 34 42 75 43 35 44 80 45 74 46 76 47
REMARK SMILES IDX 36 48 79 49 73 50 72 51 37 53 63 54 46 55 62 56 47 57 50 58
REMARK SMILES IDX 61 59 77 60 48 61 49 62 60 64 78 65 51 66 38 67 39 68 44 69
REMARK SMILES IDX 40 70 41 71 43 72 45 73 42 74 64 75 65 76 70 77 66 78 67 79
REMARK SMILES IDX 69 80 71 81 68 82 52 83 53 84 58 85 54 86 55 87 57 88 59 89
REMARK SMILES IDX 56 90
REMARK H PARENT 22 5 9 14 17 27 17 28 26 33 76 52 50 63
REMARK Flexibility Score: inf
ROOT
ATOM      1  C   UNL A   1      36.993  21.065  24.729  1.00  0.00     0.117 C 
ENDROOT
BRANCH   1   2
ATOM      2  N   UNL A   1      36.217  21.040  25.951  1.00  0.00    -0.355 N 
ATOM      3  C   UNL A   1      34.898  21.426  26.107  1.00  0.00     0.233 C 
ATOM      4  O   UNL A   1      34.503  21.623  27.257  1.00  0.00    -0.274 OA
ATOM      5  H   UNL A   1      36.678  20.713  26.759  1.00  0.00     0.163 HD
BRANCH   3   6
ATOM      6  C   UNL A   1      33.996  21.566  24.799  1.00  0.00     0.121 C 
ATOM      7  N   UNL A   1      33.316  19.457  23.595  1.00  0.00    -0.200 NA
ATOM      8  C   UNL A   1      32.300  20.465  23.308  1.00  0.00     0.113 C 
ATOM      9  C   UNL A   1      34.036  19.961  24.801  1.00  0.00     0.125 C 
ATOM     10  C   UNL A   1      32.429  21.429  24.470  1.00  0.00     0.082 C 
ATOM     11  C   UNL A   1      31.805  22.771  24.085  1.00  0.00     0.268 C 
ATOM     12  C   UNL A   1      33.635  22.985  25.373  1.00  0.00     0.281 C 
ATOM     13  N   UNL A   1      32.841  23.722  24.393  1.00  0.00    -0.330 N 
ATOM     14  H   UNL A   1      32.478  24.600  24.764  1.00  0.00     0.348 HD
BRANCH   7  15
ATOM     15  S   UNL A   1      32.707  17.872  23.600  1.00  0.00     0.211 S 
ATOM     16  C   UNL A   1      34.178  16.889  23.762  1.00  0.00     0.176 C 
ATOM     17  O   UNL A   1      32.147  17.619  22.293  1.00  0.00    -0.213 OA
ATOM     18  O   UNL A   1      31.903  17.711  24.796  1.00  0.00    -0.213 OA
ENDBRANCH   7  15
BRANCH  13  19
ATOM     19  C   UNL A   1      33.531  24.407  23.277  1.00  0.00     0.302 C 
BRANCH  19  20
ATOM     20  C   UNL A   1      33.602  25.922  23.180  1.00  0.00     0.048 A 
ATOM     21  C   UNL A   1      33.777  26.706  24.331  1.00  0.00     0.015 A 
ATOM     22  C   UNL A   1      33.395  26.640  22.007  1.00  0.00     0.132 A 
ATOM     23  C   UNL A   1      34.021  28.074  24.246  1.00  0.00     0.021 A 
ATOM     24  N   UNL A   1      33.654  27.958  21.889  1.00  0.00    -0.239 NA
ATOM     25  C   UNL A   1      34.005  28.641  22.994  1.00  0.00     0.113 A 
BRANCH  22  26
ATOM     26  N   UNL A   1      32.898  26.066  20.857  1.00  0.00    -0.383 N 
ATOM     27  H   UNL A   1      32.340  25.258  20.911  1.00  0.00     0.158 HD
ATOM     28  H   UNL A   1      33.103  26.466  19.980  1.00  0.00     0.158 HD
ENDBRANCH  22  26
ENDBRANCH  19  20
ENDBRANCH  13  19
ENDBRANCH   3   6
ENDBRANCH   1   2
BRANCH   1  29
ATOM     29  C   UNL A   1      38.125  20.032  24.751  1.00  0.00     0.042 C 
BRANCH  29  30
ATOM     30  C   UNL A   1      38.971  20.087  26.003  1.00  0.00     0.118 C 
BRANCH  30  31
ATOM     31  N   UNL A   1      40.179  19.290  25.872  1.00  0.00    -0.352 N 
ATOM     32  C   UNL A   1      41.495  19.671  25.975  1.00  0.00     0.251 C 
ATOM     33  H   UNL A   1      40.032  18.335  25.683  1.00  0.00     0.163 HD
ATOM     34  O   UNL A   1      42.373  18.905  25.589  1.00  0.00    -0.269 OA
BRANCH  32  35
ATOM     35  C   UNL A   1      41.857  20.999  26.525  1.00  0.00     0.039 A 
ATOM     36  C   UNL A   1      42.203  22.028  25.644  1.00  0.00     0.014 A 
ATOM     37  C   UNL A   1      41.880  21.232  27.902  1.00  0.00     0.014 A 
ATOM     38  C   UNL A   1      42.522  23.293  26.145  1.00  0.00     0.010 A 
ATOM     39  C   UNL A   1      42.078  22.517  28.390  1.00  0.00     0.010 A 
ATOM     40  C   UNL A   1      42.429  23.557  27.521  1.00  0.00    -0.014 A 
BRANCH  40  41
ATOM     41  C   UNL A   1      42.734  24.897  28.079  1.00  0.00     0.031 A 
ATOM     42  C   UNL A   1      44.151  25.254  28.443  1.00  0.00     0.074 A 
ATOM     43  C   UNL A   1      41.734  25.768  28.315  1.00  0.00     0.049 A 
ATOM     44  N   UNL A   1      44.614  26.340  29.007  1.00  0.00    -0.248 NA
ATOM     45  C   UNL A   1      45.184  24.241  28.167  1.00  0.00     0.031 C 
ATOM     46  C   UNL A   1      40.314  25.518  28.055  1.00  0.00     0.029 A 
ATOM     47  N   UNL A   1      41.756  27.036  28.835  1.00  0.00    -0.354 N 
ATOM     48  C   UNL A   1      45.978  26.132  29.165  1.00  0.00     0.074 A 
ATOM     49  C   UNL A   1      46.260  24.793  28.705  1.00  0.00     0.031 C 
ATOM     50  C   UNL A   1      39.608  26.609  28.386  1.00  0.00     0.029 A 
ATOM     51  C   UNL A   1      40.514  27.617  28.924  1.00  0.00     0.049 A 
ATOM     52  H   UNL A   1      42.584  27.488  29.119  1.00  0.00     0.167 HD
ATOM     53  C   UNL A   1      46.919  26.992  29.625  1.00  0.00     0.037 A 
ATOM     54  C   UNL A   1      40.149  28.824  29.395  1.00  0.00     0.037 A 
ATOM     55  C   UNL A   1      46.635  28.334  30.060  1.00  0.00     0.049 A 
ATOM     56  C   UNL A   1      41.209  29.757  29.911  1.00  0.00     0.074 A 
ATOM     57  C   UNL A   1      47.519  29.305  30.492  1.00  0.00     0.029 A 
ATOM     58  N   UNL A   1      45.364  28.890  30.121  1.00  0.00    -0.354 N 
ATOM     59  N   UNL A   1      42.505  29.573  29.991  1.00  0.00    -0.248 NA
ATOM     60  C   UNL A   1      40.758  31.069  30.395  1.00  0.00     0.031 C 
ATOM     61  C   UNL A   1      46.780  30.432  30.865  1.00  0.00     0.029 A 
ATOM     62  C   UNL A   1      45.440  30.185  30.607  1.00  0.00     0.049 A 
ATOM     63  H   UNL A   1      44.534  28.433  29.858  1.00  0.00     0.167 HD
ATOM     64  C   UNL A   1      43.027  30.753  30.506  1.00  0.00     0.074 A 
ATOM     65  C   UNL A   1      41.908  31.651  30.702  1.00  0.00     0.031 C 
ATOM     66  C   UNL A   1      44.315  31.066  30.790  1.00  0.00     0.037 A 
BRANCH  53  67
ATOM     67  C   UNL A   1      48.340  26.506  29.675  1.00  0.00     0.057 A 
ATOM     68  C   UNL A   1      49.217  26.668  28.593  1.00  0.00     0.134 A 
ATOM     69  C   UNL A   1      48.847  25.889  30.825  1.00  0.00     0.134 A 
ATOM     70  F   UNL A   1      48.793  27.238  27.453  1.00  0.00    -0.206 F 
ATOM     71  C   UNL A   1      50.534  26.209  28.642  1.00  0.00     0.040 A 
ATOM     72  C   UNL A   1      50.172  25.455  30.899  1.00  0.00     0.040 A 
ATOM     73  F   UNL A   1      48.066  25.706  31.900  1.00  0.00    -0.206 F 
ATOM     74  C   UNL A   1      51.017  25.607  29.802  1.00  0.00     0.006 A 
ENDBRANCH  53  67
BRANCH  54  75
ATOM     75  C   UNL A   1      38.719  29.227  29.378  1.00  0.00     0.057 A 
ATOM     76  C   UNL A   1      37.909  29.069  30.510  1.00  0.00     0.134 A 
ATOM     77  C   UNL A   1      38.126  29.776  28.236  1.00  0.00     0.134 A 
ATOM     78  F   UNL A   1      38.415  28.535  31.632  1.00  0.00    -0.206 F 
ATOM     79  C   UNL A   1      36.559  29.421  30.499  1.00  0.00     0.040 A 
ATOM     80  C   UNL A   1      36.784  30.160  28.219  1.00  0.00     0.040 A 
ATOM     81  F   UNL A   1      38.849  29.965  27.121  1.00  0.00    -0.206 F 
ATOM     82  C   UNL A   1      35.994  29.974  29.351  1.00  0.00     0.006 A 
ENDBRANCH  54  75
BRANCH  66  83
ATOM     83  C   UNL A   1      44.588  32.449  31.306  1.00  0.00     0.057 A 
ATOM     84  C   UNL A   1      44.635  32.735  32.676  1.00  0.00     0.134 A 
ATOM     85  C   UNL A   1      44.851  33.500  30.416  1.00  0.00     0.134 A 
ATOM     86  F   UNL A   1      44.382  31.777  33.580  1.00  0.00    -0.206 F 
ATOM     87  C   UNL A   1      44.906  34.023  33.142  1.00  0.00     0.040 A 
ATOM     88  C   UNL A   1      45.154  34.783  30.872  1.00  0.00     0.040 A 
ATOM     89  F   UNL A   1      44.833  33.291  29.091  1.00  0.00    -0.206 F 
ATOM     90  C   UNL A   1      45.175  35.048  32.239  1.00  0.00     0.006 A 
ENDBRANCH  66  83
ENDBRANCH  40  41
ENDBRANCH  32  35
ENDBRANCH  30  31
ENDBRANCH  29  30
ENDBRANCH   1  29
TORSDOF 14
ENDMDL
