MODEL 1
REMARK VINA RESULT:     -13.3      0.000      0.000
REMARK SMILES CC1=Nc2nc(NC(=O)CCC(=O)NCCCNC(=O)c3ccc(-c4c5nc(c(-c6c(F)cccc6F)c6ccc([nH]6)c(-c6c(F)cccc6F)c6nc(c(-c7c(F)cccc7F)c7ccc4[nH]7)C=C6)C=C5)cc3)nn2[C@@H](c2ccc(Cl)cc2)C1
REMARK SMILES IDX 15 1 14 2 12 3 13 4 11 6 10 7 8 8 7 9 9 11 6 12 1 13 2 14
REMARK SMILES IDX 3 15 85 16 4 17 77 18 5 19 76 20 75 21 78 22 79 23 84 24
REMARK SMILES IDX 80 25 83 26 81 27 82 28 16 29 17 30 18 31 19 32 20 34 21 35
REMARK SMILES IDX 22 36 74 37 23 38 73 39 24 40 25 41 26 42 67 43 27 44 72 45
REMARK SMILES IDX 66 46 68 47 28 48 71 49 65 50 64 51 29 53 55 54 38 55 54 56
REMARK SMILES IDX 39 57 42 58 53 59 69 60 40 61 41 62 52 64 70 65 43 66 30 67
REMARK SMILES IDX 31 68 36 69 32 70 33 71 35 72 37 73 34 74 56 75 57 76 62 77
REMARK SMILES IDX 58 78 59 79 61 80 63 81 60 82 44 83 45 84 50 85 46 86 47 87
REMARK SMILES IDX 49 88 51 89 48 90
REMARK H PARENT 14 5 7 10 18 33 68 52 42 63
REMARK Flexibility Score: inf
ROOT
ATOM      1  C   UNL A   1      32.902  29.517  25.847  1.00  0.00     0.117 C 
ENDROOT
BRANCH   1   2
ATOM      2  N   UNL A   1      31.896  30.088  24.964  1.00  0.00    -0.356 N 
ATOM      3  C   UNL A   1      30.931  29.460  24.235  1.00  0.00     0.220 C 
ATOM      4  O   UNL A   1      29.933  30.100  23.911  1.00  0.00    -0.275 OA
ATOM      5  H   UNL A   1      31.917  31.070  24.879  1.00  0.00     0.163 HD
BRANCH   3   6
ATOM      6  C   UNL A   1      31.099  28.031  23.785  1.00  0.00     0.110 C 
BRANCH   6   7
ATOM      7  C   UNL A   1      30.412  27.049  24.732  1.00  0.00     0.110 C 
BRANCH   7   8
ATOM      8  C   UNL A   1      29.565  26.052  23.977  1.00  0.00     0.227 C 
ATOM      9  N   UNL A   1      30.022  24.816  23.654  1.00  0.00    -0.293 N 
ATOM     10  H   UNL A   1      29.378  24.246  23.174  1.00  0.00     0.173 HD
ATOM     11  O   UNL A   1      28.377  26.310  23.749  1.00  0.00    -0.275 OA
BRANCH   9  12
ATOM     12  C   UNL A   1      31.234  24.245  23.891  1.00  0.00     0.250 A 
ATOM     13  C   UNL A   1      36.719  22.965  22.926  1.00  0.00     0.062 C 
ATOM     14  C   UNL A   1      35.366  23.141  23.524  1.00  0.00     0.021 C 
ATOM     15  N   UNL A   1      34.461  23.751  22.820  1.00  0.00    -0.221 NA
ATOM     16  C   UNL A   1      35.158  22.717  24.962  1.00  0.00     0.083 C 
ATOM     17  C   UNL A   1      33.246  23.872  23.396  1.00  0.00     0.250 A 
ATOM     18  C   UNL A   1      33.746  22.160  25.124  1.00  0.00     0.147 C 
ATOM     19  N   UNL A   1      32.275  24.717  23.144  1.00  0.00    -0.174 NA
ATOM     20  N   UNL A   1      32.821  23.012  24.380  1.00  0.00    -0.220 N 
ATOM     21  N   UNL A   1      31.540  23.246  24.723  1.00  0.00    -0.130 NA
BRANCH  18  22
ATOM     22  C   UNL A   1      33.726  20.683  24.754  1.00  0.00    -0.023 A 
ATOM     23  C   UNL A   1      34.794  19.810  24.993  1.00  0.00     0.007 A 
ATOM     24  C   UNL A   1      32.553  20.150  24.185  1.00  0.00     0.007 A 
ATOM     25  C   UNL A   1      34.746  18.481  24.557  1.00  0.00     0.021 A 
ATOM     26  C   UNL A   1      32.488  18.812  23.785  1.00  0.00     0.021 A 
ATOM     27  C   UNL A   1      33.599  17.991  23.943  1.00  0.00     0.041 A 
ATOM     28  Cl  UNL A   1      33.554  16.370  23.372  1.00  0.00    -0.084 Cl
ENDBRANCH  18  22
ENDBRANCH   9  12
ENDBRANCH   7   8
ENDBRANCH   6   7
ENDBRANCH   3   6
ENDBRANCH   1   2
BRANCH   1  29
ATOM     29  C   UNL A   1      33.004  30.174  27.223  1.00  0.00     0.042 C 
BRANCH  29  30
ATOM     30  C   UNL A   1      34.349  30.825  27.473  1.00  0.00     0.118 C 
BRANCH  30  31
ATOM     31  N   UNL A   1      34.331  31.865  28.507  1.00  0.00    -0.352 N 
ATOM     32  C   UNL A   1      35.140  31.969  29.627  1.00  0.00     0.251 C 
ATOM     33  H   UNL A   1      33.661  32.578  28.392  1.00  0.00     0.163 HD
ATOM     34  O   UNL A   1      34.859  32.752  30.535  1.00  0.00    -0.269 OA
BRANCH  32  35
ATOM     35  C   UNL A   1      36.360  31.140  29.717  1.00  0.00     0.039 A 
ATOM     36  C   UNL A   1      36.326  29.743  29.822  1.00  0.00     0.014 A 
ATOM     37  C   UNL A   1      37.580  31.805  29.698  1.00  0.00     0.014 A 
ATOM     38  C   UNL A   1      37.533  29.042  29.886  1.00  0.00     0.010 A 
ATOM     39  C   UNL A   1      38.736  31.117  29.510  1.00  0.00     0.010 A 
ATOM     40  C   UNL A   1      38.730  29.753  29.742  1.00  0.00    -0.014 A 
BRANCH  40  41
ATOM     41  C   UNL A   1      40.053  29.157  29.800  1.00  0.00     0.031 A 
ATOM     42  C   UNL A   1      40.603  28.972  31.159  1.00  0.00     0.074 A 
ATOM     43  C   UNL A   1      40.566  28.545  28.708  1.00  0.00     0.049 A 
ATOM     44  N   UNL A   1      41.689  29.485  31.632  1.00  0.00    -0.248 NA
ATOM     45  C   UNL A   1      39.807  28.233  32.150  1.00  0.00     0.031 C 
ATOM     46  C   UNL A   1      40.008  28.470  27.350  1.00  0.00     0.029 A 
ATOM     47  N   UNL A   1      41.683  27.774  28.608  1.00  0.00    -0.354 N 
ATOM     48  C   UNL A   1      41.821  28.975  32.917  1.00  0.00     0.074 A 
ATOM     49  C   UNL A   1      40.553  28.381  33.246  1.00  0.00     0.031 C 
ATOM     50  C   UNL A   1      40.709  27.575  26.619  1.00  0.00     0.029 A 
ATOM     51  C   UNL A   1      41.793  27.055  27.422  1.00  0.00     0.049 A 
ATOM     52  H   UNL A   1      42.361  27.728  29.321  1.00  0.00     0.167 HD
ATOM     53  C   UNL A   1      43.047  28.866  33.500  1.00  0.00     0.037 A 
ATOM     54  C   UNL A   1      42.720  26.106  27.128  1.00  0.00     0.037 A 
ATOM     55  C   UNL A   1      44.023  29.672  32.804  1.00  0.00     0.049 A 
ATOM     56  C   UNL A   1      43.890  26.390  27.984  1.00  0.00     0.074 A 
ATOM     57  C   UNL A   1      44.159  31.021  32.538  1.00  0.00     0.029 A 
ATOM     58  N   UNL A   1      44.863  29.038  31.920  1.00  0.00    -0.354 N 
ATOM     59  N   UNL A   1      44.606  27.472  27.852  1.00  0.00    -0.248 NA
ATOM     60  C   UNL A   1      43.954  25.743  29.286  1.00  0.00     0.031 C 
ATOM     61  C   UNL A   1      44.673  31.087  31.208  1.00  0.00     0.029 A 
ATOM     62  C   UNL A   1      44.885  29.781  30.767  1.00  0.00     0.049 A 
ATOM     63  H   UNL A   1      45.358  28.203  32.084  1.00  0.00     0.167 HD
ATOM     64  C   UNL A   1      44.846  27.889  29.151  1.00  0.00     0.074 A 
ATOM     65  C   UNL A   1      44.498  26.740  29.990  1.00  0.00     0.031 C 
ATOM     66  C   UNL A   1      45.011  29.213  29.445  1.00  0.00     0.037 A 
BRANCH  53  67
ATOM     67  C   UNL A   1      43.444  27.763  34.452  1.00  0.00     0.057 A 
ATOM     68  C   UNL A   1      43.527  26.444  33.969  1.00  0.00     0.134 A 
ATOM     69  C   UNL A   1      43.480  27.883  35.857  1.00  0.00     0.134 A 
ATOM     70  F   UNL A   1      43.496  26.188  32.654  1.00  0.00    -0.206 F 
ATOM     71  C   UNL A   1      43.557  25.332  34.820  1.00  0.00     0.040 A 
ATOM     72  C   UNL A   1      43.565  26.782  36.714  1.00  0.00     0.040 A 
ATOM     73  F   UNL A   1      43.334  29.053  36.488  1.00  0.00    -0.206 F 
ATOM     74  C   UNL A   1      43.568  25.498  36.198  1.00  0.00     0.006 A 
ENDBRANCH  53  67
BRANCH  54  75
ATOM     75  C   UNL A   1      42.506  24.775  26.515  1.00  0.00     0.057 A 
ATOM     76  C   UNL A   1      43.250  24.322  25.420  1.00  0.00     0.134 A 
ATOM     77  C   UNL A   1      41.746  23.796  27.181  1.00  0.00     0.134 A 
ATOM     78  F   UNL A   1      44.086  25.153  24.784  1.00  0.00    -0.206 F 
ATOM     79  C   UNL A   1      43.202  22.987  24.984  1.00  0.00     0.040 A 
ATOM     80  C   UNL A   1      41.671  22.466  26.748  1.00  0.00     0.040 A 
ATOM     81  F   UNL A   1      41.119  24.089  28.331  1.00  0.00    -0.206 F 
ATOM     82  C   UNL A   1      42.402  22.056  25.641  1.00  0.00     0.006 A 
ENDBRANCH  54  75
BRANCH  66  83
ATOM     83  C   UNL A   1      45.082  30.184  28.292  1.00  0.00     0.057 A 
ATOM     84  C   UNL A   1      43.983  30.918  27.817  1.00  0.00     0.134 A 
ATOM     85  C   UNL A   1      46.327  30.518  27.759  1.00  0.00     0.134 A 
ATOM     86  F   UNL A   1      42.766  30.750  28.333  1.00  0.00    -0.206 F 
ATOM     87  C   UNL A   1      44.106  31.910  26.839  1.00  0.00     0.040 A 
ATOM     88  C   UNL A   1      46.472  31.530  26.801  1.00  0.00     0.040 A 
ATOM     89  F   UNL A   1      47.436  29.906  28.201  1.00  0.00    -0.206 F 
ATOM     90  C   UNL A   1      45.360  32.224  26.333  1.00  0.00     0.006 A 
ENDBRANCH  66  83
ENDBRANCH  40  41
ENDBRANCH  32  35
ENDBRANCH  30  31
ENDBRANCH  29  30
ENDBRANCH   1  29
TORSDOF 14
ENDMDL
MODEL 2
REMARK VINA RESULT:     -13.2      1.656      2.500
REMARK SMILES CC1=Nc2nc(NC(=O)CCC(=O)NCCCNC(=O)c3ccc(-c4c5nc(c(-c6c(F)cccc6F)c6ccc([nH]6)c(-c6c(F)cccc6F)c6nc(c(-c7c(F)cccc7F)c7ccc4[nH]7)C=C6)C=C5)cc3)nn2[C@@H](c2ccc(Cl)cc2)C1
REMARK SMILES IDX 15 1 14 2 12 3 13 4 11 6 10 7 8 8 7 9 9 11 6 12 1 13 2 14
REMARK SMILES IDX 3 15 85 16 4 17 77 18 5 19 76 20 75 21 78 22 79 23 84 24
REMARK SMILES IDX 80 25 83 26 81 27 82 28 16 29 17 30 18 31 19 32 20 34 21 35
REMARK SMILES IDX 22 36 74 37 23 38 73 39 24 40 25 41 26 42 67 43 27 44 72 45
REMARK SMILES IDX 66 46 68 47 28 48 71 49 65 50 64 51 29 53 55 54 38 55 54 56
REMARK SMILES IDX 39 57 42 58 53 59 69 60 40 61 41 62 52 64 70 65 43 66 30 67
REMARK SMILES IDX 31 68 36 69 32 70 33 71 35 72 37 73 34 74 56 75 57 76 62 77
REMARK SMILES IDX 58 78 59 79 61 80 63 81 60 82 44 83 45 84 50 85 46 86 47 87
REMARK SMILES IDX 49 88 51 89 48 90
REMARK H PARENT 14 5 7 10 18 33 68 52 42 63
REMARK Flexibility Score: inf
ROOT
ATOM      1  C   UNL A   1      32.925  30.522  27.265  1.00  0.00     0.117 C 
ENDROOT
BRANCH   1   2
ATOM      2  N   UNL A   1      32.248  29.233  27.256  1.00  0.00    -0.356 N 
ATOM      3  C   UNL A   1      31.748  28.529  26.201  1.00  0.00     0.220 C 
ATOM      4  O   UNL A   1      31.615  27.313  26.320  1.00  0.00    -0.275 OA
ATOM      5  H   UNL A   1      32.134  28.809  28.138  1.00  0.00     0.163 HD
BRANCH   3   6
ATOM      6  C   UNL A   1      31.312  29.222  24.936  1.00  0.00     0.110 C 
BRANCH   6   7
ATOM      7  C   UNL A   1      32.141  28.785  23.729  1.00  0.00     0.110 C 
BRANCH   7   8
ATOM      8  C   UNL A   1      31.282  28.620  22.498  1.00  0.00     0.227 C 
ATOM      9  N   UNL A   1      31.048  27.406  21.940  1.00  0.00    -0.293 N 
ATOM     10  H   UNL A   1      30.461  27.417  21.149  1.00  0.00     0.173 HD
ATOM     11  O   UNL A   1      30.666  29.594  22.049  1.00  0.00    -0.275 OA
BRANCH   9  12
ATOM     12  C   UNL A   1      31.500  26.176  22.306  1.00  0.00     0.250 A 
ATOM     13  C   UNL A   1      31.661  21.318  25.311  1.00  0.00     0.062 C 
ATOM     14  C   UNL A   1      31.868  22.393  24.301  1.00  0.00     0.021 C 
ATOM     15  N   UNL A   1      31.189  23.492  24.429  1.00  0.00    -0.221 NA
ATOM     16  C   UNL A   1      32.758  22.096  23.113  1.00  0.00     0.083 C 
ATOM     17  C   UNL A   1      31.423  24.443  23.499  1.00  0.00     0.250 A 
ATOM     18  C   UNL A   1      33.519  23.362  22.724  1.00  0.00     0.147 C 
ATOM     19  N   UNL A   1      30.678  25.456  23.126  1.00  0.00    -0.174 NA
ATOM     20  N   UNL A   1      32.603  24.497  22.798  1.00  0.00    -0.220 N 
ATOM     21  N   UNL A   1      32.664  25.591  22.014  1.00  0.00    -0.130 NA
BRANCH  18  22
ATOM     22  C   UNL A   1      34.786  23.481  23.561  1.00  0.00    -0.023 A 
ATOM     23  C   UNL A   1      36.004  22.885  23.212  1.00  0.00     0.007 A 
ATOM     24  C   UNL A   1      34.749  24.274  24.725  1.00  0.00     0.007 A 
ATOM     25  C   UNL A   1      37.112  22.965  24.064  1.00  0.00     0.021 A 
ATOM     26  C   UNL A   1      35.867  24.388  25.556  1.00  0.00     0.021 A 
ATOM     27  C   UNL A   1      37.035  23.704  25.238  1.00  0.00     0.041 A 
ATOM     28  Cl  UNL A   1      38.383  23.770  26.304  1.00  0.00    -0.084 Cl
ENDBRANCH  18  22
ENDBRANCH   9  12
ENDBRANCH   7   8
ENDBRANCH   6   7
ENDBRANCH   3   6
ENDBRANCH   1   2
BRANCH   1  29
ATOM     29  C   UNL A   1      34.439  30.455  27.457  1.00  0.00     0.042 C 
BRANCH  29  30
ATOM     30  C   UNL A   1      35.058  31.802  27.775  1.00  0.00     0.118 C 
BRANCH  30  31
ATOM     31  N   UNL A   1      34.763  32.297  29.123  1.00  0.00    -0.352 N 
ATOM     32  C   UNL A   1      35.318  31.885  30.323  1.00  0.00     0.251 C 
ATOM     33  H   UNL A   1      34.086  33.010  29.182  1.00  0.00     0.163 HD
ATOM     34  O   UNL A   1      34.808  32.211  31.396  1.00  0.00    -0.269 OA
BRANCH  32  35
ATOM     35  C   UNL A   1      36.544  31.062  30.308  1.00  0.00     0.039 A 
ATOM     36  C   UNL A   1      36.522  29.661  30.347  1.00  0.00     0.014 A 
ATOM     37  C   UNL A   1      37.758  31.735  30.257  1.00  0.00     0.014 A 
ATOM     38  C   UNL A   1      37.734  28.966  30.314  1.00  0.00     0.010 A 
ATOM     39  C   UNL A   1      38.906  31.065  29.975  1.00  0.00     0.010 A 
ATOM     40  C   UNL A   1      38.919  29.691  30.141  1.00  0.00    -0.014 A 
BRANCH  40  41
ATOM     41  C   UNL A   1      40.244  29.102  30.100  1.00  0.00     0.031 A 
ATOM     42  C   UNL A   1      40.894  28.915  31.414  1.00  0.00     0.074 A 
ATOM     43  C   UNL A   1      40.680  28.496  28.972  1.00  0.00     0.049 A 
ATOM     44  N   UNL A   1      42.009  29.432  31.809  1.00  0.00    -0.248 NA
ATOM     45  C   UNL A   1      40.176  28.169  32.458  1.00  0.00     0.031 C 
ATOM     46  C   UNL A   1      40.024  28.423  27.657  1.00  0.00     0.029 A 
ATOM     47  N   UNL A   1      41.790  27.731  28.787  1.00  0.00    -0.354 N 
ATOM     48  C   UNL A   1      42.237  28.919  33.079  1.00  0.00     0.074 A 
ATOM     49  C   UNL A   1      40.999  28.318  33.498  1.00  0.00     0.031 C 
ATOM     50  C   UNL A   1      40.675  27.533  26.874  1.00  0.00     0.029 A 
ATOM     51  C   UNL A   1      41.817  27.017  27.594  1.00  0.00     0.049 A 
ATOM     52  H   UNL A   1      42.519  27.686  29.448  1.00  0.00     0.167 HD
ATOM     53  C   UNL A   1      43.502  28.815  33.571  1.00  0.00     0.037 A 
ATOM     54  C   UNL A   1      42.725  26.074  27.230  1.00  0.00     0.037 A 
ATOM     55  C   UNL A   1      44.421  29.628  32.808  1.00  0.00     0.049 A 
ATOM     56  C   UNL A   1      43.953  26.361  27.999  1.00  0.00     0.074 A 
ATOM     57  C   UNL A   1      44.531  30.978  32.538  1.00  0.00     0.029 A 
ATOM     58  N   UNL A   1      45.197  29.002  31.862  1.00  0.00    -0.354 N 
ATOM     59  N   UNL A   1      44.652  27.447  27.819  1.00  0.00    -0.248 NA
ATOM     60  C   UNL A   1      44.115  25.711  29.290  1.00  0.00     0.031 C 
ATOM     61  C   UNL A   1      44.946  31.052  31.174  1.00  0.00     0.029 A 
ATOM     62  C   UNL A   1      45.131  29.748  30.714  1.00  0.00     0.049 A 
ATOM     63  H   UNL A   1      45.708  28.169  31.988  1.00  0.00     0.167 HD
ATOM     64  C   UNL A   1      44.984  27.862  29.098  1.00  0.00     0.074 A 
ATOM     65  C   UNL A   1      44.704  26.708  29.957  1.00  0.00     0.031 C 
ATOM     66  C   UNL A   1      45.164  29.185  29.385  1.00  0.00     0.037 A 
BRANCH  53  67
ATOM     67  C   UNL A   1      43.974  27.710  34.487  1.00  0.00     0.057 A 
ATOM     68  C   UNL A   1      44.576  28.053  35.712  1.00  0.00     0.134 A 
ATOM     69  C   UNL A   1      44.115  26.357  34.114  1.00  0.00     0.134 A 
ATOM     70  F   UNL A   1      44.522  29.308  36.180  1.00  0.00    -0.206 F 
ATOM     71  C   UNL A   1      45.331  27.141  36.460  1.00  0.00     0.040 A 
ATOM     72  C   UNL A   1      44.820  25.426  34.882  1.00  0.00     0.040 A 
ATOM     73  F   UNL A   1      43.673  25.877  32.948  1.00  0.00    -0.206 F 
ATOM     74  C   UNL A   1      45.462  25.824  36.042  1.00  0.00     0.006 A 
ENDBRANCH  53  67
BRANCH  54  75
ATOM     75  C   UNL A   1      42.473  24.743  26.629  1.00  0.00     0.057 A 
ATOM     76  C   UNL A   1      43.114  24.311  25.463  1.00  0.00     0.134 A 
ATOM     77  C   UNL A   1      41.798  23.747  27.357  1.00  0.00     0.134 A 
ATOM     78  F   UNL A   1      43.871  25.160  24.755  1.00  0.00    -0.206 F 
ATOM     79  C   UNL A   1      43.045  22.978  25.022  1.00  0.00     0.040 A 
ATOM     80  C   UNL A   1      41.702  22.420  26.922  1.00  0.00     0.040 A 
ATOM     81  F   UNL A   1      41.281  24.022  28.565  1.00  0.00    -0.206 F 
ATOM     82  C   UNL A   1      42.328  22.029  25.747  1.00  0.00     0.006 A 
ENDBRANCH  54  75
BRANCH  66  83
ATOM     83  C   UNL A   1      45.145  30.160  28.233  1.00  0.00     0.057 A 
ATOM     84  C   UNL A   1      44.010  30.887  27.840  1.00  0.00     0.134 A 
ATOM     85  C   UNL A   1      46.346  30.506  27.613  1.00  0.00     0.134 A 
ATOM     86  F   UNL A   1      42.834  30.709  28.441  1.00  0.00    -0.206 F 
ATOM     87  C   UNL A   1      44.056  31.883  26.859  1.00  0.00     0.040 A 
ATOM     88  C   UNL A   1      46.415  31.521  26.651  1.00  0.00     0.040 A 
ATOM     89  F   UNL A   1      47.488  29.900  27.973  1.00  0.00    -0.206 F 
ATOM     90  C   UNL A   1      45.268  32.209  26.266  1.00  0.00     0.006 A 
ENDBRANCH  66  83
ENDBRANCH  40  41
ENDBRANCH  32  35
ENDBRANCH  30  31
ENDBRANCH  29  30
ENDBRANCH   1  29
TORSDOF 14
ENDMDL
MODEL 3
REMARK VINA RESULT:     -13.0      2.383      6.303
REMARK SMILES CC1=Nc2nc(NC(=O)CCC(=O)NCCCNC(=O)c3ccc(-c4c5nc(c(-c6c(F)cccc6F)c6ccc([nH]6)c(-c6c(F)cccc6F)c6nc(c(-c7c(F)cccc7F)c7ccc4[nH]7)C=C6)C=C5)cc3)nn2[C@@H](c2ccc(Cl)cc2)C1
REMARK SMILES IDX 15 1 14 2 12 3 13 4 11 6 10 7 8 8 7 9 9 11 6 12 1 13 2 14
REMARK SMILES IDX 3 15 85 16 4 17 77 18 5 19 76 20 75 21 78 22 79 23 84 24
REMARK SMILES IDX 80 25 83 26 81 27 82 28 16 29 17 30 18 31 19 32 20 34 21 35
REMARK SMILES IDX 22 36 74 37 23 38 73 39 24 40 25 41 26 42 67 43 27 44 72 45
REMARK SMILES IDX 66 46 68 47 28 48 71 49 65 50 64 51 29 53 55 54 38 55 54 56
REMARK SMILES IDX 39 57 42 58 53 59 69 60 40 61 41 62 52 64 70 65 43 66 30 67
REMARK SMILES IDX 31 68 36 69 32 70 33 71 35 72 37 73 34 74 56 75 57 76 62 77
REMARK SMILES IDX 58 78 59 79 61 80 63 81 60 82 44 83 45 84 50 85 46 86 47 87
REMARK SMILES IDX 49 88 51 89 48 90
REMARK H PARENT 14 5 7 10 18 33 68 52 42 63
REMARK Flexibility Score: inf
ROOT
ATOM      1  C   UNL A   1      33.867  29.150  25.607  1.00  0.00     0.117 C 
ENDROOT
BRANCH   1   2
ATOM      2  N   UNL A   1      33.641  28.134  24.588  1.00  0.00    -0.356 N 
ATOM      3  C   UNL A   1      32.505  27.852  23.890  1.00  0.00     0.220 C 
ATOM      4  O   UNL A   1      32.612  27.286  22.804  1.00  0.00    -0.275 OA
ATOM      5  H   UNL A   1      34.420  27.571  24.373  1.00  0.00     0.163 HD
BRANCH   3   6
ATOM      6  C   UNL A   1      31.143  28.169  24.454  1.00  0.00     0.110 C 
BRANCH   6   7
ATOM      7  C   UNL A   1      30.543  26.980  25.202  1.00  0.00     0.110 C 
BRANCH   7   8
ATOM      8  C   UNL A   1      31.067  26.896  26.617  1.00  0.00     0.227 C 
ATOM      9  N   UNL A   1      31.954  25.946  27.001  1.00  0.00    -0.293 N 
ATOM     10  H   UNL A   1      32.238  25.996  27.943  1.00  0.00     0.173 HD
ATOM     11  O   UNL A   1      30.784  27.788  27.425  1.00  0.00    -0.275 OA
BRANCH   9  12
ATOM     12  C   UNL A   1      32.513  24.933  26.285  1.00  0.00     0.250 A 
ATOM     13  C   UNL A   1      33.390  19.537  24.617  1.00  0.00     0.062 C 
ATOM     14  C   UNL A   1      33.375  21.022  24.739  1.00  0.00     0.021 C 
ATOM     15  N   UNL A   1      32.683  21.551  25.702  1.00  0.00    -0.221 NA
ATOM     16  C   UNL A   1      34.060  21.834  23.660  1.00  0.00     0.083 C 
ATOM     17  C   UNL A   1      32.715  22.898  25.781  1.00  0.00     0.250 A 
ATOM     18  C   UNL A   1      34.690  23.076  24.287  1.00  0.00     0.147 C 
ATOM     19  N   UNL A   1      31.875  23.727  26.355  1.00  0.00    -0.174 NA
ATOM     20  N   UNL A   1      33.753  23.632  25.262  1.00  0.00    -0.220 N 
ATOM     21  N   UNL A   1      33.633  24.940  25.558  1.00  0.00    -0.130 NA
BRANCH  18  22
ATOM     22  C   UNL A   1      36.076  22.739  24.822  1.00  0.00    -0.023 A 
ATOM     23  C   UNL A   1      36.727  21.525  24.576  1.00  0.00     0.007 A 
ATOM     24  C   UNL A   1      36.765  23.719  25.563  1.00  0.00     0.007 A 
ATOM     25  C   UNL A   1      37.966  21.244  25.161  1.00  0.00     0.021 A 
ATOM     26  C   UNL A   1      38.021  23.455  26.115  1.00  0.00     0.021 A 
ATOM     27  C   UNL A   1      38.602  22.204  25.939  1.00  0.00     0.041 A 
ATOM     28  Cl  UNL A   1      40.107  21.846  26.691  1.00  0.00    -0.084 Cl
ENDBRANCH  18  22
ENDBRANCH   9  12
ENDBRANCH   7   8
ENDBRANCH   6   7
ENDBRANCH   3   6
ENDBRANCH   1   2
BRANCH   1  29
ATOM     29  C   UNL A   1      34.334  28.615  26.960  1.00  0.00     0.042 C 
BRANCH  29  30
ATOM     30  C   UNL A   1      35.544  29.348  27.504  1.00  0.00     0.118 C 
BRANCH  30  31
ATOM     31  N   UNL A   1      35.443  29.706  28.923  1.00  0.00    -0.352 N 
ATOM     32  C   UNL A   1      36.378  29.498  29.924  1.00  0.00     0.251 C 
ATOM     33  H   UNL A   1      34.607  30.148  29.198  1.00  0.00     0.163 HD
ATOM     34  O   UNL A   1      36.069  29.626  31.109  1.00  0.00    -0.269 OA
BRANCH  32  35
ATOM     35  C   UNL A   1      37.763  29.138  29.556  1.00  0.00     0.039 A 
ATOM     36  C   UNL A   1      38.443  29.725  28.480  1.00  0.00     0.014 A 
ATOM     37  C   UNL A   1      38.391  28.168  30.327  1.00  0.00     0.014 A 
ATOM     38  C   UNL A   1      39.758  29.331  28.217  1.00  0.00     0.010 A 
ATOM     39  C   UNL A   1      39.732  27.971  30.227  1.00  0.00     0.010 A 
ATOM     40  C   UNL A   1      40.380  28.440  29.098  1.00  0.00    -0.014 A 
BRANCH  40  41
ATOM     41  C   UNL A   1      41.732  27.937  28.940  1.00  0.00     0.031 A 
ATOM     42  C   UNL A   1      41.856  26.685  28.165  1.00  0.00     0.074 A 
ATOM     43  C   UNL A   1      42.787  28.739  29.216  1.00  0.00     0.049 A 
ATOM     44  N   UNL A   1      42.343  25.564  28.577  1.00  0.00    -0.248 NA
ATOM     45  C   UNL A   1      41.266  26.626  26.819  1.00  0.00     0.031 C 
ATOM     46  C   UNL A   1      42.785  30.095  29.786  1.00  0.00     0.029 A 
ATOM     47  N   UNL A   1      44.107  28.532  28.958  1.00  0.00    -0.354 N 
ATOM     48  C   UNL A   1      42.308  24.709  27.482  1.00  0.00     0.074 A 
ATOM     49  C   UNL A   1      41.466  25.345  26.504  1.00  0.00     0.031 C 
ATOM     50  C   UNL A   1      44.021  30.633  29.683  1.00  0.00     0.029 A 
ATOM     51  C   UNL A   1      44.914  29.657  29.100  1.00  0.00     0.049 A 
ATOM     52  H   UNL A   1      44.463  27.654  28.692  1.00  0.00     0.167 HD
ATOM     53  C   UNL A   1      43.181  23.670  27.381  1.00  0.00     0.037 A 
ATOM     54  C   UNL A   1      46.226  29.764  28.765  1.00  0.00     0.037 A 
ATOM     55  C   UNL A   1      43.793  23.384  28.659  1.00  0.00     0.049 A 
ATOM     56  C   UNL A   1      46.777  28.394  28.802  1.00  0.00     0.074 A 
ATOM     57  C   UNL A   1      43.322  22.999  29.899  1.00  0.00     0.029 A 
ATOM     58  N   UNL A   1      45.060  23.867  28.883  1.00  0.00    -0.354 N 
ATOM     59  N   UNL A   1      46.869  27.707  29.907  1.00  0.00    -0.248 NA
ATOM     60  C   UNL A   1      46.748  27.616  27.573  1.00  0.00     0.031 C 
ATOM     61  C   UNL A   1      44.116  23.722  30.840  1.00  0.00     0.029 A 
ATOM     62  C   UNL A   1      45.066  24.450  30.125  1.00  0.00     0.049 A 
ATOM     63  H   UNL A   1      45.824  23.805  28.266  1.00  0.00     0.167 HD
ATOM     64  C   UNL A   1      46.461  26.431  29.556  1.00  0.00     0.074 A 
ATOM     65  C   UNL A   1      46.485  26.412  28.091  1.00  0.00     0.031 C 
ATOM     66  C   UNL A   1      45.854  25.612  30.465  1.00  0.00     0.037 A 
BRANCH  53  67
ATOM     67  C   UNL A   1      43.756  23.161  26.081  1.00  0.00     0.057 A 
ATOM     68  C   UNL A   1      43.749  21.776  25.829  1.00  0.00     0.134 A 
ATOM     69  C   UNL A   1      44.553  23.920  25.199  1.00  0.00     0.134 A 
ATOM     70  F   UNL A   1      43.038  20.939  26.598  1.00  0.00    -0.206 F 
ATOM     71  C   UNL A   1      44.539  21.189  24.834  1.00  0.00     0.040 A 
ATOM     72  C   UNL A   1      45.303  23.348  24.166  1.00  0.00     0.040 A 
ATOM     73  F   UNL A   1      44.737  25.237  25.339  1.00  0.00    -0.206 F 
ATOM     74  C   UNL A   1      45.326  21.974  24.003  1.00  0.00     0.006 A 
ENDBRANCH  53  67
BRANCH  54  75
ATOM     75  C   UNL A   1      46.895  30.855  28.018  1.00  0.00     0.057 A 
ATOM     76  C   UNL A   1      46.283  31.521  26.951  1.00  0.00     0.134 A 
ATOM     77  C   UNL A   1      48.056  31.463  28.530  1.00  0.00     0.134 A 
ATOM     78  F   UNL A   1      45.116  31.080  26.461  1.00  0.00    -0.206 F 
ATOM     79  C   UNL A   1      46.821  32.693  26.393  1.00  0.00     0.040 A 
ATOM     80  C   UNL A   1      48.617  32.620  27.974  1.00  0.00     0.040 A 
ATOM     81  F   UNL A   1      48.632  30.995  29.648  1.00  0.00    -0.206 F 
ATOM     82  C   UNL A   1      47.998  33.241  26.897  1.00  0.00     0.006 A 
ENDBRANCH  54  75
BRANCH  66  83
ATOM     83  C   UNL A   1      45.787  26.082  31.898  1.00  0.00     0.057 A 
ATOM     84  C   UNL A   1      44.657  26.689  32.471  1.00  0.00     0.134 A 
ATOM     85  C   UNL A   1      46.826  25.759  32.770  1.00  0.00     0.134 A 
ATOM     86  F   UNL A   1      43.569  26.946  31.746  1.00  0.00    -0.206 F 
ATOM     87  C   UNL A   1      44.575  26.990  33.835  1.00  0.00     0.040 A 
ATOM     88  C   UNL A   1      46.747  26.025  34.143  1.00  0.00     0.040 A 
ATOM     89  F   UNL A   1      47.916  25.123  32.313  1.00  0.00    -0.206 F 
ATOM     90  C   UNL A   1      45.623  26.648  34.678  1.00  0.00     0.006 A 
ENDBRANCH  66  83
ENDBRANCH  40  41
ENDBRANCH  32  35
ENDBRANCH  30  31
ENDBRANCH  29  30
ENDBRANCH   1  29
TORSDOF 14
ENDMDL
