MODEL 1
REMARK VINA RESULT:     -12.7      0.000      0.000
REMARK SMILES O=C1C[C@@H](C(=O)NCCCNC(=O)c2ccc(-c3c4nc(c(-c5c(F)cccc5F)c5ccc([nH]5)c(-c5c(F)cccc5F)c5nc(c(-c6c(F)cccc6F)c6ccc3[nH]6)C=C5)C=C4)cc2)C2(CC[NH+](Cc3c[nH]nc3-c3ccc(Cl)cc3)CC2)N1
REMARK SMILES IDX 8 1 7 2 5 3 6 4 4 6 1 7 2 8 3 9 87 10 68 11 69 13 86 14
REMARK SMILES IDX 70 15 85 16 71 17 72 19 73 20 74 21 77 22 75 23 76 24 78 26
REMARK SMILES IDX 79 27 84 28 80 29 83 30 81 31 82 32 9 33 10 34 11 35 12 36
REMARK SMILES IDX 13 38 14 39 15 40 67 41 16 42 66 43 17 44 18 45 19 46 60 47
REMARK SMILES IDX 20 48 65 49 59 50 61 51 21 52 64 53 58 54 57 55 22 57 48 58
REMARK SMILES IDX 31 59 47 60 32 61 35 62 46 63 62 64 33 65 34 66 45 68 63 69
REMARK SMILES IDX 36 70 23 71 24 72 29 73 25 74 26 75 28 76 30 77 27 78 49 79
REMARK SMILES IDX 50 80 55 81 51 82 52 83 54 84 56 85 53 86 37 87 38 88 43 89
REMARK SMILES IDX 39 90 40 91 42 92 44 93 41 94
REMARK H PARENT 7 5 87 12 71 18 75 25 11 37 61 56 35 67
REMARK Flexibility Score: inf
ROOT
ATOM      1  C   UNL A   1      36.141  20.894  25.343  1.00  0.00     0.117 C 
ENDROOT
BRANCH   1   2
ATOM      2  N   UNL A   1      34.779  20.378  25.346  1.00  0.00    -0.356 N 
ATOM      3  C   UNL A   1      33.570  20.908  25.662  1.00  0.00     0.226 C 
ATOM      4  O   UNL A   1      32.599  20.152  25.531  1.00  0.00    -0.275 OA
ATOM      5  H   UNL A   1      34.724  19.438  25.056  1.00  0.00     0.163 HD
BRANCH   3   6
ATOM      6  C   UNL A   1      33.336  22.313  26.215  1.00  0.00     0.114 C 
ATOM      7  O   UNL A   1      30.096  23.014  27.553  1.00  0.00    -0.275 OA
ATOM      8  C   UNL A   1      31.146  22.931  26.946  1.00  0.00     0.221 C 
ATOM      9  C   UNL A   1      32.433  22.340  27.455  1.00  0.00     0.116 C 
ATOM     10  N   UNL A   1      31.340  23.339  25.645  1.00  0.00    -0.349 N 
ATOM     11  C   UNL A   1      32.740  23.358  25.249  1.00  0.00     0.063 C 
ATOM     12  H   UNL A   1      30.603  23.593  25.042  1.00  0.00     0.164 HD
ATOM     13  C   UNL A   1      32.892  23.008  23.760  1.00  0.00     0.091 C 
ATOM     14  C   UNL A   1      33.255  24.792  25.588  1.00  0.00     0.091 C 
ATOM     15  C   UNL A   1      34.149  23.567  23.115  1.00  0.00     0.264 C 
ATOM     16  C   UNL A   1      34.358  25.352  24.690  1.00  0.00     0.264 C 
ATOM     17  N   UNL A   1      34.261  25.000  23.285  1.00  0.00    -0.331 N 
ATOM     18  H   UNL A   1      35.162  25.274  22.894  1.00  0.00     0.348 HD
BRANCH  17  19
ATOM     19  C   UNL A   1      33.474  25.855  22.382  1.00  0.00     0.303 C 
BRANCH  19  20
ATOM     20  C   UNL A   1      33.443  27.317  22.712  1.00  0.00     0.052 A 
ATOM     21  C   UNL A   1      34.458  28.232  22.498  1.00  0.00     0.115 A 
ATOM     22  C   UNL A   1      32.350  28.134  23.176  1.00  0.00     0.101 A 
ATOM     23  N   UNL A   1      34.024  29.426  22.980  1.00  0.00    -0.285 N 
ATOM     24  N   UNL A   1      32.756  29.396  23.398  1.00  0.00    -0.175 NA
ATOM     25  H   UNL A   1      34.587  30.232  23.017  1.00  0.00     0.189 HD
BRANCH  22  26
ATOM     26  C   UNL A   1      30.937  27.804  23.373  1.00  0.00     0.003 A 
ATOM     27  C   UNL A   1      30.611  26.631  24.075  1.00  0.00     0.012 A 
ATOM     28  C   UNL A   1      29.898  28.587  22.864  1.00  0.00     0.012 A 
ATOM     29  C   UNL A   1      29.278  26.273  24.294  1.00  0.00     0.021 A 
ATOM     30  C   UNL A   1      28.561  28.238  23.089  1.00  0.00     0.021 A 
ATOM     31  C   UNL A   1      28.258  27.085  23.809  1.00  0.00     0.041 A 
ATOM     32  Cl  UNL A   1      26.616  26.662  24.090  1.00  0.00    -0.084 Cl
ENDBRANCH  22  26
ENDBRANCH  19  20
ENDBRANCH  17  19
ENDBRANCH   3   6
ENDBRANCH   1   2
BRANCH   1  33
ATOM     33  C   UNL A   1      37.200  19.851  24.987  1.00  0.00     0.042 C 
BRANCH  33  34
ATOM     34  C   UNL A   1      38.624  20.391  25.020  1.00  0.00     0.118 C 
BRANCH  34  35
ATOM     35  N   UNL A   1      39.561  19.394  25.518  1.00  0.00    -0.352 N 
ATOM     36  C   UNL A   1      40.819  19.544  26.039  1.00  0.00     0.251 C 
ATOM     37  H   UNL A   1      39.239  18.465  25.472  1.00  0.00     0.163 HD
ATOM     38  O   UNL A   1      41.568  18.572  26.091  1.00  0.00    -0.269 OA
BRANCH  36  39
ATOM     39  C   UNL A   1      41.277  20.852  26.554  1.00  0.00     0.039 A 
ATOM     40  C   UNL A   1      41.070  21.155  27.903  1.00  0.00     0.014 A 
ATOM     41  C   UNL A   1      41.834  21.810  25.703  1.00  0.00     0.014 A 
ATOM     42  C   UNL A   1      41.450  22.403  28.400  1.00  0.00     0.010 A 
ATOM     43  C   UNL A   1      42.298  23.017  26.218  1.00  0.00     0.010 A 
ATOM     44  C   UNL A   1      42.088  23.336  27.568  1.00  0.00    -0.014 A 
BRANCH  44  45
ATOM     45  C   UNL A   1      42.513  24.661  28.088  1.00  0.00     0.031 A 
ATOM     46  C   UNL A   1      41.496  25.750  28.313  1.00  0.00     0.074 A 
ATOM     47  C   UNL A   1      43.818  24.893  28.326  1.00  0.00     0.049 A 
ATOM     48  N   UNL A   1      41.676  26.973  28.742  1.00  0.00    -0.248 NA
ATOM     49  C   UNL A   1      40.095  25.433  27.988  1.00  0.00     0.031 C 
ATOM     50  C   UNL A   1      44.902  23.933  28.104  1.00  0.00     0.029 A 
ATOM     51  N   UNL A   1      44.457  26.007  28.806  1.00  0.00    -0.354 N 
ATOM     52  C   UNL A   1      40.423  27.571  28.721  1.00  0.00     0.074 A 
ATOM     53  C   UNL A   1      39.497  26.598  28.188  1.00  0.00     0.031 C 
ATOM     54  C   UNL A   1      46.064  24.486  28.483  1.00  0.00     0.029 A 
ATOM     55  C   UNL A   1      45.816  25.852  28.933  1.00  0.00     0.049 A 
ATOM     56  H   UNL A   1      43.985  26.840  29.039  1.00  0.00     0.167 HD
ATOM     57  C   UNL A   1      40.070  28.812  29.133  1.00  0.00     0.037 A 
ATOM     58  C   UNL A   1      46.756  26.717  29.358  1.00  0.00     0.037 A 
ATOM     59  C   UNL A   1      40.991  29.767  29.692  1.00  0.00     0.049 A 
ATOM     60  C   UNL A   1      46.336  28.093  29.798  1.00  0.00     0.074 A 
ATOM     61  C   UNL A   1      40.723  31.023  30.205  1.00  0.00     0.029 A 
ATOM     62  N   UNL A   1      42.359  29.571  29.804  1.00  0.00    -0.354 N 
ATOM     63  N   UNL A   1      45.134  28.614  29.854  1.00  0.00    -0.248 NA
ATOM     64  C   UNL A   1      47.404  29.000  30.239  1.00  0.00     0.031 C 
ATOM     65  C   UNL A   1      41.935  31.612  30.572  1.00  0.00     0.029 A 
ATOM     66  C   UNL A   1      42.953  30.698  30.349  1.00  0.00     0.049 A 
ATOM     67  H   UNL A   1      42.838  28.754  29.536  1.00  0.00     0.167 HD
ATOM     68  C   UNL A   1      45.298  29.894  30.370  1.00  0.00     0.074 A 
ATOM     69  C   UNL A   1      46.713  30.062  30.625  1.00  0.00     0.031 C 
ATOM     70  C   UNL A   1      44.362  30.844  30.612  1.00  0.00     0.037 A 
BRANCH  57  71
ATOM     71  C   UNL A   1      38.629  29.214  28.999  1.00  0.00     0.057 A 
ATOM     72  C   UNL A   1      38.090  29.651  27.780  1.00  0.00     0.134 A 
ATOM     73  C   UNL A   1      37.755  29.112  30.089  1.00  0.00     0.134 A 
ATOM     74  F   UNL A   1      38.873  29.783  26.698  1.00  0.00    -0.206 F 
ATOM     75  C   UNL A   1      36.741  29.990  27.657  1.00  0.00     0.040 A 
ATOM     76  C   UNL A   1      36.398  29.420  29.970  1.00  0.00     0.040 A 
ATOM     77  F   UNL A   1      38.202  28.695  31.283  1.00  0.00    -0.206 F 
ATOM     78  C   UNL A   1      35.889  29.865  28.753  1.00  0.00     0.006 A 
ENDBRANCH  57  71
BRANCH  58  79
ATOM     79  C   UNL A   1      48.185  26.310  29.412  1.00  0.00     0.057 A 
ATOM     80  C   UNL A   1      49.031  26.497  28.313  1.00  0.00     0.134 A 
ATOM     81  C   UNL A   1      48.730  25.697  30.546  1.00  0.00     0.134 A 
ATOM     82  F   UNL A   1      48.565  27.064  27.191  1.00  0.00    -0.206 F 
ATOM     83  C   UNL A   1      50.357  26.060  28.326  1.00  0.00     0.040 A 
ATOM     84  C   UNL A   1      50.063  25.283  30.584  1.00  0.00     0.040 A 
ATOM     85  F   UNL A   1      47.978  25.495  31.637  1.00  0.00    -0.206 F 
ATOM     86  C   UNL A   1      50.877  25.453  29.466  1.00  0.00     0.006 A 
ENDBRANCH  58  79
BRANCH  70  87
ATOM     87  C   UNL A   1      44.830  32.131  31.225  1.00  0.00     0.057 A 
ATOM     88  C   UNL A   1      45.209  33.232  30.448  1.00  0.00     0.134 A 
ATOM     89  C   UNL A   1      44.863  32.281  32.618  1.00  0.00     0.134 A 
ATOM     90  F   UNL A   1      45.211  33.151  29.109  1.00  0.00    -0.206 F 
ATOM     91  C   UNL A   1      45.631  34.427  31.032  1.00  0.00     0.040 A 
ATOM     92  C   UNL A   1      45.252  33.482  33.214  1.00  0.00     0.040 A 
ATOM     93  F   UNL A   1      44.502  31.271  33.423  1.00  0.00    -0.206 F 
ATOM     94  C   UNL A   1      45.645  34.556  32.420  1.00  0.00     0.006 A 
ENDBRANCH  70  87
ENDBRANCH  44  45
ENDBRANCH  36  39
ENDBRANCH  34  35
ENDBRANCH  33  34
ENDBRANCH   1  33
TORSDOF 13
ENDMDL
MODEL 2
REMARK VINA RESULT:     -12.5      3.851      8.724
REMARK SMILES O=C1C[C@@H](C(=O)NCCCNC(=O)c2ccc(-c3c4nc(c(-c5c(F)cccc5F)c5ccc([nH]5)c(-c5c(F)cccc5F)c5nc(c(-c6c(F)cccc6F)c6ccc3[nH]6)C=C5)C=C4)cc2)C2(CC[NH+](Cc3c[nH]nc3-c3ccc(Cl)cc3)CC2)N1
REMARK SMILES IDX 8 1 7 2 5 3 6 4 4 6 1 7 2 8 3 9 87 10 68 11 69 13 86 14
REMARK SMILES IDX 70 15 85 16 71 17 72 19 73 20 74 21 77 22 75 23 76 24 78 26
REMARK SMILES IDX 79 27 84 28 80 29 83 30 81 31 82 32 9 33 10 34 11 35 12 36
REMARK SMILES IDX 13 38 14 39 15 40 67 41 16 42 66 43 17 44 18 45 19 46 60 47
REMARK SMILES IDX 20 48 65 49 59 50 61 51 21 52 64 53 58 54 57 55 22 57 48 58
REMARK SMILES IDX 31 59 47 60 32 61 35 62 46 63 62 64 33 65 34 66 45 68 63 69
REMARK SMILES IDX 36 70 23 71 24 72 29 73 25 74 26 75 28 76 30 77 27 78 49 79
REMARK SMILES IDX 50 80 55 81 51 82 52 83 54 84 56 85 53 86 37 87 38 88 43 89
REMARK SMILES IDX 39 90 40 91 42 92 44 93 41 94
REMARK H PARENT 7 5 87 12 71 18 75 25 11 37 61 56 35 67
REMARK Flexibility Score: inf
ROOT
ATOM      1  C   UNL A   1      30.998  30.448  25.379  1.00  0.00     0.117 C 
ENDROOT
BRANCH   1   2
ATOM      2  N   UNL A   1      32.345  29.934  25.181  1.00  0.00    -0.356 N 
ATOM      3  C   UNL A   1      32.926  29.149  24.238  1.00  0.00     0.226 C 
ATOM      4  O   UNL A   1      34.133  28.921  24.395  1.00  0.00    -0.275 OA
ATOM      5  H   UNL A   1      32.973  30.219  25.884  1.00  0.00     0.163 HD
BRANCH   3   6
ATOM      6  C   UNL A   1      32.201  28.488  23.066  1.00  0.00     0.114 C 
ATOM      7  O   UNL A   1      28.722  29.219  22.688  1.00  0.00    -0.275 OA
ATOM      8  C   UNL A   1      29.836  28.761  22.853  1.00  0.00     0.221 C 
ATOM      9  C   UNL A   1      31.137  29.386  22.422  1.00  0.00     0.116 C 
ATOM     10  N   UNL A   1      30.116  27.583  23.508  1.00  0.00    -0.349 N 
ATOM     11  C   UNL A   1      31.495  27.145  23.344  1.00  0.00     0.063 C 
ATOM     12  H   UNL A   1      29.449  27.085  24.034  1.00  0.00     0.164 HD
ATOM     13  C   UNL A   1      31.989  26.415  24.603  1.00  0.00     0.091 C 
ATOM     14  C   UNL A   1      31.501  26.236  22.076  1.00  0.00     0.091 C 
ATOM     15  C   UNL A   1      33.116  25.428  24.347  1.00  0.00     0.264 C 
ATOM     16  C   UNL A   1      32.525  25.101  22.055  1.00  0.00     0.264 C 
ATOM     17  N   UNL A   1      32.772  24.456  23.331  1.00  0.00    -0.331 N 
ATOM     18  H   UNL A   1      33.605  23.890  23.170  1.00  0.00     0.348 HD
BRANCH  17  19
ATOM     19  C   UNL A   1      31.931  23.318  23.737  1.00  0.00     0.303 C 
BRANCH  19  20
ATOM     20  C   UNL A   1      31.824  23.066  25.211  1.00  0.00     0.052 A 
ATOM     21  C   UNL A   1      30.659  23.009  25.956  1.00  0.00     0.115 A 
ATOM     22  C   UNL A   1      32.843  22.686  26.157  1.00  0.00     0.101 A 
ATOM     23  N   UNL A   1      31.025  22.800  27.247  1.00  0.00    -0.285 N 
ATOM     24  N   UNL A   1      32.336  22.604  27.399  1.00  0.00    -0.175 NA
ATOM     25  H   UNL A   1      30.386  22.794  27.996  1.00  0.00     0.189 HD
BRANCH  22  26
ATOM     26  C   UNL A   1      34.253  22.349  25.948  1.00  0.00     0.003 A 
ATOM     27  C   UNL A   1      35.226  23.321  26.232  1.00  0.00     0.012 A 
ATOM     28  C   UNL A   1      34.670  21.114  25.445  1.00  0.00     0.012 A 
ATOM     29  C   UNL A   1      36.585  23.049  26.055  1.00  0.00     0.021 A 
ATOM     30  C   UNL A   1      36.030  20.834  25.274  1.00  0.00     0.021 A 
ATOM     31  C   UNL A   1      36.982  21.801  25.586  1.00  0.00     0.041 A 
ATOM     32  Cl  UNL A   1      38.653  21.451  25.381  1.00  0.00    -0.084 Cl
ENDBRANCH  22  26
ENDBRANCH  19  20
ENDBRANCH  17  19
ENDBRANCH   3   6
ENDBRANCH   1   2
BRANCH   1  33
ATOM     33  C   UNL A   1      30.950  31.854  25.977  1.00  0.00     0.042 C 
BRANCH  33  34
ATOM     34  C   UNL A   1      32.141  32.178  26.870  1.00  0.00     0.118 C 
BRANCH  34  35
ATOM     35  N   UNL A   1      32.152  33.582  27.255  1.00  0.00    -0.352 N 
ATOM     36  C   UNL A   1      32.901  34.235  28.199  1.00  0.00     0.251 C 
ATOM     37  H   UNL A   1      31.523  34.152  26.757  1.00  0.00     0.163 HD
ATOM     38  O   UNL A   1      32.533  35.337  28.599  1.00  0.00    -0.269 OA
BRANCH  36  39
ATOM     39  C   UNL A   1      34.147  33.639  28.725  1.00  0.00     0.039 A 
ATOM     40  C   UNL A   1      35.345  33.876  28.046  1.00  0.00     0.014 A 
ATOM     41  C   UNL A   1      34.131  32.788  29.833  1.00  0.00     0.014 A 
ATOM     42  C   UNL A   1      36.527  33.284  28.497  1.00  0.00     0.010 A 
ATOM     43  C   UNL A   1      35.322  32.275  30.338  1.00  0.00     0.010 A 
ATOM     44  C   UNL A   1      36.530  32.497  29.660  1.00  0.00    -0.014 A 
BRANCH  44  45
ATOM     45  C   UNL A   1      37.783  31.876  30.160  1.00  0.00     0.031 A 
ATOM     46  C   UNL A   1      38.538  32.503  31.302  1.00  0.00     0.074 A 
ATOM     47  C   UNL A   1      38.257  30.767  29.561  1.00  0.00     0.049 A 
ATOM     48  N   UNL A   1      39.657  32.119  31.863  1.00  0.00    -0.248 NA
ATOM     49  C   UNL A   1      37.978  33.739  31.875  1.00  0.00     0.031 C 
ATOM     50  C   UNL A   1      37.640  30.092  28.417  1.00  0.00     0.029 A 
ATOM     51  N   UNL A   1      39.368  30.008  29.831  1.00  0.00    -0.354 N 
ATOM     52  C   UNL A   1      39.940  33.070  32.835  1.00  0.00     0.074 A 
ATOM     53  C   UNL A   1      38.908  34.079  32.755  1.00  0.00     0.031 C 
ATOM     54  C   UNL A   1      38.358  29.001  28.108  1.00  0.00     0.029 A 
ATOM     55  C   UNL A   1      39.509  28.922  29.002  1.00  0.00     0.049 A 
ATOM     56  H   UNL A   1      40.004  30.222  30.552  1.00  0.00     0.167 HD
ATOM     57  C   UNL A   1      40.955  33.089  33.731  1.00  0.00     0.037 A 
ATOM     58  C   UNL A   1      40.463  27.973  28.963  1.00  0.00     0.037 A 
ATOM     59  C   UNL A   1      41.964  32.066  33.826  1.00  0.00     0.049 A 
ATOM     60  C   UNL A   1      41.586  28.026  29.963  1.00  0.00     0.074 A 
ATOM     61  C   UNL A   1      42.993  31.954  34.743  1.00  0.00     0.029 A 
ATOM     62  N   UNL A   1      42.072  30.982  32.968  1.00  0.00    -0.354 N 
ATOM     63  N   UNL A   1      41.793  28.885  30.932  1.00  0.00    -0.248 NA
ATOM     64  C   UNL A   1      42.607  26.974  29.867  1.00  0.00     0.031 C 
ATOM     65  C   UNL A   1      43.760  30.836  34.405  1.00  0.00     0.029 A 
ATOM     66  C   UNL A   1      43.170  30.213  33.316  1.00  0.00     0.049 A 
ATOM     67  H   UNL A   1      41.459  30.787  32.223  1.00  0.00     0.167 HD
ATOM     68  C   UNL A   1      42.943  28.456  31.582  1.00  0.00     0.074 A 
ATOM     69  C   UNL A   1      43.380  27.252  30.906  1.00  0.00     0.031 C 
ATOM     70  C   UNL A   1      43.582  29.008  32.643  1.00  0.00     0.037 A 
BRANCH  57  71
ATOM     71  C   UNL A   1      41.032  34.249  34.683  1.00  0.00     0.057 A 
ATOM     72  C   UNL A   1      41.727  35.425  34.367  1.00  0.00     0.134 A 
ATOM     73  C   UNL A   1      40.356  34.211  35.909  1.00  0.00     0.134 A 
ATOM     74  F   UNL A   1      42.406  35.525  33.214  1.00  0.00    -0.206 F 
ATOM     75  C   UNL A   1      41.764  36.510  35.244  1.00  0.00     0.040 A 
ATOM     76  C   UNL A   1      40.361  35.301  36.781  1.00  0.00     0.040 A 
ATOM     77  F   UNL A   1      39.665  33.120  36.272  1.00  0.00    -0.206 F 
ATOM     78  C   UNL A   1      41.071  36.453  36.452  1.00  0.00     0.006 A 
ENDBRANCH  57  71
BRANCH  58  79
ATOM     79  C   UNL A   1      40.396  26.877  27.961  1.00  0.00     0.057 A 
ATOM     80  C   UNL A   1      39.663  25.712  28.213  1.00  0.00     0.134 A 
ATOM     81  C   UNL A   1      41.086  26.952  26.745  1.00  0.00     0.134 A 
ATOM     82  F   UNL A   1      38.993  25.572  29.367  1.00  0.00    -0.206 F 
ATOM     83  C   UNL A   1      39.644  24.647  27.310  1.00  0.00     0.040 A 
ATOM     84  C   UNL A   1      41.051  25.909  25.819  1.00  0.00     0.040 A 
ATOM     85  F   UNL A   1      41.800  28.043  26.436  1.00  0.00    -0.206 F 
ATOM     86  C   UNL A   1      40.338  24.746  26.106  1.00  0.00     0.006 A 
ENDBRANCH  58  79
BRANCH  70  87
ATOM     87  C   UNL A   1      44.790  28.291  33.168  1.00  0.00     0.057 A 
ATOM     88  C   UNL A   1      46.088  28.615  32.755  1.00  0.00     0.134 A 
ATOM     89  C   UNL A   1      44.653  27.285  34.134  1.00  0.00     0.134 A 
ATOM     90  F   UNL A   1      46.289  29.561  31.824  1.00  0.00    -0.206 F 
ATOM     91  C   UNL A   1      47.204  27.947  33.260  1.00  0.00     0.040 A 
ATOM     92  C   UNL A   1      45.763  26.632  34.672  1.00  0.00     0.040 A 
ATOM     93  F   UNL A   1      43.440  26.931  34.584  1.00  0.00    -0.206 F 
ATOM     94  C   UNL A   1      47.042  26.957  34.229  1.00  0.00     0.006 A 
ENDBRANCH  70  87
ENDBRANCH  44  45
ENDBRANCH  36  39
ENDBRANCH  34  35
ENDBRANCH  33  34
ENDBRANCH   1  33
TORSDOF 13
ENDMDL
MODEL 3
REMARK VINA RESULT:     -12.5      1.820      6.183
REMARK SMILES O=C1C[C@@H](C(=O)NCCCNC(=O)c2ccc(-c3c4nc(c(-c5c(F)cccc5F)c5ccc([nH]5)c(-c5c(F)cccc5F)c5nc(c(-c6c(F)cccc6F)c6ccc3[nH]6)C=C5)C=C4)cc2)C2(CC[NH+](Cc3c[nH]nc3-c3ccc(Cl)cc3)CC2)N1
REMARK SMILES IDX 8 1 7 2 5 3 6 4 4 6 1 7 2 8 3 9 87 10 68 11 69 13 86 14
REMARK SMILES IDX 70 15 85 16 71 17 72 19 73 20 74 21 77 22 75 23 76 24 78 26
REMARK SMILES IDX 79 27 84 28 80 29 83 30 81 31 82 32 9 33 10 34 11 35 12 36
REMARK SMILES IDX 13 38 14 39 15 40 67 41 16 42 66 43 17 44 18 45 19 46 60 47
REMARK SMILES IDX 20 48 65 49 59 50 61 51 21 52 64 53 58 54 57 55 22 57 48 58
REMARK SMILES IDX 31 59 47 60 32 61 35 62 46 63 62 64 33 65 34 66 45 68 63 69
REMARK SMILES IDX 36 70 23 71 24 72 29 73 25 74 26 75 28 76 30 77 27 78 49 79
REMARK SMILES IDX 50 80 55 81 51 82 52 83 54 84 56 85 53 86 37 87 38 88 43 89
REMARK SMILES IDX 39 90 40 91 42 92 44 93 41 94
REMARK H PARENT 7 5 87 12 71 18 75 25 11 37 61 56 35 67
REMARK Flexibility Score: inf
ROOT
ATOM      1  C   UNL A   1      35.490  20.515  25.221  1.00  0.00     0.117 C 
ENDROOT
BRANCH   1   2
ATOM      2  N   UNL A   1      34.068  20.262  25.042  1.00  0.00    -0.356 N 
ATOM      3  C   UNL A   1      32.946  20.998  25.246  1.00  0.00     0.226 C 
ATOM      4  O   UNL A   1      31.877  20.442  24.965  1.00  0.00    -0.275 OA
ATOM      5  H   UNL A   1      33.878  19.360  24.696  1.00  0.00     0.163 HD
BRANCH   3   6
ATOM      6  C   UNL A   1      32.906  22.404  25.846  1.00  0.00     0.114 C 
ATOM      7  O   UNL A   1      29.875  23.395  27.462  1.00  0.00    -0.275 OA
ATOM      8  C   UNL A   1      30.858  23.222  26.768  1.00  0.00     0.221 C 
ATOM      9  C   UNL A   1      32.113  22.487  27.156  1.00  0.00     0.116 C 
ATOM     10  N   UNL A   1      30.989  23.645  25.464  1.00  0.00    -0.349 N 
ATOM     11  C   UNL A   1      32.347  23.532  24.953  1.00  0.00     0.063 C 
ATOM     12  H   UNL A   1      30.237  23.991  24.929  1.00  0.00     0.164 HD
ATOM     13  C   UNL A   1      32.341  23.211  23.451  1.00  0.00     0.091 C 
ATOM     14  C   UNL A   1      33.035  24.895  25.278  1.00  0.00     0.091 C 
ATOM     15  C   UNL A   1      33.594  23.656  22.715  1.00  0.00     0.264 C 
ATOM     16  C   UNL A   1      34.115  25.364  24.303  1.00  0.00     0.264 C 
ATOM     17  N   UNL A   1      33.869  25.065  22.905  1.00  0.00    -0.331 N 
ATOM     18  H   UNL A   1      34.760  25.256  22.446  1.00  0.00     0.348 HD
BRANCH  17  19
ATOM     19  C   UNL A   1      33.106  26.022  22.087  1.00  0.00     0.303 C 
BRANCH  19  20
ATOM     20  C   UNL A   1      33.175  27.458  22.511  1.00  0.00     0.052 A 
ATOM     21  C   UNL A   1      34.241  28.321  22.330  1.00  0.00     0.115 A 
ATOM     22  C   UNL A   1      32.146  28.309  23.054  1.00  0.00     0.101 A 
ATOM     23  N   UNL A   1      33.893  29.505  22.898  1.00  0.00    -0.285 N 
ATOM     24  N   UNL A   1      32.636  29.526  23.345  1.00  0.00    -0.175 NA
ATOM     25  H   UNL A   1      34.507  30.271  22.972  1.00  0.00     0.189 HD
BRANCH  22  26
ATOM     26  C   UNL A   1      30.719  28.055  23.265  1.00  0.00     0.003 A 
ATOM     27  C   UNL A   1      29.799  29.056  22.914  1.00  0.00     0.012 A 
ATOM     28  C   UNL A   1      30.236  26.874  23.834  1.00  0.00     0.012 A 
ATOM     29  C   UNL A   1      28.426  28.862  23.091  1.00  0.00     0.021 A 
ATOM     30  C   UNL A   1      28.862  26.672  24.005  1.00  0.00     0.021 A 
ATOM     31  C   UNL A   1      27.963  27.665  23.627  1.00  0.00     0.041 A 
ATOM     32  Cl  UNL A   1      26.275  27.412  23.832  1.00  0.00    -0.084 Cl
ENDBRANCH  22  26
ENDBRANCH  19  20
ENDBRANCH  17  19
ENDBRANCH   3   6
ENDBRANCH   1   2
BRANCH   1  33
ATOM     33  C   UNL A   1      35.966  21.839  24.624  1.00  0.00     0.042 C 
BRANCH  33  34
ATOM     34  C   UNL A   1      37.084  22.501  25.420  1.00  0.00     0.118 C 
BRANCH  34  35
ATOM     35  N   UNL A   1      38.043  21.521  25.909  1.00  0.00    -0.352 N 
ATOM     36  C   UNL A   1      39.333  21.684  26.342  1.00  0.00     0.251 C 
ATOM     37  H   UNL A   1      37.712  20.594  25.932  1.00  0.00     0.163 HD
ATOM     38  O   UNL A   1      40.076  20.708  26.397  1.00  0.00    -0.269 OA
BRANCH  36  39
ATOM     39  C   UNL A   1      39.831  23.012  26.759  1.00  0.00     0.039 A 
ATOM     40  C   UNL A   1      40.688  23.095  27.860  1.00  0.00     0.014 A 
ATOM     41  C   UNL A   1      39.399  24.179  26.124  1.00  0.00     0.014 A 
ATOM     42  C   UNL A   1      41.132  24.343  28.300  1.00  0.00     0.010 A 
ATOM     43  C   UNL A   1      39.916  25.414  26.504  1.00  0.00     0.010 A 
ATOM     44  C   UNL A   1      40.769  25.512  27.613  1.00  0.00    -0.014 A 
BRANCH  44  45
ATOM     45  C   UNL A   1      41.249  26.844  28.061  1.00  0.00     0.031 A 
ATOM     46  C   UNL A   1      42.699  27.219  27.910  1.00  0.00     0.074 A 
ATOM     47  C   UNL A   1      40.384  27.701  28.636  1.00  0.00     0.049 A 
ATOM     48  N   UNL A   1      43.308  28.324  28.258  1.00  0.00    -0.248 NA
ATOM     49  C   UNL A   1      43.591  26.211  27.312  1.00  0.00     0.031 C 
ATOM     50  C   UNL A   1      38.964  27.435  28.879  1.00  0.00     0.029 A 
ATOM     51  N   UNL A   1      40.569  28.971  29.121  1.00  0.00    -0.354 N 
ATOM     52  C   UNL A   1      44.648  28.136  27.940  1.00  0.00     0.074 A 
ATOM     53  C   UNL A   1      44.776  26.794  27.419  1.00  0.00     0.031 C 
ATOM     54  C   UNL A   1      38.400  28.520  29.431  1.00  0.00     0.029 A 
ATOM     55  C   UNL A   1      39.425  29.542  29.621  1.00  0.00     0.049 A 
ATOM     56  H   UNL A   1      41.440  29.429  29.109  1.00  0.00     0.167 HD
ATOM     57  C   UNL A   1      45.674  29.013  28.047  1.00  0.00     0.037 A 
ATOM     58  C   UNL A   1      39.226  30.753  30.177  1.00  0.00     0.037 A 
ATOM     59  C   UNL A   1      45.535  30.359  28.538  1.00  0.00     0.049 A 
ATOM     60  C   UNL A   1      40.387  31.701  30.294  1.00  0.00     0.074 A 
ATOM     61  C   UNL A   1      46.498  31.350  28.620  1.00  0.00     0.029 A 
ATOM     62  N   UNL A   1      44.359  30.901  29.035  1.00  0.00    -0.354 N 
ATOM     63  N   UNL A   1      41.631  31.540  29.909  1.00  0.00    -0.248 NA
ATOM     64  C   UNL A   1      40.117  33.003  30.921  1.00  0.00     0.031 C 
ATOM     65  C   UNL A   1      45.920  32.470  29.222  1.00  0.00     0.029 A 
ATOM     66  C   UNL A   1      44.580  32.202  29.455  1.00  0.00     0.049 A 
ATOM     67  H   UNL A   1      43.495  30.431  29.082  1.00  0.00     0.167 HD
ATOM     68  C   UNL A   1      42.280  32.731  30.212  1.00  0.00     0.074 A 
ATOM     69  C   UNL A   1      41.289  33.609  30.798  1.00  0.00     0.031 C 
ATOM     70  C   UNL A   1      43.579  33.068  30.022  1.00  0.00     0.037 A 
BRANCH  57  71
ATOM     71  C   UNL A   1      47.041  28.550  27.628  1.00  0.00     0.057 A 
ATOM     72  C   UNL A   1      47.482  28.643  26.301  1.00  0.00     0.134 A 
ATOM     73  C   UNL A   1      47.947  28.056  28.575  1.00  0.00     0.134 A 
ATOM     74  F   UNL A   1      46.662  29.098  25.342  1.00  0.00    -0.206 F 
ATOM     75  C   UNL A   1      48.767  28.242  25.928  1.00  0.00     0.040 A 
ATOM     76  C   UNL A   1      49.244  27.679  28.219  1.00  0.00     0.040 A 
ATOM     77  F   UNL A   1      47.594  27.946  29.864  1.00  0.00    -0.206 F 
ATOM     78  C   UNL A   1      49.655  27.767  26.891  1.00  0.00     0.006 A 
ENDBRANCH  57  71
BRANCH  58  79
ATOM     79  C   UNL A   1      37.873  31.153  30.647  1.00  0.00     0.057 A 
ATOM     80  C   UNL A   1      36.993  31.846  29.808  1.00  0.00     0.134 A 
ATOM     81  C   UNL A   1      37.441  30.884  31.951  1.00  0.00     0.134 A 
ATOM     82  F   UNL A   1      37.354  32.149  28.552  1.00  0.00    -0.206 F 
ATOM     83  C   UNL A   1      35.746  32.286  30.257  1.00  0.00     0.040 A 
ATOM     84  C   UNL A   1      36.184  31.290  32.403  1.00  0.00     0.040 A 
ATOM     85  F   UNL A   1      38.231  30.216  32.803  1.00  0.00    -0.206 F 
ATOM     86  C   UNL A   1      35.338  32.005  31.558  1.00  0.00     0.006 A 
ENDBRANCH  58  79
BRANCH  70  87
ATOM     87  C   UNL A   1      43.993  34.458  30.406  1.00  0.00     0.057 A 
ATOM     88  C   UNL A   1      43.892  35.538  29.520  1.00  0.00     0.134 A 
ATOM     89  C   UNL A   1      44.463  34.726  31.699  1.00  0.00     0.134 A 
ATOM     90  F   UNL A   1      43.461  35.348  28.263  1.00  0.00    -0.206 F 
ATOM     91  C   UNL A   1      44.270  36.828  29.894  1.00  0.00     0.040 A 
ATOM     92  C   UNL A   1      44.813  36.017  32.096  1.00  0.00     0.040 A 
ATOM     93  F   UNL A   1      44.574  33.741  32.603  1.00  0.00    -0.206 F 
ATOM     94  C   UNL A   1      44.725  37.071  31.190  1.00  0.00     0.006 A 
ENDBRANCH  70  87
ENDBRANCH  44  45
ENDBRANCH  36  39
ENDBRANCH  34  35
ENDBRANCH  33  34
ENDBRANCH   1  33
TORSDOF 13
ENDMDL
