MODEL 1
REMARK VINA RESULT:     -11.2      0.000      0.000
REMARK SMILES O=C(CC[NH2+]C[C@H](O)Cn1c2ccccc2c2ccccc21)NCCCNC(=O)c1ccc(-c2c3nc(c(-c4c(F)cccc4F)c4ccc([nH]4)c(-c4c(F)cccc4F)c4nc(c(-c5c(F)cccc5F)c5ccc2[nH]5)C=C4)C=C3)cc1
REMARK SMILES IDX 1 1 2 2 23 3 3 5 4 6 5 7 6 10 7 11 9 12 10 13 11 14 22 15
REMARK SMILES IDX 12 16 16 17 17 18 21 19 13 20 15 21 18 22 20 23 14 24 19 25
REMARK SMILES IDX 8 26 24 28 25 29 26 30 27 31 28 32 29 34 30 35 31 36 83 37
REMARK SMILES IDX 32 38 82 39 33 40 34 41 35 42 76 43 36 44 81 45 75 46 77 47
REMARK SMILES IDX 37 48 80 49 74 50 73 51 38 53 64 54 47 55 63 56 48 57 51 58
REMARK SMILES IDX 62 59 78 60 49 61 50 62 61 64 79 65 52 66 39 67 40 68 45 69
REMARK SMILES IDX 41 70 42 71 44 72 46 73 43 74 65 75 66 76 71 77 67 78 68 79
REMARK SMILES IDX 70 80 72 81 69 82 53 83 54 84 59 85 55 86 56 87 58 88 60 89
REMARK SMILES IDX 57 90
REMARK H PARENT 23 4 5 8 5 9 8 27 27 33 77 52 51 63
REMARK Flexibility Score: inf
ROOT
ATOM      1  O   UNL A   1      42.723  21.516  28.011  1.00  0.00    -0.275 OA
ATOM      2  C   UNL A   1      41.627  21.012  27.847  1.00  0.00     0.225 C 
ATOM      3  N   UNL A   1      41.388  19.655  27.820  1.00  0.00    -0.356 N 
ATOM      4  H   UNL A   1      40.455  19.349  27.762  1.00  0.00     0.163 HD
ENDROOT
BRANCH   2   5
ATOM      5  C   UNL A   1      40.376  21.824  27.565  1.00  0.00     0.161 C 
BRANCH   5   6
ATOM      6  C   UNL A   1      40.251  22.120  26.070  1.00  0.00     0.270 C 
BRANCH   6   7
ATOM      7  N   UNL A   1      38.845  22.250  25.653  1.00  0.00    -0.344 N 
ATOM      8  H   UNL A   1      38.329  21.437  25.989  1.00  0.00     0.346 HD
ATOM      9  H   UNL A   1      38.828  22.311  24.635  1.00  0.00     0.346 HD
BRANCH   7  10
ATOM     10  C   UNL A   1      38.209  23.463  26.183  1.00  0.00     0.294 C 
BRANCH  10  11
ATOM     11  C   UNL A   1      36.744  23.732  25.764  1.00  0.00     0.189 C 
BRANCH  11  12
ATOM     12  C   UNL A   1      36.415  23.151  24.373  1.00  0.00     0.160 C 
BRANCH  12  13
ATOM     13  N   UNL A   1      35.003  22.813  24.225  1.00  0.00    -0.338 N 
ATOM     14  C   UNL A   1      34.019  23.731  23.912  1.00  0.00     0.049 A 
ATOM     15  C   UNL A   1      34.461  21.547  24.364  1.00  0.00     0.049 A 
ATOM     16  C   UNL A   1      34.076  25.128  23.763  1.00  0.00     0.027 A 
ATOM     17  C   UNL A   1      32.841  23.013  23.712  1.00  0.00     0.007 A 
ATOM     18  C   UNL A   1      33.108  21.646  24.030  1.00  0.00     0.007 A 
ATOM     19  C   UNL A   1      35.031  20.320  24.747  1.00  0.00     0.027 A 
ATOM     20  C   UNL A   1      32.925  25.792  23.335  1.00  0.00     0.002 A 
ATOM     21  C   UNL A   1      31.689  23.710  23.289  1.00  0.00     0.011 A 
ATOM     22  C   UNL A   1      32.305  20.486  24.074  1.00  0.00     0.011 A 
ATOM     23  C   UNL A   1      34.211  19.187  24.796  1.00  0.00     0.002 A 
ATOM     24  C   UNL A   1      31.749  25.094  23.091  1.00  0.00     0.001 A 
ATOM     25  C   UNL A   1      32.865  19.265  24.462  1.00  0.00     0.001 A 
ENDBRANCH  12  13
ENDBRANCH  11  12
BRANCH  11  26
ATOM     26  O   UNL A   1      35.925  23.136  26.780  1.00  0.00    -0.385 OA
ATOM     27  H   UNL A   1      35.599  23.826  27.378  1.00  0.00     0.211 HD
ENDBRANCH  11  26
ENDBRANCH  10  11
ENDBRANCH   7  10
ENDBRANCH   6   7
ENDBRANCH   5   6
ENDBRANCH   2   5
BRANCH   3  28
ATOM     28  C   UNL A   1      42.433  18.650  27.873  1.00  0.00     0.117 C 
BRANCH  28  29
ATOM     29  C   UNL A   1      42.931  18.280  26.478  1.00  0.00     0.042 C 
BRANCH  29  30
ATOM     30  C   UNL A   1      42.759  19.391  25.438  1.00  0.00     0.118 C 
BRANCH  30  31
ATOM     31  N   UNL A   1      43.857  19.521  24.503  1.00  0.00    -0.352 N 
ATOM     32  C   UNL A   1      44.888  20.412  24.376  1.00  0.00     0.251 C 
ATOM     33  H   UNL A   1      43.863  18.821  23.813  1.00  0.00     0.163 HD
ATOM     34  O   UNL A   1      45.809  20.076  23.629  1.00  0.00    -0.269 OA
BRANCH  32  35
ATOM     35  C   UNL A   1      44.914  21.768  24.983  1.00  0.00     0.039 A 
ATOM     36  C   UNL A   1      45.755  22.177  26.016  1.00  0.00     0.014 A 
ATOM     37  C   UNL A   1      43.920  22.656  24.528  1.00  0.00     0.014 A 
ATOM     38  C   UNL A   1      45.512  23.367  26.686  1.00  0.00     0.010 A 
ATOM     39  C   UNL A   1      43.689  23.860  25.175  1.00  0.00     0.010 A 
ATOM     40  C   UNL A   1      44.442  24.176  26.299  1.00  0.00    -0.014 A 
BRANCH  40  41
ATOM     41  C   UNL A   1      44.232  25.417  27.035  1.00  0.00     0.031 A 
ATOM     42  C   UNL A   1      45.304  26.429  26.812  1.00  0.00     0.074 A 
ATOM     43  C   UNL A   1      43.120  25.649  27.763  1.00  0.00     0.049 A 
ATOM     44  N   UNL A   1      46.087  26.971  27.687  1.00  0.00    -0.248 NA
ATOM     45  C   UNL A   1      45.650  26.762  25.418  1.00  0.00     0.031 C 
ATOM     46  C   UNL A   1      41.916  24.817  27.855  1.00  0.00     0.029 A 
ATOM     47  N   UNL A   1      42.787  26.738  28.513  1.00  0.00    -0.354 N 
ATOM     48  C   UNL A   1      46.887  27.868  26.978  1.00  0.00     0.074 A 
ATOM     49  C   UNL A   1      46.692  27.575  25.584  1.00  0.00     0.031 C 
ATOM     50  C   UNL A   1      40.913  25.535  28.408  1.00  0.00     0.029 A 
ATOM     51  C   UNL A   1      41.434  26.822  28.832  1.00  0.00     0.049 A 
ATOM     52  H   UNL A   1      43.447  27.408  28.805  1.00  0.00     0.167 HD
ATOM     53  C   UNL A   1      47.440  28.950  27.592  1.00  0.00     0.037 A 
ATOM     54  C   UNL A   1      40.785  27.898  29.346  1.00  0.00     0.037 A 
ATOM     55  C   UNL A   1      47.546  28.738  29.013  1.00  0.00     0.049 A 
ATOM     56  C   UNL A   1      41.805  28.802  29.928  1.00  0.00     0.074 A 
ATOM     57  C   UNL A   1      48.211  27.840  29.824  1.00  0.00     0.029 A 
ATOM     58  N   UNL A   1      46.606  29.335  29.815  1.00  0.00    -0.354 N 
ATOM     59  N   UNL A   1      42.494  28.519  30.997  1.00  0.00    -0.248 NA
ATOM     60  C   UNL A   1      42.390  29.806  29.053  1.00  0.00     0.031 C 
ATOM     61  C   UNL A   1      47.327  27.603  30.919  1.00  0.00     0.029 A 
ATOM     62  C   UNL A   1      46.206  28.415  30.746  1.00  0.00     0.049 A 
ATOM     63  H   UNL A   1      46.278  30.260  29.736  1.00  0.00     0.167 HD
ATOM     64  C   UNL A   1      43.779  28.958  30.711  1.00  0.00     0.074 A 
ATOM     65  C   UNL A   1      43.636  29.813  29.534  1.00  0.00     0.031 C 
ATOM     66  C   UNL A   1      44.866  28.357  31.278  1.00  0.00     0.037 A 
BRANCH  53  67
ATOM     67  C   UNL A   1      47.433  30.341  26.986  1.00  0.00     0.057 A 
ATOM     68  C   UNL A   1      46.268  31.065  26.657  1.00  0.00     0.134 A 
ATOM     69  C   UNL A   1      48.607  31.115  27.066  1.00  0.00     0.134 A 
ATOM     70  F   UNL A   1      45.065  30.496  26.542  1.00  0.00    -0.206 F 
ATOM     71  C   UNL A   1      46.254  32.455  26.518  1.00  0.00     0.040 A 
ATOM     72  C   UNL A   1      48.595  32.512  26.971  1.00  0.00     0.040 A 
ATOM     73  F   UNL A   1      49.790  30.547  27.345  1.00  0.00    -0.206 F 
ATOM     74  C   UNL A   1      47.410  33.189  26.720  1.00  0.00     0.006 A 
ENDBRANCH  53  67
BRANCH  54  75
ATOM     75  C   UNL A   1      39.395  28.346  29.090  1.00  0.00     0.057 A 
ATOM     76  C   UNL A   1      39.050  29.012  27.901  1.00  0.00     0.134 A 
ATOM     77  C   UNL A   1      38.434  28.379  30.111  1.00  0.00     0.134 A 
ATOM     78  F   UNL A   1      39.926  29.123  26.891  1.00  0.00    -0.206 F 
ATOM     79  C   UNL A   1      37.828  29.673  27.736  1.00  0.00     0.040 A 
ATOM     80  C   UNL A   1      37.207  29.042  29.961  1.00  0.00     0.040 A 
ATOM     81  F   UNL A   1      38.688  27.819  31.303  1.00  0.00    -0.206 F 
ATOM     82  C   UNL A   1      36.905  29.699  28.773  1.00  0.00     0.006 A 
ENDBRANCH  54  75
BRANCH  66  83
ATOM     83  C   UNL A   1      44.617  27.387  32.397  1.00  0.00     0.057 A 
ATOM     84  C   UNL A   1      44.447  26.033  32.087  1.00  0.00     0.134 A 
ATOM     85  C   UNL A   1      44.418  27.761  33.735  1.00  0.00     0.134 A 
ATOM     86  F   UNL A   1      44.563  25.611  30.818  1.00  0.00    -0.206 F 
ATOM     87  C   UNL A   1      44.111  25.091  33.060  1.00  0.00     0.040 A 
ATOM     88  C   UNL A   1      44.116  26.821  34.727  1.00  0.00     0.040 A 
ATOM     89  F   UNL A   1      44.457  29.046  34.109  1.00  0.00    -0.206 F 
ATOM     90  C   UNL A   1      43.958  25.481  34.388  1.00  0.00     0.006 A 
ENDBRANCH  66  83
ENDBRANCH  40  41
ENDBRANCH  32  35
ENDBRANCH  30  31
ENDBRANCH  29  30
ENDBRANCH  28  29
ENDBRANCH   3  28
TORSDOF 17
ENDMDL
MODEL 2
REMARK VINA RESULT:     -11.2      3.099      5.210
REMARK SMILES O=C(CC[NH2+]C[C@H](O)Cn1c2ccccc2c2ccccc21)NCCCNC(=O)c1ccc(-c2c3nc(c(-c4c(F)cccc4F)c4ccc([nH]4)c(-c4c(F)cccc4F)c4nc(c(-c5c(F)cccc5F)c5ccc2[nH]5)C=C4)C=C3)cc1
REMARK SMILES IDX 1 1 2 2 23 3 3 5 4 6 5 7 6 10 7 11 9 12 10 13 11 14 22 15
REMARK SMILES IDX 12 16 16 17 17 18 21 19 13 20 15 21 18 22 20 23 14 24 19 25
REMARK SMILES IDX 8 26 24 28 25 29 26 30 27 31 28 32 29 34 30 35 31 36 83 37
REMARK SMILES IDX 32 38 82 39 33 40 34 41 35 42 76 43 36 44 81 45 75 46 77 47
REMARK SMILES IDX 37 48 80 49 74 50 73 51 38 53 64 54 47 55 63 56 48 57 51 58
REMARK SMILES IDX 62 59 78 60 49 61 50 62 61 64 79 65 52 66 39 67 40 68 45 69
REMARK SMILES IDX 41 70 42 71 44 72 46 73 43 74 65 75 66 76 71 77 67 78 68 79
REMARK SMILES IDX 70 80 72 81 69 82 53 83 54 84 59 85 55 86 56 87 58 88 60 89
REMARK SMILES IDX 57 90
REMARK H PARENT 23 4 5 8 5 9 8 27 27 33 77 52 51 63
REMARK Flexibility Score: inf
ROOT
ATOM      1  O   UNL A   1      35.693  24.034  25.548  1.00  0.00    -0.275 OA
ATOM      2  C   UNL A   1      35.561  22.990  26.160  1.00  0.00     0.225 C 
ATOM      3  N   UNL A   1      36.538  22.025  26.277  1.00  0.00    -0.356 N 
ATOM      4  H   UNL A   1      36.359  21.253  26.860  1.00  0.00     0.163 HD
ENDROOT
BRANCH   2   5
ATOM      5  C   UNL A   1      34.256  22.573  26.814  1.00  0.00     0.161 C 
BRANCH   5   6
ATOM      6  C   UNL A   1      33.089  22.730  25.838  1.00  0.00     0.270 C 
BRANCH   6   7
ATOM      7  N   UNL A   1      32.841  24.142  25.503  1.00  0.00    -0.344 N 
ATOM      8  H   UNL A   1      33.013  24.276  24.507  1.00  0.00     0.346 HD
ATOM      9  H   UNL A   1      33.469  24.710  26.072  1.00  0.00     0.346 HD
BRANCH   7  10
ATOM     10  C   UNL A   1      31.466  24.560  25.804  1.00  0.00     0.294 C 
BRANCH  10  11
ATOM     11  C   UNL A   1      30.717  25.360  24.711  1.00  0.00     0.189 C 
BRANCH  11  12
ATOM     12  C   UNL A   1      31.657  26.291  23.917  1.00  0.00     0.160 C 
BRANCH  12  13
ATOM     13  N   UNL A   1      31.522  27.691  24.307  1.00  0.00    -0.338 N 
ATOM     14  C   UNL A   1      30.637  28.574  23.719  1.00  0.00     0.049 A 
ATOM     15  C   UNL A   1      32.241  28.318  25.310  1.00  0.00     0.049 A 
ATOM     16  C   UNL A   1      29.773  28.418  22.621  1.00  0.00     0.027 A 
ATOM     17  C   UNL A   1      30.693  29.758  24.453  1.00  0.00     0.007 A 
ATOM     18  C   UNL A   1      31.726  29.612  25.429  1.00  0.00     0.007 A 
ATOM     19  C   UNL A   1      33.294  27.873  26.128  1.00  0.00     0.027 A 
ATOM     20  C   UNL A   1      28.905  29.466  22.311  1.00  0.00     0.002 A 
ATOM     21  C   UNL A   1      29.812  30.805  24.113  1.00  0.00     0.011 A 
ATOM     22  C   UNL A   1      32.274  30.480  26.399  1.00  0.00     0.011 A 
ATOM     23  C   UNL A   1      33.829  28.757  27.071  1.00  0.00     0.002 A 
ATOM     24  C   UNL A   1      28.915  30.641  23.052  1.00  0.00     0.001 A 
ATOM     25  C   UNL A   1      33.327  30.044  27.209  1.00  0.00     0.001 A 
ENDBRANCH  12  13
ENDBRANCH  11  12
BRANCH  11  26
ATOM     26  O   UNL A   1      30.109  24.385  23.853  1.00  0.00    -0.385 OA
ATOM     27  H   UNL A   1      29.878  23.598  24.371  1.00  0.00     0.211 HD
ENDBRANCH  11  26
ENDBRANCH  10  11
ENDBRANCH   7  10
ENDBRANCH   6   7
ENDBRANCH   5   6
ENDBRANCH   2   5
BRANCH   3  28
ATOM     28  C   UNL A   1      37.814  22.081  25.591  1.00  0.00     0.117 C 
BRANCH  28  29
ATOM     29  C   UNL A   1      38.840  22.899  26.371  1.00  0.00     0.042 C 
BRANCH  29  30
ATOM     30  C   UNL A   1      40.129  22.137  26.696  1.00  0.00     0.118 C 
BRANCH  30  31
ATOM     31  N   UNL A   1      41.189  22.298  25.722  1.00  0.00    -0.352 N 
ATOM     32  C   UNL A   1      42.245  23.160  25.610  1.00  0.00     0.251 C 
ATOM     33  H   UNL A   1      41.138  21.650  24.984  1.00  0.00     0.163 HD
ATOM     34  O   UNL A   1      43.119  22.848  24.797  1.00  0.00    -0.269 OA
BRANCH  32  35
ATOM     35  C   UNL A   1      42.348  24.467  26.309  1.00  0.00     0.039 A 
ATOM     36  C   UNL A   1      43.051  24.700  27.490  1.00  0.00     0.014 A 
ATOM     37  C   UNL A   1      41.570  25.509  25.769  1.00  0.00     0.014 A 
ATOM     38  C   UNL A   1      42.859  25.877  28.198  1.00  0.00     0.010 A 
ATOM     39  C   UNL A   1      41.396  26.700  26.456  1.00  0.00     0.010 A 
ATOM     40  C   UNL A   1      41.985  26.849  27.705  1.00  0.00    -0.014 A 
BRANCH  40  41
ATOM     41  C   UNL A   1      41.821  28.069  28.487  1.00  0.00     0.031 A 
ATOM     42  C   UNL A   1      42.933  29.045  28.307  1.00  0.00     0.074 A 
ATOM     43  C   UNL A   1      40.715  28.317  29.219  1.00  0.00     0.049 A 
ATOM     44  N   UNL A   1      43.733  29.522  29.204  1.00  0.00    -0.248 NA
ATOM     45  C   UNL A   1      43.299  29.415  26.928  1.00  0.00     0.031 C 
ATOM     46  C   UNL A   1      39.479  27.532  29.275  1.00  0.00     0.029 A 
ATOM     47  N   UNL A   1      40.421  29.390  30.008  1.00  0.00    -0.354 N 
ATOM     48  C   UNL A   1      44.571  30.412  28.532  1.00  0.00     0.074 A 
ATOM     49  C   UNL A   1      44.372  30.180  27.128  1.00  0.00     0.031 C 
ATOM     50  C   UNL A   1      38.502  28.268  29.851  1.00  0.00     0.029 A 
ATOM     51  C   UNL A   1      39.072  29.516  30.325  1.00  0.00     0.049 A 
ATOM     52  H   UNL A   1      41.107  30.021  30.327  1.00  0.00     0.167 HD
ATOM     53  C   UNL A   1      45.164  31.447  29.189  1.00  0.00     0.037 A 
ATOM     54  C   UNL A   1      38.463  30.597  30.877  1.00  0.00     0.037 A 
ATOM     55  C   UNL A   1      45.254  31.178  30.602  1.00  0.00     0.049 A 
ATOM     56  C   UNL A   1      39.516  31.437  31.496  1.00  0.00     0.074 A 
ATOM     57  C   UNL A   1      45.878  30.224  31.381  1.00  0.00     0.029 A 
ATOM     58  N   UNL A   1      44.334  31.781  31.422  1.00  0.00    -0.354 N 
ATOM     59  N   UNL A   1      40.187  31.087  32.556  1.00  0.00    -0.248 NA
ATOM     60  C   UNL A   1      40.145  32.449  30.662  1.00  0.00     0.031 C 
ATOM     61  C   UNL A   1      44.980  29.982  32.462  1.00  0.00     0.029 A 
ATOM     62  C   UNL A   1      43.893  30.843  32.316  1.00  0.00     0.049 A 
ATOM     63  H   UNL A   1      44.044  32.721  31.377  1.00  0.00     0.167 HD
ATOM     64  C   UNL A   1      41.490  31.485  32.292  1.00  0.00     0.074 A 
ATOM     65  C   UNL A   1      41.387  32.389  31.147  1.00  0.00     0.031 C 
ATOM     66  C   UNL A   1      42.549  30.820  32.840  1.00  0.00     0.037 A 
BRANCH  53  67
ATOM     67  C   UNL A   1      45.216  32.859  28.636  1.00  0.00     0.057 A 
ATOM     68  C   UNL A   1      46.381  33.486  28.148  1.00  0.00     0.134 A 
ATOM     69  C   UNL A   1      44.008  33.474  28.252  1.00  0.00     0.134 A 
ATOM     70  F   UNL A   1      47.613  33.038  28.408  1.00  0.00    -0.206 F 
ATOM     71  C   UNL A   1      46.346  34.573  27.271  1.00  0.00     0.040 A 
ATOM     72  C   UNL A   1      43.963  34.536  27.340  1.00  0.00     0.040 A 
ATOM     73  F   UNL A   1      42.827  32.995  28.669  1.00  0.00    -0.206 F 
ATOM     74  C   UNL A   1      45.135  35.074  26.827  1.00  0.00     0.006 A 
ENDBRANCH  53  67
BRANCH  54  75
ATOM     75  C   UNL A   1      37.094  31.110  30.633  1.00  0.00     0.057 A 
ATOM     76  C   UNL A   1      36.695  31.549  29.358  1.00  0.00     0.134 A 
ATOM     77  C   UNL A   1      36.232  31.437  31.690  1.00  0.00     0.134 A 
ATOM     78  F   UNL A   1      37.484  31.372  28.288  1.00  0.00    -0.206 F 
ATOM     79  C   UNL A   1      35.516  32.273  29.146  1.00  0.00     0.040 A 
ATOM     80  C   UNL A   1      35.050  32.166  31.493  1.00  0.00     0.040 A 
ATOM     81  F   UNL A   1      36.548  31.110  32.952  1.00  0.00    -0.206 F 
ATOM     82  C   UNL A   1      34.694  32.593  30.218  1.00  0.00     0.006 A 
ENDBRANCH  54  75
BRANCH  66  83
ATOM     83  C   UNL A   1      42.255  29.819  33.921  1.00  0.00     0.057 A 
ATOM     84  C   UNL A   1      42.427  30.203  35.255  1.00  0.00     0.134 A 
ATOM     85  C   UNL A   1      41.935  28.473  33.685  1.00  0.00     0.134 A 
ATOM     86  F   UNL A   1      42.792  31.459  35.555  1.00  0.00    -0.206 F 
ATOM     87  C   UNL A   1      42.273  29.299  36.308  1.00  0.00     0.040 A 
ATOM     88  C   UNL A   1      41.742  27.566  34.732  1.00  0.00     0.040 A 
ATOM     89  F   UNL A   1      41.852  27.989  32.439  1.00  0.00    -0.206 F 
ATOM     90  C   UNL A   1      41.916  27.979  36.049  1.00  0.00     0.006 A 
ENDBRANCH  66  83
ENDBRANCH  40  41
ENDBRANCH  32  35
ENDBRANCH  30  31
ENDBRANCH  29  30
ENDBRANCH  28  29
ENDBRANCH   3  28
TORSDOF 17
ENDMDL
MODEL 3
REMARK VINA RESULT:     -11.2      5.040     11.645
REMARK SMILES O=C(CC[NH2+]C[C@H](O)Cn1c2ccccc2c2ccccc21)NCCCNC(=O)c1ccc(-c2c3nc(c(-c4c(F)cccc4F)c4ccc([nH]4)c(-c4c(F)cccc4F)c4nc(c(-c5c(F)cccc5F)c5ccc2[nH]5)C=C4)C=C3)cc1
REMARK SMILES IDX 1 1 2 2 23 3 3 5 4 6 5 7 6 10 7 11 9 12 10 13 11 14 22 15
REMARK SMILES IDX 12 16 16 17 17 18 21 19 13 20 15 21 18 22 20 23 14 24 19 25
REMARK SMILES IDX 8 26 24 28 25 29 26 30 27 31 28 32 29 34 30 35 31 36 83 37
REMARK SMILES IDX 32 38 82 39 33 40 34 41 35 42 76 43 36 44 81 45 75 46 77 47
REMARK SMILES IDX 37 48 80 49 74 50 73 51 38 53 64 54 47 55 63 56 48 57 51 58
REMARK SMILES IDX 62 59 78 60 49 61 50 62 61 64 79 65 52 66 39 67 40 68 45 69
REMARK SMILES IDX 41 70 42 71 44 72 46 73 43 74 65 75 66 76 71 77 67 78 68 79
REMARK SMILES IDX 70 80 72 81 69 82 53 83 54 84 59 85 55 86 56 87 58 88 60 89
REMARK SMILES IDX 57 90
REMARK H PARENT 23 4 5 8 5 9 8 27 27 33 77 52 51 63
REMARK Flexibility Score: inf
ROOT
ATOM      1  O   UNL A   1      32.900  37.782  31.318  1.00  0.00    -0.275 OA
ATOM      2  C   UNL A   1      33.379  36.670  31.449  1.00  0.00     0.225 C 
ATOM      3  N   UNL A   1      33.782  35.866  30.404  1.00  0.00    -0.356 N 
ATOM      4  H   UNL A   1      34.230  35.017  30.619  1.00  0.00     0.163 HD
ENDROOT
BRANCH   2   5
ATOM      5  C   UNL A   1      33.519  35.982  32.794  1.00  0.00     0.161 C 
BRANCH   5   6
ATOM      6  C   UNL A   1      33.435  34.463  32.636  1.00  0.00     0.270 C 
BRANCH   6   7
ATOM      7  N   UNL A   1      33.970  33.760  33.813  1.00  0.00    -0.344 N 
ATOM      8  H   UNL A   1      33.264  33.107  34.152  1.00  0.00     0.346 HD
ATOM      9  H   UNL A   1      34.200  34.462  34.515  1.00  0.00     0.346 HD
BRANCH   7  10
ATOM     10  C   UNL A   1      35.198  33.012  33.512  1.00  0.00     0.294 C 
BRANCH  10  11
ATOM     11  C   UNL A   1      36.442  33.322  34.379  1.00  0.00     0.189 C 
BRANCH  11  12
ATOM     12  C   UNL A   1      37.160  34.612  33.934  1.00  0.00     0.160 C 
BRANCH  12  13
ATOM     13  N   UNL A   1      38.572  34.394  33.629  1.00  0.00    -0.338 N 
ATOM     14  C   UNL A   1      39.093  34.393  32.349  1.00  0.00     0.049 A 
ATOM     15  C   UNL A   1      39.570  34.172  34.562  1.00  0.00     0.049 A 
ATOM     16  C   UNL A   1      38.461  34.491  31.097  1.00  0.00     0.027 A 
ATOM     17  C   UNL A   1      40.478  34.304  32.473  1.00  0.00     0.007 A 
ATOM     18  C   UNL A   1      40.778  34.128  33.859  1.00  0.00     0.007 A 
ATOM     19  C   UNL A   1      39.529  34.009  35.957  1.00  0.00     0.027 A 
ATOM     20  C   UNL A   1      39.264  34.567  29.958  1.00  0.00     0.002 A 
ATOM     21  C   UNL A   1      41.267  34.374  31.306  1.00  0.00     0.011 A 
ATOM     22  C   UNL A   1      41.978  33.924  34.574  1.00  0.00     0.011 A 
ATOM     23  C   UNL A   1      40.731  33.793  36.641  1.00  0.00     0.002 A 
ATOM     24  C   UNL A   1      40.649  34.520  30.059  1.00  0.00     0.001 A 
ATOM     25  C   UNL A   1      41.942  33.753  35.962  1.00  0.00     0.001 A 
ENDBRANCH  12  13
ENDBRANCH  11  12
BRANCH  11  26
ATOM     26  O   UNL A   1      35.968  33.433  35.728  1.00  0.00    -0.385 OA
ATOM     27  H   UNL A   1      36.388  34.195  36.156  1.00  0.00     0.211 HD
ENDBRANCH  11  26
ENDBRANCH  10  11
ENDBRANCH   7  10
ENDBRANCH   6   7
ENDBRANCH   5   6
ENDBRANCH   2   5
BRANCH   3  28
ATOM     28  C   UNL A   1      33.583  36.198  29.007  1.00  0.00     0.117 C 
BRANCH  28  29
ATOM     29  C   UNL A   1      34.438  35.325  28.091  1.00  0.00     0.042 C 
BRANCH  29  30
ATOM     30  C   UNL A   1      34.807  33.965  28.691  1.00  0.00     0.118 C 
BRANCH  30  31
ATOM     31  N   UNL A   1      34.434  32.825  27.880  1.00  0.00    -0.352 N 
ATOM     32  C   UNL A   1      34.847  31.520  27.837  1.00  0.00     0.251 C 
ATOM     33  H   UNL A   1      33.737  33.032  27.217  1.00  0.00     0.163 HD
ATOM     34  O   UNL A   1      34.128  30.742  27.207  1.00  0.00    -0.269 OA
BRANCH  32  35
ATOM     35  C   UNL A   1      36.129  31.021  28.397  1.00  0.00     0.039 A 
ATOM     36  C   UNL A   1      37.229  31.810  28.730  1.00  0.00     0.014 A 
ATOM     37  C   UNL A   1      36.251  29.621  28.484  1.00  0.00     0.014 A 
ATOM     38  C   UNL A   1      38.459  31.223  28.985  1.00  0.00     0.010 A 
ATOM     39  C   UNL A   1      37.471  29.027  28.766  1.00  0.00     0.010 A 
ATOM     40  C   UNL A   1      38.588  29.834  28.944  1.00  0.00    -0.014 A 
BRANCH  40  41
ATOM     41  C   UNL A   1      39.902  29.268  29.221  1.00  0.00     0.031 A 
ATOM     42  C   UNL A   1      40.279  29.317  30.663  1.00  0.00     0.074 A 
ATOM     43  C   UNL A   1      40.651  28.672  28.269  1.00  0.00     0.049 A 
ATOM     44  N   UNL A   1      41.294  29.905  31.205  1.00  0.00    -0.248 NA
ATOM     45  C   UNL A   1      39.317  28.772  31.638  1.00  0.00     0.031 C 
ATOM     46  C   UNL A   1      40.272  28.370  26.886  1.00  0.00     0.029 A 
ATOM     47  N   UNL A   1      41.892  28.116  28.365  1.00  0.00    -0.354 N 
ATOM     48  C   UNL A   1      41.209  29.630  32.571  1.00  0.00     0.074 A 
ATOM     49  C   UNL A   1      39.900  29.081  32.795  1.00  0.00     0.031 C 
ATOM     50  C   UNL A   1      41.151  27.489  26.359  1.00  0.00     0.029 A 
ATOM     51  C   UNL A   1      42.224  27.269  27.312  1.00  0.00     0.049 A 
ATOM     52  H   UNL A   1      42.503  28.300  29.116  1.00  0.00     0.167 HD
ATOM     53  C   UNL A   1      42.322  29.633  33.356  1.00  0.00     0.037 A 
ATOM     54  C   UNL A   1      43.269  26.403  27.261  1.00  0.00     0.037 A 
ATOM     55  C   UNL A   1      43.367  30.429  32.766  1.00  0.00     0.049 A 
ATOM     56  C   UNL A   1      44.246  26.819  28.295  1.00  0.00     0.074 A 
ATOM     57  C   UNL A   1      43.512  31.759  32.422  1.00  0.00     0.029 A 
ATOM     58  N   UNL A   1      44.381  29.767  32.121  1.00  0.00    -0.354 N 
ATOM     59  N   UNL A   1      44.953  27.911  28.223  1.00  0.00    -0.248 NA
ATOM     60  C   UNL A   1      44.089  26.262  29.630  1.00  0.00     0.031 C 
ATOM     61  C   UNL A   1      44.291  31.750  31.227  1.00  0.00     0.029 A 
ATOM     62  C   UNL A   1      44.628  30.426  30.947  1.00  0.00     0.049 A 
ATOM     63  H   UNL A   1      44.848  28.963  32.444  1.00  0.00     0.167 HD
ATOM     64  C   UNL A   1      44.947  28.418  29.514  1.00  0.00     0.074 A 
ATOM     65  C   UNL A   1      44.469  27.319  30.352  1.00  0.00     0.031 C 
ATOM     66  C   UNL A   1      45.054  29.760  29.739  1.00  0.00     0.037 A 
BRANCH  53  67
ATOM     67  C   UNL A   1      42.616  28.552  34.381  1.00  0.00     0.057 A 
ATOM     68  C   UNL A   1      42.434  28.697  35.771  1.00  0.00     0.134 A 
ATOM     69  C   UNL A   1      42.742  27.222  33.936  1.00  0.00     0.134 A 
ATOM     70  F   UNL A   1      42.292  29.885  36.368  1.00  0.00    -0.206 F 
ATOM     71  C   UNL A   1      42.290  27.609  36.635  1.00  0.00     0.040 A 
ATOM     72  C   UNL A   1      42.556  26.125  34.787  1.00  0.00     0.040 A 
ATOM     73  F   UNL A   1      42.946  26.944  32.640  1.00  0.00    -0.206 F 
ATOM     74  C   UNL A   1      42.305  26.317  36.138  1.00  0.00     0.006 A 
ENDBRANCH  53  67
BRANCH  54  75
ATOM     75  C   UNL A   1      43.335  25.074  26.610  1.00  0.00     0.057 A 
ATOM     76  C   UNL A   1      44.061  24.879  25.421  1.00  0.00     0.134 A 
ATOM     77  C   UNL A   1      42.473  24.030  26.978  1.00  0.00     0.134 A 
ATOM     78  F   UNL A   1      44.847  25.845  24.925  1.00  0.00    -0.206 F 
ATOM     79  C   UNL A   1      43.937  23.722  24.644  1.00  0.00     0.040 A 
ATOM     80  C   UNL A   1      42.334  22.868  26.206  1.00  0.00     0.040 A 
ATOM     81  F   UNL A   1      41.697  24.141  28.066  1.00  0.00    -0.206 F 
ATOM     82  C   UNL A   1      43.062  22.715  25.030  1.00  0.00     0.006 A 
ENDBRANCH  54  75
BRANCH  66  83
ATOM     83  C   UNL A   1      45.426  30.632  28.574  1.00  0.00     0.057 A 
ATOM     84  C   UNL A   1      46.750  31.067  28.456  1.00  0.00     0.134 A 
ATOM     85  C   UNL A   1      44.504  31.148  27.649  1.00  0.00     0.134 A 
ATOM     86  F   UNL A   1      47.675  30.662  29.342  1.00  0.00    -0.206 F 
ATOM     87  C   UNL A   1      47.147  31.960  27.460  1.00  0.00     0.040 A 
ATOM     88  C   UNL A   1      44.896  32.015  26.624  1.00  0.00     0.040 A 
ATOM     89  F   UNL A   1      43.198  30.871  27.744  1.00  0.00    -0.206 F 
ATOM     90  C   UNL A   1      46.221  32.427  26.531  1.00  0.00     0.006 A 
ENDBRANCH  66  83
ENDBRANCH  40  41
ENDBRANCH  32  35
ENDBRANCH  30  31
ENDBRANCH  29  30
ENDBRANCH  28  29
ENDBRANCH   3  28
TORSDOF 17
ENDMDL
