MODEL 1
REMARK VINA RESULT:     -10.8      0.000      0.000
REMARK SMILES CCOC(=O)[C@H]1CCCN(C(=O)N[C@](C)(CC)C(=O)NCCCNC(=O)c2ccc(-c3c4nc(c(-c5c(F)cccc5F)c5ccc([nH]5)c(-c5c(F)cccc5F)c5nc(c(-c6c(F)cccc6F)c6ccc3[nH]6)C=C5)C=C4)cc2)C1
REMARK SMILES IDX 18 1 19 2 20 3 14 5 15 6 13 7 11 8 12 9 10 11 6 12 7 13
REMARK SMILES IDX 81 14 8 15 9 16 4 17 5 18 3 19 2 20 1 21 16 22 17 23 21 24
REMARK SMILES IDX 22 25 23 26 24 27 25 28 26 30 27 31 28 32 80 33 29 34 79 35
REMARK SMILES IDX 30 36 31 37 32 38 73 39 33 40 78 41 72 42 74 43 34 44 77 45
REMARK SMILES IDX 71 46 70 47 35 49 61 50 44 51 60 52 45 53 48 54 59 55 75 56
REMARK SMILES IDX 46 57 47 58 58 60 76 61 49 62 36 63 37 64 42 65 38 66 39 67
REMARK SMILES IDX 41 68 43 69 40 70 62 71 63 72 68 73 64 74 65 75 67 76 69 77
REMARK SMILES IDX 66 78 50 79 51 80 56 81 52 82 53 83 55 84 57 85 54 86
REMARK H PARENT 20 4 13 10 24 29 74 48 48 59
REMARK Flexibility Score: inf
ROOT
ATOM      1  C   UNL A   1      36.171  22.622  23.993  1.00  0.00     0.245 C 
ATOM      2  O   UNL A   1      35.661  22.808  22.879  1.00  0.00    -0.272 OA
ATOM      3  N   UNL A   1      36.957  21.518  24.052  1.00  0.00    -0.354 N 
ATOM      4  H   UNL A   1      37.488  21.356  23.240  1.00  0.00     0.163 HD
ENDROOT
BRANCH   1   5
ATOM      5  C   UNL A   1      35.785  23.518  25.233  1.00  0.00     0.117 C 
ATOM      6  C   UNL A   1      37.161  24.066  25.708  1.00  0.00     0.045 C 
BRANCH   5   7
ATOM      7  N   UNL A   1      35.201  22.713  26.332  1.00  0.00    -0.324 N 
ATOM      8  C   UNL A   1      34.181  21.835  26.471  1.00  0.00     0.318 C 
ATOM      9  O   UNL A   1      34.039  21.407  27.622  1.00  0.00    -0.249 OA
ATOM     10  H   UNL A   1      35.679  22.853  27.182  1.00  0.00     0.166 HD
BRANCH   8  11
ATOM     11  N   UNL A   1      33.329  21.452  25.458  1.00  0.00    -0.324 N 
ATOM     12  C   UNL A   1      33.209  19.710  23.635  1.00  0.00     0.119 C 
ATOM     13  C   UNL A   1      32.220  20.596  22.872  1.00  0.00     0.019 C 
ATOM     14  C   UNL A   1      33.266  20.010  25.141  1.00  0.00     0.136 C 
ATOM     15  C   UNL A   1      32.429  22.053  23.235  1.00  0.00     0.023 C 
ATOM     16  C   UNL A   1      32.306  22.212  24.741  1.00  0.00     0.121 C 
BRANCH  12  17
ATOM     17  C   UNL A   1      32.842  18.267  23.369  1.00  0.00     0.310 C 
ATOM     18  O   UNL A   1      32.427  17.861  22.287  1.00  0.00    -0.252 OA
BRANCH  17  19
ATOM     19  O   UNL A   1      32.907  17.524  24.508  1.00  0.00    -0.466 OA
BRANCH  19  20
ATOM     20  C   UNL A   1      33.352  16.169  24.358  1.00  0.00     0.229 C 
ATOM     21  C   UNL A   1      32.719  15.296  25.427  1.00  0.00     0.049 C 
ENDBRANCH  19  20
ENDBRANCH  17  19
ENDBRANCH  12  17
ENDBRANCH   8  11
ENDBRANCH   5   7
BRANCH   5  22
ATOM     22  C   UNL A   1      34.692  24.518  24.758  1.00  0.00     0.035 C 
ATOM     23  C   UNL A   1      34.084  25.422  25.813  1.00  0.00     0.007 C 
ENDBRANCH   5  22
ENDBRANCH   1   5
BRANCH   3  24
ATOM     24  C   UNL A   1      37.155  20.535  25.098  1.00  0.00     0.117 C 
BRANCH  24  25
ATOM     25  C   UNL A   1      38.448  19.733  24.891  1.00  0.00     0.042 C 
BRANCH  25  26
ATOM     26  C   UNL A   1      39.324  19.548  26.130  1.00  0.00     0.118 C 
BRANCH  26  27
ATOM     27  N   UNL A   1      40.633  19.002  25.821  1.00  0.00    -0.352 N 
ATOM     28  C   UNL A   1      41.870  19.593  25.830  1.00  0.00     0.251 C 
ATOM     29  H   UNL A   1      40.633  18.051  25.563  1.00  0.00     0.163 HD
ATOM     30  O   UNL A   1      42.824  18.987  25.351  1.00  0.00    -0.269 OA
BRANCH  28  31
ATOM     31  C   UNL A   1      42.072  20.951  26.384  1.00  0.00     0.039 A 
ATOM     32  C   UNL A   1      41.929  21.128  27.763  1.00  0.00     0.014 A 
ATOM     33  C   UNL A   1      42.340  22.055  25.567  1.00  0.00     0.014 A 
ATOM     34  C   UNL A   1      42.103  22.394  28.325  1.00  0.00     0.010 A 
ATOM     35  C   UNL A   1      42.587  23.305  26.139  1.00  0.00     0.010 A 
ATOM     36  C   UNL A   1      42.465  23.489  27.524  1.00  0.00    -0.014 A 
BRANCH  36  37
ATOM     37  C   UNL A   1      42.730  24.817  28.142  1.00  0.00     0.031 A 
ATOM     38  C   UNL A   1      44.117  25.201  28.582  1.00  0.00     0.074 A 
ATOM     39  C   UNL A   1      41.707  25.678  28.315  1.00  0.00     0.049 A 
ATOM     40  N   UNL A   1      44.532  26.323  29.116  1.00  0.00    -0.248 NA
ATOM     41  C   UNL A   1      45.174  24.191  28.418  1.00  0.00     0.031 C 
ATOM     42  C   UNL A   1      40.309  25.408  27.973  1.00  0.00     0.029 A 
ATOM     43  N   UNL A   1      41.684  26.956  28.813  1.00  0.00    -0.354 N 
ATOM     44  C   UNL A   1      45.893  26.155  29.346  1.00  0.00     0.074 A 
ATOM     45  C   UNL A   1      46.222  24.803  28.952  1.00  0.00     0.031 C 
ATOM     46  C   UNL A   1      39.572  26.499  28.234  1.00  0.00     0.029 A 
ATOM     47  C   UNL A   1      40.436  27.532  28.797  1.00  0.00     0.049 A 
ATOM     48  H   UNL A   1      42.486  27.418  29.149  1.00  0.00     0.167 HD
ATOM     49  C   UNL A   1      46.791  27.054  29.816  1.00  0.00     0.037 A 
ATOM     50  C   UNL A   1      40.032  28.754  29.192  1.00  0.00     0.037 A 
ATOM     51  C   UNL A   1      46.464  28.404  30.200  1.00  0.00     0.049 A 
ATOM     52  C   UNL A   1      41.048  29.721  29.734  1.00  0.00     0.074 A 
ATOM     53  C   UNL A   1      47.310  29.400  30.655  1.00  0.00     0.029 A 
ATOM     54  N   UNL A   1      45.188  28.945  30.178  1.00  0.00    -0.354 N 
ATOM     55  N   UNL A   1      42.342  29.569  29.879  1.00  0.00    -0.248 NA
ATOM     56  C   UNL A   1      40.547  31.036  30.157  1.00  0.00     0.031 C 
ATOM     57  C   UNL A   1      46.541  30.529  30.953  1.00  0.00     0.029 A 
ATOM     58  C   UNL A   1      45.222  30.255  30.630  1.00  0.00     0.049 A 
ATOM     59  H   UNL A   1      44.377  28.470  29.884  1.00  0.00     0.167 HD
ATOM     60  C   UNL A   1      42.813  30.776  30.380  1.00  0.00     0.074 A 
ATOM     61  C   UNL A   1      41.670  31.657  30.488  1.00  0.00     0.031 C 
ATOM     62  C   UNL A   1      44.077  31.123  30.726  1.00  0.00     0.037 A 
BRANCH  49  63
ATOM     63  C   UNL A   1      48.224  26.615  29.930  1.00  0.00     0.057 A 
ATOM     64  C   UNL A   1      48.695  25.929  31.058  1.00  0.00     0.134 A 
ATOM     65  C   UNL A   1      49.126  26.821  28.879  1.00  0.00     0.134 A 
ATOM     66  F   UNL A   1      47.887  25.706  32.105  1.00  0.00    -0.206 F 
ATOM     67  C   UNL A   1      50.015  25.482  31.144  1.00  0.00     0.040 A 
ATOM     68  C   UNL A   1      50.440  26.353  28.942  1.00  0.00     0.040 A 
ATOM     69  F   UNL A   1      48.741  27.462  27.765  1.00  0.00    -0.206 F 
ATOM     70  C   UNL A   1      50.889  25.685  30.079  1.00  0.00     0.006 A 
ENDBRANCH  49  63
BRANCH  50  71
ATOM     71  C   UNL A   1      38.602  29.148  29.081  1.00  0.00     0.057 A 
ATOM     72  C   UNL A   1      38.078  29.644  27.881  1.00  0.00     0.134 A 
ATOM     73  C   UNL A   1      37.738  29.079  30.180  1.00  0.00     0.134 A 
ATOM     74  F   UNL A   1      38.860  29.752  26.796  1.00  0.00    -0.206 F 
ATOM     75  C   UNL A   1      36.760  30.093  27.788  1.00  0.00     0.040 A 
ATOM     76  C   UNL A   1      36.408  29.494  30.093  1.00  0.00     0.040 A 
ATOM     77  F   UNL A   1      38.173  28.605  31.357  1.00  0.00    -0.206 F 
ATOM     78  C   UNL A   1      35.920  30.016  28.896  1.00  0.00     0.006 A 
ENDBRANCH  50  71
BRANCH  62  79
ATOM     79  C   UNL A   1      44.289  32.528  31.212  1.00  0.00     0.057 A 
ATOM     80  C   UNL A   1      44.556  33.587  30.334  1.00  0.00     0.134 A 
ATOM     81  C   UNL A   1      44.220  32.827  32.580  1.00  0.00     0.134 A 
ATOM     82  F   UNL A   1      44.648  33.368  29.013  1.00  0.00    -0.206 F 
ATOM     83  C   UNL A   1      44.783  34.883  30.800  1.00  0.00     0.040 A 
ATOM     84  C   UNL A   1      44.414  34.125  33.055  1.00  0.00     0.040 A 
ATOM     85  F   UNL A   1      43.958  31.864  33.476  1.00  0.00    -0.206 F 
ATOM     86  C   UNL A   1      44.708  35.155  32.164  1.00  0.00     0.006 A 
ENDBRANCH  62  79
ENDBRANCH  36  37
ENDBRANCH  28  31
ENDBRANCH  26  27
ENDBRANCH  25  26
ENDBRANCH  24  25
ENDBRANCH   3  24
TORSDOF 16
ENDMDL
MODEL 2
REMARK VINA RESULT:     -10.8      1.555      6.316
REMARK SMILES CCOC(=O)[C@H]1CCCN(C(=O)N[C@](C)(CC)C(=O)NCCCNC(=O)c2ccc(-c3c4nc(c(-c5c(F)cccc5F)c5ccc([nH]5)c(-c5c(F)cccc5F)c5nc(c(-c6c(F)cccc6F)c6ccc3[nH]6)C=C5)C=C4)cc2)C1
REMARK SMILES IDX 18 1 19 2 20 3 14 5 15 6 13 7 11 8 12 9 10 11 6 12 7 13
REMARK SMILES IDX 81 14 8 15 9 16 4 17 5 18 3 19 2 20 1 21 16 22 17 23 21 24
REMARK SMILES IDX 22 25 23 26 24 27 25 28 26 30 27 31 28 32 80 33 29 34 79 35
REMARK SMILES IDX 30 36 31 37 32 38 73 39 33 40 78 41 72 42 74 43 34 44 77 45
REMARK SMILES IDX 71 46 70 47 35 49 61 50 44 51 60 52 45 53 48 54 59 55 75 56
REMARK SMILES IDX 46 57 47 58 58 60 76 61 49 62 36 63 37 64 42 65 38 66 39 67
REMARK SMILES IDX 41 68 43 69 40 70 62 71 63 72 68 73 64 74 65 75 67 76 69 77
REMARK SMILES IDX 66 78 50 79 51 80 56 81 52 82 53 83 55 84 57 85 54 86
REMARK H PARENT 20 4 13 10 24 29 74 48 48 59
REMARK Flexibility Score: inf
ROOT
ATOM      1  C   UNL A   1      35.924  22.665  23.942  1.00  0.00     0.245 C 
ATOM      2  O   UNL A   1      35.546  22.957  22.798  1.00  0.00    -0.272 OA
ATOM      3  N   UNL A   1      36.563  21.471  24.014  1.00  0.00    -0.354 N 
ATOM      4  H   UNL A   1      37.145  21.277  23.245  1.00  0.00     0.163 HD
ENDROOT
BRANCH   1   5
ATOM      5  C   UNL A   1      35.533  23.553  25.186  1.00  0.00     0.117 C 
ATOM      6  C   UNL A   1      36.913  24.031  25.719  1.00  0.00     0.045 C 
BRANCH   5   7
ATOM      7  N   UNL A   1      34.877  22.752  26.247  1.00  0.00    -0.324 N 
ATOM      8  C   UNL A   1      33.852  21.872  26.322  1.00  0.00     0.318 C 
ATOM      9  O   UNL A   1      33.632  21.450  27.462  1.00  0.00    -0.249 OA
ATOM     10  H   UNL A   1      35.295  22.899  27.127  1.00  0.00     0.166 HD
BRANCH   8  11
ATOM     11  N   UNL A   1      33.072  21.481  25.255  1.00  0.00    -0.324 N 
ATOM     12  C   UNL A   1      33.025  19.665  23.502  1.00  0.00     0.119 C 
ATOM     13  C   UNL A   1      32.148  20.558  22.620  1.00  0.00     0.019 C 
ATOM     14  C   UNL A   1      32.968  20.030  24.994  1.00  0.00     0.136 C 
ATOM     15  C   UNL A   1      32.394  22.019  22.939  1.00  0.00     0.023 C 
ATOM     16  C   UNL A   1      32.151  22.251  24.421  1.00  0.00     0.121 C 
BRANCH  12  17
ATOM     17  C   UNL A   1      32.615  18.229  23.265  1.00  0.00     0.310 C 
ATOM     18  O   UNL A   1      32.218  17.807  22.183  1.00  0.00    -0.252 OA
BRANCH  17  19
ATOM     19  O   UNL A   1      32.620  17.517  24.426  1.00  0.00    -0.466 OA
BRANCH  19  20
ATOM     20  C   UNL A   1      33.277  16.243  24.386  1.00  0.00     0.229 C 
ATOM     21  C   UNL A   1      34.668  16.361  24.981  1.00  0.00     0.049 C 
ENDBRANCH  19  20
ENDBRANCH  17  19
ENDBRANCH  12  17
ENDBRANCH   8  11
ENDBRANCH   5   7
BRANCH   5  22
ATOM     22  C   UNL A   1      34.501  24.608  24.695  1.00  0.00     0.035 C 
ATOM     23  C   UNL A   1      33.900  25.521  25.747  1.00  0.00     0.007 C 
ENDBRANCH   5  22
ENDBRANCH   1   5
BRANCH   3  24
ATOM     24  C   UNL A   1      36.542  20.431  25.023  1.00  0.00     0.117 C 
BRANCH  24  25
ATOM     25  C   UNL A   1      37.818  19.576  24.987  1.00  0.00     0.042 C 
BRANCH  25  26
ATOM     26  C   UNL A   1      38.983  20.082  25.839  1.00  0.00     0.118 C 
BRANCH  26  27
ATOM     27  N   UNL A   1      40.089  19.143  25.898  1.00  0.00    -0.352 N 
ATOM     28  C   UNL A   1      41.432  19.359  26.065  1.00  0.00     0.251 C 
ATOM     29  H   UNL A   1      39.832  18.197  25.804  1.00  0.00     0.163 HD
ATOM     30  O   UNL A   1      42.212  18.425  25.897  1.00  0.00    -0.269 OA
BRANCH  28  31
ATOM     31  C   UNL A   1      41.961  20.696  26.419  1.00  0.00     0.039 A 
ATOM     32  C   UNL A   1      42.266  21.580  25.380  1.00  0.00     0.014 A 
ATOM     33  C   UNL A   1      42.216  21.068  27.743  1.00  0.00     0.014 A 
ATOM     34  C   UNL A   1      42.775  22.847  25.668  1.00  0.00     0.010 A 
ATOM     35  C   UNL A   1      42.654  22.363  28.033  1.00  0.00     0.010 A 
ATOM     36  C   UNL A   1      42.944  23.264  26.999  1.00  0.00    -0.014 A 
BRANCH  36  37
ATOM     37  C   UNL A   1      43.408  24.645  27.300  1.00  0.00     0.031 A 
ATOM     38  C   UNL A   1      42.438  25.707  27.744  1.00  0.00     0.074 A 
ATOM     39  C   UNL A   1      44.716  24.945  27.162  1.00  0.00     0.049 A 
ATOM     40  N   UNL A   1      42.672  26.954  28.070  1.00  0.00    -0.248 NA
ATOM     41  C   UNL A   1      41.019  25.327  27.815  1.00  0.00     0.031 C 
ATOM     42  C   UNL A   1      45.750  24.018  26.695  1.00  0.00     0.029 A 
ATOM     43  N   UNL A   1      45.401  26.108  27.408  1.00  0.00    -0.354 N 
ATOM     44  C   UNL A   1      41.435  27.503  28.388  1.00  0.00     0.074 A 
ATOM     45  C   UNL A   1      40.446  26.472  28.156  1.00  0.00     0.031 C 
ATOM     46  C   UNL A   1      46.941  24.636  26.726  1.00  0.00     0.029 A 
ATOM     47  C   UNL A   1      46.753  26.011  27.177  1.00  0.00     0.049 A 
ATOM     48  H   UNL A   1      44.967  26.934  27.721  1.00  0.00     0.167 HD
ATOM     49  C   UNL A   1      41.152  28.742  28.857  1.00  0.00     0.037 A 
ATOM     50  C   UNL A   1      47.731  26.927  27.311  1.00  0.00     0.037 A 
ATOM     51  C   UNL A   1      42.139  29.765  29.096  1.00  0.00     0.049 A 
ATOM     52  C   UNL A   1      47.382  28.302  27.809  1.00  0.00     0.074 A 
ATOM     53  C   UNL A   1      41.954  31.039  29.603  1.00  0.00     0.029 A 
ATOM     54  N   UNL A   1      43.494  29.630  28.841  1.00  0.00    -0.354 N 
ATOM     55  N   UNL A   1      46.216  28.781  28.171  1.00  0.00    -0.248 NA
ATOM     56  C   UNL A   1      48.488  29.261  27.928  1.00  0.00     0.031 C 
ATOM     57  C   UNL A   1      43.191  31.693  29.610  1.00  0.00     0.029 A 
ATOM     58  C   UNL A   1      44.155  30.806  29.161  1.00  0.00     0.049 A 
ATOM     59  H   UNL A   1      43.925  28.819  28.485  1.00  0.00     0.167 HD
ATOM     60  C   UNL A   1      46.455  30.085  28.588  1.00  0.00     0.074 A 
ATOM     61  C   UNL A   1      47.879  30.310  28.460  1.00  0.00     0.031 C 
ATOM     62  C   UNL A   1      45.574  31.014  29.034  1.00  0.00     0.037 A 
BRANCH  49  63
ATOM     63  C   UNL A   1      39.715  29.062  29.160  1.00  0.00     0.057 A 
ATOM     64  C   UNL A   1      38.831  29.490  28.160  1.00  0.00     0.134 A 
ATOM     65  C   UNL A   1      39.192  28.882  30.447  1.00  0.00     0.134 A 
ATOM     66  F   UNL A   1      39.267  29.692  26.907  1.00  0.00    -0.206 F 
ATOM     67  C   UNL A   1      37.486  29.744  28.433  1.00  0.00     0.040 A 
ATOM     68  C   UNL A   1      37.843  29.105  30.725  1.00  0.00     0.040 A 
ATOM     69  F   UNL A   1      39.979  28.466  31.450  1.00  0.00    -0.206 F 
ATOM     70  C   UNL A   1      36.986  29.543  29.717  1.00  0.00     0.006 A 
ENDBRANCH  49  63
BRANCH  50  71
ATOM     71  C   UNL A   1      49.140  26.579  26.985  1.00  0.00     0.057 A 
ATOM     72  C   UNL A   1      49.640  26.721  25.686  1.00  0.00     0.134 A 
ATOM     73  C   UNL A   1      50.005  26.055  27.954  1.00  0.00     0.134 A 
ATOM     74  F   UNL A   1      48.855  27.200  24.709  1.00  0.00    -0.206 F 
ATOM     75  C   UNL A   1      50.935  26.321  25.351  1.00  0.00     0.040 A 
ATOM     76  C   UNL A   1      51.313  25.682  27.641  1.00  0.00     0.040 A 
ATOM     77  F   UNL A   1      49.592  25.901  29.221  1.00  0.00    -0.206 F 
ATOM     78  C   UNL A   1      51.776  25.802  26.333  1.00  0.00     0.006 A 
ENDBRANCH  50  71
BRANCH  62  79
ATOM     79  C   UNL A   1      46.137  32.343  29.450  1.00  0.00     0.057 A 
ATOM     80  C   UNL A   1      46.252  33.415  28.555  1.00  0.00     0.134 A 
ATOM     81  C   UNL A   1      46.565  32.554  30.768  1.00  0.00     0.134 A 
ATOM     82  F   UNL A   1      45.873  33.276  27.276  1.00  0.00    -0.206 F 
ATOM     83  C   UNL A   1      46.807  34.635  28.945  1.00  0.00     0.040 A 
ATOM     84  C   UNL A   1      47.092  33.780  31.177  1.00  0.00     0.040 A 
ATOM     85  F   UNL A   1      46.475  31.576  31.680  1.00  0.00    -0.206 F 
ATOM     86  C   UNL A   1      47.225  34.821  30.260  1.00  0.00     0.006 A 
ENDBRANCH  62  79
ENDBRANCH  36  37
ENDBRANCH  28  31
ENDBRANCH  26  27
ENDBRANCH  25  26
ENDBRANCH  24  25
ENDBRANCH   3  24
TORSDOF 16
ENDMDL
MODEL 3
REMARK VINA RESULT:     -10.7      4.563      9.144
REMARK SMILES CCOC(=O)[C@H]1CCCN(C(=O)N[C@](C)(CC)C(=O)NCCCNC(=O)c2ccc(-c3c4nc(c(-c5c(F)cccc5F)c5ccc([nH]5)c(-c5c(F)cccc5F)c5nc(c(-c6c(F)cccc6F)c6ccc3[nH]6)C=C5)C=C4)cc2)C1
REMARK SMILES IDX 18 1 19 2 20 3 14 5 15 6 13 7 11 8 12 9 10 11 6 12 7 13
REMARK SMILES IDX 81 14 8 15 9 16 4 17 5 18 3 19 2 20 1 21 16 22 17 23 21 24
REMARK SMILES IDX 22 25 23 26 24 27 25 28 26 30 27 31 28 32 80 33 29 34 79 35
REMARK SMILES IDX 30 36 31 37 32 38 73 39 33 40 78 41 72 42 74 43 34 44 77 45
REMARK SMILES IDX 71 46 70 47 35 49 61 50 44 51 60 52 45 53 48 54 59 55 75 56
REMARK SMILES IDX 46 57 47 58 58 60 76 61 49 62 36 63 37 64 42 65 38 66 39 67
REMARK SMILES IDX 41 68 43 69 40 70 62 71 63 72 68 73 64 74 65 75 67 76 69 77
REMARK SMILES IDX 66 78 50 79 51 80 56 81 52 82 53 83 55 84 57 85 54 86
REMARK H PARENT 20 4 13 10 24 29 74 48 48 59
REMARK Flexibility Score: inf
ROOT
ATOM      1  C   UNL A   1      31.772  28.275  26.911  1.00  0.00     0.245 C 
ATOM      2  O   UNL A   1      31.492  27.807  28.024  1.00  0.00    -0.272 OA
ATOM      3  N   UNL A   1      31.796  29.631  26.884  1.00  0.00    -0.354 N 
ATOM      4  H   UNL A   1      32.169  30.046  27.695  1.00  0.00     0.163 HD
ENDROOT
BRANCH   1   5
ATOM      5  C   UNL A   1      31.920  27.347  25.644  1.00  0.00     0.117 C 
ATOM      6  C   UNL A   1      32.687  28.252  24.638  1.00  0.00     0.045 C 
BRANCH   5   7
ATOM      7  N   UNL A   1      30.602  27.010  25.054  1.00  0.00    -0.324 N 
ATOM      8  C   UNL A   1      30.150  26.252  24.029  1.00  0.00     0.318 C 
ATOM      9  O   UNL A   1      28.923  26.282  23.883  1.00  0.00    -0.249 OA
ATOM     10  H   UNL A   1      29.864  27.453  25.532  1.00  0.00     0.166 HD
BRANCH   8  11
ATOM     11  N   UNL A   1      30.951  25.525  23.175  1.00  0.00    -0.324 N 
ATOM     12  C   UNL A   1      32.387  23.449  23.225  1.00  0.00     0.119 C 
ATOM     13  C   UNL A   1      33.161  23.972  22.011  1.00  0.00     0.019 C 
ATOM     14  C   UNL A   1      30.984  24.060  23.367  1.00  0.00     0.136 C 
ATOM     15  C   UNL A   1      33.106  25.486  21.963  1.00  0.00     0.023 C 
ATOM     16  C   UNL A   1      31.653  25.930  21.958  1.00  0.00     0.121 C 
BRANCH  12  17
ATOM     17  C   UNL A   1      32.329  21.941  23.125  1.00  0.00     0.310 C 
ATOM     18  O   UNL A   1      31.842  21.342  22.171  1.00  0.00    -0.252 OA
BRANCH  17  19
ATOM     19  O   UNL A   1      32.763  21.355  24.275  1.00  0.00    -0.466 OA
BRANCH  19  20
ATOM     20  C   UNL A   1      33.863  21.995  24.937  1.00  0.00     0.229 C 
ATOM     21  C   UNL A   1      34.868  20.951  25.393  1.00  0.00     0.049 C 
ENDBRANCH  19  20
ENDBRANCH  17  19
ENDBRANCH  12  17
ENDBRANCH   8  11
ENDBRANCH   5   7
BRANCH   5  22
ATOM     22  C   UNL A   1      32.570  26.017  26.119  1.00  0.00     0.035 C 
ATOM     23  C   UNL A   1      33.976  25.727  25.628  1.00  0.00     0.007 C 
ENDBRANCH   5  22
ENDBRANCH   1   5
BRANCH   3  24
ATOM     24  C   UNL A   1      31.371  30.578  25.873  1.00  0.00     0.117 C 
BRANCH  24  25
ATOM     25  C   UNL A   1      31.300  32.009  26.426  1.00  0.00     0.042 C 
BRANCH  25  26
ATOM     26  C   UNL A   1      32.606  32.575  26.984  1.00  0.00     0.118 C 
BRANCH  26  27
ATOM     27  N   UNL A   1      32.450  33.898  27.559  1.00  0.00    -0.352 N 
ATOM     28  C   UNL A   1      33.138  34.518  28.569  1.00  0.00     0.251 C 
ATOM     29  H   UNL A   1      31.731  34.440  27.158  1.00  0.00     0.163 HD
ATOM     30  O   UNL A   1      32.711  35.578  29.020  1.00  0.00    -0.269 OA
BRANCH  28  31
ATOM     31  C   UNL A   1      34.369  33.925  29.141  1.00  0.00     0.039 A 
ATOM     32  C   UNL A   1      34.231  32.931  30.114  1.00  0.00     0.014 A 
ATOM     33  C   UNL A   1      35.645  34.371  28.781  1.00  0.00     0.014 A 
ATOM     34  C   UNL A   1      35.365  32.352  30.685  1.00  0.00     0.010 A 
ATOM     35  C   UNL A   1      36.779  33.738  29.298  1.00  0.00     0.010 A 
ATOM     36  C   UNL A   1      36.651  32.726  30.260  1.00  0.00    -0.014 A 
BRANCH  36  37
ATOM     37  C   UNL A   1      37.852  32.045  30.814  1.00  0.00     0.031 A 
ATOM     38  C   UNL A   1      38.406  32.429  32.160  1.00  0.00     0.074 A 
ATOM     39  C   UNL A   1      38.452  31.078  30.091  1.00  0.00     0.049 A 
ATOM     40  N   UNL A   1      39.429  31.926  32.805  1.00  0.00    -0.248 NA
ATOM     41  C   UNL A   1      37.738  33.532  32.868  1.00  0.00     0.031 C 
ATOM     42  C   UNL A   1      38.041  30.645  28.753  1.00  0.00     0.029 A 
ATOM     43  N   UNL A   1      39.530  30.279  30.380  1.00  0.00    -0.354 N 
ATOM     44  C   UNL A   1      39.523  32.645  33.991  1.00  0.00     0.074 A 
ATOM     45  C   UNL A   1      38.493  33.660  33.949  1.00  0.00     0.031 C 
ATOM     46  C   UNL A   1      38.830  29.635  28.355  1.00  0.00     0.029 A 
ATOM     47  C   UNL A   1      39.826  29.373  29.389  1.00  0.00     0.049 A 
ATOM     48  H   UNL A   1      40.042  30.347  31.217  1.00  0.00     0.167 HD
ATOM     49  C   UNL A   1      40.370  32.459  35.032  1.00  0.00     0.037 A 
ATOM     50  C   UNL A   1      40.792  28.437  29.320  1.00  0.00     0.037 A 
ATOM     51  C   UNL A   1      41.390  31.442  35.076  1.00  0.00     0.049 A 
ATOM     52  C   UNL A   1      41.734  28.272  30.480  1.00  0.00     0.074 A 
ATOM     53  C   UNL A   1      42.275  31.152  36.100  1.00  0.00     0.029 A 
ATOM     54  N   UNL A   1      41.664  30.551  34.050  1.00  0.00    -0.354 N 
ATOM     55  N   UNL A   1      41.764  28.915  31.622  1.00  0.00    -0.248 NA
ATOM     56  C   UNL A   1      42.772  27.241  30.345  1.00  0.00     0.031 C 
ATOM     57  C   UNL A   1      43.115  30.117  35.676  1.00  0.00     0.029 A 
ATOM     58  C   UNL A   1      42.717  29.724  34.409  1.00  0.00     0.049 A 
ATOM     59  H   UNL A   1      41.181  30.510  33.192  1.00  0.00     0.167 HD
ATOM     60  C   UNL A   1      42.800  28.347  32.352  1.00  0.00     0.074 A 
ATOM     61  C   UNL A   1      43.356  27.290  31.533  1.00  0.00     0.031 C 
ATOM     62  C   UNL A   1      43.256  28.672  33.586  1.00  0.00     0.037 A 
BRANCH  49  63
ATOM     63  C   UNL A   1      40.225  33.366  36.221  1.00  0.00     0.057 A 
ATOM     64  C   UNL A   1      40.966  34.551  36.337  1.00  0.00     0.134 A 
ATOM     65  C   UNL A   1      39.293  33.089  37.229  1.00  0.00     0.134 A 
ATOM     66  F   UNL A   1      41.883  34.872  35.412  1.00  0.00    -0.206 F 
ATOM     67  C   UNL A   1      40.798  35.415  37.420  1.00  0.00     0.040 A 
ATOM     68  C   UNL A   1      39.096  33.960  38.301  1.00  0.00     0.040 A 
ATOM     69  F   UNL A   1      38.543  31.978  37.177  1.00  0.00    -0.206 F 
ATOM     70  C   UNL A   1      39.853  35.125  38.402  1.00  0.00     0.006 A 
ENDBRANCH  49  63
BRANCH  50  71
ATOM     71  C   UNL A   1      40.916  27.569  28.119  1.00  0.00     0.057 A 
ATOM     72  C   UNL A   1      41.650  27.979  27.000  1.00  0.00     0.134 A 
ATOM     73  C   UNL A   1      40.268  26.330  28.044  1.00  0.00     0.134 A 
ATOM     74  F   UNL A   1      42.279  29.164  27.003  1.00  0.00    -0.206 F 
ATOM     75  C   UNL A   1      41.706  27.209  25.838  1.00  0.00     0.040 A 
ATOM     76  C   UNL A   1      40.342  25.534  26.900  1.00  0.00     0.040 A 
ATOM     77  F   UNL A   1      39.555  25.872  29.084  1.00  0.00    -0.206 F 
ATOM     78  C   UNL A   1      41.052  25.980  25.787  1.00  0.00     0.006 A 
ENDBRANCH  50  71
BRANCH  62  79
ATOM     79  C   UNL A   1      44.385  27.848  34.136  1.00  0.00     0.057 A 
ATOM     80  C   UNL A   1      44.161  26.653  34.834  1.00  0.00     0.134 A 
ATOM     81  C   UNL A   1      45.715  28.252  33.959  1.00  0.00     0.134 A 
ATOM     82  F   UNL A   1      42.911  26.215  35.049  1.00  0.00    -0.206 F 
ATOM     83  C   UNL A   1      45.216  25.912  35.369  1.00  0.00     0.040 A 
ATOM     84  C   UNL A   1      46.779  27.503  34.462  1.00  0.00     0.040 A 
ATOM     85  F   UNL A   1      46.002  29.380  33.293  1.00  0.00    -0.206 F 
ATOM     86  C   UNL A   1      46.530  26.334  35.179  1.00  0.00     0.006 A 
ENDBRANCH  62  79
ENDBRANCH  36  37
ENDBRANCH  28  31
ENDBRANCH  26  27
ENDBRANCH  25  26
ENDBRANCH  24  25
ENDBRANCH   3  24
TORSDOF 16
ENDMDL
