MODEL 1
REMARK VINA RESULT:     -12.1      0.000      0.000
REMARK SMILES Cc1ccc(N2CC[C@H]([NH+]3CCOCC3)[C@H](CCC(=O)NCCCNC(=O)c3ccc(-c4c5nc(c(-c6c(F)cccc6F)c6ccc([nH]6)c(-c6c(F)cccc6F)c6nc(c(-c7c(F)cccc7F)c7ccc4[nH]7)C=C6)C=C5)cc3)C2)nc1
REMARK SMILES IDX 22 1 21 2 19 3 20 4 18 6 17 7 16 8 6 9 7 10 82 11 8 12 9 13
REMARK SMILES IDX 5 14 1 15 2 16 3 17 84 18 4 19 83 20 10 21 11 22 15 23 12 25
REMARK SMILES IDX 14 26 13 27 23 28 24 29 25 30 26 31 27 33 28 34 29 35 81 36
REMARK SMILES IDX 30 37 80 38 31 39 32 40 33 41 74 42 34 43 79 44 73 45 75 46
REMARK SMILES IDX 35 47 78 48 72 49 71 50 36 52 62 53 45 54 61 55 46 56 49 57
REMARK SMILES IDX 60 58 76 59 47 60 48 61 59 63 77 64 50 65 37 66 38 67 43 68
REMARK SMILES IDX 39 69 40 70 42 71 44 72 41 73 63 74 64 75 69 76 65 77 66 78
REMARK SMILES IDX 68 79 70 80 67 81 51 82 52 83 57 84 53 85 54 86 56 87 58 88
REMARK SMILES IDX 55 89
REMARK H PARENT 21 5 10 24 25 32 75 51 49 62
REMARK Flexibility Score: inf
ROOT
ATOM      1  C   UNL A   1      36.835  20.525  24.904  1.00  0.00     0.117 C 
ENDROOT
BRANCH   1   2
ATOM      2  N   UNL A   1      37.133  21.665  24.049  1.00  0.00    -0.356 N 
ATOM      3  C   UNL A   1      36.315  22.665  23.608  1.00  0.00     0.220 C 
ATOM      4  O   UNL A   1      36.727  23.390  22.701  1.00  0.00    -0.275 OA
ATOM      5  H   UNL A   1      38.066  21.722  23.742  1.00  0.00     0.163 HD
BRANCH   3   6
ATOM      6  C   UNL A   1      34.991  22.945  24.304  1.00  0.00     0.100 C 
BRANCH   6   7
ATOM      7  C   UNL A   1      34.989  23.602  25.705  1.00  0.00     0.021 C 
BRANCH   7   8
ATOM      8  C   UNL A   1      33.605  23.954  26.286  1.00  0.00     0.067 C 
ATOM      9  N   UNL A   1      31.968  22.132  25.811  1.00  0.00    -0.356 N 
ATOM     10  C   UNL A   1      31.037  23.014  25.144  1.00  0.00     0.124 C 
ATOM     11  C   UNL A   1      32.854  22.697  26.809  1.00  0.00     0.127 C 
ATOM     12  C   UNL A   1      31.768  24.181  24.499  1.00  0.00     0.087 C 
ATOM     13  C   UNL A   1      32.610  24.923  25.543  1.00  0.00     0.190 C 
BRANCH   9  14
ATOM     14  C   UNL A   1      32.341  20.980  25.149  1.00  0.00     0.128 A 
ATOM     15  C   UNL A   1      33.318  17.378  23.104  1.00  0.00     0.046 C 
ATOM     16  C   UNL A   1      32.985  18.621  23.860  1.00  0.00    -0.033 A 
ATOM     17  C   UNL A   1      33.273  18.760  25.213  1.00  0.00     0.009 A 
ATOM     18  C   UNL A   1      32.381  19.699  23.227  1.00  0.00     0.117 A 
ATOM     19  C   UNL A   1      32.959  19.953  25.859  1.00  0.00     0.047 A 
ATOM     20  N   UNL A   1      32.040  20.853  23.843  1.00  0.00    -0.239 NA
ENDBRANCH   9  14
BRANCH  13  21
ATOM     21  N   UNL A   1      33.079  26.278  25.170  1.00  0.00    -0.328 N 
ATOM     22  C   UNL A   1      33.263  27.192  26.331  1.00  0.00     0.291 C 
ATOM     23  C   UNL A   1      32.395  27.024  24.106  1.00  0.00     0.291 C 
ATOM     24  H   UNL A   1      33.967  25.999  24.756  1.00  0.00     0.348 HD
ATOM     25  C   UNL A   1      32.066  28.105  26.683  1.00  0.00     0.221 C 
ATOM     26  C   UNL A   1      31.198  27.877  24.522  1.00  0.00     0.221 C 
ATOM     27  O   UNL A   1      31.565  28.803  25.543  1.00  0.00    -0.370 OA
ENDBRANCH  13  21
ENDBRANCH   7   8
ENDBRANCH   6   7
ENDBRANCH   3   6
ENDBRANCH   1   2
BRANCH   1  28
ATOM     28  C   UNL A   1      38.032  19.573  24.925  1.00  0.00     0.042 C 
BRANCH  28  29
ATOM     29  C   UNL A   1      39.082  19.946  25.943  1.00  0.00     0.118 C 
BRANCH  29  30
ATOM     30  N   UNL A   1      40.275  19.130  25.813  1.00  0.00    -0.352 N 
ATOM     31  C   UNL A   1      41.594  19.490  25.970  1.00  0.00     0.251 C 
ATOM     32  H   UNL A   1      40.119  18.187  25.580  1.00  0.00     0.163 HD
ATOM     33  O   UNL A   1      42.476  18.715  25.625  1.00  0.00    -0.269 OA
BRANCH  31  34
ATOM     34  C   UNL A   1      41.948  20.823  26.519  1.00  0.00     0.039 A 
ATOM     35  C   UNL A   1      42.313  21.840  25.633  1.00  0.00     0.014 A 
ATOM     36  C   UNL A   1      41.926  21.078  27.892  1.00  0.00     0.014 A 
ATOM     37  C   UNL A   1      42.602  23.117  26.121  1.00  0.00     0.010 A 
ATOM     38  C   UNL A   1      42.090  22.375  28.363  1.00  0.00     0.010 A 
ATOM     39  C   UNL A   1      42.457  23.405  27.489  1.00  0.00    -0.014 A 
BRANCH  39  40
ATOM     40  C   UNL A   1      42.734  24.760  28.031  1.00  0.00     0.031 A 
ATOM     41  C   UNL A   1      44.137  25.134  28.433  1.00  0.00     0.074 A 
ATOM     42  C   UNL A   1      41.722  25.633  28.210  1.00  0.00     0.049 A 
ATOM     43  N   UNL A   1      44.574  26.236  28.988  1.00  0.00    -0.248 NA
ATOM     44  C   UNL A   1      45.186  24.123  28.211  1.00  0.00     0.031 C 
ATOM     45  C   UNL A   1      40.313  25.373  27.908  1.00  0.00     0.029 A 
ATOM     46  N   UNL A   1      41.725  26.916  28.697  1.00  0.00    -0.354 N 
ATOM     47  C   UNL A   1      45.935  26.041  29.194  1.00  0.00     0.074 A 
ATOM     48  C   UNL A   1      46.241  24.694  28.770  1.00  0.00     0.031 C 
ATOM     49  C   UNL A   1      39.594  26.474  28.182  1.00  0.00     0.029 A 
ATOM     50  C   UNL A   1      40.480  27.499  28.722  1.00  0.00     0.049 A 
ATOM     51  H   UNL A   1      42.540  27.376  28.999  1.00  0.00     0.167 HD
ATOM     52  C   UNL A   1      46.856  26.917  29.660  1.00  0.00     0.037 A 
ATOM     53  C   UNL A   1      40.098  28.721  29.140  1.00  0.00     0.037 A 
ATOM     54  C   UNL A   1      46.554  28.268  30.049  1.00  0.00     0.049 A 
ATOM     55  C   UNL A   1      41.140  29.670  29.668  1.00  0.00     0.074 A 
ATOM     56  C   UNL A   1      47.422  29.253  30.485  1.00  0.00     0.029 A 
ATOM     57  N   UNL A   1      45.284  28.824  30.047  1.00  0.00    -0.354 N 
ATOM     58  N   UNL A   1      42.434  29.494  29.792  1.00  0.00    -0.248 NA
ATOM     59  C   UNL A   1      40.670  30.991  30.107  1.00  0.00     0.031 C 
ATOM     60  C   UNL A   1      46.670  30.392  30.792  1.00  0.00     0.029 A 
ATOM     61  C   UNL A   1      45.343  30.133  30.495  1.00  0.00     0.049 A 
ATOM     62  H   UNL A   1      44.463  28.358  29.769  1.00  0.00     0.167 HD
ATOM     63  C   UNL A   1      42.933  30.690  30.293  1.00  0.00     0.074 A 
ATOM     64  C   UNL A   1      41.808  31.588  30.431  1.00  0.00     0.031 C 
ATOM     65  C   UNL A   1      44.210  31.016  30.612  1.00  0.00     0.037 A 
BRANCH  52  66
ATOM     66  C   UNL A   1      48.278  26.445  29.760  1.00  0.00     0.057 A 
ATOM     67  C   UNL A   1      49.189  26.614  28.709  1.00  0.00     0.134 A 
ATOM     68  C   UNL A   1      48.755  25.850  30.936  1.00  0.00     0.134 A 
ATOM     69  F   UNL A   1      48.795  27.164  27.550  1.00  0.00    -0.206 F 
ATOM     70  C   UNL A   1      50.515  26.189  28.813  1.00  0.00     0.040 A 
ATOM     71  C   UNL A   1      50.085  25.448  31.063  1.00  0.00     0.040 A 
ATOM     72  F   UNL A   1      47.939  25.662  31.984  1.00  0.00    -0.206 F 
ATOM     73  C   UNL A   1      50.968  25.612  29.998  1.00  0.00     0.006 A 
ENDBRANCH  52  66
BRANCH  53  74
ATOM     74  C   UNL A   1      38.672  29.129  29.065  1.00  0.00     0.057 A 
ATOM     75  C   UNL A   1      38.124  29.630  27.877  1.00  0.00     0.134 A 
ATOM     76  C   UNL A   1      37.829  29.061  30.181  1.00  0.00     0.134 A 
ATOM     77  F   UNL A   1      38.883  29.738  26.776  1.00  0.00    -0.206 F 
ATOM     78  C   UNL A   1      36.802  30.075  27.808  1.00  0.00     0.040 A 
ATOM     79  C   UNL A   1      36.497  29.475  30.120  1.00  0.00     0.040 A 
ATOM     80  F   UNL A   1      38.287  28.583  31.347  1.00  0.00    -0.206 F 
ATOM     81  C   UNL A   1      35.984  29.995  28.933  1.00  0.00     0.006 A 
ENDBRANCH  53  74
BRANCH  65  82
ATOM     82  C   UNL A   1      44.462  32.413  31.100  1.00  0.00     0.057 A 
ATOM     83  C   UNL A   1      44.461  32.734  32.463  1.00  0.00     0.134 A 
ATOM     84  C   UNL A   1      44.752  33.441  30.193  1.00  0.00     0.134 A 
ATOM     85  F   UNL A   1      44.179  31.798  33.382  1.00  0.00    -0.206 F 
ATOM     86  C   UNL A   1      44.712  34.034  32.905  1.00  0.00     0.040 A 
ATOM     87  C   UNL A   1      45.035  34.737  30.625  1.00  0.00     0.040 A 
ATOM     88  F   UNL A   1      44.780  33.198  28.874  1.00  0.00    -0.206 F 
ATOM     89  C   UNL A   1      45.008  35.038  31.984  1.00  0.00     0.006 A 
ENDBRANCH  65  82
ENDBRANCH  39  40
ENDBRANCH  31  34
ENDBRANCH  29  30
ENDBRANCH  28  29
ENDBRANCH   1  28
TORSDOF 14
ENDMDL
MODEL 2
REMARK VINA RESULT:     -12.0      3.993      9.458
REMARK SMILES Cc1ccc(N2CC[C@H]([NH+]3CCOCC3)[C@H](CCC(=O)NCCCNC(=O)c3ccc(-c4c5nc(c(-c6c(F)cccc6F)c6ccc([nH]6)c(-c6c(F)cccc6F)c6nc(c(-c7c(F)cccc7F)c7ccc4[nH]7)C=C6)C=C5)cc3)C2)nc1
REMARK SMILES IDX 22 1 21 2 19 3 20 4 18 6 17 7 16 8 6 9 7 10 82 11 8 12 9 13
REMARK SMILES IDX 5 14 1 15 2 16 3 17 84 18 4 19 83 20 10 21 11 22 15 23 12 25
REMARK SMILES IDX 14 26 13 27 23 28 24 29 25 30 26 31 27 33 28 34 29 35 81 36
REMARK SMILES IDX 30 37 80 38 31 39 32 40 33 41 74 42 34 43 79 44 73 45 75 46
REMARK SMILES IDX 35 47 78 48 72 49 71 50 36 52 62 53 45 54 61 55 46 56 49 57
REMARK SMILES IDX 60 58 76 59 47 60 48 61 59 63 77 64 50 65 37 66 38 67 43 68
REMARK SMILES IDX 39 69 40 70 42 71 44 72 41 73 63 74 64 75 69 76 65 77 66 78
REMARK SMILES IDX 68 79 70 80 67 81 51 82 52 83 57 84 53 85 54 86 56 87 58 88
REMARK SMILES IDX 55 89
REMARK H PARENT 21 5 10 24 25 32 75 51 49 62
REMARK Flexibility Score: inf
ROOT
ATOM      1  C   UNL A   1      31.769  30.622  27.009  1.00  0.00     0.117 C 
ENDROOT
BRANCH   1   2
ATOM      2  N   UNL A   1      33.083  30.397  27.592  1.00  0.00    -0.356 N 
ATOM      3  C   UNL A   1      34.067  29.525  27.222  1.00  0.00     0.220 C 
ATOM      4  O   UNL A   1      35.000  29.340  28.006  1.00  0.00    -0.275 OA
ATOM      5  H   UNL A   1      33.295  30.958  28.373  1.00  0.00     0.163 HD
BRANCH   3   6
ATOM      6  C   UNL A   1      34.065  28.901  25.834  1.00  0.00     0.100 C 
BRANCH   6   7
ATOM      7  C   UNL A   1      33.353  27.546  25.608  1.00  0.00     0.021 C 
BRANCH   7   8
ATOM      8  C   UNL A   1      33.664  26.832  24.277  1.00  0.00     0.067 C 
ATOM      9  N   UNL A   1      31.965  27.424  22.550  1.00  0.00    -0.356 N 
ATOM     10  C   UNL A   1      31.607  26.048  22.294  1.00  0.00     0.124 C 
ATOM     11  C   UNL A   1      33.297  27.707  23.046  1.00  0.00     0.127 C 
ATOM     12  C   UNL A   1      31.822  25.196  23.535  1.00  0.00     0.087 C 
ATOM     13  C   UNL A   1      33.268  25.328  24.025  1.00  0.00     0.190 C 
BRANCH   9  14
ATOM     14  C   UNL A   1      30.942  28.311  22.816  1.00  0.00     0.128 A 
ATOM     15  C   UNL A   1      27.825  31.131  23.483  1.00  0.00     0.046 C 
ATOM     16  C   UNL A   1      28.945  30.167  23.275  1.00  0.00    -0.033 A 
ATOM     17  C   UNL A   1      30.123  30.236  24.011  1.00  0.00     0.009 A 
ATOM     18  C   UNL A   1      28.842  29.148  22.337  1.00  0.00     0.117 A 
ATOM     19  C   UNL A   1      31.123  29.293  23.787  1.00  0.00     0.047 A 
ATOM     20  N   UNL A   1      29.814  28.243  22.084  1.00  0.00    -0.239 NA
ENDBRANCH   9  14
BRANCH  13  21
ATOM     21  N   UNL A   1      33.738  24.297  24.980  1.00  0.00    -0.328 N 
ATOM     22  C   UNL A   1      35.217  24.123  24.999  1.00  0.00     0.291 C 
ATOM     23  C   UNL A   1      33.121  22.964  24.983  1.00  0.00     0.291 C 
ATOM     24  H   UNL A   1      33.393  24.740  25.830  1.00  0.00     0.348 HD
ATOM     25  C   UNL A   1      35.788  23.011  24.088  1.00  0.00     0.221 C 
ATOM     26  C   UNL A   1      33.715  21.927  24.032  1.00  0.00     0.221 C 
ATOM     27  O   UNL A   1      35.113  21.766  24.266  1.00  0.00    -0.370 OA
ENDBRANCH  13  21
ENDBRANCH   7   8
ENDBRANCH   6   7
ENDBRANCH   3   6
ENDBRANCH   1   2
BRANCH   1  28
ATOM     28  C   UNL A   1      31.458  32.120  27.011  1.00  0.00     0.042 C 
BRANCH  28  29
ATOM     29  C   UNL A   1      32.685  32.991  26.901  1.00  0.00     0.118 C 
BRANCH  29  30
ATOM     30  N   UNL A   1      32.550  34.214  27.670  1.00  0.00    -0.352 N 
ATOM     31  C   UNL A   1      33.229  34.609  28.800  1.00  0.00     0.251 C 
ATOM     32  H   UNL A   1      31.879  34.852  27.336  1.00  0.00     0.163 HD
ATOM     33  O   UNL A   1      32.842  35.586  29.427  1.00  0.00    -0.269 OA
BRANCH  31  34
ATOM     34  C   UNL A   1      34.401  33.835  29.279  1.00  0.00     0.039 A 
ATOM     35  C   UNL A   1      35.682  34.270  28.932  1.00  0.00     0.014 A 
ATOM     36  C   UNL A   1      34.250  32.688  30.062  1.00  0.00     0.014 A 
ATOM     37  C   UNL A   1      36.803  33.587  29.412  1.00  0.00     0.010 A 
ATOM     38  C   UNL A   1      35.362  32.087  30.641  1.00  0.00     0.010 A 
ATOM     39  C   UNL A   1      36.653  32.510  30.301  1.00  0.00    -0.014 A 
BRANCH  39  40
ATOM     40  C   UNL A   1      37.828  31.783  30.846  1.00  0.00     0.031 A 
ATOM     41  C   UNL A   1      38.341  32.114  32.224  1.00  0.00     0.074 A 
ATOM     42  C   UNL A   1      38.463  30.866  30.090  1.00  0.00     0.049 A 
ATOM     43  N   UNL A   1      39.388  31.646  32.853  1.00  0.00    -0.248 NA
ATOM     44  C   UNL A   1      37.595  33.132  32.986  1.00  0.00     0.031 C 
ATOM     45  C   UNL A   1      38.095  30.491  28.723  1.00  0.00     0.029 A 
ATOM     46  N   UNL A   1      39.557  30.084  30.363  1.00  0.00    -0.354 N 
ATOM     47  C   UNL A   1      39.434  32.321  34.067  1.00  0.00     0.074 A 
ATOM     48  C   UNL A   1      38.352  33.280  34.061  1.00  0.00     0.031 C 
ATOM     49  C   UNL A   1      38.926  29.529  28.291  1.00  0.00     0.029 A 
ATOM     50  C   UNL A   1      39.912  29.250  29.330  1.00  0.00     0.049 A 
ATOM     51  H   UNL A   1      40.043  30.117  31.219  1.00  0.00     0.167 HD
ATOM     52  C   UNL A   1      40.277  32.136  35.110  1.00  0.00     0.037 A 
ATOM     53  C   UNL A   1      40.923  28.366  29.231  1.00  0.00     0.037 A 
ATOM     54  C   UNL A   1      41.330  31.158  35.126  1.00  0.00     0.049 A 
ATOM     55  C   UNL A   1      41.855  28.190  30.399  1.00  0.00     0.074 A 
ATOM     56  C   UNL A   1      42.207  30.853  36.152  1.00  0.00     0.029 A 
ATOM     57  N   UNL A   1      41.648  30.323  34.065  1.00  0.00    -0.354 N 
ATOM     58  N   UNL A   1      41.843  28.788  31.566  1.00  0.00    -0.248 NA
ATOM     59  C   UNL A   1      42.939  27.211  30.240  1.00  0.00     0.031 C 
ATOM     60  C   UNL A   1      43.087  29.867  35.695  1.00  0.00     0.029 A 
ATOM     61  C   UNL A   1      42.723  29.519  34.405  1.00  0.00     0.049 A 
ATOM     62  H   UNL A   1      41.180  30.306  33.199  1.00  0.00     0.167 HD
ATOM     63  C   UNL A   1      42.893  28.236  32.288  1.00  0.00     0.074 A 
ATOM     64  C   UNL A   1      43.509  27.242  31.435  1.00  0.00     0.031 C 
ATOM     65  C   UNL A   1      43.313  28.525  33.545  1.00  0.00     0.037 A 
BRANCH  52  66
ATOM     66  C   UNL A   1      40.084  32.999  36.324  1.00  0.00     0.057 A 
ATOM     67  C   UNL A   1      40.812  34.181  36.514  1.00  0.00     0.134 A 
ATOM     68  C   UNL A   1      39.129  32.668  37.294  1.00  0.00     0.134 A 
ATOM     69  F   UNL A   1      41.753  34.550  35.630  1.00  0.00    -0.206 F 
ATOM     70  C   UNL A   1      40.617  34.988  37.636  1.00  0.00     0.040 A 
ATOM     71  C   UNL A   1      38.903  33.483  38.404  1.00  0.00     0.040 A 
ATOM     72  F   UNL A   1      38.392  31.554  37.172  1.00  0.00    -0.206 F 
ATOM     73  C   UNL A   1      39.653  34.643  38.581  1.00  0.00     0.006 A 
ENDBRANCH  52  66
BRANCH  53  74
ATOM     74  C   UNL A   1      41.103  27.566  27.992  1.00  0.00     0.057 A 
ATOM     75  C   UNL A   1      41.854  28.056  26.917  1.00  0.00     0.134 A 
ATOM     76  C   UNL A   1      40.508  26.308  27.838  1.00  0.00     0.134 A 
ATOM     77  F   UNL A   1      42.436  29.262  26.994  1.00  0.00    -0.206 F 
ATOM     78  C   UNL A   1      41.980  27.342  25.723  1.00  0.00     0.040 A 
ATOM     79  C   UNL A   1      40.650  25.569  26.662  1.00  0.00     0.040 A 
ATOM     80  F   UNL A   1      39.783  25.775  28.833  1.00  0.00    -0.206 F 
ATOM     81  C   UNL A   1      41.379  26.092  25.596  1.00  0.00     0.006 A 
ENDBRANCH  53  74
BRANCH  65  82
ATOM     82  C   UNL A   1      44.464  27.728  34.086  1.00  0.00     0.057 A 
ATOM     83  C   UNL A   1      45.785  28.183  33.998  1.00  0.00     0.134 A 
ATOM     84  C   UNL A   1      44.240  26.511  34.741  1.00  0.00     0.134 A 
ATOM     85  F   UNL A   1      46.069  29.336  33.373  1.00  0.00    -0.206 F 
ATOM     86  C   UNL A   1      46.846  27.440  34.520  1.00  0.00     0.040 A 
ATOM     87  C   UNL A   1      45.288  25.775  35.293  1.00  0.00     0.040 A 
ATOM     88  F   UNL A   1      42.996  26.025  34.869  1.00  0.00    -0.206 F 
ATOM     89  C   UNL A   1      46.598  26.236  35.176  1.00  0.00     0.006 A 
ENDBRANCH  65  82
ENDBRANCH  39  40
ENDBRANCH  31  34
ENDBRANCH  29  30
ENDBRANCH  28  29
ENDBRANCH   1  28
TORSDOF 14
ENDMDL
MODEL 3
REMARK VINA RESULT:     -12.0      4.068      9.428
REMARK SMILES Cc1ccc(N2CC[C@H]([NH+]3CCOCC3)[C@H](CCC(=O)NCCCNC(=O)c3ccc(-c4c5nc(c(-c6c(F)cccc6F)c6ccc([nH]6)c(-c6c(F)cccc6F)c6nc(c(-c7c(F)cccc7F)c7ccc4[nH]7)C=C6)C=C5)cc3)C2)nc1
REMARK SMILES IDX 22 1 21 2 19 3 20 4 18 6 17 7 16 8 6 9 7 10 82 11 8 12 9 13
REMARK SMILES IDX 5 14 1 15 2 16 3 17 84 18 4 19 83 20 10 21 11 22 15 23 12 25
REMARK SMILES IDX 14 26 13 27 23 28 24 29 25 30 26 31 27 33 28 34 29 35 81 36
REMARK SMILES IDX 30 37 80 38 31 39 32 40 33 41 74 42 34 43 79 44 73 45 75 46
REMARK SMILES IDX 35 47 78 48 72 49 71 50 36 52 62 53 45 54 61 55 46 56 49 57
REMARK SMILES IDX 60 58 76 59 47 60 48 61 59 63 77 64 50 65 37 66 38 67 43 68
REMARK SMILES IDX 39 69 40 70 42 71 44 72 41 73 63 74 64 75 69 76 65 77 66 78
REMARK SMILES IDX 68 79 70 80 67 81 51 82 52 83 57 84 53 85 54 86 56 87 58 88
REMARK SMILES IDX 55 89
REMARK H PARENT 21 5 10 24 25 32 75 51 49 62
REMARK Flexibility Score: inf
ROOT
ATOM      1  C   UNL A   1      31.563  30.689  26.524  1.00  0.00     0.117 C 
ENDROOT
BRANCH   1   2
ATOM      2  N   UNL A   1      32.966  30.319  26.640  1.00  0.00    -0.356 N 
ATOM      3  C   UNL A   1      33.558  29.092  26.541  1.00  0.00     0.220 C 
ATOM      4  O   UNL A   1      34.729  28.985  26.910  1.00  0.00    -0.275 OA
ATOM      5  H   UNL A   1      33.581  31.067  26.816  1.00  0.00     0.163 HD
BRANCH   3   6
ATOM      6  C   UNL A   1      32.827  27.931  25.882  1.00  0.00     0.100 C 
BRANCH   6   7
ATOM      7  C   UNL A   1      33.316  26.484  26.127  1.00  0.00     0.021 C 
BRANCH   7   8
ATOM      8  C   UNL A   1      33.980  25.782  24.925  1.00  0.00     0.067 C 
ATOM      9  N   UNL A   1      32.498  25.887  22.922  1.00  0.00    -0.356 N 
ATOM     10  C   UNL A   1      32.481  24.454  22.742  1.00  0.00     0.124 C 
ATOM     11  C   UNL A   1      33.644  26.483  23.579  1.00  0.00     0.127 C 
ATOM     12  C   UNL A   1      32.666  23.741  24.073  1.00  0.00     0.087 C 
ATOM     13  C   UNL A   1      33.953  24.217  24.755  1.00  0.00     0.190 C 
BRANCH   9  14
ATOM     14  C   UNL A   1      31.283  26.540  22.955  1.00  0.00     0.128 A 
ATOM     15  C   UNL A   1      27.611  28.681  23.167  1.00  0.00     0.046 C 
ATOM     16  C   UNL A   1      28.884  27.904  23.126  1.00  0.00    -0.033 A 
ATOM     17  C   UNL A   1      29.037  26.703  23.811  1.00  0.00     0.009 A 
ATOM     18  C   UNL A   1      29.968  28.351  22.381  1.00  0.00     0.117 A 
ATOM     19  C   UNL A   1      30.242  26.012  23.715  1.00  0.00     0.047 A 
ATOM     20  N   UNL A   1      31.155  27.710  22.300  1.00  0.00    -0.239 NA
ENDBRANCH   9  14
BRANCH  13  21
ATOM     21  N   UNL A   1      34.468  23.370  25.857  1.00  0.00    -0.328 N 
ATOM     22  C   UNL A   1      35.940  23.465  26.052  1.00  0.00     0.291 C 
ATOM     23  C   UNL A   1      34.087  21.953  25.933  1.00  0.00     0.291 C 
ATOM     24  H   UNL A   1      33.950  23.814  26.614  1.00  0.00     0.348 HD
ATOM     25  C   UNL A   1      36.799  22.401  25.330  1.00  0.00     0.221 C 
ATOM     26  C   UNL A   1      34.960  20.963  25.165  1.00  0.00     0.221 C 
ATOM     27  O   UNL A   1      36.325  21.074  25.563  1.00  0.00    -0.370 OA
ENDBRANCH  13  21
ENDBRANCH   7   8
ENDBRANCH   6   7
ENDBRANCH   3   6
ENDBRANCH   1   2
BRANCH   1  28
ATOM     28  C   UNL A   1      31.405  32.186  26.800  1.00  0.00     0.042 C 
BRANCH  28  29
ATOM     29  C   UNL A   1      32.715  32.902  27.011  1.00  0.00     0.118 C 
BRANCH  29  30
ATOM     30  N   UNL A   1      32.528  34.203  27.625  1.00  0.00    -0.352 N 
ATOM     31  C   UNL A   1      33.148  34.739  28.731  1.00  0.00     0.251 C 
ATOM     32  H   UNL A   1      31.862  34.784  27.191  1.00  0.00     0.163 HD
ATOM     33  O   UNL A   1      32.718  35.775  29.222  1.00  0.00    -0.269 OA
BRANCH  31  34
ATOM     34  C   UNL A   1      34.308  34.050  29.347  1.00  0.00     0.039 A 
ATOM     35  C   UNL A   1      34.073  33.071  30.316  1.00  0.00     0.014 A 
ATOM     36  C   UNL A   1      35.621  34.358  28.983  1.00  0.00     0.014 A 
ATOM     37  C   UNL A   1      35.146  32.373  30.876  1.00  0.00     0.010 A 
ATOM     38  C   UNL A   1      36.675  33.579  29.445  1.00  0.00     0.010 A 
ATOM     39  C   UNL A   1      36.455  32.596  30.418  1.00  0.00    -0.014 A 
BRANCH  39  40
ATOM     40  C   UNL A   1      37.612  31.850  30.977  1.00  0.00     0.031 A 
ATOM     41  C   UNL A   1      38.111  32.169  32.362  1.00  0.00     0.074 A 
ATOM     42  C   UNL A   1      38.244  30.926  30.225  1.00  0.00     0.049 A 
ATOM     43  N   UNL A   1      39.143  31.684  33.004  1.00  0.00    -0.248 NA
ATOM     44  C   UNL A   1      37.369  33.195  33.117  1.00  0.00     0.031 C 
ATOM     45  C   UNL A   1      37.890  30.562  28.852  1.00  0.00     0.029 A 
ATOM     46  N   UNL A   1      39.324  30.128  30.511  1.00  0.00    -0.354 N 
ATOM     47  C   UNL A   1      39.181  32.354  34.221  1.00  0.00     0.074 A 
ATOM     48  C   UNL A   1      38.114  33.328  34.203  1.00  0.00     0.031 C 
ATOM     49  C   UNL A   1      38.714  29.589  28.428  1.00  0.00     0.029 A 
ATOM     50  C   UNL A   1      39.680  29.293  29.480  1.00  0.00     0.049 A 
ATOM     51  H   UNL A   1      39.798  30.152  31.373  1.00  0.00     0.167 HD
ATOM     52  C   UNL A   1      40.007  32.153  35.274  1.00  0.00     0.037 A 
ATOM     53  C   UNL A   1      40.680  28.395  29.391  1.00  0.00     0.037 A 
ATOM     54  C   UNL A   1      41.046  31.160  35.302  1.00  0.00     0.049 A 
ATOM     55  C   UNL A   1      41.594  28.202  30.572  1.00  0.00     0.074 A 
ATOM     56  C   UNL A   1      41.904  30.839  36.338  1.00  0.00     0.029 A 
ATOM     57  N   UNL A   1      41.367  30.325  34.242  1.00  0.00    -0.354 N 
ATOM     58  N   UNL A   1      41.574  28.796  31.741  1.00  0.00    -0.248 NA
ATOM     59  C   UNL A   1      42.665  27.207  30.423  1.00  0.00     0.031 C 
ATOM     60  C   UNL A   1      42.776  29.842  35.890  1.00  0.00     0.029 A 
ATOM     61  C   UNL A   1      42.425  29.503  34.593  1.00  0.00     0.049 A 
ATOM     62  H   UNL A   1      40.910  30.317  33.369  1.00  0.00     0.167 HD
ATOM     63  C   UNL A   1      42.606  28.225  32.475  1.00  0.00     0.074 A 
ATOM     64  C   UNL A   1      43.220  27.227  31.627  1.00  0.00     0.031 C 
ATOM     65  C   UNL A   1      43.013  28.504  33.738  1.00  0.00     0.037 A 
BRANCH  52  66
ATOM     66  C   UNL A   1      39.809  33.015  36.489  1.00  0.00     0.057 A 
ATOM     67  C   UNL A   1      38.881  32.686  37.485  1.00  0.00     0.134 A 
ATOM     68  C   UNL A   1      40.585  34.165  36.686  1.00  0.00     0.134 A 
ATOM     69  F   UNL A   1      38.096  31.605  37.353  1.00  0.00    -0.206 F 
ATOM     70  C   UNL A   1      38.713  33.480  38.621  1.00  0.00     0.040 A 
ATOM     71  C   UNL A   1      40.447  34.951  37.830  1.00  0.00     0.040 A 
ATOM     72  F   UNL A   1      41.496  34.537  35.774  1.00  0.00    -0.206 F 
ATOM     73  C   UNL A   1      39.505  34.613  38.799  1.00  0.00     0.006 A 
ENDBRANCH  52  66
BRANCH  53  74
ATOM     74  C   UNL A   1      40.866  27.596  28.152  1.00  0.00     0.057 A 
ATOM     75  C   UNL A   1      41.654  28.072  27.097  1.00  0.00     0.134 A 
ATOM     76  C   UNL A   1      40.240  26.356  27.977  1.00  0.00     0.134 A 
ATOM     77  F   UNL A   1      42.268  29.261  27.194  1.00  0.00    -0.206 F 
ATOM     78  C   UNL A   1      41.788  27.360  25.902  1.00  0.00     0.040 A 
ATOM     79  C   UNL A   1      40.388  25.620  26.800  1.00  0.00     0.040 A 
ATOM     80  F   UNL A   1      39.478  25.839  28.952  1.00  0.00    -0.206 F 
ATOM     81  C   UNL A   1      41.155  26.128  25.754  1.00  0.00     0.006 A 
ENDBRANCH  53  74
BRANCH  65  82
ATOM     82  C   UNL A   1      44.144  27.690  34.292  1.00  0.00     0.057 A 
ATOM     83  C   UNL A   1      45.474  28.124  34.221  1.00  0.00     0.134 A 
ATOM     84  C   UNL A   1      43.894  26.474  34.942  1.00  0.00     0.134 A 
ATOM     85  F   UNL A   1      45.783  29.273  33.602  1.00  0.00    -0.206 F 
ATOM     86  C   UNL A   1      46.517  27.364  34.754  1.00  0.00     0.040 A 
ATOM     87  C   UNL A   1      44.924  25.722  35.505  1.00  0.00     0.040 A 
ATOM     88  F   UNL A   1      42.641  26.007  35.054  1.00  0.00    -0.206 F 
ATOM     89  C   UNL A   1      46.242  26.163  35.406  1.00  0.00     0.006 A 
ENDBRANCH  65  82
ENDBRANCH  39  40
ENDBRANCH  31  34
ENDBRANCH  29  30
ENDBRANCH  28  29
ENDBRANCH   1  28
TORSDOF 14
ENDMDL
