MODEL 1
REMARK VINA RESULT:     -11.5      0.000      0.000
REMARK SMILES CC(C)(C)OC(=O)[C@@H]1CCCC[C@H]1C(=O)NCCCNC(=O)c1ccc(-c2c3nc(c(-c4c(F)cccc4F)c4ccc([nH]4)c(-c4c(F)cccc4F)c4nc(c(-c5c(F)cccc5F)c5ccc2[nH]5)C=C4)C=C3)cc1
REMARK SMILES IDX 17 1 16 2 14 3 15 4 13 6 8 7 9 8 10 9 12 10 11 11 6 12 7 13
REMARK SMILES IDX 5 14 2 15 1 16 3 17 4 18 18 19 19 20 20 21 21 22 22 24 23 25
REMARK SMILES IDX 24 26 76 27 25 28 75 29 26 30 27 31 28 32 69 33 29 34 74 35
REMARK SMILES IDX 68 36 70 37 30 38 73 39 67 40 66 41 31 43 57 44 40 45 56 46
REMARK SMILES IDX 41 47 44 48 55 49 71 50 42 51 43 52 54 54 72 55 45 56 32 57
REMARK SMILES IDX 33 58 38 59 34 60 35 61 37 62 39 63 36 64 58 65 59 66 64 67
REMARK SMILES IDX 60 68 61 69 63 70 65 71 62 72 46 73 47 74 52 75 48 76 49 77
REMARK SMILES IDX 51 78 53 79 50 80
REMARK H PARENT 16 5 20 23 70 42 44 53
REMARK Flexibility Score: inf
ROOT
ATOM      1  C   UNL A   1      31.225  31.141  26.427  1.00  0.00     0.117 C 
ENDROOT
BRANCH   1   2
ATOM      2  N   UNL A   1      32.320  30.443  25.771  1.00  0.00    -0.356 N 
ATOM      3  C   UNL A   1      32.379  29.243  25.133  1.00  0.00     0.223 C 
ATOM      4  O   UNL A   1      33.457  28.928  24.621  1.00  0.00    -0.275 OA
ATOM      5  H   UNL A   1      33.176  30.930  25.794  1.00  0.00     0.163 HD
BRANCH   3   6
ATOM      6  C   UNL A   1      31.160  28.331  24.995  1.00  0.00     0.092 C 
ATOM      7  C   UNL A   1      30.869  27.933  23.531  1.00  0.00     0.111 C 
ATOM      8  C   UNL A   1      29.918  26.727  23.441  1.00  0.00     0.016 C 
ATOM      9  C   UNL A   1      30.358  25.572  24.323  1.00  0.00     0.001 C 
ATOM     10  C   UNL A   1      31.312  27.174  26.005  1.00  0.00     0.014 C 
ATOM     11  C   UNL A   1      30.368  26.005  25.778  1.00  0.00     0.001 C 
BRANCH   7  12
ATOM     12  C   UNL A   1      30.264  29.082  22.721  1.00  0.00     0.310 C 
ATOM     13  O   UNL A   1      30.616  29.371  21.581  1.00  0.00    -0.252 OA
BRANCH  12  14
ATOM     14  O   UNL A   1      29.376  29.793  23.459  1.00  0.00    -0.460 OA
BRANCH  14  15
ATOM     15  C   UNL A   1      28.075  30.156  22.918  1.00  0.00     0.104 C 
ATOM     16  C   UNL A   1      27.181  28.931  23.160  1.00  0.00     0.056 C 
ATOM     17  C   UNL A   1      28.128  30.421  21.408  1.00  0.00     0.056 C 
ATOM     18  C   UNL A   1      27.492  31.348  23.687  1.00  0.00     0.056 C 
ENDBRANCH  14  15
ENDBRANCH  12  14
ENDBRANCH   7  12
ENDBRANCH   3   6
ENDBRANCH   1   2
BRANCH   1  19
ATOM     19  C   UNL A   1      31.462  32.643  26.504  1.00  0.00     0.042 C 
BRANCH  19  20
ATOM     20  C   UNL A   1      32.720  33.032  27.266  1.00  0.00     0.118 C 
BRANCH  20  21
ATOM     21  N   UNL A   1      32.669  34.395  27.775  1.00  0.00    -0.352 N 
ATOM     22  C   UNL A   1      33.372  34.988  28.796  1.00  0.00     0.251 C 
ATOM     23  H   UNL A   1      32.030  34.986  27.315  1.00  0.00     0.163 HD
ATOM     24  O   UNL A   1      33.038  36.102  29.194  1.00  0.00    -0.269 OA
BRANCH  22  25
ATOM     25  C   UNL A   1      34.508  34.290  29.433  1.00  0.00     0.039 A 
ATOM     26  C   UNL A   1      34.248  33.372  30.455  1.00  0.00     0.014 A 
ATOM     27  C   UNL A   1      35.825  34.549  29.049  1.00  0.00     0.014 A 
ATOM     28  C   UNL A   1      35.303  32.666  31.040  1.00  0.00     0.010 A 
ATOM     29  C   UNL A   1      36.865  33.782  29.566  1.00  0.00     0.010 A 
ATOM     30  C   UNL A   1      36.616  32.837  30.572  1.00  0.00    -0.014 A 
BRANCH  30  31
ATOM     31  C   UNL A   1      37.742  32.042  31.123  1.00  0.00     0.031 A 
ATOM     32  C   UNL A   1      38.269  32.330  32.502  1.00  0.00     0.074 A 
ATOM     33  C   UNL A   1      38.336  31.107  30.356  1.00  0.00     0.049 A 
ATOM     34  N   UNL A   1      39.290  31.800  33.125  1.00  0.00    -0.248 NA
ATOM     35  C   UNL A   1      37.572  33.373  33.272  1.00  0.00     0.031 C 
ATOM     36  C   UNL A   1      37.952  30.767  28.984  1.00  0.00     0.029 A 
ATOM     37  N   UNL A   1      39.398  30.278  30.618  1.00  0.00    -0.354 N 
ATOM     38  C   UNL A   1      39.368  32.455  34.347  1.00  0.00     0.074 A 
ATOM     39  C   UNL A   1      38.326  33.459  34.358  1.00  0.00     0.031 C 
ATOM     40  C   UNL A   1      38.749  29.784  28.535  1.00  0.00     0.029 A 
ATOM     41  C   UNL A   1      39.723  29.452  29.569  1.00  0.00     0.049 A 
ATOM     42  H   UNL A   1      39.880  30.275  31.476  1.00  0.00     0.167 HD
ATOM     43  C   UNL A   1      40.215  32.226  35.379  1.00  0.00     0.037 A 
ATOM     44  C   UNL A   1      40.701  28.534  29.453  1.00  0.00     0.037 A 
ATOM     45  C   UNL A   1      41.233  31.208  35.379  1.00  0.00     0.049 A 
ATOM     46  C   UNL A   1      41.630  28.299  30.610  1.00  0.00     0.074 A 
ATOM     47  C   UNL A   1      42.101  30.856  36.397  1.00  0.00     0.029 A 
ATOM     48  N   UNL A   1      41.519  30.379  34.305  1.00  0.00    -0.354 N 
ATOM     49  N   UNL A   1      41.650  28.881  31.785  1.00  0.00    -0.248 NA
ATOM     50  C   UNL A   1      42.669  27.276  30.429  1.00  0.00     0.031 C 
ATOM     51  C   UNL A   1      42.940  29.841  35.924  1.00  0.00     0.029 A 
ATOM     52  C   UNL A   1      42.563  29.529  34.629  1.00  0.00     0.049 A 
ATOM     53  H   UNL A   1      41.048  30.392  33.439  1.00  0.00     0.167 HD
ATOM     54  C   UNL A   1      42.682  28.277  32.491  1.00  0.00     0.074 A 
ATOM     55  C   UNL A   1      43.256  27.274  31.618  1.00  0.00     0.031 C 
ATOM     56  C   UNL A   1      43.117  28.531  33.749  1.00  0.00     0.037 A 
BRANCH  43  57
ATOM     57  C   UNL A   1      40.070  33.088  36.599  1.00  0.00     0.057 A 
ATOM     58  C   UNL A   1      39.142  32.793  37.607  1.00  0.00     0.134 A 
ATOM     59  C   UNL A   1      40.887  34.211  36.784  1.00  0.00     0.134 A 
ATOM     60  F   UNL A   1      38.319  31.740  37.486  1.00  0.00    -0.206 F 
ATOM     61  C   UNL A   1      39.012  33.598  38.740  1.00  0.00     0.040 A 
ATOM     62  C   UNL A   1      40.787  35.006  37.926  1.00  0.00     0.040 A 
ATOM     63  F   UNL A   1      41.801  34.549  35.862  1.00  0.00    -0.206 F 
ATOM     64  C   UNL A   1      39.842  34.705  38.905  1.00  0.00     0.006 A 
ENDBRANCH  43  57
BRANCH  44  65
ATOM     65  C   UNL A   1      40.838  27.748  28.200  1.00  0.00     0.057 A 
ATOM     66  C   UNL A   1      41.594  28.233  27.127  1.00  0.00     0.134 A 
ATOM     67  C   UNL A   1      40.217  26.504  28.042  1.00  0.00     0.134 A 
ATOM     68  F   UNL A   1      42.199  29.427  27.212  1.00  0.00    -0.206 F 
ATOM     69  C   UNL A   1      41.713  27.517  25.934  1.00  0.00     0.040 A 
ATOM     70  C   UNL A   1      40.347  25.767  26.865  1.00  0.00     0.040 A 
ATOM     71  F   UNL A   1      39.486  25.981  29.038  1.00  0.00    -0.206 F 
ATOM     72  C   UNL A   1      41.091  26.278  25.803  1.00  0.00     0.006 A 
ENDBRANCH  44  65
BRANCH  56  73
ATOM     73  C   UNL A   1      44.243  27.687  34.269  1.00  0.00     0.057 A 
ATOM     74  C   UNL A   1      45.578  28.102  34.187  1.00  0.00     0.134 A 
ATOM     75  C   UNL A   1      43.984  26.459  34.892  1.00  0.00     0.134 A 
ATOM     76  F   UNL A   1      45.893  29.262  33.590  1.00  0.00    -0.206 F 
ATOM     77  C   UNL A   1      46.618  27.316  34.686  1.00  0.00     0.040 A 
ATOM     78  C   UNL A   1      45.012  25.676  35.419  1.00  0.00     0.040 A 
ATOM     79  F   UNL A   1      42.726  26.007  35.011  1.00  0.00    -0.206 F 
ATOM     80  C   UNL A   1      46.335  26.102  35.311  1.00  0.00     0.006 A 
ENDBRANCH  56  73
ENDBRANCH  30  31
ENDBRANCH  22  25
ENDBRANCH  20  21
ENDBRANCH  19  20
ENDBRANCH   1  19
TORSDOF 13
ENDMDL
MODEL 2
REMARK VINA RESULT:     -11.4      5.404      9.568
REMARK SMILES CC(C)(C)OC(=O)[C@@H]1CCCC[C@H]1C(=O)NCCCNC(=O)c1ccc(-c2c3nc(c(-c4c(F)cccc4F)c4ccc([nH]4)c(-c4c(F)cccc4F)c4nc(c(-c5c(F)cccc5F)c5ccc2[nH]5)C=C4)C=C3)cc1
REMARK SMILES IDX 17 1 16 2 14 3 15 4 13 6 8 7 9 8 10 9 12 10 11 11 6 12 7 13
REMARK SMILES IDX 5 14 2 15 1 16 3 17 4 18 18 19 19 20 20 21 21 22 22 24 23 25
REMARK SMILES IDX 24 26 76 27 25 28 75 29 26 30 27 31 28 32 69 33 29 34 74 35
REMARK SMILES IDX 68 36 70 37 30 38 73 39 67 40 66 41 31 43 57 44 40 45 56 46
REMARK SMILES IDX 41 47 44 48 55 49 71 50 42 51 43 52 54 54 72 55 45 56 32 57
REMARK SMILES IDX 33 58 38 59 34 60 35 61 37 62 39 63 36 64 58 65 59 66 64 67
REMARK SMILES IDX 60 68 61 69 63 70 65 71 62 72 46 73 47 74 52 75 48 76 49 77
REMARK SMILES IDX 51 78 53 79 50 80
REMARK H PARENT 16 5 20 23 70 42 44 53
REMARK Flexibility Score: inf
ROOT
ATOM      1  C   UNL A   1      36.356  21.142  24.805  1.00  0.00     0.117 C 
ENDROOT
BRANCH   1   2
ATOM      2  N   UNL A   1      35.681  21.084  26.092  1.00  0.00    -0.356 N 
ATOM      3  C   UNL A   1      34.526  21.648  26.537  1.00  0.00     0.223 C 
ATOM      4  O   UNL A   1      34.170  21.376  27.688  1.00  0.00    -0.275 OA
ATOM      5  H   UNL A   1      36.146  20.535  26.764  1.00  0.00     0.163 HD
BRANCH   3   6
ATOM      6  C   UNL A   1      33.659  22.542  25.650  1.00  0.00     0.092 C 
ATOM      7  C   UNL A   1      32.287  21.912  25.320  1.00  0.00     0.111 C 
ATOM      8  C   UNL A   1      31.290  22.953  24.782  1.00  0.00     0.016 C 
ATOM      9  C   UNL A   1      31.211  24.190  25.659  1.00  0.00     0.001 C 
ATOM     10  C   UNL A   1      33.635  23.954  26.272  1.00  0.00     0.014 C 
ATOM     11  C   UNL A   1      32.564  24.876  25.712  1.00  0.00     0.001 C 
BRANCH   7  12
ATOM     12  C   UNL A   1      32.394  20.778  24.297  1.00  0.00     0.310 C 
ATOM     13  O   UNL A   1      32.551  20.960  23.093  1.00  0.00    -0.252 OA
BRANCH  12  14
ATOM     14  O   UNL A   1      32.189  19.569  24.877  1.00  0.00    -0.460 OA
BRANCH  14  15
ATOM     15  C   UNL A   1      32.800  18.366  24.332  1.00  0.00     0.104 C 
ATOM     16  C   UNL A   1      32.283  17.218  25.212  1.00  0.00     0.056 C 
ATOM     17  C   UNL A   1      34.330  18.395  24.431  1.00  0.00     0.056 C 
ATOM     18  C   UNL A   1      32.324  18.132  22.893  1.00  0.00     0.056 C 
ENDBRANCH  14  15
ENDBRANCH  12  14
ENDBRANCH   7  12
ENDBRANCH   3   6
ENDBRANCH   1   2
BRANCH   1  19
ATOM     19  C   UNL A   1      37.559  20.211  24.742  1.00  0.00     0.042 C 
BRANCH  19  20
ATOM     20  C   UNL A   1      38.618  20.498  25.797  1.00  0.00     0.118 C 
BRANCH  20  21
ATOM     21  N   UNL A   1      39.708  19.533  25.776  1.00  0.00    -0.352 N 
ATOM     22  C   UNL A   1      41.047  19.702  26.032  1.00  0.00     0.251 C 
ATOM     23  H   UNL A   1      39.445  18.615  25.540  1.00  0.00     0.163 HD
ATOM     24  O   UNL A   1      41.833  18.795  25.769  1.00  0.00    -0.269 OA
BRANCH  22  25
ATOM     25  C   UNL A   1      41.551  20.970  26.600  1.00  0.00     0.039 A 
ATOM     26  C   UNL A   1      42.015  21.962  25.730  1.00  0.00     0.014 A 
ATOM     27  C   UNL A   1      41.593  21.180  27.980  1.00  0.00     0.014 A 
ATOM     28  C   UNL A   1      42.452  23.185  26.241  1.00  0.00     0.010 A 
ATOM     29  C   UNL A   1      41.943  22.429  28.483  1.00  0.00     0.010 A 
ATOM     30  C   UNL A   1      42.383  23.443  27.621  1.00  0.00    -0.014 A 
BRANCH  30  31
ATOM     31  C   UNL A   1      42.768  24.763  28.180  1.00  0.00     0.031 A 
ATOM     32  C   UNL A   1      41.726  25.824  28.405  1.00  0.00     0.074 A 
ATOM     33  C   UNL A   1      44.067  25.031  28.420  1.00  0.00     0.049 A 
ATOM     34  N   UNL A   1      41.877  27.059  28.809  1.00  0.00    -0.248 NA
ATOM     35  C   UNL A   1      40.333  25.456  28.109  1.00  0.00     0.031 C 
ATOM     36  C   UNL A   1      45.179  24.106  28.196  1.00  0.00     0.029 A 
ATOM     37  N   UNL A   1      44.672  26.168  28.895  1.00  0.00    -0.354 N 
ATOM     38  C   UNL A   1      40.605  27.618  28.799  1.00  0.00     0.074 A 
ATOM     39  C   UNL A   1      39.702  26.606  28.297  1.00  0.00     0.031 C 
ATOM     40  C   UNL A   1      46.327  24.701  28.558  1.00  0.00     0.029 A 
ATOM     41  C   UNL A   1      46.038  26.062  29.001  1.00  0.00     0.049 A 
ATOM     42  H   UNL A   1      44.175  26.982  29.138  1.00  0.00     0.167 HD
ATOM     43  C   UNL A   1      40.219  28.854  29.195  1.00  0.00     0.037 A 
ATOM     44  C   UNL A   1      46.954  26.962  29.403  1.00  0.00     0.037 A 
ATOM     45  C   UNL A   1      41.115  29.851  29.721  1.00  0.00     0.049 A 
ATOM     46  C   UNL A   1      46.502  28.328  29.835  1.00  0.00     0.074 A 
ATOM     47  C   UNL A   1      40.813  31.111  30.207  1.00  0.00     0.029 A 
ATOM     48  N   UNL A   1      42.489  29.699  29.829  1.00  0.00    -0.354 N 
ATOM     49  N   UNL A   1      45.287  28.820  29.882  1.00  0.00    -0.248 NA
ATOM     50  C   UNL A   1      47.547  29.263  30.276  1.00  0.00     0.031 C 
ATOM     51  C   UNL A   1      42.010  31.737  30.570  1.00  0.00     0.029 A 
ATOM     52  C   UNL A   1      43.051  30.849  30.356  1.00  0.00     0.049 A 
ATOM     53  H   UNL A   1      42.990  28.891  29.571  1.00  0.00     0.167 HD
ATOM     54  C   UNL A   1      45.418  30.109  30.382  1.00  0.00     0.074 A 
ATOM     55  C   UNL A   1      46.829  30.318  30.636  1.00  0.00     0.031 C 
ATOM     56  C   UNL A   1      44.457  31.037  30.610  1.00  0.00     0.037 A 
BRANCH  43  57
ATOM     57  C   UNL A   1      38.762  29.194  29.081  1.00  0.00     0.057 A 
ATOM     58  C   UNL A   1      37.903  29.148  30.188  1.00  0.00     0.134 A 
ATOM     59  C   UNL A   1      38.215  29.601  27.857  1.00  0.00     0.134 A 
ATOM     60  F   UNL A   1      38.360  28.754  31.386  1.00  0.00    -0.206 F 
ATOM     61  C   UNL A   1      36.549  29.467  30.076  1.00  0.00     0.040 A 
ATOM     62  C   UNL A   1      36.868  29.950  27.740  1.00  0.00     0.040 A 
ATOM     63  F   UNL A   1      38.980  29.673  26.758  1.00  0.00    -0.206 F 
ATOM     64  C   UNL A   1      36.030  29.876  28.850  1.00  0.00     0.006 A 
ENDBRANCH  43  57
BRANCH  44  65
ATOM     65  C   UNL A   1      48.392  26.593  29.441  1.00  0.00     0.057 A 
ATOM     66  C   UNL A   1      49.229  26.853  28.349  1.00  0.00     0.134 A 
ATOM     67  C   UNL A   1      48.962  25.971  30.558  1.00  0.00     0.134 A 
ATOM     68  F   UNL A   1      48.738  27.430  27.244  1.00  0.00    -0.206 F 
ATOM     69  C   UNL A   1      50.578  26.490  28.360  1.00  0.00     0.040 A 
ATOM     70  C   UNL A   1      50.313  25.626  30.592  1.00  0.00     0.040 A 
ATOM     71  F   UNL A   1      48.214  25.705  31.639  1.00  0.00    -0.206 F 
ATOM     72  C   UNL A   1      51.123  25.878  29.486  1.00  0.00     0.006 A 
ENDBRANCH  44  65
BRANCH  56  73
ATOM     73  C   UNL A   1      44.894  32.348  31.195  1.00  0.00     0.057 A 
ATOM     74  C   UNL A   1      45.238  33.440  30.389  1.00  0.00     0.134 A 
ATOM     75  C   UNL A   1      44.935  32.529  32.583  1.00  0.00     0.134 A 
ATOM     76  F   UNL A   1      45.231  33.327  29.052  1.00  0.00    -0.206 F 
ATOM     77  C   UNL A   1      45.630  34.660  30.943  1.00  0.00     0.040 A 
ATOM     78  C   UNL A   1      45.300  33.751  33.149  1.00  0.00     0.040 A 
ATOM     79  F   UNL A   1      44.610  31.525  33.412  1.00  0.00    -0.206 F 
ATOM     80  C   UNL A   1      45.654  34.820  32.328  1.00  0.00     0.006 A 
ENDBRANCH  56  73
ENDBRANCH  30  31
ENDBRANCH  22  25
ENDBRANCH  20  21
ENDBRANCH  19  20
ENDBRANCH   1  19
TORSDOF 13
ENDMDL
MODEL 3
REMARK VINA RESULT:     -11.3      0.981      6.426
REMARK SMILES CC(C)(C)OC(=O)[C@@H]1CCCC[C@H]1C(=O)NCCCNC(=O)c1ccc(-c2c3nc(c(-c4c(F)cccc4F)c4ccc([nH]4)c(-c4c(F)cccc4F)c4nc(c(-c5c(F)cccc5F)c5ccc2[nH]5)C=C4)C=C3)cc1
REMARK SMILES IDX 17 1 16 2 14 3 15 4 13 6 8 7 9 8 10 9 12 10 11 11 6 12 7 13
REMARK SMILES IDX 5 14 2 15 1 16 3 17 4 18 18 19 19 20 20 21 21 22 22 24 23 25
REMARK SMILES IDX 24 26 76 27 25 28 75 29 26 30 27 31 28 32 69 33 29 34 74 35
REMARK SMILES IDX 68 36 70 37 30 38 73 39 67 40 66 41 31 43 57 44 40 45 56 46
REMARK SMILES IDX 41 47 44 48 55 49 71 50 42 51 43 52 54 54 72 55 45 56 32 57
REMARK SMILES IDX 33 58 38 59 34 60 35 61 37 62 39 63 36 64 58 65 59 66 64 67
REMARK SMILES IDX 60 68 61 69 63 70 65 71 62 72 46 73 47 74 52 75 48 76 49 77
REMARK SMILES IDX 51 78 53 79 50 80
REMARK H PARENT 16 5 20 23 70 42 44 53
REMARK Flexibility Score: inf
ROOT
ATOM      1  C   UNL A   1      31.292  31.205  25.884  1.00  0.00     0.117 C 
ENDROOT
BRANCH   1   2
ATOM      2  N   UNL A   1      32.421  30.317  25.653  1.00  0.00    -0.356 N 
ATOM      3  C   UNL A   1      32.487  28.996  25.336  1.00  0.00     0.223 C 
ATOM      4  O   UNL A   1      33.609  28.515  25.149  1.00  0.00    -0.275 OA
ATOM      5  H   UNL A   1      33.299  30.754  25.742  1.00  0.00     0.163 HD
BRANCH   3   6
ATOM      6  C   UNL A   1      31.236  28.135  25.160  1.00  0.00     0.092 C 
ATOM      7  C   UNL A   1      30.903  27.855  23.677  1.00  0.00     0.111 C 
ATOM      8  C   UNL A   1      29.911  26.690  23.521  1.00  0.00     0.016 C 
ATOM      9  C   UNL A   1      30.330  25.460  24.307  1.00  0.00     0.001 C 
ATOM     10  C   UNL A   1      31.370  26.903  26.079  1.00  0.00     0.014 C 
ATOM     11  C   UNL A   1      30.383  25.784  25.789  1.00  0.00     0.001 C 
BRANCH   7  12
ATOM     12  C   UNL A   1      30.320  29.079  22.967  1.00  0.00     0.310 C 
ATOM     13  O   UNL A   1      30.814  29.583  21.962  1.00  0.00    -0.252 OA
BRANCH  12  14
ATOM     14  O   UNL A   1      29.262  29.588  23.647  1.00  0.00    -0.460 OA
BRANCH  14  15
ATOM     15  C   UNL A   1      28.062  30.019  22.947  1.00  0.00     0.104 C 
ATOM     16  C   UNL A   1      27.017  28.930  23.231  1.00  0.00     0.056 C 
ATOM     17  C   UNL A   1      28.270  30.101  21.430  1.00  0.00     0.056 C 
ATOM     18  C   UNL A   1      27.555  31.346  23.527  1.00  0.00     0.056 C 
ENDBRANCH  14  15
ENDBRANCH  12  14
ENDBRANCH   7  12
ENDBRANCH   3   6
ENDBRANCH   1   2
BRANCH   1  19
ATOM     19  C   UNL A   1      31.463  32.037  27.147  1.00  0.00     0.042 C 
BRANCH  19  20
ATOM     20  C   UNL A   1      32.722  32.892  27.159  1.00  0.00     0.118 C 
BRANCH  20  21
ATOM     21  N   UNL A   1      32.467  34.262  27.582  1.00  0.00    -0.352 N 
ATOM     22  C   UNL A   1      33.033  34.998  28.593  1.00  0.00     0.251 C 
ATOM     23  H   UNL A   1      31.780  34.736  27.060  1.00  0.00     0.163 HD
ATOM     24  O   UNL A   1      32.537  36.077  28.908  1.00  0.00    -0.269 OA
BRANCH  22  25
ATOM     25  C   UNL A   1      34.218  34.494  29.320  1.00  0.00     0.039 A 
ATOM     26  C   UNL A   1      34.038  33.895  30.571  1.00  0.00     0.014 A 
ATOM     27  C   UNL A   1      35.503  34.628  28.791  1.00  0.00     0.014 A 
ATOM     28  C   UNL A   1      35.137  33.370  31.254  1.00  0.00     0.010 A 
ATOM     29  C   UNL A   1      36.584  34.025  29.428  1.00  0.00     0.010 A 
ATOM     30  C   UNL A   1      36.414  33.396  30.669  1.00  0.00    -0.014 A 
BRANCH  30  31
ATOM     31  C   UNL A   1      37.583  32.775  31.341  1.00  0.00     0.031 A 
ATOM     32  C   UNL A   1      38.268  31.587  30.724  1.00  0.00     0.074 A 
ATOM     33  C   UNL A   1      37.985  33.237  32.541  1.00  0.00     0.049 A 
ATOM     34  N   UNL A   1      39.251  30.862  31.194  1.00  0.00    -0.248 NA
ATOM     35  C   UNL A   1      37.762  31.136  29.417  1.00  0.00     0.031 C 
ATOM     36  C   UNL A   1      37.373  34.351  33.269  1.00  0.00     0.029 A 
ATOM     37  N   UNL A   1      39.000  32.819  33.366  1.00  0.00    -0.354 N 
ATOM     38  C   UNL A   1      39.467  29.863  30.253  1.00  0.00     0.074 A 
ATOM     39  C   UNL A   1      38.480  30.042  29.211  1.00  0.00     0.031 C 
ATOM     40  C   UNL A   1      38.040  34.544  34.419  1.00  0.00     0.029 A 
ATOM     41  C   UNL A   1      39.099  33.546  34.528  1.00  0.00     0.049 A 
ATOM     42  H   UNL A   1      39.599  32.071  33.146  1.00  0.00     0.167 HD
ATOM     43  C   UNL A   1      40.418  28.899  30.244  1.00  0.00     0.037 A 
ATOM     44  C   UNL A   1      39.945  33.417  35.567  1.00  0.00     0.037 A 
ATOM     45  C   UNL A   1      41.418  28.740  31.266  1.00  0.00     0.049 A 
ATOM     46  C   UNL A   1      40.990  32.338  35.536  1.00  0.00     0.074 A 
ATOM     47  C   UNL A   1      42.463  27.833  31.319  1.00  0.00     0.029 A 
ATOM     48  N   UNL A   1      41.497  29.507  32.419  1.00  0.00    -0.354 N 
ATOM     49  N   UNL A   1      41.224  31.442  34.607  1.00  0.00    -0.248 NA
ATOM     50  C   UNL A   1      41.892  32.255  36.693  1.00  0.00     0.031 C 
ATOM     51  C   UNL A   1      43.148  28.025  32.523  1.00  0.00     0.029 A 
ATOM     52  C   UNL A   1      42.560  29.082  33.198  1.00  0.00     0.049 A 
ATOM     53  H   UNL A   1      40.887  30.246  32.648  1.00  0.00     0.167 HD
ATOM     54  C   UNL A   1      42.316  30.708  35.054  1.00  0.00     0.074 A 
ATOM     55  C   UNL A   1      42.705  31.273  36.330  1.00  0.00     0.031 C 
ATOM     56  C   UNL A   1      42.939  29.661  34.462  1.00  0.00     0.037 A 
BRANCH  43  57
ATOM     57  C   UNL A   1      40.426  27.945  29.084  1.00  0.00     0.057 A 
ATOM     58  C   UNL A   1      39.657  26.773  29.085  1.00  0.00     0.134 A 
ATOM     59  C   UNL A   1      41.187  28.216  27.940  1.00  0.00     0.134 A 
ATOM     60  F   UNL A   1      38.915  26.449  30.155  1.00  0.00    -0.206 F 
ATOM     61  C   UNL A   1      39.666  25.892  28.003  1.00  0.00     0.040 A 
ATOM     62  C   UNL A   1      41.183  27.356  26.840  1.00  0.00     0.040 A 
ATOM     63  F   UNL A   1      41.942  29.323  27.868  1.00  0.00    -0.206 F 
ATOM     64  C   UNL A   1      40.426  26.186  26.873  1.00  0.00     0.006 A 
ENDBRANCH  43  57
BRANCH  44  65
ATOM     65  C   UNL A   1      39.855  34.351  36.718  1.00  0.00     0.057 A 
ATOM     66  C   UNL A   1      39.133  34.008  37.868  1.00  0.00     0.134 A 
ATOM     67  C   UNL A   1      40.480  35.604  36.698  1.00  0.00     0.134 A 
ATOM     68  F   UNL A   1      38.499  32.830  37.940  1.00  0.00    -0.206 F 
ATOM     69  C   UNL A   1      39.020  34.886  38.948  1.00  0.00     0.040 A 
ATOM     70  C   UNL A   1      40.396  36.480  37.780  1.00  0.00     0.040 A 
ATOM     71  F   UNL A   1      41.194  35.987  35.629  1.00  0.00    -0.206 F 
ATOM     72  C   UNL A   1      39.656  36.124  38.907  1.00  0.00     0.006 A 
ENDBRANCH  44  65
BRANCH  56  73
ATOM     73  C   UNL A   1      44.128  29.081  35.169  1.00  0.00     0.057 A 
ATOM     74  C   UNL A   1      45.431  29.528  34.915  1.00  0.00     0.134 A 
ATOM     75  C   UNL A   1      43.962  28.087  36.143  1.00  0.00     0.134 A 
ATOM     76  F   UNL A   1      45.658  30.468  33.985  1.00  0.00    -0.206 F 
ATOM     77  C   UNL A   1      46.529  28.992  35.589  1.00  0.00     0.040 A 
ATOM     78  C   UNL A   1      45.050  27.562  36.842  1.00  0.00     0.040 A 
ATOM     79  F   UNL A   1      42.739  27.621  36.439  1.00  0.00    -0.206 F 
ATOM     80  C   UNL A   1      46.339  28.010  36.561  1.00  0.00     0.006 A 
ENDBRANCH  56  73
ENDBRANCH  30  31
ENDBRANCH  22  25
ENDBRANCH  20  21
ENDBRANCH  19  20
ENDBRANCH   1  19
TORSDOF 13
ENDMDL
