MODEL 1
REMARK VINA RESULT:     -10.1      0.000      0.000
REMARK SMILES COc1cc(CC(=O)NCCCNC(=O)c2ccc(-c3c4nc(c(-c5c(F)cccc5F)c5ccc([nH]5)c(-c5c(F)cccc5F)c5nc(c(-c6c(F)cccc6F)c6ccc3[nH]6)C=C5)C=C4)cc2)cc(Br)c1O
REMARK SMILES IDX 11 1 10 2 9 3 7 4 8 5 6 7 5 8 3 9 4 10 73 11 71 12 70 13
REMARK SMILES IDX 72 14 2 15 1 16 74 17 12 19 13 20 14 21 15 23 16 24 17 25
REMARK SMILES IDX 69 26 18 27 68 28 19 29 20 30 21 31 62 32 22 33 67 34 61 35
REMARK SMILES IDX 63 36 23 37 66 38 60 39 59 40 24 42 50 43 33 44 49 45 34 46
REMARK SMILES IDX 37 47 48 48 64 49 35 50 36 51 47 53 65 54 38 55 25 56 26 57
REMARK SMILES IDX 31 58 27 59 28 60 30 61 32 62 29 63 51 64 52 65 57 66 53 67
REMARK SMILES IDX 54 68 56 69 58 70 55 71 39 72 40 73 45 74 41 75 42 76 44 77
REMARK SMILES IDX 46 78 43 79
REMARK H PARENT 9 6 74 18 13 22 63 41 37 52
REMARK Flexibility Score: inf
ROOT
ATOM      1  C   UNL A   1      32.917  36.693  31.143  1.00  0.00     0.042 C 
ENDROOT
BRANCH   1   2
ATOM      2  C   UNL A   1      33.937  36.280  32.200  1.00  0.00     0.117 C 
BRANCH   2   3
ATOM      3  N   UNL A   1      33.625  34.994  32.796  1.00  0.00    -0.356 N 
ATOM      4  C   UNL A   1      34.450  34.123  33.446  1.00  0.00     0.224 C 
ATOM      5  O   UNL A   1      33.988  33.045  33.819  1.00  0.00    -0.275 OA
ATOM      6  H   UNL A   1      32.685  34.711  32.720  1.00  0.00     0.163 HD
BRANCH   4   7
ATOM      7  C   UNL A   1      35.897  34.501  33.711  1.00  0.00     0.135 C 
BRANCH   7   8
ATOM      8  C   UNL A   1      36.679  33.447  34.459  1.00  0.00    -0.034 A 
ATOM      9  C   UNL A   1      37.781  31.290  34.519  1.00  0.00     0.161 A 
ATOM     10  C   UNL A   1      37.080  32.268  33.814  1.00  0.00     0.054 A 
ATOM     11  C   UNL A   1      38.158  31.501  35.846  1.00  0.00     0.172 A 
ATOM     12  C   UNL A   1      37.766  32.670  36.496  1.00  0.00     0.063 A 
ATOM     13  C   UNL A   1      37.030  33.640  35.807  1.00  0.00     0.024 A 
ATOM     14  Br  UNL A   1      38.219  32.994  38.308  1.00  0.00    -0.047 Br
BRANCH   9  15
ATOM     15  O   UNL A   1      38.135  30.139  33.864  1.00  0.00    -0.493 OA
ATOM     16  C   UNL A   1      37.316  29.953  32.703  1.00  0.00     0.278 C 
ENDBRANCH   9  15
BRANCH  11  17
ATOM     17  O   UNL A   1      38.928  30.568  36.485  1.00  0.00    -0.503 OA
ATOM     18  H   UNL A   1      38.931  29.680  36.187  1.00  0.00     0.293 HD
ENDBRANCH  11  17
ENDBRANCH   7   8
ENDBRANCH   4   7
ENDBRANCH   2   3
ENDBRANCH   1   2
BRANCH   1  19
ATOM     19  C   UNL A   1      33.420  36.577  29.707  1.00  0.00     0.118 C 
BRANCH  19  20
ATOM     20  N   UNL A   1      32.684  35.585  28.935  1.00  0.00    -0.352 N 
ATOM     21  C   UNL A   1      33.079  34.369  28.438  1.00  0.00     0.251 C 
ATOM     22  H   UNL A   1      31.750  35.826  28.740  1.00  0.00     0.163 HD
ATOM     23  O   UNL A   1      32.342  33.775  27.653  1.00  0.00    -0.269 OA
BRANCH  21  24
ATOM     24  C   UNL A   1      34.378  33.769  28.814  1.00  0.00     0.039 A 
ATOM     25  C   UNL A   1      35.480  33.984  27.979  1.00  0.00     0.014 A 
ATOM     26  C   UNL A   1      34.513  32.957  29.944  1.00  0.00     0.014 A 
ATOM     27  C   UNL A   1      36.723  33.439  28.305  1.00  0.00     0.010 A 
ATOM     28  C   UNL A   1      35.767  32.467  30.305  1.00  0.00     0.010 A 
ATOM     29  C   UNL A   1      36.884  32.701  29.490  1.00  0.00    -0.014 A 
BRANCH  29  30
ATOM     30  C   UNL A   1      38.213  32.176  29.892  1.00  0.00     0.031 A 
ATOM     31  C   UNL A   1      38.689  30.842  29.394  1.00  0.00     0.074 A 
ATOM     32  C   UNL A   1      38.964  32.874  30.766  1.00  0.00     0.049 A 
ATOM     33  N   UNL A   1      39.782  30.188  29.696  1.00  0.00    -0.248 NA
ATOM     34  C   UNL A   1      37.808  30.137  28.451  1.00  0.00     0.031 C 
ATOM     35  C   UNL A   1      38.594  34.159  31.362  1.00  0.00     0.029 A 
ATOM     36  N   UNL A   1      40.188  32.591  31.319  1.00  0.00    -0.354 N 
ATOM     37  C   UNL A   1      39.714  28.991  28.996  1.00  0.00     0.074 A 
ATOM     38  C   UNL A   1      38.450  28.990  28.288  1.00  0.00     0.031 C 
ATOM     39  C   UNL A   1      39.574  34.558  32.187  1.00  0.00     0.029 A 
ATOM     40  C   UNL A   1      40.625  33.544  32.204  1.00  0.00     0.049 A 
ATOM     41  H   UNL A   1      40.703  31.780  31.100  1.00  0.00     0.167 HD
ATOM     42  C   UNL A   1      40.626  27.992  28.931  1.00  0.00     0.037 A 
ATOM     43  C   UNL A   1      41.742  33.593  32.955  1.00  0.00     0.037 A 
ATOM     44  C   UNL A   1      41.891  28.001  29.619  1.00  0.00     0.049 A 
ATOM     45  C   UNL A   1      42.743  32.478  32.864  1.00  0.00     0.074 A 
ATOM     46  C   UNL A   1      42.909  27.066  29.568  1.00  0.00     0.029 A 
ATOM     47  N   UNL A   1      42.309  28.999  30.487  1.00  0.00    -0.354 N 
ATOM     48  N   UNL A   1      42.694  31.382  32.147  1.00  0.00    -0.248 NA
ATOM     49  C   UNL A   1      43.956  32.609  33.681  1.00  0.00     0.031 C 
ATOM     50  C   UNL A   1      43.929  27.479  30.433  1.00  0.00     0.029 A 
ATOM     51  C   UNL A   1      43.562  28.692  30.993  1.00  0.00     0.049 A 
ATOM     52  H   UNL A   1      41.792  29.806  30.712  1.00  0.00     0.167 HD
ATOM     53  C   UNL A   1      43.876  30.702  32.411  1.00  0.00     0.074 A 
ATOM     54  C   UNL A   1      44.628  31.516  33.343  1.00  0.00     0.031 C 
ATOM     55  C   UNL A   1      44.297  29.510  31.922  1.00  0.00     0.037 A 
BRANCH  42  56
ATOM     56  C   UNL A   1      40.281  26.801  28.084  1.00  0.00     0.057 A 
ATOM     57  C   UNL A   1      40.783  26.652  26.784  1.00  0.00     0.134 A 
ATOM     58  C   UNL A   1      39.452  25.787  28.578  1.00  0.00     0.134 A 
ATOM     59  F   UNL A   1      41.574  27.593  26.248  1.00  0.00    -0.206 F 
ATOM     60  C   UNL A   1      40.445  25.552  25.994  1.00  0.00     0.040 A 
ATOM     61  C   UNL A   1      39.128  24.670  27.806  1.00  0.00     0.040 A 
ATOM     62  F   UNL A   1      38.944  25.863  29.816  1.00  0.00    -0.206 F 
ATOM     63  C   UNL A   1      39.618  24.554  26.506  1.00  0.00     0.006 A 
ENDBRANCH  42  56
BRANCH  43  64
ATOM     64  C   UNL A   1      41.976  34.758  33.841  1.00  0.00     0.057 A 
ATOM     65  C   UNL A   1      42.684  35.877  33.389  1.00  0.00     0.134 A 
ATOM     66  C   UNL A   1      41.483  34.790  35.151  1.00  0.00     0.134 A 
ATOM     67  F   UNL A   1      43.193  35.896  32.148  1.00  0.00    -0.206 F 
ATOM     68  C   UNL A   1      42.901  36.984  34.209  1.00  0.00     0.040 A 
ATOM     69  C   UNL A   1      41.675  35.899  35.976  1.00  0.00     0.040 A 
ATOM     70  F   UNL A   1      40.789  33.750  35.639  1.00  0.00    -0.206 F 
ATOM     71  C   UNL A   1      42.389  36.999  35.506  1.00  0.00     0.006 A 
ENDBRANCH  43  64
BRANCH  55  72
ATOM     72  C   UNL A   1      45.644  29.027  32.372  1.00  0.00     0.057 A 
ATOM     73  C   UNL A   1      46.810  29.319  31.653  1.00  0.00     0.134 A 
ATOM     74  C   UNL A   1      45.781  28.293  33.556  1.00  0.00     0.134 A 
ATOM     75  F   UNL A   1      46.744  30.007  30.503  1.00  0.00    -0.206 F 
ATOM     76  C   UNL A   1      48.063  28.881  32.087  1.00  0.00     0.040 A 
ATOM     77  C   UNL A   1      47.029  27.867  34.011  1.00  0.00     0.040 A 
ATOM     78  F   UNL A   1      44.703  27.984  34.295  1.00  0.00    -0.206 F 
ATOM     79  C   UNL A   1      48.175  28.158  33.273  1.00  0.00     0.006 A 
ENDBRANCH  55  72
ENDBRANCH  29  30
ENDBRANCH  21  24
ENDBRANCH  19  20
ENDBRANCH   1  19
TORSDOF 13
ENDMDL
MODEL 2
REMARK VINA RESULT:      -9.7      0.654      6.498
REMARK SMILES COc1cc(CC(=O)NCCCNC(=O)c2ccc(-c3c4nc(c(-c5c(F)cccc5F)c5ccc([nH]5)c(-c5c(F)cccc5F)c5nc(c(-c6c(F)cccc6F)c6ccc3[nH]6)C=C5)C=C4)cc2)cc(Br)c1O
REMARK SMILES IDX 11 1 10 2 9 3 7 4 8 5 6 7 5 8 3 9 4 10 73 11 71 12 70 13
REMARK SMILES IDX 72 14 2 15 1 16 74 17 12 19 13 20 14 21 15 23 16 24 17 25
REMARK SMILES IDX 69 26 18 27 68 28 19 29 20 30 21 31 62 32 22 33 67 34 61 35
REMARK SMILES IDX 63 36 23 37 66 38 60 39 59 40 24 42 50 43 33 44 49 45 34 46
REMARK SMILES IDX 37 47 48 48 64 49 35 50 36 51 47 53 65 54 38 55 25 56 26 57
REMARK SMILES IDX 31 58 27 59 28 60 30 61 32 62 29 63 51 64 52 65 57 66 53 67
REMARK SMILES IDX 54 68 56 69 58 70 55 71 39 72 40 73 45 74 41 75 42 76 44 77
REMARK SMILES IDX 46 78 43 79
REMARK H PARENT 9 6 74 18 13 22 63 41 37 52
REMARK Flexibility Score: inf
ROOT
ATOM      1  C   UNL A   1      32.589  36.257  31.404  1.00  0.00     0.042 C 
ENDROOT
BRANCH   1   2
ATOM      2  C   UNL A   1      33.271  35.311  32.390  1.00  0.00     0.117 C 
BRANCH   2   3
ATOM      3  N   UNL A   1      34.678  35.616  32.563  1.00  0.00    -0.356 N 
ATOM      4  C   UNL A   1      35.642  34.896  33.207  1.00  0.00     0.224 C 
ATOM      5  O   UNL A   1      36.773  35.375  33.294  1.00  0.00    -0.275 OA
ATOM      6  H   UNL A   1      34.981  36.462  32.159  1.00  0.00     0.163 HD
BRANCH   4   7
ATOM      7  C   UNL A   1      35.314  33.528  33.779  1.00  0.00     0.135 C 
BRANCH   7   8
ATOM      8  C   UNL A   1      36.481  32.852  34.461  1.00  0.00    -0.034 A 
ATOM      9  C   UNL A   1      38.146  31.093  34.533  1.00  0.00     0.161 A 
ATOM     10  C   UNL A   1      37.085  31.725  33.885  1.00  0.00     0.054 A 
ATOM     11  C   UNL A   1      38.668  31.614  35.718  1.00  0.00     0.172 A 
ATOM     12  C   UNL A   1      38.076  32.735  36.298  1.00  0.00     0.063 A 
ATOM     13  C   UNL A   1      36.987  33.352  35.673  1.00  0.00     0.024 A 
ATOM     14  Br  UNL A   1      38.720  33.465  37.924  1.00  0.00    -0.047 Br
BRANCH   9  15
ATOM     15  O   UNL A   1      38.697  29.979  33.954  1.00  0.00    -0.493 OA
ATOM     16  C   UNL A   1      37.784  29.405  33.011  1.00  0.00     0.278 C 
ENDBRANCH   9  15
BRANCH  11  17
ATOM     17  O   UNL A   1      39.770  31.032  36.283  1.00  0.00    -0.503 OA
ATOM     18  H   UNL A   1      40.231  30.359  35.824  1.00  0.00     0.293 HD
ENDBRANCH  11  17
ENDBRANCH   7   8
ENDBRANCH   4   7
ENDBRANCH   2   3
ENDBRANCH   1   2
BRANCH   1  19
ATOM     19  C   UNL A   1      33.255  36.317  30.032  1.00  0.00     0.118 C 
BRANCH  19  20
ATOM     20  N   UNL A   1      32.664  35.384  29.083  1.00  0.00    -0.352 N 
ATOM     21  C   UNL A   1      33.190  34.269  28.482  1.00  0.00     0.251 C 
ATOM     22  H   UNL A   1      31.734  35.587  28.832  1.00  0.00     0.163 HD
ATOM     23  O   UNL A   1      32.569  33.732  27.567  1.00  0.00    -0.269 OA
BRANCH  21  24
ATOM     24  C   UNL A   1      34.495  33.712  28.902  1.00  0.00     0.039 A 
ATOM     25  C   UNL A   1      34.537  32.888  30.032  1.00  0.00     0.014 A 
ATOM     26  C   UNL A   1      35.680  34.034  28.234  1.00  0.00     0.014 A 
ATOM     27  C   UNL A   1      35.751  32.339  30.453  1.00  0.00     0.010 A 
ATOM     28  C   UNL A   1      36.880  33.435  28.614  1.00  0.00     0.010 A 
ATOM     29  C   UNL A   1      36.928  32.584  29.728  1.00  0.00    -0.014 A 
BRANCH  29  30
ATOM     30  C   UNL A   1      38.214  31.951  30.116  1.00  0.00     0.031 A 
ATOM     31  C   UNL A   1      39.178  32.671  31.014  1.00  0.00     0.074 A 
ATOM     32  C   UNL A   1      38.544  30.751  29.601  1.00  0.00     0.049 A 
ATOM     33  N   UNL A   1      40.377  32.312  31.398  1.00  0.00    -0.248 NA
ATOM     34  C   UNL A   1      38.750  33.981  31.528  1.00  0.00     0.031 C 
ATOM     35  C   UNL A   1      37.717  29.970  28.679  1.00  0.00     0.029 A 
ATOM     36  N   UNL A   1      39.671  29.987  29.766  1.00  0.00    -0.354 N 
ATOM     37  C   UNL A   1      40.852  33.354  32.183  1.00  0.00     0.074 A 
ATOM     38  C   UNL A   1      39.829  34.380  32.184  1.00  0.00     0.031 C 
ATOM     39  C   UNL A   1      38.360  28.833  28.371  1.00  0.00     0.029 A 
ATOM     40  C   UNL A   1      39.655  28.819  29.044  1.00  0.00     0.049 A 
ATOM     41  H   UNL A   1      40.421  30.251  30.348  1.00  0.00     0.167 HD
ATOM     42  C   UNL A   1      42.023  33.444  32.858  1.00  0.00     0.037 A 
ATOM     43  C   UNL A   1      40.582  27.850  28.928  1.00  0.00     0.037 A 
ATOM     44  C   UNL A   1      43.032  32.416  32.874  1.00  0.00     0.049 A 
ATOM     45  C   UNL A   1      41.872  27.966  29.689  1.00  0.00     0.074 A 
ATOM     46  C   UNL A   1      44.223  32.386  33.576  1.00  0.00     0.029 A 
ATOM     47  N   UNL A   1      42.966  31.235  32.149  1.00  0.00    -0.354 N 
ATOM     48  N   UNL A   1      42.279  28.929  30.479  1.00  0.00    -0.248 NA
ATOM     49  C   UNL A   1      42.826  26.859  29.547  1.00  0.00     0.031 C 
ATOM     50  C   UNL A   1      44.896  31.203  33.249  1.00  0.00     0.029 A 
ATOM     51  C   UNL A   1      44.105  30.479  32.373  1.00  0.00     0.049 A 
ATOM     52  H   UNL A   1      42.220  30.974  31.562  1.00  0.00     0.167 HD
ATOM     53  C   UNL A   1      43.528  28.536  30.944  1.00  0.00     0.074 A 
ATOM     54  C   UNL A   1      43.804  27.241  30.358  1.00  0.00     0.031 C 
ATOM     55  C   UNL A   1      44.368  29.192  31.781  1.00  0.00     0.037 A 
BRANCH  42  56
ATOM     56  C   UNL A   1      42.274  34.704  33.634  1.00  0.00     0.057 A 
ATOM     57  C   UNL A   1      42.888  35.820  33.051  1.00  0.00     0.134 A 
ATOM     58  C   UNL A   1      41.883  34.809  34.975  1.00  0.00     0.134 A 
ATOM     59  F   UNL A   1      43.295  35.780  31.773  1.00  0.00    -0.206 F 
ATOM     60  C   UNL A   1      43.135  36.983  33.782  1.00  0.00     0.040 A 
ATOM     61  C   UNL A   1      42.102  35.975  35.709  1.00  0.00     0.040 A 
ATOM     62  F   UNL A   1      41.283  33.781  35.594  1.00  0.00    -0.206 F 
ATOM     63  C   UNL A   1      42.738  37.064  35.115  1.00  0.00     0.006 A 
ENDBRANCH  42  56
BRANCH  43  64
ATOM     64  C   UNL A   1      40.307  26.674  28.069  1.00  0.00     0.057 A 
ATOM     65  C   UNL A   1      39.450  25.654  28.497  1.00  0.00     0.134 A 
ATOM     66  C   UNL A   1      40.875  26.550  26.795  1.00  0.00     0.134 A 
ATOM     67  F   UNL A   1      38.890  25.711  29.714  1.00  0.00    -0.206 F 
ATOM     68  C   UNL A   1      39.174  24.548  27.693  1.00  0.00     0.040 A 
ATOM     69  C   UNL A   1      40.591  25.459  25.972  1.00  0.00     0.040 A 
ATOM     70  F   UNL A   1      41.698  27.500  26.326  1.00  0.00    -0.206 F 
ATOM     71  C   UNL A   1      39.741  24.452  26.423  1.00  0.00     0.006 A 
ENDBRANCH  43  64
BRANCH  55  72
ATOM     72  C   UNL A   1      45.656  28.507  32.129  1.00  0.00     0.057 A 
ATOM     73  C   UNL A   1      46.828  28.724  31.395  1.00  0.00     0.134 A 
ATOM     74  C   UNL A   1      45.733  27.649  33.233  1.00  0.00     0.134 A 
ATOM     75  F   UNL A   1      46.817  29.525  30.318  1.00  0.00    -0.206 F 
ATOM     76  C   UNL A   1      48.028  28.097  31.735  1.00  0.00     0.040 A 
ATOM     77  C   UNL A   1      46.930  27.033  33.595  1.00  0.00     0.040 A 
ATOM     78  F   UNL A   1      44.646  27.403  33.982  1.00  0.00    -0.206 F 
ATOM     79  C   UNL A   1      48.082  27.253  32.843  1.00  0.00     0.006 A 
ENDBRANCH  55  72
ENDBRANCH  29  30
ENDBRANCH  21  24
ENDBRANCH  19  20
ENDBRANCH   1  19
TORSDOF 13
ENDMDL
MODEL 3
REMARK VINA RESULT:      -9.2      4.971     10.291
REMARK SMILES COc1cc(CC(=O)NCCCNC(=O)c2ccc(-c3c4nc(c(-c5c(F)cccc5F)c5ccc([nH]5)c(-c5c(F)cccc5F)c5nc(c(-c6c(F)cccc6F)c6ccc3[nH]6)C=C5)C=C4)cc2)cc(Br)c1O
REMARK SMILES IDX 11 1 10 2 9 3 7 4 8 5 6 7 5 8 3 9 4 10 73 11 71 12 70 13
REMARK SMILES IDX 72 14 2 15 1 16 74 17 12 19 13 20 14 21 15 23 16 24 17 25
REMARK SMILES IDX 69 26 18 27 68 28 19 29 20 30 21 31 62 32 22 33 67 34 61 35
REMARK SMILES IDX 63 36 23 37 66 38 60 39 59 40 24 42 50 43 33 44 49 45 34 46
REMARK SMILES IDX 37 47 48 48 64 49 35 50 36 51 47 53 65 54 38 55 25 56 26 57
REMARK SMILES IDX 31 58 27 59 28 60 30 61 32 62 29 63 51 64 52 65 57 66 53 67
REMARK SMILES IDX 54 68 56 69 58 70 55 71 39 72 40 73 45 74 41 75 42 76 44 77
REMARK SMILES IDX 46 78 43 79
REMARK H PARENT 9 6 74 18 13 22 63 41 37 52
REMARK Flexibility Score: inf
ROOT
ATOM      1  C   UNL A   1      39.066  22.629  26.360  1.00  0.00     0.042 C 
ENDROOT
BRANCH   1   2
ATOM      2  C   UNL A   1      37.922  23.611  26.119  1.00  0.00     0.117 C 
BRANCH   2   3
ATOM      3  N   UNL A   1      37.518  23.654  24.726  1.00  0.00    -0.356 N 
ATOM      4  C   UNL A   1      36.845  22.718  23.996  1.00  0.00     0.224 C 
ATOM      5  O   UNL A   1      36.661  22.931  22.797  1.00  0.00    -0.275 OA
ATOM      6  H   UNL A   1      37.763  24.474  24.240  1.00  0.00     0.163 HD
BRANCH   4   7
ATOM      7  C   UNL A   1      36.327  21.458  24.667  1.00  0.00     0.135 C 
BRANCH   7   8
ATOM      8  C   UNL A   1      34.849  21.493  24.977  1.00  0.00    -0.034 A 
ATOM      9  C   UNL A   1      32.714  20.365  25.185  1.00  0.00     0.161 A 
ATOM     10  C   UNL A   1      34.082  20.320  24.919  1.00  0.00     0.054 A 
ATOM     11  C   UNL A   1      32.105  21.556  25.583  1.00  0.00     0.172 A 
ATOM     12  C   UNL A   1      32.857  22.728  25.646  1.00  0.00     0.063 A 
ATOM     13  C   UNL A   1      34.224  22.698  25.345  1.00  0.00     0.024 A 
ATOM     14  Br  UNL A   1      32.077  24.380  26.147  1.00  0.00    -0.047 Br
BRANCH   9  15
ATOM     15  O   UNL A   1      31.991  19.204  25.093  1.00  0.00    -0.493 OA
ATOM     16  C   UNL A   1      32.781  18.089  25.524  1.00  0.00     0.278 C 
ENDBRANCH   9  15
BRANCH  11  17
ATOM     17  O   UNL A   1      30.782  21.554  25.930  1.00  0.00    -0.503 OA
ATOM     18  H   UNL A   1      30.171  21.040  25.441  1.00  0.00     0.293 HD
ENDBRANCH  11  17
ENDBRANCH   7   8
ENDBRANCH   4   7
ENDBRANCH   2   3
ENDBRANCH   1   2
BRANCH   1  19
ATOM     19  C   UNL A   1      40.322  23.264  26.951  1.00  0.00     0.118 C 
BRANCH  19  20
ATOM     20  N   UNL A   1      41.064  24.048  25.973  1.00  0.00    -0.352 N 
ATOM     21  C   UNL A   1      41.413  25.375  25.973  1.00  0.00     0.251 C 
ATOM     22  H   UNL A   1      41.366  23.543  25.184  1.00  0.00     0.163 HD
ATOM     23  O   UNL A   1      41.884  25.870  24.950  1.00  0.00    -0.269 OA
BRANCH  21  24
ATOM     24  C   UNL A   1      41.217  26.223  27.169  1.00  0.00     0.039 A 
ATOM     25  C   UNL A   1      42.104  27.282  27.390  1.00  0.00     0.014 A 
ATOM     26  C   UNL A   1      40.209  25.956  28.100  1.00  0.00     0.014 A 
ATOM     27  C   UNL A   1      41.945  28.107  28.506  1.00  0.00     0.010 A 
ATOM     28  C   UNL A   1      40.009  26.819  29.178  1.00  0.00     0.010 A 
ATOM     29  C   UNL A   1      40.876  27.901  29.393  1.00  0.00    -0.014 A 
BRANCH  29  30
ATOM     30  C   UNL A   1      40.647  28.811  30.542  1.00  0.00     0.031 A 
ATOM     31  C   UNL A   1      39.574  29.860  30.483  1.00  0.00     0.074 A 
ATOM     32  C   UNL A   1      41.456  28.737  31.617  1.00  0.00     0.049 A 
ATOM     33  N   UNL A   1      39.277  30.791  31.355  1.00  0.00    -0.248 NA
ATOM     34  C   UNL A   1      38.739  29.883  29.273  1.00  0.00     0.031 C 
ATOM     35  C   UNL A   1      42.565  27.796  31.777  1.00  0.00     0.029 A 
ATOM     36  N   UNL A   1      41.479  29.480  32.771  1.00  0.00    -0.354 N 
ATOM     37  C   UNL A   1      38.236  31.518  30.794  1.00  0.00     0.074 A 
ATOM     38  C   UNL A   1      37.982  30.948  29.487  1.00  0.00     0.031 C 
ATOM     39  C   UNL A   1      43.153  28.010  32.965  1.00  0.00     0.029 A 
ATOM     40  C   UNL A   1      42.485  29.123  33.634  1.00  0.00     0.049 A 
ATOM     41  H   UNL A   1      40.835  30.201  32.961  1.00  0.00     0.167 HD
ATOM     42  C   UNL A   1      37.542  32.553  31.325  1.00  0.00     0.037 A 
ATOM     43  C   UNL A   1      42.837  29.638  34.827  1.00  0.00     0.037 A 
ATOM     44  C   UNL A   1      37.781  33.107  32.632  1.00  0.00     0.049 A 
ATOM     45  C   UNL A   1      42.051  30.782  35.399  1.00  0.00     0.074 A 
ATOM     46  C   UNL A   1      37.091  34.114  33.283  1.00  0.00     0.029 A 
ATOM     47  N   UNL A   1      38.794  32.699  33.488  1.00  0.00    -0.354 N 
ATOM     48  N   UNL A   1      41.027  31.418  34.884  1.00  0.00    -0.248 NA
ATOM     49  C   UNL A   1      42.465  31.275  36.719  1.00  0.00     0.031 C 
ATOM     50  C   UNL A   1      37.708  34.342  34.518  1.00  0.00     0.029 A 
ATOM     51  C   UNL A   1      38.759  33.449  34.653  1.00  0.00     0.049 A 
ATOM     52  H   UNL A   1      39.442  31.984  33.295  1.00  0.00     0.167 HD
ATOM     53  C   UNL A   1      40.661  32.373  35.824  1.00  0.00     0.074 A 
ATOM     54  C   UNL A   1      41.564  32.223  36.946  1.00  0.00     0.031 C 
ATOM     55  C   UNL A   1      39.666  33.290  35.760  1.00  0.00     0.037 A 
BRANCH  42  56
ATOM     56  C   UNL A   1      36.455  33.154  30.481  1.00  0.00     0.057 A 
ATOM     57  C   UNL A   1      36.740  34.034  29.429  1.00  0.00     0.134 A 
ATOM     58  C   UNL A   1      35.111  32.839  30.713  1.00  0.00     0.134 A 
ATOM     59  F   UNL A   1      38.007  34.385  29.161  1.00  0.00    -0.206 F 
ATOM     60  C   UNL A   1      35.725  34.604  28.659  1.00  0.00     0.040 A 
ATOM     61  C   UNL A   1      34.089  33.383  29.934  1.00  0.00     0.040 A 
ATOM     62  F   UNL A   1      34.768  31.997  31.700  1.00  0.00    -0.206 F 
ATOM     63  C   UNL A   1      34.394  34.276  28.908  1.00  0.00     0.006 A 
ENDBRANCH  42  56
BRANCH  43  64
ATOM     64  C   UNL A   1      43.982  29.055  35.566  1.00  0.00     0.057 A 
ATOM     65  C   UNL A   1      45.283  29.535  35.377  1.00  0.00     0.134 A 
ATOM     66  C   UNL A   1      43.803  28.020  36.493  1.00  0.00     0.134 A 
ATOM     67  F   UNL A   1      45.517  30.514  34.491  1.00  0.00    -0.206 F 
ATOM     68  C   UNL A   1      46.366  29.002  36.076  1.00  0.00     0.040 A 
ATOM     69  C   UNL A   1      44.874  27.491  37.214  1.00  0.00     0.040 A 
ATOM     70  F   UNL A   1      42.578  27.523  36.723  1.00  0.00    -0.206 F 
ATOM     71  C   UNL A   1      46.162  27.981  37.003  1.00  0.00     0.006 A 
ENDBRANCH  43  64
BRANCH  55  72
ATOM     72  C   UNL A   1      39.489  34.188  36.949  1.00  0.00     0.057 A 
ATOM     73  C   UNL A   1      39.980  35.499  36.961  1.00  0.00     0.134 A 
ATOM     74  C   UNL A   1      38.788  33.749  38.078  1.00  0.00     0.134 A 
ATOM     75  F   UNL A   1      40.672  35.976  35.914  1.00  0.00    -0.206 F 
ATOM     76  C   UNL A   1      39.797  36.336  38.063  1.00  0.00     0.040 A 
ATOM     77  C   UNL A   1      38.580  34.582  39.177  1.00  0.00     0.040 A 
ATOM     78  F   UNL A   1      38.286  32.505  38.128  1.00  0.00    -0.206 F 
ATOM     79  C   UNL A   1      39.089  35.880  39.173  1.00  0.00     0.006 A 
ENDBRANCH  55  72
ENDBRANCH  29  30
ENDBRANCH  21  24
ENDBRANCH  19  20
ENDBRANCH   1  19
TORSDOF 13
ENDMDL
