MODEL 1
REMARK VINA RESULT:     -10.4      0.000      0.000
REMARK SMILES C/C=C/C=C/C(=O)N[C@@H](C)CC(=O)NCCCNC(=O)c1ccc(-c2c3nc(c(-c4c(F)cccc4F)c4ccc([nH]4)c(-c4c(F)cccc4F)c4nc(c(-c5c(F)cccc5F)c5ccc2[nH]5)C=C4)C=C3)cc1
REMARK SMILES IDX 15 1 14 2 12 3 13 4 11 6 9 7 10 8 8 9 6 10 7 11 5 13 4 14
REMARK SMILES IDX 3 15 1 16 2 17 16 18 17 19 18 20 19 21 20 23 21 24 22 25
REMARK SMILES IDX 74 26 23 27 73 28 24 29 25 30 26 31 67 32 27 33 72 34 66 35
REMARK SMILES IDX 68 36 28 37 71 38 65 39 64 40 29 42 55 43 38 44 54 45 39 46
REMARK SMILES IDX 42 47 53 48 69 49 40 50 41 51 52 53 70 54 43 55 30 56 31 57
REMARK SMILES IDX 36 58 32 59 33 60 35 61 37 62 34 63 56 64 57 65 62 66 58 67
REMARK SMILES IDX 59 68 61 69 63 70 60 71 44 72 45 73 50 74 46 75 47 76 49 77
REMARK SMILES IDX 51 78 48 79
REMARK H PARENT 14 5 8 12 18 22 68 41 42 52
REMARK Flexibility Score: inf
ROOT
ATOM      1  C   UNL A   1      37.120  20.743  24.655  1.00  0.00     0.117 C 
ENDROOT
BRANCH   1   2
ATOM      2  N   UNL A   1      36.101  20.744  25.690  1.00  0.00    -0.356 N 
ATOM      3  C   UNL A   1      35.351  21.773  26.173  1.00  0.00     0.222 C 
ATOM      4  O   UNL A   1      34.630  21.563  27.151  1.00  0.00    -0.275 OA
ATOM      5  H   UNL A   1      35.925  19.869  26.105  1.00  0.00     0.163 HD
BRANCH   3   6
ATOM      6  C   UNL A   1      35.385  23.133  25.511  1.00  0.00     0.124 C 
BRANCH   6   7
ATOM      7  C   UNL A   1      34.224  23.310  24.527  1.00  0.00     0.088 C 
ATOM      8  C   UNL A   1      34.263  24.712  23.918  1.00  0.00     0.031 C 
BRANCH   7   9
ATOM      9  N   UNL A   1      32.919  23.148  25.175  1.00  0.00    -0.350 N 
ATOM     10  C   UNL A   1      31.961  22.189  25.065  1.00  0.00     0.244 C 
ATOM     11  O   UNL A   1      30.944  22.278  25.751  1.00  0.00    -0.270 OA
ATOM     12  H   UNL A   1      32.694  23.868  25.809  1.00  0.00     0.164 HD
BRANCH  10  13
ATOM     13  C   UNL A   1      32.178  20.974  24.255  1.00  0.00     0.071 C 
ATOM     14  C   UNL A   1      32.669  19.822  24.727  1.00  0.00     0.005 C 
BRANCH  14  15
ATOM     15  C   UNL A   1      32.844  18.655  23.894  1.00  0.00    -0.004 C 
ATOM     16  C   UNL A   1      34.114  16.619  23.186  1.00  0.00     0.035 C 
ATOM     17  C   UNL A   1      33.911  17.849  24.008  1.00  0.00    -0.030 C 
ENDBRANCH  14  15
ENDBRANCH  10  13
ENDBRANCH   7   9
ENDBRANCH   6   7
ENDBRANCH   3   6
ENDBRANCH   1   2
BRANCH   1  18
ATOM     18  C   UNL A   1      38.134  19.626  24.874  1.00  0.00     0.042 C 
BRANCH  18  19
ATOM     19  C   UNL A   1      39.095  19.877  26.028  1.00  0.00     0.118 C 
BRANCH  19  20
ATOM     20  N   UNL A   1      40.348  19.160  25.862  1.00  0.00    -0.352 N 
ATOM     21  C   UNL A   1      41.645  19.596  25.924  1.00  0.00     0.251 C 
ATOM     22  H   UNL A   1      40.248  18.199  25.672  1.00  0.00     0.163 HD
ATOM     23  O   UNL A   1      42.538  18.847  25.519  1.00  0.00    -0.269 OA
BRANCH  21  24
ATOM     24  C   UNL A   1      42.009  20.931  26.461  1.00  0.00     0.039 A 
ATOM     25  C   UNL A   1      41.964  21.121  27.847  1.00  0.00     0.014 A 
ATOM     26  C   UNL A   1      42.297  22.019  25.632  1.00  0.00     0.014 A 
ATOM     27  C   UNL A   1      42.226  22.381  28.396  1.00  0.00     0.010 A 
ATOM     28  C   UNL A   1      42.641  23.256  26.184  1.00  0.00     0.010 A 
ATOM     29  C   UNL A   1      42.581  23.458  27.570  1.00  0.00    -0.014 A 
BRANCH  29  30
ATOM     30  C   UNL A   1      42.830  24.807  28.142  1.00  0.00     0.031 A 
ATOM     31  C   UNL A   1      44.224  25.216  28.544  1.00  0.00     0.074 A 
ATOM     32  C   UNL A   1      41.806  25.664  28.320  1.00  0.00     0.049 A 
ATOM     33  N   UNL A   1      44.636  26.340  29.078  1.00  0.00    -0.248 NA
ATOM     34  C   UNL A   1      45.292  24.224  28.343  1.00  0.00     0.031 C 
ATOM     35  C   UNL A   1      40.403  25.382  28.014  1.00  0.00     0.029 A 
ATOM     36  N   UNL A   1      41.789  26.949  28.803  1.00  0.00    -0.354 N 
ATOM     37  C   UNL A   1      46.000  26.181  29.291  1.00  0.00     0.074 A 
ATOM     38  C   UNL A   1      46.339  24.837  28.875  1.00  0.00     0.031 C 
ATOM     39  C   UNL A   1      39.667  26.472  28.288  1.00  0.00     0.029 A 
ATOM     40  C   UNL A   1      40.539  27.517  28.814  1.00  0.00     0.049 A 
ATOM     41  H   UNL A   1      42.597  27.419  29.112  1.00  0.00     0.167 HD
ATOM     42  C   UNL A   1      46.897  27.078  29.765  1.00  0.00     0.037 A 
ATOM     43  C   UNL A   1      40.141  28.744  29.200  1.00  0.00     0.037 A 
ATOM     44  C   UNL A   1      46.576  28.429  30.140  1.00  0.00     0.049 A 
ATOM     45  C   UNL A   1      41.157  29.728  29.706  1.00  0.00     0.074 A 
ATOM     46  C   UNL A   1      47.427  29.431  30.573  1.00  0.00     0.029 A 
ATOM     47  N   UNL A   1      45.300  28.969  30.119  1.00  0.00    -0.354 N 
ATOM     48  N   UNL A   1      42.453  29.581  29.846  1.00  0.00    -0.248 NA
ATOM     49  C   UNL A   1      40.657  31.054  30.101  1.00  0.00     0.031 C 
ATOM     50  C   UNL A   1      46.661  30.571  30.841  1.00  0.00     0.029 A 
ATOM     51  C   UNL A   1      45.339  30.287  30.544  1.00  0.00     0.049 A 
ATOM     52  H   UNL A   1      44.486  28.488  29.843  1.00  0.00     0.167 HD
ATOM     53  C   UNL A   1      42.924  30.797  30.323  1.00  0.00     0.074 A 
ATOM     54  C   UNL A   1      41.779  31.677  30.435  1.00  0.00     0.031 C 
ATOM     55  C   UNL A   1      44.192  31.153  30.642  1.00  0.00     0.037 A 
BRANCH  42  56
ATOM     56  C   UNL A   1      48.322  26.629  29.891  1.00  0.00     0.057 A 
ATOM     57  C   UNL A   1      48.781  25.948  31.026  1.00  0.00     0.134 A 
ATOM     58  C   UNL A   1      49.238  26.848  28.854  1.00  0.00     0.134 A 
ATOM     59  F   UNL A   1      47.957  25.718  32.060  1.00  0.00    -0.206 F 
ATOM     60  C   UNL A   1      50.105  25.520  31.136  1.00  0.00     0.040 A 
ATOM     61  C   UNL A   1      50.559  26.405  28.942  1.00  0.00     0.040 A 
ATOM     62  F   UNL A   1      48.862  27.488  27.738  1.00  0.00    -0.206 F 
ATOM     63  C   UNL A   1      50.997  25.743  30.088  1.00  0.00     0.006 A 
ENDBRANCH  42  56
BRANCH  43  64
ATOM     64  C   UNL A   1      38.712  29.128  29.095  1.00  0.00     0.057 A 
ATOM     65  C   UNL A   1      38.178  29.592  27.886  1.00  0.00     0.134 A 
ATOM     66  C   UNL A   1      37.851  29.052  30.195  1.00  0.00     0.134 A 
ATOM     67  F   UNL A   1      38.961  29.706  26.803  1.00  0.00    -0.206 F 
ATOM     68  C   UNL A   1      36.843  29.983  27.780  1.00  0.00     0.040 A 
ATOM     69  C   UNL A   1      36.508  29.419  30.098  1.00  0.00     0.040 A 
ATOM     70  F   UNL A   1      38.303  28.613  31.380  1.00  0.00    -0.206 F 
ATOM     71  C   UNL A   1      36.003  29.893  28.888  1.00  0.00     0.006 A 
ENDBRANCH  43  64
BRANCH  55  72
ATOM     72  C   UNL A   1      44.411  32.557  31.115  1.00  0.00     0.057 A 
ATOM     73  C   UNL A   1      44.664  33.603  30.220  1.00  0.00     0.134 A 
ATOM     74  C   UNL A   1      44.335  32.873  32.477  1.00  0.00     0.134 A 
ATOM     75  F   UNL A   1      44.764  33.363  28.904  1.00  0.00    -0.206 F 
ATOM     76  C   UNL A   1      44.853  34.912  30.665  1.00  0.00     0.040 A 
ATOM     77  C   UNL A   1      44.499  34.181  32.932  1.00  0.00     0.040 A 
ATOM     78  F   UNL A   1      44.087  31.915  33.385  1.00  0.00    -0.206 F 
ATOM     79  C   UNL A   1      44.764  35.205  32.025  1.00  0.00     0.006 A 
ENDBRANCH  55  72
ENDBRANCH  29  30
ENDBRANCH  21  24
ENDBRANCH  19  20
ENDBRANCH  18  19
ENDBRANCH   1  18
TORSDOF 14
ENDMDL
MODEL 2
REMARK VINA RESULT:     -10.3      0.547      6.525
REMARK SMILES C/C=C/C=C/C(=O)N[C@@H](C)CC(=O)NCCCNC(=O)c1ccc(-c2c3nc(c(-c4c(F)cccc4F)c4ccc([nH]4)c(-c4c(F)cccc4F)c4nc(c(-c5c(F)cccc5F)c5ccc2[nH]5)C=C4)C=C3)cc1
REMARK SMILES IDX 15 1 14 2 12 3 13 4 11 6 9 7 10 8 8 9 6 10 7 11 5 13 4 14
REMARK SMILES IDX 3 15 1 16 2 17 16 18 17 19 18 20 19 21 20 23 21 24 22 25
REMARK SMILES IDX 74 26 23 27 73 28 24 29 25 30 26 31 67 32 27 33 72 34 66 35
REMARK SMILES IDX 68 36 28 37 71 38 65 39 64 40 29 42 55 43 38 44 54 45 39 46
REMARK SMILES IDX 42 47 53 48 69 49 40 50 41 51 52 53 70 54 43 55 30 56 31 57
REMARK SMILES IDX 36 58 32 59 33 60 35 61 37 62 34 63 56 64 57 65 62 66 58 67
REMARK SMILES IDX 59 68 61 69 63 70 60 71 44 72 45 73 50 74 46 75 47 76 49 77
REMARK SMILES IDX 51 78 48 79
REMARK H PARENT 14 5 8 12 18 22 68 41 42 52
REMARK Flexibility Score: inf
ROOT
ATOM      1  C   UNL A   1      36.617  20.707  24.688  1.00  0.00     0.117 C 
ENDROOT
BRANCH   1   2
ATOM      2  N   UNL A   1      35.673  20.676  25.792  1.00  0.00    -0.356 N 
ATOM      3  C   UNL A   1      35.057  21.703  26.440  1.00  0.00     0.222 C 
ATOM      4  O   UNL A   1      34.385  21.444  27.440  1.00  0.00    -0.275 OA
ATOM      5  H   UNL A   1      35.442  19.777  26.121  1.00  0.00     0.163 HD
BRANCH   3   6
ATOM      6  C   UNL A   1      35.175  23.123  25.930  1.00  0.00     0.124 C 
BRANCH   6   7
ATOM      7  C   UNL A   1      34.143  23.417  24.836  1.00  0.00     0.088 C 
ATOM      8  C   UNL A   1      34.313  24.850  24.329  1.00  0.00     0.031 C 
BRANCH   7   9
ATOM      9  N   UNL A   1      32.767  23.283  25.324  1.00  0.00    -0.350 N 
ATOM     10  C   UNL A   1      31.798  22.365  25.069  1.00  0.00     0.244 C 
ATOM     11  O   UNL A   1      30.711  22.468  25.636  1.00  0.00    -0.270 OA
ATOM     12  H   UNL A   1      32.494  23.990  25.953  1.00  0.00     0.164 HD
BRANCH  10  13
ATOM     13  C   UNL A   1      32.067  21.169  24.245  1.00  0.00     0.071 C 
ATOM     14  C   UNL A   1      32.496  19.995  24.724  1.00  0.00     0.005 C 
BRANCH  14  15
ATOM     15  C   UNL A   1      32.727  18.849  23.877  1.00  0.00    -0.004 C 
ATOM     16  C   UNL A   1      34.004  16.794  23.242  1.00  0.00     0.035 C 
ATOM     17  C   UNL A   1      33.750  18.004  24.079  1.00  0.00    -0.030 C 
ENDBRANCH  14  15
ENDBRANCH  10  13
ENDBRANCH   7   9
ENDBRANCH   6   7
ENDBRANCH   3   6
ENDBRANCH   1   2
BRANCH   1  18
ATOM     18  C   UNL A   1      37.762  19.725  24.909  1.00  0.00     0.042 C 
BRANCH  18  19
ATOM     19  C   UNL A   1      38.838  20.229  25.860  1.00  0.00     0.118 C 
BRANCH  19  20
ATOM     20  N   UNL A   1      39.973  19.323  25.932  1.00  0.00    -0.352 N 
ATOM     21  C   UNL A   1      41.306  19.572  26.128  1.00  0.00     0.251 C 
ATOM     22  H   UNL A   1      39.746  18.372  25.819  1.00  0.00     0.163 HD
ATOM     23  O   UNL A   1      42.110  18.660  25.917  1.00  0.00    -0.269 OA
BRANCH  21  24
ATOM     24  C   UNL A   1      41.810  20.891  26.583  1.00  0.00     0.039 A 
ATOM     25  C   UNL A   1      41.788  21.170  27.955  1.00  0.00     0.014 A 
ATOM     26  C   UNL A   1      42.209  21.890  25.690  1.00  0.00     0.014 A 
ATOM     27  C   UNL A   1      42.183  22.426  28.426  1.00  0.00     0.010 A 
ATOM     28  C   UNL A   1      42.683  23.114  26.166  1.00  0.00     0.010 A 
ATOM     29  C   UNL A   1      42.648  23.407  27.536  1.00  0.00    -0.014 A 
BRANCH  29  30
ATOM     30  C   UNL A   1      43.039  24.755  28.026  1.00  0.00     0.031 A 
ATOM     31  C   UNL A   1      41.986  25.798  28.300  1.00  0.00     0.074 A 
ATOM     32  C   UNL A   1      44.340  25.056  28.209  1.00  0.00     0.049 A 
ATOM     33  N   UNL A   1      42.132  27.034  28.711  1.00  0.00    -0.248 NA
ATOM     34  C   UNL A   1      40.588  25.411  28.059  1.00  0.00     0.031 C 
ATOM     35  C   UNL A   1      45.462  24.156  27.941  1.00  0.00     0.029 A 
ATOM     36  N   UNL A   1      44.935  26.206  28.664  1.00  0.00    -0.354 N 
ATOM     37  C   UNL A   1      40.851  27.571  28.759  1.00  0.00     0.074 A 
ATOM     38  C   UNL A   1      39.945  26.546  28.289  1.00  0.00     0.031 C 
ATOM     39  C   UNL A   1      46.608  24.776  28.266  1.00  0.00     0.029 A 
ATOM     40  C   UNL A   1      46.305  26.125  28.737  1.00  0.00     0.049 A 
ATOM     41  H   UNL A   1      44.429  27.012  28.915  1.00  0.00     0.167 HD
ATOM     42  C   UNL A   1      40.458  28.797  29.180  1.00  0.00     0.037 A 
ATOM     43  C   UNL A   1      47.213  27.033  29.141  1.00  0.00     0.037 A 
ATOM     44  C   UNL A   1      41.348  29.806  29.688  1.00  0.00     0.049 A 
ATOM     45  C   UNL A   1      46.751  28.380  29.620  1.00  0.00     0.074 A 
ATOM     46  C   UNL A   1      41.037  31.056  30.195  1.00  0.00     0.029 A 
ATOM     47  N   UNL A   1      42.726  29.677  29.761  1.00  0.00    -0.354 N 
ATOM     48  N   UNL A   1      45.531  28.851  29.713  1.00  0.00    -0.248 NA
ATOM     49  C   UNL A   1      47.794  29.321  30.057  1.00  0.00     0.031 C 
ATOM     50  C   UNL A   1      42.231  31.695  30.549  1.00  0.00     0.029 A 
ATOM     51  C   UNL A   1      43.280  30.829  30.292  1.00  0.00     0.049 A 
ATOM     52  H   UNL A   1      43.235  28.883  29.477  1.00  0.00     0.167 HD
ATOM     53  C   UNL A   1      45.657  30.131  30.239  1.00  0.00     0.074 A 
ATOM     54  C   UNL A   1      47.070  30.358  30.458  1.00  0.00     0.031 C 
ATOM     55  C   UNL A   1      44.688  31.037  30.512  1.00  0.00     0.037 A 
BRANCH  42  56
ATOM     56  C   UNL A   1      38.993  29.111  29.121  1.00  0.00     0.057 A 
ATOM     57  C   UNL A   1      38.167  28.982  30.245  1.00  0.00     0.134 A 
ATOM     58  C   UNL A   1      38.407  29.580  27.938  1.00  0.00     0.134 A 
ATOM     59  F   UNL A   1      38.664  28.527  31.405  1.00  0.00    -0.206 F 
ATOM     60  C   UNL A   1      36.806  29.287  30.190  1.00  0.00     0.040 A 
ATOM     61  C   UNL A   1      37.051  29.909  27.876  1.00  0.00     0.040 A 
ATOM     62  F   UNL A   1      39.142  29.731  26.827  1.00  0.00    -0.206 F 
ATOM     63  C   UNL A   1      36.246  29.758  29.004  1.00  0.00     0.006 A 
ENDBRANCH  42  56
BRANCH  43  64
ATOM     64  C   UNL A   1      48.656  26.689  29.142  1.00  0.00     0.057 A 
ATOM     65  C   UNL A   1      49.267  26.152  30.281  1.00  0.00     0.134 A 
ATOM     66  C   UNL A   1      49.458  26.898  28.015  1.00  0.00     0.134 A 
ATOM     67  F   UNL A   1      48.552  25.949  31.398  1.00  0.00    -0.206 F 
ATOM     68  C   UNL A   1      50.629  25.850  30.306  1.00  0.00     0.040 A 
ATOM     69  C   UNL A   1      50.817  26.581  28.018  1.00  0.00     0.040 A 
ATOM     70  F   UNL A   1      48.930  27.409  26.893  1.00  0.00    -0.206 F 
ATOM     71  C   UNL A   1      51.407  26.062  29.170  1.00  0.00     0.006 A 
ENDBRANCH  43  64
BRANCH  55  72
ATOM     72  C   UNL A   1      45.121  32.344  31.104  1.00  0.00     0.057 A 
ATOM     73  C   UNL A   1      45.241  32.521  32.487  1.00  0.00     0.134 A 
ATOM     74  C   UNL A   1      45.453  33.426  30.279  1.00  0.00     0.134 A 
ATOM     75  F   UNL A   1      44.923  31.527  33.330  1.00  0.00    -0.206 F 
ATOM     76  C   UNL A   1      45.658  33.736  33.032  1.00  0.00     0.040 A 
ATOM     77  C   UNL A   1      45.893  34.638  30.811  1.00  0.00     0.040 A 
ATOM     78  F   UNL A   1      45.366  33.317  28.945  1.00  0.00    -0.206 F 
ATOM     79  C   UNL A   1      45.992  34.797  32.192  1.00  0.00     0.006 A 
ENDBRANCH  55  72
ENDBRANCH  29  30
ENDBRANCH  21  24
ENDBRANCH  19  20
ENDBRANCH  18  19
ENDBRANCH   1  18
TORSDOF 14
ENDMDL
MODEL 3
REMARK VINA RESULT:     -10.2      3.999      9.021
REMARK SMILES C/C=C/C=C/C(=O)N[C@@H](C)CC(=O)NCCCNC(=O)c1ccc(-c2c3nc(c(-c4c(F)cccc4F)c4ccc([nH]4)c(-c4c(F)cccc4F)c4nc(c(-c5c(F)cccc5F)c5ccc2[nH]5)C=C4)C=C3)cc1
REMARK SMILES IDX 15 1 14 2 12 3 13 4 11 6 9 7 10 8 8 9 6 10 7 11 5 13 4 14
REMARK SMILES IDX 3 15 1 16 2 17 16 18 17 19 18 20 19 21 20 23 21 24 22 25
REMARK SMILES IDX 74 26 23 27 73 28 24 29 25 30 26 31 67 32 27 33 72 34 66 35
REMARK SMILES IDX 68 36 28 37 71 38 65 39 64 40 29 42 55 43 38 44 54 45 39 46
REMARK SMILES IDX 42 47 53 48 69 49 40 50 41 51 52 53 70 54 43 55 30 56 31 57
REMARK SMILES IDX 36 58 32 59 33 60 35 61 37 62 34 63 56 64 57 65 62 66 58 67
REMARK SMILES IDX 59 68 61 69 63 70 60 71 44 72 45 73 50 74 46 75 47 76 49 77
REMARK SMILES IDX 51 78 48 79
REMARK H PARENT 14 5 8 12 18 22 68 41 42 52
REMARK Flexibility Score: inf
ROOT
ATOM      1  C   UNL A   1      31.369  30.838  26.064  1.00  0.00     0.117 C 
ENDROOT
BRANCH   1   2
ATOM      2  N   UNL A   1      32.632  30.207  26.407  1.00  0.00    -0.356 N 
ATOM      3  C   UNL A   1      32.873  29.015  27.019  1.00  0.00     0.222 C 
ATOM      4  O   UNL A   1      34.034  28.738  27.325  1.00  0.00    -0.275 OA
ATOM      5  H   UNL A   1      33.436  30.719  26.159  1.00  0.00     0.163 HD
BRANCH   3   6
ATOM      6  C   UNL A   1      31.745  28.044  27.294  1.00  0.00     0.124 C 
BRANCH   6   7
ATOM      7  C   UNL A   1      31.761  26.869  26.311  1.00  0.00     0.088 C 
ATOM      8  C   UNL A   1      31.021  27.251  25.028  1.00  0.00     0.031 C 
BRANCH   7   9
ATOM      9  N   UNL A   1      31.104  25.679  26.860  1.00  0.00    -0.350 N 
ATOM     10  C   UNL A   1      31.335  24.351  26.686  1.00  0.00     0.244 C 
ATOM     11  O   UNL A   1      30.640  23.537  27.292  1.00  0.00    -0.270 OA
ATOM     12  H   UNL A   1      30.357  25.879  27.470  1.00  0.00     0.164 HD
BRANCH  10  13
ATOM     13  C   UNL A   1      32.491  23.866  25.903  1.00  0.00     0.071 C 
ATOM     14  C   UNL A   1      33.749  23.814  26.356  1.00  0.00     0.005 C 
BRANCH  14  15
ATOM     15  C   UNL A   1      34.841  23.314  25.555  1.00  0.00    -0.004 C 
ATOM     16  C   UNL A   1      37.249  23.285  24.877  1.00  0.00     0.035 C 
ATOM     17  C   UNL A   1      36.089  23.796  25.666  1.00  0.00    -0.030 C 
ENDBRANCH  14  15
ENDBRANCH  10  13
ENDBRANCH   7   9
ENDBRANCH   6   7
ENDBRANCH   3   6
ENDBRANCH   1   2
BRANCH   1  18
ATOM     18  C   UNL A   1      31.316  32.280  26.555  1.00  0.00     0.042 C 
BRANCH  18  19
ATOM     19  C   UNL A   1      32.648  32.812  27.064  1.00  0.00     0.118 C 
BRANCH  19  20
ATOM     20  N   UNL A   1      32.499  34.071  27.776  1.00  0.00    -0.352 N 
ATOM     21  C   UNL A   1      33.186  34.582  28.845  1.00  0.00     0.251 C 
ATOM     22  H   UNL A   1      31.782  34.652  27.434  1.00  0.00     0.163 HD
ATOM     23  O   UNL A   1      32.724  35.571  29.422  1.00  0.00    -0.269 OA
BRANCH  21  24
ATOM     24  C   UNL A   1      34.459  33.992  29.327  1.00  0.00     0.039 A 
ATOM     25  C   UNL A   1      35.638  34.315  28.643  1.00  0.00     0.014 A 
ATOM     26  C   UNL A   1      34.507  33.059  30.366  1.00  0.00     0.014 A 
ATOM     27  C   UNL A   1      36.852  33.726  29.013  1.00  0.00     0.010 A 
ATOM     28  C   UNL A   1      35.732  32.536  30.789  1.00  0.00     0.010 A 
ATOM     29  C   UNL A   1      36.913  32.841  30.100  1.00  0.00    -0.014 A 
BRANCH  29  30
ATOM     30  C   UNL A   1      38.193  32.187  30.478  1.00  0.00     0.031 A 
ATOM     31  C   UNL A   1      39.076  32.800  31.534  1.00  0.00     0.074 A 
ATOM     32  C   UNL A   1      38.578  31.051  29.864  1.00  0.00     0.049 A 
ATOM     33  N   UNL A   1      40.236  32.389  31.985  1.00  0.00    -0.248 NA
ATOM     34  C   UNL A   1      38.606  34.052  32.148  1.00  0.00     0.031 C 
ATOM     35  C   UNL A   1      37.841  30.374  28.796  1.00  0.00     0.029 A 
ATOM     36  N   UNL A   1      39.688  30.265  30.053  1.00  0.00    -0.354 N 
ATOM     37  C   UNL A   1      40.638  33.339  32.917  1.00  0.00     0.074 A 
ATOM     38  C   UNL A   1      39.624  34.371  32.933  1.00  0.00     0.031 C 
ATOM     39  C   UNL A   1      38.503  29.259  28.445  1.00  0.00     0.029 A 
ATOM     40  C   UNL A   1      39.722  29.157  29.241  1.00  0.00     0.049 A 
ATOM     41  H   UNL A   1      40.392  30.476  30.707  1.00  0.00     0.167 HD
ATOM     42  C   UNL A   1      41.737  33.341  33.708  1.00  0.00     0.037 A 
ATOM     43  C   UNL A   1      40.632  28.168  29.152  1.00  0.00     0.037 A 
ATOM     44  C   UNL A   1      42.727  32.298  33.729  1.00  0.00     0.049 A 
ATOM     45  C   UNL A   1      41.834  28.184  30.053  1.00  0.00     0.074 A 
ATOM     46  C   UNL A   1      43.843  32.182  34.539  1.00  0.00     0.029 A 
ATOM     47  N   UNL A   1      42.715  31.185  32.903  1.00  0.00    -0.354 N 
ATOM     48  N   UNL A   1      42.170  29.059  30.970  1.00  0.00    -0.248 NA
ATOM     49  C   UNL A   1      42.783  27.069  29.911  1.00  0.00     0.031 C 
ATOM     50  C   UNL A   1      44.523  31.011  34.184  1.00  0.00     0.029 A 
ATOM     51  C   UNL A   1      43.811  30.383  33.176  1.00  0.00     0.049 A 
ATOM     52  H   UNL A   1      42.028  30.992  32.224  1.00  0.00     0.167 HD
ATOM     53  C   UNL A   1      43.352  28.591  31.528  1.00  0.00     0.074 A 
ATOM     54  C   UNL A   1      43.669  27.347  30.858  1.00  0.00     0.031 C 
ATOM     55  C   UNL A   1      44.108  29.144  32.506  1.00  0.00     0.037 A 
BRANCH  42  56
ATOM     56  C   UNL A   1      41.920  34.508  34.633  1.00  0.00     0.057 A 
ATOM     57  C   UNL A   1      41.447  34.484  35.951  1.00  0.00     0.134 A 
ATOM     58  C   UNL A   1      42.607  35.654  34.213  1.00  0.00     0.134 A 
ATOM     59  F   UNL A   1      40.769  33.420  36.410  1.00  0.00    -0.206 F 
ATOM     60  C   UNL A   1      41.630  35.566  36.813  1.00  0.00     0.040 A 
ATOM     61  C   UNL A   1      42.816  36.734  35.073  1.00  0.00     0.040 A 
ATOM     62  F   UNL A   1      43.091  35.739  32.966  1.00  0.00    -0.206 F 
ATOM     63  C   UNL A   1      42.322  36.694  36.375  1.00  0.00     0.006 A 
ENDBRANCH  42  56
BRANCH  43  64
ATOM     64  C   UNL A   1      40.427  27.056  28.192  1.00  0.00     0.057 A 
ATOM     65  C   UNL A   1      39.621  25.959  28.522  1.00  0.00     0.134 A 
ATOM     66  C   UNL A   1      41.036  27.056  26.933  1.00  0.00     0.134 A 
ATOM     67  F   UNL A   1      39.029  25.896  29.724  1.00  0.00    -0.206 F 
ATOM     68  C   UNL A   1      39.442  24.893  27.640  1.00  0.00     0.040 A 
ATOM     69  C   UNL A   1      40.848  26.006  26.032  1.00  0.00     0.040 A 
ATOM     70  F   UNL A   1      41.818  28.079  26.558  1.00  0.00    -0.206 F 
ATOM     71  C   UNL A   1      40.054  24.917  26.389  1.00  0.00     0.006 A 
ENDBRANCH  43  64
BRANCH  55  72
ATOM     72  C   UNL A   1      45.336  28.395  32.929  1.00  0.00     0.057 A 
ATOM     73  C   UNL A   1      46.583  28.637  32.342  1.00  0.00     0.134 A 
ATOM     74  C   UNL A   1      45.275  27.446  33.957  1.00  0.00     0.134 A 
ATOM     75  F   UNL A   1      46.704  29.524  31.343  1.00  0.00    -0.206 F 
ATOM     76  C   UNL A   1      47.725  27.947  32.750  1.00  0.00     0.040 A 
ATOM     77  C   UNL A   1      46.414  26.766  34.389  1.00  0.00     0.040 A 
ATOM     78  F   UNL A   1      44.110  27.174  34.565  1.00  0.00    -0.206 F 
ATOM     79  C   UNL A   1      47.643  27.013  33.781  1.00  0.00     0.006 A 
ENDBRANCH  55  72
ENDBRANCH  29  30
ENDBRANCH  21  24
ENDBRANCH  19  20
ENDBRANCH  18  19
ENDBRANCH   1  18
TORSDOF 14
ENDMDL
