MODEL 1
REMARK VINA RESULT:     -14.2      0.000      0.000
REMARK SMILES Cc1ccc(-c2nc(NC(=O)[C@H]3[C@@H](C(=O)NCCCNC(=O)c4ccc(-c5c6nc(c(-c7c(F)cccc7F)c7ccc([nH]7)c(-c7c(F)cccc7F)c7nc(c(-c8c(F)cccc8F)c8ccc5[nH]8)C=C7)C=C6)cc4)[C@@H]4CC[C@H]3O4)sc2C)cc1
REMARK SMILES IDX 17 1 16 2 14 3 15 4 13 6 12 7 80 8 77 9 79 10 81 11 78 12
REMARK SMILES IDX 10 13 9 14 11 16 8 17 6 18 7 19 83 20 82 21 84 22 5 23 1 24
REMARK SMILES IDX 2 25 3 26 86 27 4 28 85 29 18 30 19 31 20 32 21 33 22 35
REMARK SMILES IDX 23 36 24 37 76 38 25 39 75 40 26 41 27 42 28 43 69 44 29 45
REMARK SMILES IDX 74 46 68 47 70 48 30 49 73 50 67 51 66 52 31 54 57 55 40 56
REMARK SMILES IDX 56 57 41 58 44 59 55 60 71 61 42 62 43 63 54 65 72 66 45 67
REMARK SMILES IDX 32 68 33 69 38 70 34 71 35 72 37 73 39 74 36 75 58 76 59 77
REMARK SMILES IDX 64 78 60 79 61 80 63 81 65 82 62 83 46 84 47 85 52 86 48 87
REMARK SMILES IDX 49 88 51 89 53 90 50 91
REMARK H PARENT 16 5 9 15 20 34 70 53 44 64
REMARK Flexibility Score: inf
ROOT
ATOM      1  C   UNL A   1      31.941  30.294  25.510  1.00  0.00     0.117 C 
ENDROOT
BRANCH   1   2
ATOM      2  N   UNL A   1      33.031  29.682  24.772  1.00  0.00    -0.356 N 
ATOM      3  C   UNL A   1      32.869  28.894  23.669  1.00  0.00     0.226 C 
ATOM      4  O   UNL A   1      33.391  29.280  22.622  1.00  0.00    -0.275 OA
ATOM      5  H   UNL A   1      33.950  29.845  25.088  1.00  0.00     0.163 HD
BRANCH   3   6
ATOM      6  C   UNL A   1      31.953  27.693  23.727  1.00  0.00     0.122 C 
ATOM      7  C   UNL A   1      32.348  26.220  23.498  1.00  0.00     0.123 C 
ATOM      8  C   UNL A   1      31.020  25.679  22.941  1.00  0.00     0.132 C 
ATOM      9  C   UNL A   1      30.708  27.821  22.794  1.00  0.00     0.132 C 
ATOM     10  C   UNL A   1      29.830  25.950  23.898  1.00  0.00     0.035 C 
ATOM     11  O   UNL A   1      30.802  26.664  21.917  1.00  0.00    -0.373 OA
ATOM     12  C   UNL A   1      29.468  27.404  23.571  1.00  0.00     0.035 C 
BRANCH   7  13
ATOM     13  C   UNL A   1      33.510  25.484  22.778  1.00  0.00     0.232 C 
ATOM     14  N   UNL A   1      34.263  24.395  23.037  1.00  0.00    -0.302 N 
ATOM     15  H   UNL A   1      35.024  24.329  22.414  1.00  0.00     0.172 HD
ATOM     16  O   UNL A   1      33.892  26.064  21.733  1.00  0.00    -0.274 OA
BRANCH  14  17
ATOM     17  C   UNL A   1      34.259  23.359  23.928  1.00  0.00     0.190 A 
ATOM     18  C   UNL A   1      34.036  21.288  24.734  1.00  0.00     0.086 A 
ATOM     19  N   UNL A   1      34.174  22.086  23.582  1.00  0.00    -0.220 NA
ATOM     20  C   UNL A   1      34.108  22.010  25.919  1.00  0.00     0.031 A 
ATOM     21  S   UNL A   1      34.374  23.647  25.562  1.00  0.00    -0.101 S 
ATOM     22  C   UNL A   1      34.029  21.639  27.356  1.00  0.00     0.059 C 
BRANCH  18  23
ATOM     23  C   UNL A   1      33.843  19.830  24.705  1.00  0.00     0.001 A 
ATOM     24  C   UNL A   1      33.217  15.555  25.172  1.00  0.00     0.044 C 
ATOM     25  C   UNL A   1      33.434  17.029  24.975  1.00  0.00    -0.051 A 
ATOM     26  C   UNL A   1      34.705  17.547  24.686  1.00  0.00     0.004 A 
ATOM     27  C   UNL A   1      32.362  17.913  25.068  1.00  0.00     0.004 A 
ATOM     28  C   UNL A   1      34.910  18.936  24.552  1.00  0.00     0.010 A 
ATOM     29  C   UNL A   1      32.563  19.288  24.913  1.00  0.00     0.010 A 
ENDBRANCH  18  23
ENDBRANCH  14  17
ENDBRANCH   7  13
ENDBRANCH   3   6
ENDBRANCH   1   2
BRANCH   1  30
ATOM     30  C   UNL A   1      32.090  30.305  27.016  1.00  0.00     0.042 C 
BRANCH  30  31
ATOM     31  C   UNL A   1      33.461  29.887  27.520  1.00  0.00     0.118 C 
BRANCH  31  32
ATOM     32  N   UNL A   1      34.186  31.029  28.036  1.00  0.00    -0.352 N 
ATOM     33  C   UNL A   1      35.411  31.166  28.662  1.00  0.00     0.251 C 
ATOM     34  H   UNL A   1      33.709  31.882  27.917  1.00  0.00     0.163 HD
ATOM     35  O   UNL A   1      35.649  32.213  29.207  1.00  0.00    -0.269 OA
BRANCH  33  36
ATOM     36  C   UNL A   1      36.488  30.142  28.510  1.00  0.00     0.039 A 
ATOM     37  C   UNL A   1      36.649  29.273  29.605  1.00  0.00     0.014 A 
ATOM     38  C   UNL A   1      37.422  30.111  27.480  1.00  0.00     0.014 A 
ATOM     39  C   UNL A   1      37.839  28.573  29.777  1.00  0.00     0.010 A 
ATOM     40  C   UNL A   1      38.623  29.456  27.664  1.00  0.00     0.010 A 
ATOM     41  C   UNL A   1      38.857  28.761  28.850  1.00  0.00    -0.014 A 
BRANCH  41  42
ATOM     42  C   UNL A   1      40.236  28.375  29.079  1.00  0.00     0.031 A 
ATOM     43  C   UNL A   1      40.768  27.122  28.524  1.00  0.00     0.074 A 
ATOM     44  C   UNL A   1      41.040  29.254  29.713  1.00  0.00     0.049 A 
ATOM     45  N   UNL A   1      41.824  26.525  28.955  1.00  0.00    -0.248 NA
ATOM     46  C   UNL A   1      40.096  26.406  27.451  1.00  0.00     0.031 C 
ATOM     47  C   UNL A   1      42.496  29.235  29.798  1.00  0.00     0.029 A 
ATOM     48  N   UNL A   1      40.648  30.259  30.609  1.00  0.00    -0.354 N 
ATOM     49  C   UNL A   1      42.140  25.530  28.058  1.00  0.00     0.074 A 
ATOM     50  C   UNL A   1      40.978  25.432  27.205  1.00  0.00     0.031 C 
ATOM     51  C   UNL A   1      42.870  29.945  30.876  1.00  0.00     0.029 A 
ATOM     52  C   UNL A   1      41.657  30.297  31.594  1.00  0.00     0.049 A 
ATOM     53  H   UNL A   1      39.839  30.819  30.561  1.00  0.00     0.167 HD
ATOM     54  C   UNL A   1      43.407  25.019  28.066  1.00  0.00     0.037 A 
ATOM     55  C   UNL A   1      41.392  29.949  32.888  1.00  0.00     0.037 A 
ATOM     56  C   UNL A   1      44.172  25.558  29.197  1.00  0.00     0.049 A 
ATOM     57  C   UNL A   1      42.233  28.801  33.393  1.00  0.00     0.074 A 
ATOM     58  C   UNL A   1      45.108  26.576  29.298  1.00  0.00     0.029 A 
ATOM     59  N   UNL A   1      43.789  25.248  30.498  1.00  0.00    -0.354 N 
ATOM     60  N   UNL A   1      42.813  27.925  32.621  1.00  0.00    -0.248 NA
ATOM     61  C   UNL A   1      42.479  28.548  34.809  1.00  0.00     0.031 C 
ATOM     62  C   UNL A   1      45.243  26.916  30.667  1.00  0.00     0.029 A 
ATOM     63  C   UNL A   1      44.410  26.089  31.401  1.00  0.00     0.049 A 
ATOM     64  H   UNL A   1      43.164  24.528  30.742  1.00  0.00     0.167 HD
ATOM     65  C   UNL A   1      43.486  27.010  33.390  1.00  0.00     0.074 A 
ATOM     66  C   UNL A   1      43.260  27.455  34.753  1.00  0.00     0.031 C 
ATOM     67  C   UNL A   1      44.166  25.964  32.832  1.00  0.00     0.037 A 
BRANCH  54  68
ATOM     68  C   UNL A   1      44.062  24.280  26.908  1.00  0.00     0.057 A 
ATOM     69  C   UNL A   1      43.866  22.891  26.740  1.00  0.00     0.134 A 
ATOM     70  C   UNL A   1      44.950  24.837  25.970  1.00  0.00     0.134 A 
ATOM     71  F   UNL A   1      42.969  22.211  27.466  1.00  0.00    -0.206 F 
ATOM     72  C   UNL A   1      44.579  22.117  25.812  1.00  0.00     0.040 A 
ATOM     73  C   UNL A   1      45.699  24.072  25.062  1.00  0.00     0.040 A 
ATOM     74  F   UNL A   1      45.097  26.156  25.827  1.00  0.00    -0.206 F 
ATOM     75  C   UNL A   1      45.528  22.701  24.992  1.00  0.00     0.006 A 
ENDBRANCH  54  68
BRANCH  55  76
ATOM     76  C   UNL A   1      39.989  30.224  33.298  1.00  0.00     0.057 A 
ATOM     77  C   UNL A   1      39.608  31.555  33.540  1.00  0.00     0.134 A 
ATOM     78  C   UNL A   1      38.964  29.298  33.087  1.00  0.00     0.134 A 
ATOM     79  F   UNL A   1      40.541  32.497  33.754  1.00  0.00    -0.206 F 
ATOM     80  C   UNL A   1      38.275  31.970  33.458  1.00  0.00     0.040 A 
ATOM     81  C   UNL A   1      37.624  29.699  33.017  1.00  0.00     0.040 A 
ATOM     82  F   UNL A   1      39.247  28.011  32.835  1.00  0.00    -0.206 F 
ATOM     83  C   UNL A   1      37.282  31.043  33.161  1.00  0.00     0.006 A 
ENDBRANCH  55  76
BRANCH  67  84
ATOM     84  C   UNL A   1      44.743  24.772  33.563  1.00  0.00     0.057 A 
ATOM     85  C   UNL A   1      46.113  24.494  33.675  1.00  0.00     0.134 A 
ATOM     86  C   UNL A   1      43.903  23.925  34.325  1.00  0.00     0.134 A 
ATOM     87  F   UNL A   1      47.040  25.275  33.107  1.00  0.00    -0.206 F 
ATOM     88  C   UNL A   1      46.607  23.424  34.438  1.00  0.00     0.040 A 
ATOM     89  C   UNL A   1      44.387  22.892  35.133  1.00  0.00     0.040 A 
ATOM     90  F   UNL A   1      42.571  24.078  34.342  1.00  0.00    -0.206 F 
ATOM     91  C   UNL A   1      45.745  22.627  35.180  1.00  0.00     0.006 A 
ENDBRANCH  67  84
ENDBRANCH  41  42
ENDBRANCH  33  36
ENDBRANCH  31  32
ENDBRANCH  30  31
ENDBRANCH   1  30
TORSDOF 13
ENDMDL
MODEL 2
REMARK VINA RESULT:     -14.0      1.469      2.343
REMARK SMILES Cc1ccc(-c2nc(NC(=O)[C@H]3[C@@H](C(=O)NCCCNC(=O)c4ccc(-c5c6nc(c(-c7c(F)cccc7F)c7ccc([nH]7)c(-c7c(F)cccc7F)c7nc(c(-c8c(F)cccc8F)c8ccc5[nH]8)C=C7)C=C6)cc4)[C@@H]4CC[C@H]3O4)sc2C)cc1
REMARK SMILES IDX 17 1 16 2 14 3 15 4 13 6 12 7 80 8 77 9 79 10 81 11 78 12
REMARK SMILES IDX 10 13 9 14 11 16 8 17 6 18 7 19 83 20 82 21 84 22 5 23 1 24
REMARK SMILES IDX 2 25 3 26 86 27 4 28 85 29 18 30 19 31 20 32 21 33 22 35
REMARK SMILES IDX 23 36 24 37 76 38 25 39 75 40 26 41 27 42 28 43 69 44 29 45
REMARK SMILES IDX 74 46 68 47 70 48 30 49 73 50 67 51 66 52 31 54 57 55 40 56
REMARK SMILES IDX 56 57 41 58 44 59 55 60 71 61 42 62 43 63 54 65 72 66 45 67
REMARK SMILES IDX 32 68 33 69 38 70 34 71 35 72 37 73 39 74 36 75 58 76 59 77
REMARK SMILES IDX 64 78 60 79 61 80 63 81 65 82 62 83 46 84 47 85 52 86 48 87
REMARK SMILES IDX 49 88 51 89 53 90 50 91
REMARK H PARENT 16 5 9 15 20 34 70 53 44 64
REMARK Flexibility Score: inf
ROOT
ATOM      1  C   UNL A   1      32.189  28.498  27.313  1.00  0.00     0.117 C 
ENDROOT
BRANCH   1   2
ATOM      2  N   UNL A   1      32.831  27.532  26.440  1.00  0.00    -0.356 N 
ATOM      3  C   UNL A   1      32.881  27.636  25.079  1.00  0.00     0.226 C 
ATOM      4  O   UNL A   1      33.998  27.701  24.563  1.00  0.00    -0.275 OA
ATOM      5  H   UNL A   1      33.259  26.749  26.856  1.00  0.00     0.163 HD
BRANCH   3   6
ATOM      6  C   UNL A   1      31.606  27.821  24.288  1.00  0.00     0.122 C 
ATOM      7  C   UNL A   1      31.097  26.928  23.140  1.00  0.00     0.123 C 
ATOM      8  C   UNL A   1      30.314  27.973  22.326  1.00  0.00     0.132 C 
ATOM      9  C   UNL A   1      31.475  29.239  23.652  1.00  0.00     0.132 C 
ATOM     10  C   UNL A   1      29.244  28.699  23.183  1.00  0.00     0.035 C 
ATOM     11  O   UNL A   1      31.339  28.976  22.226  1.00  0.00    -0.373 OA
ATOM     12  C   UNL A   1      30.072  29.765  23.911  1.00  0.00     0.035 C 
BRANCH   7  13
ATOM     13  C   UNL A   1      31.745  25.927  22.143  1.00  0.00     0.232 C 
ATOM     14  N   UNL A   1      32.632  24.915  22.239  1.00  0.00    -0.302 N 
ATOM     15  H   UNL A   1      32.926  24.611  21.349  1.00  0.00     0.172 HD
ATOM     16  O   UNL A   1      31.420  26.138  20.950  1.00  0.00    -0.274 OA
BRANCH  14  17
ATOM     17  C   UNL A   1      33.234  24.198  23.234  1.00  0.00     0.190 A 
ATOM     18  C   UNL A   1      34.847  23.252  24.454  1.00  0.00     0.086 A 
ATOM     19  N   UNL A   1      34.534  24.212  23.474  1.00  0.00    -0.220 NA
ATOM     20  C   UNL A   1      33.731  22.608  24.974  1.00  0.00     0.031 A 
ATOM     21  S   UNL A   1      32.333  23.237  24.249  1.00  0.00    -0.101 S 
ATOM     22  C   UNL A   1      33.538  21.554  26.005  1.00  0.00     0.059 C 
BRANCH  18  23
ATOM     23  C   UNL A   1      36.216  22.954  24.904  1.00  0.00     0.001 A 
ATOM     24  C   UNL A   1      40.023  21.736  26.608  1.00  0.00     0.044 C 
ATOM     25  C   UNL A   1      38.724  22.175  25.995  1.00  0.00    -0.051 A 
ATOM     26  C   UNL A   1      38.196  23.451  26.241  1.00  0.00     0.004 A 
ATOM     27  C   UNL A   1      38.020  21.316  25.154  1.00  0.00     0.004 A 
ATOM     28  C   UNL A   1      36.952  23.839  25.701  1.00  0.00     0.010 A 
ATOM     29  C   UNL A   1      36.798  21.711  24.601  1.00  0.00     0.010 A 
ENDBRANCH  18  23
ENDBRANCH  14  17
ENDBRANCH   7  13
ENDBRANCH   3   6
ENDBRANCH   1   2
BRANCH   1  30
ATOM     30  C   UNL A   1      32.611  29.940  27.125  1.00  0.00     0.042 C 
BRANCH  30  31
ATOM     31  C   UNL A   1      34.093  30.135  26.851  1.00  0.00     0.118 C 
BRANCH  31  32
ATOM     32  N   UNL A   1      34.674  31.051  27.811  1.00  0.00    -0.352 N 
ATOM     33  C   UNL A   1      35.724  30.944  28.703  1.00  0.00     0.251 C 
ATOM     34  H   UNL A   1      34.229  31.930  27.832  1.00  0.00     0.163 HD
ATOM     35  O   UNL A   1      35.825  31.788  29.555  1.00  0.00    -0.269 OA
BRANCH  33  36
ATOM     36  C   UNL A   1      36.816  29.941  28.511  1.00  0.00     0.039 A 
ATOM     37  C   UNL A   1      36.943  28.989  29.539  1.00  0.00     0.014 A 
ATOM     38  C   UNL A   1      37.788  29.998  27.519  1.00  0.00     0.014 A 
ATOM     39  C   UNL A   1      38.132  28.285  29.701  1.00  0.00     0.010 A 
ATOM     40  C   UNL A   1      38.987  29.337  27.697  1.00  0.00     0.010 A 
ATOM     41  C   UNL A   1      39.183  28.553  28.832  1.00  0.00    -0.014 A 
BRANCH  41  42
ATOM     42  C   UNL A   1      40.556  28.158  29.083  1.00  0.00     0.031 A 
ATOM     43  C   UNL A   1      41.099  26.920  28.505  1.00  0.00     0.074 A 
ATOM     44  C   UNL A   1      41.345  29.017  29.759  1.00  0.00     0.049 A 
ATOM     45  N   UNL A   1      42.144  26.310  28.944  1.00  0.00    -0.248 NA
ATOM     46  C   UNL A   1      40.451  26.235  27.398  1.00  0.00     0.031 C 
ATOM     47  C   UNL A   1      42.798  28.994  29.878  1.00  0.00     0.029 A 
ATOM     48  N   UNL A   1      40.933  29.998  30.673  1.00  0.00    -0.354 N 
ATOM     49  C   UNL A   1      42.480  25.339  28.027  1.00  0.00     0.074 A 
ATOM     50  C   UNL A   1      41.338  25.267  27.145  1.00  0.00     0.031 C 
ATOM     51  C   UNL A   1      43.148  29.673  30.983  1.00  0.00     0.029 A 
ATOM     52  C   UNL A   1      41.919  30.007  31.683  1.00  0.00     0.049 A 
ATOM     53  H   UNL A   1      40.126  30.560  30.622  1.00  0.00     0.167 HD
ATOM     54  C   UNL A   1      43.746  24.825  28.051  1.00  0.00     0.037 A 
ATOM     55  C   UNL A   1      41.623  29.623  32.959  1.00  0.00     0.037 A 
ATOM     56  C   UNL A   1      44.485  25.332  29.214  1.00  0.00     0.049 A 
ATOM     57  C   UNL A   1      42.451  28.461  33.452  1.00  0.00     0.074 A 
ATOM     58  C   UNL A   1      45.419  26.345  29.365  1.00  0.00     0.029 A 
ATOM     59  N   UNL A   1      44.072  24.986  30.497  1.00  0.00    -0.354 N 
ATOM     60  N   UNL A   1      43.049  27.606  32.670  1.00  0.00    -0.248 NA
ATOM     61  C   UNL A   1      42.663  28.168  34.866  1.00  0.00     0.031 C 
ATOM     62  C   UNL A   1      45.523  26.647  30.746  1.00  0.00     0.029 A 
ATOM     63  C   UNL A   1      44.671  25.802  31.437  1.00  0.00     0.049 A 
ATOM     64  H   UNL A   1      43.440  24.261  30.706  1.00  0.00     0.167 HD
ATOM     65  C   UNL A   1      43.702  26.669  33.428  1.00  0.00     0.074 A 
ATOM     66  C   UNL A   1      43.445  27.076  34.798  1.00  0.00     0.031 C 
ATOM     67  C   UNL A   1      44.394  25.637  32.858  1.00  0.00     0.037 A 
BRANCH  54  68
ATOM     68  C   UNL A   1      44.427  24.118  26.888  1.00  0.00     0.057 A 
ATOM     69  C   UNL A   1      44.198  22.745  26.650  1.00  0.00     0.134 A 
ATOM     70  C   UNL A   1      45.370  24.688  26.014  1.00  0.00     0.134 A 
ATOM     71  F   UNL A   1      43.251  22.063  27.307  1.00  0.00    -0.206 F 
ATOM     72  C   UNL A   1      44.926  21.990  25.718  1.00  0.00     0.040 A 
ATOM     73  C   UNL A   1      46.134  23.940  25.104  1.00  0.00     0.040 A 
ATOM     74  F   UNL A   1      45.562  26.007  25.937  1.00  0.00    -0.206 F 
ATOM     75  C   UNL A   1      45.926  22.579  24.965  1.00  0.00     0.006 A 
ENDBRANCH  54  68
BRANCH  55  76
ATOM     76  C   UNL A   1      40.212  29.889  33.344  1.00  0.00     0.057 A 
ATOM     77  C   UNL A   1      39.833  31.210  33.645  1.00  0.00     0.134 A 
ATOM     78  C   UNL A   1      39.186  28.985  33.056  1.00  0.00     0.134 A 
ATOM     79  F   UNL A   1      40.768  32.131  33.934  1.00  0.00    -0.206 F 
ATOM     80  C   UNL A   1      38.507  31.640  33.547  1.00  0.00     0.040 A 
ATOM     81  C   UNL A   1      37.852  29.402  32.970  1.00  0.00     0.040 A 
ATOM     82  F   UNL A   1      39.466  27.710  32.746  1.00  0.00    -0.206 F 
ATOM     83  C   UNL A   1      37.515  30.739  33.175  1.00  0.00     0.006 A 
ENDBRANCH  55  76
BRANCH  67  84
ATOM     84  C   UNL A   1      44.952  24.424  33.569  1.00  0.00     0.057 A 
ATOM     85  C   UNL A   1      44.284  23.198  33.696  1.00  0.00     0.134 A 
ATOM     86  C   UNL A   1      46.290  24.420  34.030  1.00  0.00     0.134 A 
ATOM     87  F   UNL A   1      43.054  23.010  33.202  1.00  0.00    -0.206 F 
ATOM     88  C   UNL A   1      44.878  22.072  34.289  1.00  0.00     0.040 A 
ATOM     89  C   UNL A   1      46.911  23.288  34.570  1.00  0.00     0.040 A 
ATOM     90  F   UNL A   1      47.069  25.509  33.955  1.00  0.00    -0.206 F 
ATOM     91  C   UNL A   1      46.199  22.111  34.715  1.00  0.00     0.006 A 
ENDBRANCH  67  84
ENDBRANCH  41  42
ENDBRANCH  33  36
ENDBRANCH  31  32
ENDBRANCH  30  31
ENDBRANCH   1  30
TORSDOF 13
ENDMDL
MODEL 3
REMARK VINA RESULT:     -14.0      1.844      2.878
REMARK SMILES Cc1ccc(-c2nc(NC(=O)[C@H]3[C@@H](C(=O)NCCCNC(=O)c4ccc(-c5c6nc(c(-c7c(F)cccc7F)c7ccc([nH]7)c(-c7c(F)cccc7F)c7nc(c(-c8c(F)cccc8F)c8ccc5[nH]8)C=C7)C=C6)cc4)[C@@H]4CC[C@H]3O4)sc2C)cc1
REMARK SMILES IDX 17 1 16 2 14 3 15 4 13 6 12 7 80 8 77 9 79 10 81 11 78 12
REMARK SMILES IDX 10 13 9 14 11 16 8 17 6 18 7 19 83 20 82 21 84 22 5 23 1 24
REMARK SMILES IDX 2 25 3 26 86 27 4 28 85 29 18 30 19 31 20 32 21 33 22 35
REMARK SMILES IDX 23 36 24 37 76 38 25 39 75 40 26 41 27 42 28 43 69 44 29 45
REMARK SMILES IDX 74 46 68 47 70 48 30 49 73 50 67 51 66 52 31 54 57 55 40 56
REMARK SMILES IDX 56 57 41 58 44 59 55 60 71 61 42 62 43 63 54 65 72 66 45 67
REMARK SMILES IDX 32 68 33 69 38 70 34 71 35 72 37 73 39 74 36 75 58 76 59 77
REMARK SMILES IDX 64 78 60 79 61 80 63 81 65 82 62 83 46 84 47 85 52 86 48 87
REMARK SMILES IDX 49 88 51 89 53 90 50 91
REMARK H PARENT 16 5 9 15 20 34 70 53 44 64
REMARK Flexibility Score: inf
ROOT
ATOM      1  C   UNL A   1      32.481  30.208  25.805  1.00  0.00     0.117 C 
ENDROOT
BRANCH   1   2
ATOM      2  N   UNL A   1      33.457  29.564  24.944  1.00  0.00    -0.356 N 
ATOM      3  C   UNL A   1      33.155  28.932  23.773  1.00  0.00     0.226 C 
ATOM      4  O   UNL A   1      33.674  29.374  22.747  1.00  0.00    -0.275 OA
ATOM      5  H   UNL A   1      34.401  29.585  25.223  1.00  0.00     0.163 HD
BRANCH   3   6
ATOM      6  C   UNL A   1      32.105  27.844  23.751  1.00  0.00     0.122 C 
ATOM      7  C   UNL A   1      32.333  26.349  23.451  1.00  0.00     0.123 C 
ATOM      8  C   UNL A   1      30.964  25.995  22.843  1.00  0.00     0.132 C 
ATOM      9  C   UNL A   1      30.905  28.164  22.805  1.00  0.00     0.132 C 
ATOM     10  C   UNL A   1      29.791  26.354  23.793  1.00  0.00     0.035 C 
ATOM     11  O   UNL A   1      30.886  27.050  21.869  1.00  0.00    -0.373 OA
ATOM     12  C   UNL A   1      29.608  27.855  23.538  1.00  0.00     0.035 C 
BRANCH   7  13
ATOM     13  C   UNL A   1      33.418  25.520  22.713  1.00  0.00     0.232 C 
ATOM     14  N   UNL A   1      34.156  24.428  23.004  1.00  0.00    -0.302 N 
ATOM     15  H   UNL A   1      34.868  24.288  22.338  1.00  0.00     0.172 HD
ATOM     16  O   UNL A   1      33.742  26.006  21.602  1.00  0.00    -0.274 OA
BRANCH  14  17
ATOM     17  C   UNL A   1      34.184  23.464  23.971  1.00  0.00     0.190 A 
ATOM     18  C   UNL A   1      34.025  21.455  24.934  1.00  0.00     0.086 A 
ATOM     19  N   UNL A   1      34.138  22.166  23.725  1.00  0.00    -0.220 NA
ATOM     20  C   UNL A   1      34.076  22.267  26.060  1.00  0.00     0.031 A 
ATOM     21  S   UNL A   1      34.292  23.879  25.579  1.00  0.00    -0.101 S 
ATOM     22  C   UNL A   1      34.010  22.005  27.522  1.00  0.00     0.059 C 
BRANCH  18  23
ATOM     23  C   UNL A   1      33.877  19.994  25.017  1.00  0.00     0.001 A 
ATOM     24  C   UNL A   1      33.409  15.684  24.706  1.00  0.00     0.044 C 
ATOM     25  C   UNL A   1      33.575  17.171  24.848  1.00  0.00    -0.051 A 
ATOM     26  C   UNL A   1      32.524  17.982  25.301  1.00  0.00     0.004 A 
ATOM     27  C   UNL A   1      34.793  17.773  24.538  1.00  0.00     0.004 A 
ATOM     28  C   UNL A   1      32.672  19.383  25.385  1.00  0.00     0.010 A 
ATOM     29  C   UNL A   1      34.944  19.159  24.644  1.00  0.00     0.010 A 
ENDBRANCH  18  23
ENDBRANCH  14  17
ENDBRANCH   7  13
ENDBRANCH   3   6
ENDBRANCH   1   2
BRANCH   1  30
ATOM     30  C   UNL A   1      32.829  30.253  27.277  1.00  0.00     0.042 C 
BRANCH  30  31
ATOM     31  C   UNL A   1      34.037  31.110  27.616  1.00  0.00     0.118 C 
BRANCH  31  32
ATOM     32  N   UNL A   1      33.624  32.431  28.041  1.00  0.00    -0.352 N 
ATOM     33  C   UNL A   1      34.036  33.268  29.061  1.00  0.00     0.251 C 
ATOM     34  H   UNL A   1      32.901  32.811  27.490  1.00  0.00     0.163 HD
ATOM     35  O   UNL A   1      33.339  34.212  29.329  1.00  0.00    -0.269 OA
BRANCH  33  36
ATOM     36  C   UNL A   1      35.388  33.136  29.684  1.00  0.00     0.039 A 
ATOM     37  C   UNL A   1      36.431  33.786  28.999  1.00  0.00     0.014 A 
ATOM     38  C   UNL A   1      35.700  32.295  30.747  1.00  0.00     0.014 A 
ATOM     39  C   UNL A   1      37.754  33.414  29.216  1.00  0.00     0.010 A 
ATOM     40  C   UNL A   1      37.005  31.888  30.938  1.00  0.00     0.010 A 
ATOM     41  C   UNL A   1      38.012  32.385  30.113  1.00  0.00    -0.014 A 
BRANCH  41  42
ATOM     42  C   UNL A   1      39.276  31.677  30.184  1.00  0.00     0.031 A 
ATOM     43  C   UNL A   1      39.459  30.394  29.489  1.00  0.00     0.074 A 
ATOM     44  C   UNL A   1      40.307  32.288  30.804  1.00  0.00     0.049 A 
ATOM     45  N   UNL A   1      40.376  29.536  29.775  1.00  0.00    -0.248 NA
ATOM     46  C   UNL A   1      38.561  29.952  28.434  1.00  0.00     0.031 C 
ATOM     47  C   UNL A   1      41.720  31.933  30.751  1.00  0.00     0.029 A 
ATOM     48  N   UNL A   1      40.227  33.267  31.804  1.00  0.00    -0.354 N 
ATOM     49  C   UNL A   1      40.384  28.584  28.780  1.00  0.00     0.074 A 
ATOM     50  C   UNL A   1      39.172  28.832  28.035  1.00  0.00     0.031 C 
ATOM     51  C   UNL A   1      42.328  32.435  31.838  1.00  0.00     0.029 A 
ATOM     52  C   UNL A   1      41.287  32.983  32.691  1.00  0.00     0.049 A 
ATOM     53  H   UNL A   1      39.570  33.997  31.874  1.00  0.00     0.167 HD
ATOM     54  C   UNL A   1      41.494  27.801  28.632  1.00  0.00     0.037 A 
ATOM     55  C   UNL A   1      41.044  32.584  33.974  1.00  0.00     0.037 A 
ATOM     56  C   UNL A   1      42.445  28.046  29.724  1.00  0.00     0.049 A 
ATOM     57  C   UNL A   1      41.629  31.234  34.312  1.00  0.00     0.074 A 
ATOM     58  C   UNL A   1      43.597  28.811  29.812  1.00  0.00     0.029 A 
ATOM     59  N   UNL A   1      42.097  27.709  31.028  1.00  0.00    -0.354 N 
ATOM     60  N   UNL A   1      41.931  30.326  33.426  1.00  0.00    -0.248 NA
ATOM     61  C   UNL A   1      41.913  30.800  35.677  1.00  0.00     0.031 C 
ATOM     62  C   UNL A   1      43.908  28.982  31.185  1.00  0.00     0.029 A 
ATOM     63  C   UNL A   1      42.961  28.300  31.930  1.00  0.00     0.049 A 
ATOM     64  H   UNL A   1      41.341  27.129  31.275  1.00  0.00     0.167 HD
ATOM     65  C   UNL A   1      42.427  29.215  34.059  1.00  0.00     0.074 A 
ATOM     66  C   UNL A   1      42.412  29.569  35.466  1.00  0.00     0.031 C 
ATOM     67  C   UNL A   1      42.801  28.099  33.364  1.00  0.00     0.037 A 
BRANCH  54  68
ATOM     68  C   UNL A   1      41.872  27.046  27.366  1.00  0.00     0.057 A 
ATOM     69  C   UNL A   1      42.097  25.652  27.402  1.00  0.00     0.134 A 
ATOM     70  C   UNL A   1      42.106  27.618  26.103  1.00  0.00     0.134 A 
ATOM     71  F   UNL A   1      41.815  24.919  28.487  1.00  0.00    -0.206 F 
ATOM     72  C   UNL A   1      42.623  24.926  26.323  1.00  0.00     0.040 A 
ATOM     73  C   UNL A   1      42.668  26.915  25.026  1.00  0.00     0.040 A 
ATOM     74  F   UNL A   1      41.746  28.870  25.811  1.00  0.00    -0.206 F 
ATOM     75  C   UNL A   1      42.946  25.564  25.138  1.00  0.00     0.006 A 
ENDBRANCH  54  68
BRANCH  55  76
ATOM     76  C   UNL A   1      39.778  33.129  34.533  1.00  0.00     0.057 A 
ATOM     77  C   UNL A   1      38.631  32.316  34.521  1.00  0.00     0.134 A 
ATOM     78  C   UNL A   1      39.766  34.231  35.393  1.00  0.00     0.134 A 
ATOM     79  F   UNL A   1      38.574  31.242  33.716  1.00  0.00    -0.206 F 
ATOM     80  C   UNL A   1      37.571  32.518  35.409  1.00  0.00     0.040 A 
ATOM     81  C   UNL A   1      38.703  34.452  36.277  1.00  0.00     0.040 A 
ATOM     82  F   UNL A   1      40.828  35.047  35.473  1.00  0.00    -0.206 F 
ATOM     83  C   UNL A   1      37.622  33.573  36.315  1.00  0.00     0.006 A 
ENDBRANCH  55  76
BRANCH  67  84
ATOM     84  C   UNL A   1      43.137  26.744  33.947  1.00  0.00     0.057 A 
ATOM     85  C   UNL A   1      44.407  26.151  33.903  1.00  0.00     0.134 A 
ATOM     86  C   UNL A   1      42.184  26.045  34.726  1.00  0.00     0.134 A 
ATOM     87  F   UNL A   1      45.444  26.749  33.304  1.00  0.00    -0.206 F 
ATOM     88  C   UNL A   1      44.693  24.931  34.535  1.00  0.00     0.040 A 
ATOM     89  C   UNL A   1      42.473  24.858  35.407  1.00  0.00     0.040 A 
ATOM     90  F   UNL A   1      40.931  26.497  34.885  1.00  0.00    -0.206 F 
ATOM     91  C   UNL A   1      43.729  24.287  35.300  1.00  0.00     0.006 A 
ENDBRANCH  67  84
ENDBRANCH  41  42
ENDBRANCH  33  36
ENDBRANCH  31  32
ENDBRANCH  30  31
ENDBRANCH   1  30
TORSDOF 13
ENDMDL
