MODEL 1
REMARK VINA RESULT:     -12.8      0.000      0.000
REMARK SMILES COc1ccc2c(c1)OC[C@@]1(C(=O)NCCCNC(=O)c3ccc(-c4c5nc(c(-c6c(F)cccc6F)c6ccc([nH]6)c(-c6c(F)cccc6F)c6nc(c(-c7c(F)cccc7F)c7ccc4[nH]7)C=C6)C=C5)cc3)C[N@@H+](Cc3cc(C(C)(C)C)n[nH]3)C[C@H]21
REMARK SMILES IDX 15 1 14 2 12 3 13 4 11 6 3 7 4 8 8 9 5 10 7 11 6 12 9 13
REMARK SMILES IDX 88 14 10 15 87 16 75 17 76 18 2 20 1 21 77 22 78 23 79 24
REMARK SMILES IDX 86 25 80 26 85 27 81 29 82 30 83 31 84 32 16 33 17 34 18 35
REMARK SMILES IDX 19 36 20 38 21 39 22 40 74 41 23 42 73 43 24 44 25 45 26 46
REMARK SMILES IDX 67 47 27 48 72 49 66 50 68 51 28 52 71 53 65 54 64 55 29 57
REMARK SMILES IDX 55 58 38 59 54 60 39 61 42 62 53 63 69 64 40 65 41 66 52 68
REMARK SMILES IDX 70 69 43 70 30 71 31 72 36 73 32 74 33 75 35 76 37 77 34 78
REMARK SMILES IDX 56 79 57 80 62 81 58 82 59 83 61 84 63 85 60 86 44 87 45 88
REMARK SMILES IDX 50 89 46 90 47 91 49 92 51 93 48 94
REMARK H PARENT 14 5 76 19 86 28 18 37 68 56 42 67
REMARK Flexibility Score: inf
ROOT
ATOM      1  C   UNL A   1      31.547  27.568  26.656  1.00  0.00     0.117 C 
ENDROOT
BRANCH   1   2
ATOM      2  N   UNL A   1      32.926  27.117  26.787  1.00  0.00    -0.355 N 
ATOM      3  C   UNL A   1      33.610  26.315  25.898  1.00  0.00     0.236 C 
ATOM      4  O   UNL A   1      34.827  26.487  25.799  1.00  0.00    -0.274 OA
ATOM      5  H   UNL A   1      33.417  27.413  27.588  1.00  0.00     0.163 HD
BRANCH   3   6
ATOM      6  C   UNL A   1      32.783  25.255  25.103  1.00  0.00     0.144 C 
ATOM      7  C   UNL A   1      32.278  20.021  24.371  1.00  0.00     0.122 A 
ATOM      8  C   UNL A   1      32.193  20.569  23.091  1.00  0.00     0.047 A 
ATOM      9  C   UNL A   1      32.476  20.864  25.466  1.00  0.00     0.093 A 
ATOM     10  C   UNL A   1      32.269  21.949  22.905  1.00  0.00     0.012 A 
ATOM     11  C   UNL A   1      32.585  22.242  25.262  1.00  0.00     0.126 A 
ATOM     12  C   UNL A   1      32.450  22.800  24.002  1.00  0.00     0.005 A 
ATOM     13  O   UNL A   1      32.860  23.048  26.325  1.00  0.00    -0.492 OA
ATOM     14  C   UNL A   1      32.627  24.289  23.834  1.00  0.00     0.103 C 
ATOM     15  C   UNL A   1      33.660  24.186  25.912  1.00  0.00     0.253 C 
ATOM     16  C   UNL A   1      31.418  24.869  23.083  1.00  0.00     0.272 C 
ATOM     17  C   UNL A   1      32.858  26.437  23.982  1.00  0.00     0.284 C 
ATOM     18  N   UNL A   1      31.564  26.296  23.290  1.00  0.00    -0.328 N 
ATOM     19  H   UNL A   1      30.801  26.665  23.856  1.00  0.00     0.348 HD
BRANCH   7  20
ATOM     20  O   UNL A   1      32.211  18.657  24.413  1.00  0.00    -0.497 OA
ATOM     21  C   UNL A   1      32.737  18.048  25.585  1.00  0.00     0.278 C 
ENDBRANCH   7  20
BRANCH  18  22
ATOM     22  C   UNL A   1      31.366  27.143  22.114  1.00  0.00     0.319 C 
BRANCH  22  23
ATOM     23  C   UNL A   1      30.268  28.118  22.301  1.00  0.00     0.090 A 
ATOM     24  C   UNL A   1      30.200  29.472  22.074  1.00  0.00     0.055 A 
ATOM     25  N   UNL A   1      29.100  27.793  22.932  1.00  0.00    -0.277 N 
ATOM     26  C   UNL A   1      29.090  29.907  22.832  1.00  0.00     0.068 A 
ATOM     27  N   UNL A   1      28.379  28.865  23.286  1.00  0.00    -0.180 NA
ATOM     28  H   UNL A   1      28.818  26.866  23.108  1.00  0.00     0.190 HD
BRANCH  26  29
ATOM     29  C   UNL A   1      28.715  31.326  23.211  1.00  0.00     0.006 C 
ATOM     30  C   UNL A   1      28.787  32.232  21.974  1.00  0.00     0.017 C 
ATOM     31  C   UNL A   1      27.286  31.356  23.797  1.00  0.00     0.017 C 
ATOM     32  C   UNL A   1      29.664  31.888  24.294  1.00  0.00     0.017 C 
ENDBRANCH  26  29
ENDBRANCH  22  23
ENDBRANCH  18  22
ENDBRANCH   3   6
ENDBRANCH   1   2
BRANCH   1  33
ATOM     33  C   UNL A   1      31.383  28.870  25.904  1.00  0.00     0.042 C 
BRANCH  33  34
ATOM     34  C   UNL A   1      32.613  29.760  25.923  1.00  0.00     0.118 C 
BRANCH  34  35
ATOM     35  N   UNL A   1      32.386  31.078  26.513  1.00  0.00    -0.352 N 
ATOM     36  C   UNL A   1      33.174  31.865  27.322  1.00  0.00     0.251 C 
ATOM     37  H   UNL A   1      31.513  31.473  26.291  1.00  0.00     0.163 HD
ATOM     38  O   UNL A   1      32.714  32.906  27.787  1.00  0.00    -0.269 OA
BRANCH  36  39
ATOM     39  C   UNL A   1      34.540  31.438  27.690  1.00  0.00     0.039 A 
ATOM     40  C   UNL A   1      34.829  30.100  27.932  1.00  0.00     0.014 A 
ATOM     41  C   UNL A   1      35.542  32.401  27.843  1.00  0.00     0.014 A 
ATOM     42  C   UNL A   1      35.997  29.764  28.599  1.00  0.00     0.010 A 
ATOM     43  C   UNL A   1      36.782  32.034  28.376  1.00  0.00     0.010 A 
ATOM     44  C   UNL A   1      36.989  30.727  28.841  1.00  0.00    -0.014 A 
BRANCH  44  45
ATOM     45  C   UNL A   1      38.197  30.341  29.621  1.00  0.00     0.031 A 
ATOM     46  C   UNL A   1      38.358  30.769  31.059  1.00  0.00     0.074 A 
ATOM     47  C   UNL A   1      39.111  29.521  29.063  1.00  0.00     0.049 A 
ATOM     48  N   UNL A   1      39.333  30.508  31.895  1.00  0.00    -0.248 NA
ATOM     49  C   UNL A   1      37.292  31.606  31.635  1.00  0.00     0.031 C 
ATOM     50  C   UNL A   1      39.066  29.019  27.687  1.00  0.00     0.029 A 
ATOM     51  N   UNL A   1      40.227  28.929  29.593  1.00  0.00    -0.354 N 
ATOM     52  C   UNL A   1      39.019  31.177  33.072  1.00  0.00     0.074 A 
ATOM     53  C   UNL A   1      37.773  31.874  32.840  1.00  0.00     0.031 C 
ATOM     54  C   UNL A   1      40.056  28.133  27.508  1.00  0.00     0.029 A 
ATOM     55  C   UNL A   1      40.855  28.067  28.726  1.00  0.00     0.049 A 
ATOM     56  H   UNL A   1      40.549  29.105  30.507  1.00  0.00     0.167 HD
ATOM     57  C   UNL A   1      39.696  31.198  34.246  1.00  0.00     0.037 A 
ATOM     58  C   UNL A   1      41.961  27.318  28.884  1.00  0.00     0.037 A 
ATOM     59  C   UNL A   1      40.913  30.469  34.495  1.00  0.00     0.049 A 
ATOM     60  C   UNL A   1      42.706  27.383  30.184  1.00  0.00     0.074 A 
ATOM     61  C   UNL A   1      41.665  30.413  35.656  1.00  0.00     0.029 A 
ATOM     62  N   UNL A   1      41.550  29.660  33.567  1.00  0.00    -0.354 N 
ATOM     63  N   UNL A   1      42.403  28.036  31.279  1.00  0.00    -0.248 NA
ATOM     64  C   UNL A   1      43.959  26.620  30.261  1.00  0.00     0.031 C 
ATOM     65  C   UNL A   1      42.775  29.595  35.419  1.00  0.00     0.029 A 
ATOM     66  C   UNL A   1      42.694  29.112  34.123  1.00  0.00     0.049 A 
ATOM     67  H   UNL A   1      41.236  29.498  32.648  1.00  0.00     0.167 HD
ATOM     68  C   UNL A   1      43.424  27.760  32.177  1.00  0.00     0.074 A 
ATOM     69  C   UNL A   1      44.339  26.858  31.508  1.00  0.00     0.031 C 
ATOM     70  C   UNL A   1      43.594  28.221  33.440  1.00  0.00     0.037 A 
BRANCH  57  71
ATOM     71  C   UNL A   1      39.143  32.057  35.348  1.00  0.00     0.057 A 
ATOM     72  C   UNL A   1      39.439  33.425  35.400  1.00  0.00     0.134 A 
ATOM     73  C   UNL A   1      38.336  31.532  36.366  1.00  0.00     0.134 A 
ATOM     74  F   UNL A   1      40.211  33.990  34.460  1.00  0.00    -0.206 F 
ATOM     75  C   UNL A   1      38.954  34.240  36.424  1.00  0.00     0.040 A 
ATOM     76  C   UNL A   1      37.825  32.341  37.382  1.00  0.00     0.040 A 
ATOM     77  F   UNL A   1      38.000  30.232  36.366  1.00  0.00    -0.206 F 
ATOM     78  C   UNL A   1      38.138  33.699  37.417  1.00  0.00     0.006 A 
ENDBRANCH  57  71
BRANCH  58  79
ATOM     79  C   UNL A   1      42.442  26.460  27.773  1.00  0.00     0.057 A 
ATOM     80  C   UNL A   1      42.066  25.116  27.676  1.00  0.00     0.134 A 
ATOM     81  C   UNL A   1      43.283  26.969  26.778  1.00  0.00     0.134 A 
ATOM     82  F   UNL A   1      41.263  24.568  28.601  1.00  0.00    -0.206 F 
ATOM     83  C   UNL A   1      42.522  24.302  26.638  1.00  0.00     0.040 A 
ATOM     84  C   UNL A   1      43.726  26.175  25.721  1.00  0.00     0.040 A 
ATOM     85  F   UNL A   1      43.662  28.256  26.807  1.00  0.00    -0.206 F 
ATOM     86  C   UNL A   1      43.349  24.834  25.652  1.00  0.00     0.006 A 
ENDBRANCH  58  79
BRANCH  70  87
ATOM     87  C   UNL A   1      44.809  27.738  34.174  1.00  0.00     0.057 A 
ATOM     88  C   UNL A   1      44.769  26.555  34.921  1.00  0.00     0.134 A 
ATOM     89  C   UNL A   1      46.016  28.446  34.141  1.00  0.00     0.134 A 
ATOM     90  F   UNL A   1      43.641  25.833  34.995  1.00  0.00    -0.206 F 
ATOM     91  C   UNL A   1      45.891  26.090  35.607  1.00  0.00     0.040 A 
ATOM     92  C   UNL A   1      47.151  27.980  34.805  1.00  0.00     0.040 A 
ATOM     93  F   UNL A   1      46.121  29.578  33.427  1.00  0.00    -0.206 F 
ATOM     94  C   UNL A   1      47.089  26.801  35.544  1.00  0.00     0.006 A 
ENDBRANCH  70  87
ENDBRANCH  44  45
ENDBRANCH  36  39
ENDBRANCH  34  35
ENDBRANCH  33  34
ENDBRANCH   1  33
TORSDOF 14
ENDMDL
MODEL 2
REMARK VINA RESULT:     -12.7      3.781      9.159
REMARK SMILES COc1ccc2c(c1)OC[C@@]1(C(=O)NCCCNC(=O)c3ccc(-c4c5nc(c(-c6c(F)cccc6F)c6ccc([nH]6)c(-c6c(F)cccc6F)c6nc(c(-c7c(F)cccc7F)c7ccc4[nH]7)C=C6)C=C5)cc3)C[N@@H+](Cc3cc(C(C)(C)C)n[nH]3)C[C@H]21
REMARK SMILES IDX 15 1 14 2 12 3 13 4 11 6 3 7 4 8 8 9 5 10 7 11 6 12 9 13
REMARK SMILES IDX 88 14 10 15 87 16 75 17 76 18 2 20 1 21 77 22 78 23 79 24
REMARK SMILES IDX 86 25 80 26 85 27 81 29 82 30 83 31 84 32 16 33 17 34 18 35
REMARK SMILES IDX 19 36 20 38 21 39 22 40 74 41 23 42 73 43 24 44 25 45 26 46
REMARK SMILES IDX 67 47 27 48 72 49 66 50 68 51 28 52 71 53 65 54 64 55 29 57
REMARK SMILES IDX 55 58 38 59 54 60 39 61 42 62 53 63 69 64 40 65 41 66 52 68
REMARK SMILES IDX 70 69 43 70 30 71 31 72 36 73 32 74 33 75 35 76 37 77 34 78
REMARK SMILES IDX 56 79 57 80 62 81 58 82 59 83 61 84 63 85 60 86 44 87 45 88
REMARK SMILES IDX 50 89 46 90 47 91 49 92 51 93 48 94
REMARK H PARENT 14 5 76 19 86 28 18 37 68 56 42 67
REMARK Flexibility Score: inf
ROOT
ATOM      1  C   UNL A   1      36.412  22.616  24.467  1.00  0.00     0.117 C 
ENDROOT
BRANCH   1   2
ATOM      2  N   UNL A   1      36.050  23.006  25.823  1.00  0.00    -0.355 N 
ATOM      3  C   UNL A   1      34.782  23.293  26.280  1.00  0.00     0.236 C 
ATOM      4  O   UNL A   1      34.530  23.032  27.459  1.00  0.00    -0.274 OA
ATOM      5  H   UNL A   1      36.784  23.073  26.478  1.00  0.00     0.163 HD
BRANCH   3   6
ATOM      6  C   UNL A   1      33.779  23.929  25.265  1.00  0.00     0.144 C 
ATOM      7  C   UNL A   1      31.179  28.435  24.207  1.00  0.00     0.122 A 
ATOM      8  C   UNL A   1      30.237  27.426  24.003  1.00  0.00     0.047 A 
ATOM      9  C   UNL A   1      32.468  28.098  24.621  1.00  0.00     0.093 A 
ATOM     10  C   UNL A   1      30.587  26.087  24.176  1.00  0.00     0.012 A 
ATOM     11  C   UNL A   1      32.796  26.755  24.824  1.00  0.00     0.126 A 
ATOM     12  C   UNL A   1      31.885  25.742  24.574  1.00  0.00     0.005 A 
ATOM     13  O   UNL A   1      34.029  26.440  25.307  1.00  0.00    -0.492 OA
ATOM     14  C   UNL A   1      32.277  24.312  24.859  1.00  0.00     0.103 C 
ATOM     15  C   UNL A   1      33.967  25.256  26.143  1.00  0.00     0.253 C 
ATOM     16  C   UNL A   1      32.005  23.449  23.618  1.00  0.00     0.272 C 
ATOM     17  C   UNL A   1      33.202  22.405  25.296  1.00  0.00     0.284 C 
ATOM     18  N   UNL A   1      32.720  22.223  23.915  1.00  0.00    -0.328 N 
ATOM     19  H   UNL A   1      33.495  22.084  23.269  1.00  0.00     0.348 HD
BRANCH   7  20
ATOM     20  O   UNL A   1      30.702  29.703  24.026  1.00  0.00    -0.497 OA
ATOM     21  C   UNL A   1      29.513  29.811  23.255  1.00  0.00     0.278 C 
ENDBRANCH   7  20
BRANCH  18  22
ATOM     22  C   UNL A   1      32.006  20.976  23.640  1.00  0.00     0.319 C 
BRANCH  22  23
ATOM     23  C   UNL A   1      32.612  19.816  24.331  1.00  0.00     0.090 A 
ATOM     24  C   UNL A   1      33.588  18.929  23.944  1.00  0.00     0.055 A 
ATOM     25  N   UNL A   1      32.125  19.332  25.513  1.00  0.00    -0.277 N 
ATOM     26  C   UNL A   1      33.429  17.822  24.806  1.00  0.00     0.068 A 
ATOM     27  N   UNL A   1      32.588  18.111  25.810  1.00  0.00    -0.180 NA
ATOM     28  H   UNL A   1      31.498  19.830  26.086  1.00  0.00     0.190 HD
BRANCH  26  29
ATOM     29  C   UNL A   1      34.012  16.431  24.660  1.00  0.00     0.006 C 
ATOM     30  C   UNL A   1      34.309  16.143  23.181  1.00  0.00     0.017 C 
ATOM     31  C   UNL A   1      35.312  16.314  25.485  1.00  0.00     0.017 C 
ATOM     32  C   UNL A   1      33.038  15.353  25.188  1.00  0.00     0.017 C 
ENDBRANCH  26  29
ENDBRANCH  22  23
ENDBRANCH  18  22
ENDBRANCH   3   6
ENDBRANCH   1   2
BRANCH   1  33
ATOM     33  C   UNL A   1      37.373  21.452  24.387  1.00  0.00     0.042 C 
BRANCH  33  34
ATOM     34  C   UNL A   1      38.175  21.215  25.655  1.00  0.00     0.118 C 
BRANCH  34  35
ATOM     35  N   UNL A   1      39.090  20.079  25.578  1.00  0.00    -0.352 N 
ATOM     36  C   UNL A   1      40.413  19.945  25.930  1.00  0.00     0.251 C 
ATOM     37  H   UNL A   1      38.686  19.261  25.209  1.00  0.00     0.163 HD
ATOM     38  O   UNL A   1      41.009  18.903  25.666  1.00  0.00    -0.269 OA
BRANCH  36  39
ATOM     39  C   UNL A   1      41.143  21.067  26.559  1.00  0.00     0.039 A 
ATOM     40  C   UNL A   1      41.164  21.221  27.940  1.00  0.00     0.014 A 
ATOM     41  C   UNL A   1      41.779  22.012  25.748  1.00  0.00     0.014 A 
ATOM     42  C   UNL A   1      41.545  22.437  28.485  1.00  0.00     0.010 A 
ATOM     43  C   UNL A   1      42.305  23.175  26.319  1.00  0.00     0.010 A 
ATOM     44  C   UNL A   1      42.112  23.439  27.683  1.00  0.00    -0.014 A 
BRANCH  44  45
ATOM     45  C   UNL A   1      42.445  24.755  28.294  1.00  0.00     0.031 A 
ATOM     46  C   UNL A   1      43.875  25.123  28.604  1.00  0.00     0.074 A 
ATOM     47  C   UNL A   1      41.466  25.663  28.483  1.00  0.00     0.049 A 
ATOM     48  N   UNL A   1      44.350  26.231  29.118  1.00  0.00    -0.248 NA
ATOM     49  C   UNL A   1      44.908  24.116  28.310  1.00  0.00     0.031 C 
ATOM     50  C   UNL A   1      40.044  25.442  28.207  1.00  0.00     0.029 A 
ATOM     51  N   UNL A   1      41.521  26.966  28.906  1.00  0.00    -0.354 N 
ATOM     52  C   UNL A   1      45.721  26.039  29.243  1.00  0.00     0.074 A 
ATOM     53  C   UNL A   1      46.003  24.701  28.773  1.00  0.00     0.031 C 
ATOM     54  C   UNL A   1      39.376  26.590  28.388  1.00  0.00     0.029 A 
ATOM     55  C   UNL A   1      40.304  27.604  28.872  1.00  0.00     0.049 A 
ATOM     56  H   UNL A   1      42.351  27.402  29.206  1.00  0.00     0.167 HD
ATOM     57  C   UNL A   1      46.664  26.902  29.695  1.00  0.00     0.037 A 
ATOM     58  C   UNL A   1      39.967  28.862  29.207  1.00  0.00     0.037 A 
ATOM     59  C   UNL A   1      46.393  28.250  30.122  1.00  0.00     0.049 A 
ATOM     60  C   UNL A   1      41.025  29.787  29.730  1.00  0.00     0.074 A 
ATOM     61  C   UNL A   1      47.283  29.207  30.580  1.00  0.00     0.029 A 
ATOM     62  N   UNL A   1      45.137  28.836  30.132  1.00  0.00    -0.354 N 
ATOM     63  N   UNL A   1      42.313  29.580  29.859  1.00  0.00    -0.248 NA
ATOM     64  C   UNL A   1      40.578  31.114  30.173  1.00  0.00     0.031 C 
ATOM     65  C   UNL A   1      46.558  30.362  30.898  1.00  0.00     0.029 A 
ATOM     66  C   UNL A   1      45.224  30.136  30.603  1.00  0.00     0.049 A 
ATOM     67  H   UNL A   1      44.304  28.393  29.847  1.00  0.00     0.167 HD
ATOM     68  C   UNL A   1      42.831  30.751  30.393  1.00  0.00     0.074 A 
ATOM     69  C   UNL A   1      41.723  31.673  30.537  1.00  0.00     0.031 C 
ATOM     70  C   UNL A   1      44.110  31.035  30.743  1.00  0.00     0.037 A 
BRANCH  57  71
ATOM     71  C   UNL A   1      48.079  26.403  29.769  1.00  0.00     0.057 A 
ATOM     72  C   UNL A   1      48.942  26.546  28.674  1.00  0.00     0.134 A 
ATOM     73  C   UNL A   1      48.584  25.765  30.909  1.00  0.00     0.134 A 
ATOM     74  F   UNL A   1      48.520  27.142  27.549  1.00  0.00    -0.206 F 
ATOM     75  C   UNL A   1      50.254  26.074  28.710  1.00  0.00     0.040 A 
ATOM     76  C   UNL A   1      49.903  25.309  30.966  1.00  0.00     0.040 A 
ATOM     77  F   UNL A   1      47.816  25.611  31.998  1.00  0.00    -0.206 F 
ATOM     78  C   UNL A   1      50.741  25.458  29.863  1.00  0.00     0.006 A 
ENDBRANCH  57  71
BRANCH  58  79
ATOM     79  C   UNL A   1      38.559  29.312  29.079  1.00  0.00     0.057 A 
ATOM     80  C   UNL A   1      38.040  29.742  27.852  1.00  0.00     0.134 A 
ATOM     81  C   UNL A   1      37.698  29.316  30.182  1.00  0.00     0.134 A 
ATOM     82  F   UNL A   1      38.816  29.765  26.759  1.00  0.00    -0.206 F 
ATOM     83  C   UNL A   1      36.719  30.175  27.729  1.00  0.00     0.040 A 
ATOM     84  C   UNL A   1      36.368  29.721  30.067  1.00  0.00     0.040 A 
ATOM     85  F   UNL A   1      38.132  28.897  31.380  1.00  0.00    -0.206 F 
ATOM     86  C   UNL A   1      35.877  30.158  28.837  1.00  0.00     0.006 A 
ENDBRANCH  58  79
BRANCH  70  87
ATOM     87  C   UNL A   1      44.366  32.403  31.298  1.00  0.00     0.057 A 
ATOM     88  C   UNL A   1      44.662  33.476  30.448  1.00  0.00     0.134 A 
ATOM     89  C   UNL A   1      44.322  32.657  32.675  1.00  0.00     0.134 A 
ATOM     90  F   UNL A   1      44.723  33.296  29.121  1.00  0.00    -0.206 F 
ATOM     91  C   UNL A   1      44.901  34.756  30.949  1.00  0.00     0.040 A 
ATOM     92  C   UNL A   1      44.537  33.938  33.185  1.00  0.00     0.040 A 
ATOM     93  F   UNL A   1      44.026  31.673  33.538  1.00  0.00    -0.206 F 
ATOM     94  C   UNL A   1      44.831  34.990  32.321  1.00  0.00     0.006 A 
ENDBRANCH  70  87
ENDBRANCH  44  45
ENDBRANCH  36  39
ENDBRANCH  34  35
ENDBRANCH  33  34
ENDBRANCH   1  33
TORSDOF 14
ENDMDL
MODEL 3
REMARK VINA RESULT:     -12.7      0.773      5.984
REMARK SMILES COc1ccc2c(c1)OC[C@@]1(C(=O)NCCCNC(=O)c3ccc(-c4c5nc(c(-c6c(F)cccc6F)c6ccc([nH]6)c(-c6c(F)cccc6F)c6nc(c(-c7c(F)cccc7F)c7ccc4[nH]7)C=C6)C=C5)cc3)C[N@@H+](Cc3cc(C(C)(C)C)n[nH]3)C[C@H]21
REMARK SMILES IDX 15 1 14 2 12 3 13 4 11 6 3 7 4 8 8 9 5 10 7 11 6 12 9 13
REMARK SMILES IDX 88 14 10 15 87 16 75 17 76 18 2 20 1 21 77 22 78 23 79 24
REMARK SMILES IDX 86 25 80 26 85 27 81 29 82 30 83 31 84 32 16 33 17 34 18 35
REMARK SMILES IDX 19 36 20 38 21 39 22 40 74 41 23 42 73 43 24 44 25 45 26 46
REMARK SMILES IDX 67 47 27 48 72 49 66 50 68 51 28 52 71 53 65 54 64 55 29 57
REMARK SMILES IDX 55 58 38 59 54 60 39 61 42 62 53 63 69 64 40 65 41 66 52 68
REMARK SMILES IDX 70 69 43 70 30 71 31 72 36 73 32 74 33 75 35 76 37 77 34 78
REMARK SMILES IDX 56 79 57 80 62 81 58 82 59 83 61 84 63 85 60 86 44 87 45 88
REMARK SMILES IDX 50 89 46 90 47 91 49 92 51 93 48 94
REMARK H PARENT 14 5 76 19 86 28 18 37 68 56 42 67
REMARK Flexibility Score: inf
ROOT
ATOM      1  C   UNL A   1      31.717  26.738  26.445  1.00  0.00     0.117 C 
ENDROOT
BRANCH   1   2
ATOM      2  N   UNL A   1      33.113  26.326  26.491  1.00  0.00    -0.355 N 
ATOM      3  C   UNL A   1      33.748  25.493  25.595  1.00  0.00     0.236 C 
ATOM      4  O   UNL A   1      34.949  25.687  25.391  1.00  0.00    -0.274 OA
ATOM      5  H   UNL A   1      33.656  26.675  27.234  1.00  0.00     0.163 HD
BRANCH   3   6
ATOM      6  C   UNL A   1      32.891  24.372  24.923  1.00  0.00     0.144 C 
ATOM      7  C   UNL A   1      32.523  19.099  24.437  1.00  0.00     0.122 A 
ATOM      8  C   UNL A   1      32.295  19.591  23.151  1.00  0.00     0.047 A 
ATOM      9  C   UNL A   1      32.791  19.992  25.476  1.00  0.00     0.093 A 
ATOM     10  C   UNL A   1      32.300  20.964  22.908  1.00  0.00     0.012 A 
ATOM     11  C   UNL A   1      32.826  21.363  25.211  1.00  0.00     0.126 A 
ATOM     12  C   UNL A   1      32.550  21.865  23.951  1.00  0.00     0.005 A 
ATOM     13  O   UNL A   1      33.170  22.221  26.212  1.00  0.00    -0.492 OA
ATOM     14  C   UNL A   1      32.653  23.352  23.711  1.00  0.00     0.103 C 
ATOM     15  C   UNL A   1      33.882  23.369  25.682  1.00  0.00     0.253 C 
ATOM     16  C   UNL A   1      31.357  23.857  23.060  1.00  0.00     0.272 C 
ATOM     17  C   UNL A   1      32.813  25.510  23.757  1.00  0.00     0.284 C 
ATOM     18  N   UNL A   1      31.466  25.296  23.199  1.00  0.00    -0.328 N 
ATOM     19  H   UNL A   1      30.746  25.660  23.822  1.00  0.00     0.348 HD
BRANCH   7  20
ATOM     20  O   UNL A   1      32.513  17.736  24.535  1.00  0.00    -0.497 OA
ATOM     21  C   UNL A   1      33.546  17.059  23.830  1.00  0.00     0.278 C 
ENDBRANCH   7  20
BRANCH  18  22
ATOM     22  C   UNL A   1      31.124  26.087  22.017  1.00  0.00     0.319 C 
BRANCH  22  23
ATOM     23  C   UNL A   1      30.712  27.466  22.363  1.00  0.00     0.090 A 
ATOM     24  C   UNL A   1      29.549  27.965  22.898  1.00  0.00     0.055 A 
ATOM     25  N   UNL A   1      31.457  28.560  22.020  1.00  0.00    -0.277 N 
ATOM     26  C   UNL A   1      29.575  29.344  22.591  1.00  0.00     0.068 A 
ATOM     27  N   UNL A   1      30.779  29.710  22.127  1.00  0.00    -0.180 NA
ATOM     28  H   UNL A   1      32.394  28.507  21.724  1.00  0.00     0.190 HD
BRANCH  26  29
ATOM     29  C   UNL A   1      28.435  30.339  22.659  1.00  0.00     0.006 C 
ATOM     30  C   UNL A   1      28.861  31.566  23.477  1.00  0.00     0.017 C 
ATOM     31  C   UNL A   1      28.032  30.778  21.234  1.00  0.00     0.017 C 
ATOM     32  C   UNL A   1      27.182  29.715  23.315  1.00  0.00     0.017 C 
ENDBRANCH  26  29
ENDBRANCH  22  23
ENDBRANCH  18  22
ENDBRANCH   3   6
ENDBRANCH   1   2
BRANCH   1  33
ATOM     33  C   UNL A   1      31.486  28.199  26.756  1.00  0.00     0.042 C 
BRANCH  33  34
ATOM     34  C   UNL A   1      32.404  29.150  26.008  1.00  0.00     0.118 C 
BRANCH  34  35
ATOM     35  N   UNL A   1      32.238  30.554  26.378  1.00  0.00    -0.352 N 
ATOM     36  C   UNL A   1      33.056  31.420  27.066  1.00  0.00     0.251 C 
ATOM     37  H   UNL A   1      31.389  30.951  26.080  1.00  0.00     0.163 HD
ATOM     38  O   UNL A   1      32.646  32.543  27.353  1.00  0.00    -0.269 OA
BRANCH  36  39
ATOM     39  C   UNL A   1      34.395  30.991  27.523  1.00  0.00     0.039 A 
ATOM     40  C   UNL A   1      34.688  29.645  27.710  1.00  0.00     0.014 A 
ATOM     41  C   UNL A   1      35.363  31.957  27.815  1.00  0.00     0.014 A 
ATOM     42  C   UNL A   1      35.803  29.286  28.453  1.00  0.00     0.010 A 
ATOM     43  C   UNL A   1      36.561  31.576  28.428  1.00  0.00     0.010 A 
ATOM     44  C   UNL A   1      36.753  30.246  28.833  1.00  0.00    -0.014 A 
BRANCH  44  45
ATOM     45  C   UNL A   1      37.899  29.832  29.688  1.00  0.00     0.031 A 
ATOM     46  C   UNL A   1      39.006  28.971  29.130  1.00  0.00     0.074 A 
ATOM     47  C   UNL A   1      37.995  30.311  30.944  1.00  0.00     0.049 A 
ATOM     48  N   UNL A   1      40.090  28.532  29.723  1.00  0.00    -0.248 NA
ATOM     49  C   UNL A   1      38.880  28.537  27.729  1.00  0.00     0.031 C 
ATOM     50  C   UNL A   1      37.003  31.168  31.599  1.00  0.00     0.029 A 
ATOM     51  N   UNL A   1      38.990  30.186  31.878  1.00  0.00    -0.354 N 
ATOM     52  C   UNL A   1      40.748  27.744  28.785  1.00  0.00     0.074 A 
ATOM     53  C   UNL A   1      39.934  27.746  27.589  1.00  0.00     0.031 C 
ATOM     54  C   UNL A   1      37.476  31.558  32.792  1.00  0.00     0.029 A 
ATOM     55  C   UNL A   1      38.763  30.913  33.022  1.00  0.00     0.049 A 
ATOM     56  H   UNL A   1      39.790  29.628  31.744  1.00  0.00     0.167 HD
ATOM     57  C   UNL A   1      41.929  27.090  28.902  1.00  0.00     0.037 A 
ATOM     58  C   UNL A   1      39.499  31.038  34.141  1.00  0.00     0.037 A 
ATOM     59  C   UNL A   1      42.763  27.123  30.075  1.00  0.00     0.049 A 
ATOM     60  C   UNL A   1      40.789  30.280  34.253  1.00  0.00     0.074 A 
ATOM     61  C   UNL A   1      43.986  26.507  30.284  1.00  0.00     0.029 A 
ATOM     62  N   UNL A   1      42.464  27.820  31.235  1.00  0.00    -0.354 N 
ATOM     63  N   UNL A   1      41.385  29.526  33.363  1.00  0.00    -0.248 NA
ATOM     64  C   UNL A   1      41.498  30.377  35.536  1.00  0.00     0.031 C 
ATOM     65  C   UNL A   1      44.409  26.806  31.584  1.00  0.00     0.029 A 
ATOM     66  C   UNL A   1      43.469  27.637  32.170  1.00  0.00     0.049 A 
ATOM     67  H   UNL A   1      41.655  28.365  31.375  1.00  0.00     0.167 HD
ATOM     68  C   UNL A   1      42.540  29.061  33.975  1.00  0.00     0.074 A 
ATOM     69  C   UNL A   1      42.575  29.643  35.301  1.00  0.00     0.031 C 
ATOM     70  C   UNL A   1      43.484  28.220  33.486  1.00  0.00     0.037 A 
BRANCH  57  71
ATOM     71  C   UNL A   1      42.380  26.264  27.731  1.00  0.00     0.057 A 
ATOM     72  C   UNL A   1      43.125  26.844  26.696  1.00  0.00     0.134 A 
ATOM     73  C   UNL A   1      42.063  24.905  27.613  1.00  0.00     0.134 A 
ATOM     74  F   UNL A   1      43.458  28.142  26.743  1.00  0.00    -0.206 F 
ATOM     75  C   UNL A   1      43.539  26.103  25.589  1.00  0.00     0.040 A 
ATOM     76  C   UNL A   1      42.491  24.146  26.522  1.00  0.00     0.040 A 
ATOM     77  F   UNL A   1      41.365  24.283  28.577  1.00  0.00    -0.206 F 
ATOM     78  C   UNL A   1      43.228  24.747  25.502  1.00  0.00     0.006 A 
ENDBRANCH  57  71
BRANCH  58  79
ATOM     79  C   UNL A   1      39.022  31.897  35.252  1.00  0.00     0.057 A 
ATOM     80  C   UNL A   1      39.333  33.261  35.304  1.00  0.00     0.134 A 
ATOM     81  C   UNL A   1      38.237  31.374  36.285  1.00  0.00     0.134 A 
ATOM     82  F   UNL A   1      40.084  33.821  34.344  1.00  0.00    -0.206 F 
ATOM     83  C   UNL A   1      38.894  34.072  36.351  1.00  0.00     0.040 A 
ATOM     84  C   UNL A   1      37.769  32.178  37.325  1.00  0.00     0.040 A 
ATOM     85  F   UNL A   1      37.890  30.078  36.280  1.00  0.00    -0.206 F 
ATOM     86  C   UNL A   1      38.103  33.531  37.362  1.00  0.00     0.006 A 
ENDBRANCH  58  79
BRANCH  70  87
ATOM     87  C   UNL A   1      44.634  27.900  34.392  1.00  0.00     0.057 A 
ATOM     88  C   UNL A   1      44.588  26.785  35.238  1.00  0.00     0.134 A 
ATOM     89  C   UNL A   1      45.784  28.697  34.428  1.00  0.00     0.134 A 
ATOM     90  F   UNL A   1      43.512  25.985  35.253  1.00  0.00    -0.206 F 
ATOM     91  C   UNL A   1      45.651  26.472  36.086  1.00  0.00     0.040 A 
ATOM     92  C   UNL A   1      46.863  28.381  35.255  1.00  0.00     0.040 A 
ATOM     93  F   UNL A   1      45.894  29.769  33.627  1.00  0.00    -0.206 F 
ATOM     94  C   UNL A   1      46.795  27.268  36.090  1.00  0.00     0.006 A 
ENDBRANCH  70  87
ENDBRANCH  44  45
ENDBRANCH  36  39
ENDBRANCH  34  35
ENDBRANCH  33  34
ENDBRANCH   1  33
TORSDOF 14
ENDMDL
