MODEL 1
REMARK VINA RESULT:     -12.9      0.000      0.000
REMARK SMILES Cc1ccccc1CN1C(=O)[C@H](CC(=O)NCCCNC(=O)c2ccc(-c3c4nc(c(-c5c(F)cccc5F)c5ccc([nH]5)c(-c5c(F)cccc5F)c5nc(c(-c6c(F)cccc6F)c6ccc3[nH]6)C=C5)C=C4)cc2)n2c(nc3ccccc32)[C@H]1C
REMARK SMILES IDX 17 1 16 2 14 3 15 4 13 6 12 7 9 8 10 9 86 10 11 11 78 12
REMARK SMILES IDX 87 13 77 14 79 15 85 16 80 17 84 18 81 19 83 20 82 21 8 22
REMARK SMILES IDX 7 23 1 24 2 25 3 26 4 27 6 28 5 29 18 30 19 31 20 32 21 33
REMARK SMILES IDX 22 35 23 36 24 37 76 38 25 39 75 40 26 41 27 42 28 43 69 44
REMARK SMILES IDX 29 45 74 46 68 47 70 48 30 49 73 50 67 51 66 52 31 54 57 55
REMARK SMILES IDX 40 56 56 57 41 58 44 59 55 60 71 61 42 62 43 63 54 65 72 66
REMARK SMILES IDX 45 67 32 68 33 69 38 70 34 71 35 72 37 73 39 74 36 75 58 76
REMARK SMILES IDX 59 77 64 78 60 79 61 80 63 81 65 82 62 83 46 84 47 85 52 86
REMARK SMILES IDX 48 87 49 88 51 89 53 90 50 91
REMARK H PARENT 16 5 20 34 70 53 44 64
REMARK Flexibility Score: inf
ROOT
ATOM      1  C   UNL A   1      35.392  30.145  27.686  1.00  0.00     0.117 C 
ENDROOT
BRANCH   1   2
ATOM      2  N   UNL A   1      34.151  29.431  27.979  1.00  0.00    -0.356 N 
ATOM      3  C   UNL A   1      33.500  28.446  27.301  1.00  0.00     0.222 C 
ATOM      4  O   UNL A   1      32.365  28.146  27.683  1.00  0.00    -0.275 OA
ATOM      5  H   UNL A   1      33.709  29.712  28.812  1.00  0.00     0.163 HD
BRANCH   3   6
ATOM      6  C   UNL A   1      34.126  27.708  26.128  1.00  0.00     0.135 C 
BRANCH   6   7
ATOM      7  C   UNL A   1      33.030  27.167  25.193  1.00  0.00     0.187 C 
ATOM      8  N   UNL A   1      32.122  27.738  22.971  1.00  0.00    -0.327 N 
ATOM      9  C   UNL A   1      32.755  28.199  24.104  1.00  0.00     0.247 C 
ATOM     10  C   UNL A   1      32.945  26.766  22.245  1.00  0.00     0.149 C 
ATOM     11  O   UNL A   1      33.062  29.387  24.198  1.00  0.00    -0.272 OA
ATOM     12  C   UNL A   1      33.312  25.670  23.209  1.00  0.00     0.133 A 
ATOM     13  C   UNL A   1      32.371  26.195  20.957  1.00  0.00     0.040 C 
ATOM     14  N   UNL A   1      33.339  25.881  24.574  1.00  0.00    -0.313 N 
ATOM     15  N   UNL A   1      33.638  24.430  22.916  1.00  0.00    -0.231 NA
ATOM     16  C   UNL A   1      33.516  24.661  25.183  1.00  0.00     0.069 A 
ATOM     17  C   UNL A   1      33.733  23.785  24.120  1.00  0.00     0.089 A 
ATOM     18  C   UNL A   1      33.501  24.229  26.514  1.00  0.00     0.028 A 
ATOM     19  C   UNL A   1      33.980  22.428  24.370  1.00  0.00     0.030 A 
ATOM     20  C   UNL A   1      33.739  22.866  26.744  1.00  0.00     0.002 A 
ATOM     21  C   UNL A   1      33.980  21.979  25.693  1.00  0.00     0.002 A 
BRANCH   8  22
ATOM     22  C   UNL A   1      31.195  28.649  22.293  1.00  0.00     0.156 C 
BRANCH  22  23
ATOM     23  C   UNL A   1      29.759  28.333  22.668  1.00  0.00    -0.026 A 
ATOM     24  C   UNL A   1      28.748  30.473  21.626  1.00  0.00     0.044 C 
ATOM     25  C   UNL A   1      28.675  29.216  22.452  1.00  0.00    -0.046 A 
ATOM     26  C   UNL A   1      27.413  28.891  22.987  1.00  0.00     0.004 A 
ATOM     27  C   UNL A   1      27.211  27.717  23.710  1.00  0.00     0.000 A 
ATOM     28  C   UNL A   1      29.510  27.120  23.337  1.00  0.00     0.006 A 
ATOM     29  C   UNL A   1      28.258  26.822  23.869  1.00  0.00     0.000 A 
ENDBRANCH  22  23
ENDBRANCH   8  22
ENDBRANCH   6   7
ENDBRANCH   3   6
ENDBRANCH   1   2
BRANCH   1  30
ATOM     30  C   UNL A   1      36.613  29.407  28.264  1.00  0.00     0.042 C 
BRANCH  30  31
ATOM     31  C   UNL A   1      36.736  29.468  29.779  1.00  0.00     0.118 C 
BRANCH  31  32
ATOM     32  N   UNL A   1      37.191  30.779  30.201  1.00  0.00    -0.352 N 
ATOM     33  C   UNL A   1      38.384  31.252  30.674  1.00  0.00     0.251 C 
ATOM     34  H   UNL A   1      36.497  31.473  30.134  1.00  0.00     0.163 HD
ATOM     35  O   UNL A   1      38.334  32.329  31.273  1.00  0.00    -0.269 OA
BRANCH  33  36
ATOM     36  C   UNL A   1      39.702  30.567  30.535  1.00  0.00     0.039 A 
ATOM     37  C   UNL A   1      40.696  31.274  29.837  1.00  0.00     0.014 A 
ATOM     38  C   UNL A   1      40.011  29.279  30.978  1.00  0.00     0.014 A 
ATOM     39  C   UNL A   1      41.976  30.737  29.651  1.00  0.00     0.010 A 
ATOM     40  C   UNL A   1      41.302  28.746  30.806  1.00  0.00     0.010 A 
ATOM     41  C   UNL A   1      42.305  29.480  30.171  1.00  0.00    -0.014 A 
BRANCH  41  42
ATOM     42  C   UNL A   1      43.746  29.152  30.276  1.00  0.00     0.031 A 
ATOM     43  C   UNL A   1      43.980  28.132  31.364  1.00  0.00     0.074 A 
ATOM     44  C   UNL A   1      44.656  28.976  29.281  1.00  0.00     0.049 A 
ATOM     45  N   UNL A   1      43.695  26.881  31.173  1.00  0.00    -0.248 NA
ATOM     46  C   UNL A   1      44.378  28.424  32.739  1.00  0.00     0.031 C 
ATOM     47  C   UNL A   1      46.091  29.165  29.505  1.00  0.00     0.029 A 
ATOM     48  N   UNL A   1      44.580  28.618  27.933  1.00  0.00    -0.354 N 
ATOM     49  C   UNL A   1      44.102  26.176  32.293  1.00  0.00     0.074 A 
ATOM     50  C   UNL A   1      44.398  27.189  33.285  1.00  0.00     0.031 C 
ATOM     51  C   UNL A   1      46.772  28.856  28.386  1.00  0.00     0.029 A 
ATOM     52  C   UNL A   1      45.846  28.312  27.392  1.00  0.00     0.049 A 
ATOM     53  H   UNL A   1      43.740  28.583  27.420  1.00  0.00     0.167 HD
ATOM     54  C   UNL A   1      44.364  24.833  32.202  1.00  0.00     0.037 A 
ATOM     55  C   UNL A   1      46.241  27.496  26.364  1.00  0.00     0.037 A 
ATOM     56  C   UNL A   1      44.518  24.478  30.812  1.00  0.00     0.049 A 
ATOM     57  C   UNL A   1      45.136  26.627  25.850  1.00  0.00     0.074 A 
ATOM     58  C   UNL A   1      45.641  24.822  30.103  1.00  0.00     0.029 A 
ATOM     59  N   UNL A   1      43.504  24.163  29.915  1.00  0.00    -0.354 N 
ATOM     60  N   UNL A   1      45.006  25.395  26.242  1.00  0.00    -0.248 NA
ATOM     61  C   UNL A   1      43.970  27.095  25.095  1.00  0.00     0.031 C 
ATOM     62  C   UNL A   1      45.128  25.144  28.867  1.00  0.00     0.029 A 
ATOM     63  C   UNL A   1      43.877  24.600  28.640  1.00  0.00     0.049 A 
ATOM     64  H   UNL A   1      42.660  23.708  30.139  1.00  0.00     0.167 HD
ATOM     65  C   UNL A   1      43.645  25.199  26.329  1.00  0.00     0.074 A 
ATOM     66  C   UNL A   1      43.087  26.112  25.343  1.00  0.00     0.031 C 
ATOM     67  C   UNL A   1      43.020  24.694  27.450  1.00  0.00     0.037 A 
BRANCH  54  68
ATOM     68  C   UNL A   1      45.004  23.951  33.237  1.00  0.00     0.057 A 
ATOM     69  C   UNL A   1      44.272  22.904  33.857  1.00  0.00     0.134 A 
ATOM     70  C   UNL A   1      46.298  24.141  33.722  1.00  0.00     0.134 A 
ATOM     71  F   UNL A   1      43.013  22.602  33.507  1.00  0.00    -0.206 F 
ATOM     72  C   UNL A   1      44.786  22.108  34.878  1.00  0.00     0.040 A 
ATOM     73  C   UNL A   1      46.829  23.342  34.748  1.00  0.00     0.040 A 
ATOM     74  F   UNL A   1      47.074  25.122  33.238  1.00  0.00    -0.206 F 
ATOM     75  C   UNL A   1      46.072  22.328  35.332  1.00  0.00     0.006 A 
ENDBRANCH  54  68
BRANCH  55  76
ATOM     76  C   UNL A   1      47.665  27.012  26.243  1.00  0.00     0.057 A 
ATOM     77  C   UNL A   1      48.401  27.232  25.079  1.00  0.00     0.134 A 
ATOM     78  C   UNL A   1      48.366  26.349  27.273  1.00  0.00     0.134 A 
ATOM     79  F   UNL A   1      47.836  27.851  24.032  1.00  0.00    -0.206 F 
ATOM     80  C   UNL A   1      49.744  26.824  24.955  1.00  0.00     0.040 A 
ATOM     81  C   UNL A   1      49.701  25.951  27.173  1.00  0.00     0.040 A 
ATOM     82  F   UNL A   1      47.810  26.051  28.443  1.00  0.00    -0.206 F 
ATOM     83  C   UNL A   1      50.400  26.185  26.006  1.00  0.00     0.006 A 
ENDBRANCH  55  76
BRANCH  67  84
ATOM     84  C   UNL A   1      41.533  24.513  27.431  1.00  0.00     0.057 A 
ATOM     85  C   UNL A   1      40.945  23.398  26.811  1.00  0.00     0.134 A 
ATOM     86  C   UNL A   1      40.644  25.410  28.038  1.00  0.00     0.134 A 
ATOM     87  F   UNL A   1      41.708  22.448  26.245  1.00  0.00    -0.206 F 
ATOM     88  C   UNL A   1      39.559  23.225  26.737  1.00  0.00     0.040 A 
ATOM     89  C   UNL A   1      39.256  25.244  27.987  1.00  0.00     0.040 A 
ATOM     90  F   UNL A   1      41.086  26.478  28.710  1.00  0.00    -0.206 F 
ATOM     91  C   UNL A   1      38.707  24.155  27.323  1.00  0.00     0.006 A 
ENDBRANCH  67  84
ENDBRANCH  41  42
ENDBRANCH  33  36
ENDBRANCH  31  32
ENDBRANCH  30  31
ENDBRANCH   1  30
TORSDOF 13
ENDMDL
MODEL 2
REMARK VINA RESULT:     -12.3      3.347      7.655
REMARK SMILES Cc1ccccc1CN1C(=O)[C@H](CC(=O)NCCCNC(=O)c2ccc(-c3c4nc(c(-c5c(F)cccc5F)c5ccc([nH]5)c(-c5c(F)cccc5F)c5nc(c(-c6c(F)cccc6F)c6ccc3[nH]6)C=C5)C=C4)cc2)n2c(nc3ccccc32)[C@H]1C
REMARK SMILES IDX 17 1 16 2 14 3 15 4 13 6 12 7 9 8 10 9 86 10 11 11 78 12
REMARK SMILES IDX 87 13 77 14 79 15 85 16 80 17 84 18 81 19 83 20 82 21 8 22
REMARK SMILES IDX 7 23 1 24 2 25 3 26 4 27 6 28 5 29 18 30 19 31 20 32 21 33
REMARK SMILES IDX 22 35 23 36 24 37 76 38 25 39 75 40 26 41 27 42 28 43 69 44
REMARK SMILES IDX 29 45 74 46 68 47 70 48 30 49 73 50 67 51 66 52 31 54 57 55
REMARK SMILES IDX 40 56 56 57 41 58 44 59 55 60 71 61 42 62 43 63 54 65 72 66
REMARK SMILES IDX 45 67 32 68 33 69 38 70 34 71 35 72 37 73 39 74 36 75 58 76
REMARK SMILES IDX 59 77 64 78 60 79 61 80 63 81 65 82 62 83 46 84 47 85 52 86
REMARK SMILES IDX 48 87 49 88 51 89 53 90 50 91
REMARK H PARENT 16 5 20 34 70 53 44 64
REMARK Flexibility Score: inf
ROOT
ATOM      1  C   UNL A   1      38.119  22.322  25.877  1.00  0.00     0.117 C 
ENDROOT
BRANCH   1   2
ATOM      2  N   UNL A   1      37.824  22.622  24.477  1.00  0.00    -0.356 N 
ATOM      3  C   UNL A   1      36.742  23.210  23.893  1.00  0.00     0.222 C 
ATOM      4  O   UNL A   1      36.671  23.176  22.661  1.00  0.00    -0.275 OA
ATOM      5  H   UNL A   1      38.530  22.353  23.846  1.00  0.00     0.163 HD
BRANCH   3   6
ATOM      6  C   UNL A   1      35.657  23.909  24.697  1.00  0.00     0.135 C 
BRANCH   6   7
ATOM      7  C   UNL A   1      34.289  23.260  24.422  1.00  0.00     0.187 C 
ATOM      8  N   UNL A   1      32.766  21.715  25.596  1.00  0.00    -0.327 N 
ATOM      9  C   UNL A   1      34.068  22.130  25.422  1.00  0.00     0.247 C 
ATOM     10  C   UNL A   1      31.928  22.772  26.168  1.00  0.00     0.149 C 
ATOM     11  O   UNL A   1      34.976  21.591  26.054  1.00  0.00    -0.272 OA
ATOM     12  C   UNL A   1      32.052  23.981  25.280  1.00  0.00     0.133 A 
ATOM     13  C   UNL A   1      30.468  22.434  26.434  1.00  0.00     0.040 C 
ATOM     14  N   UNL A   1      33.157  24.181  24.475  1.00  0.00    -0.313 N 
ATOM     15  N   UNL A   1      31.186  24.961  25.145  1.00  0.00    -0.231 NA
ATOM     16  C   UNL A   1      32.889  25.253  23.655  1.00  0.00     0.069 A 
ATOM     17  C   UNL A   1      31.667  25.735  24.123  1.00  0.00     0.089 A 
ATOM     18  C   UNL A   1      33.556  25.838  22.573  1.00  0.00     0.028 A 
ATOM     19  C   UNL A   1      31.085  26.862  23.528  1.00  0.00     0.030 A 
ATOM     20  C   UNL A   1      32.953  26.958  21.982  1.00  0.00     0.002 A 
ATOM     21  C   UNL A   1      31.741  27.467  22.453  1.00  0.00     0.002 A 
BRANCH   8  22
ATOM     22  C   UNL A   1      32.539  20.292  25.872  1.00  0.00     0.156 C 
BRANCH  22  23
ATOM     23  C   UNL A   1      32.435  19.503  24.581  1.00  0.00    -0.026 A 
ATOM     24  C   UNL A   1      32.826  17.189  25.666  1.00  0.00     0.044 C 
ATOM     25  C   UNL A   1      32.669  18.111  24.486  1.00  0.00    -0.046 A 
ATOM     26  C   UNL A   1      32.707  17.510  23.212  1.00  0.00     0.004 A 
ATOM     27  C   UNL A   1      32.506  18.255  22.052  1.00  0.00     0.000 A 
ATOM     28  C   UNL A   1      32.161  20.216  23.399  1.00  0.00     0.006 A 
ATOM     29  C   UNL A   1      32.214  19.607  22.147  1.00  0.00     0.000 A 
ENDBRANCH  22  23
ENDBRANCH   8  22
ENDBRANCH   6   7
ENDBRANCH   3   6
ENDBRANCH   1   2
BRANCH   1  30
ATOM     30  C   UNL A   1      39.297  21.340  26.002  1.00  0.00     0.042 C 
BRANCH  30  31
ATOM     31  C   UNL A   1      40.486  21.868  26.792  1.00  0.00     0.118 C 
BRANCH  31  32
ATOM     32  N   UNL A   1      41.716  21.689  26.043  1.00  0.00    -0.352 N 
ATOM     33  C   UNL A   1      42.652  22.557  25.552  1.00  0.00     0.251 C 
ATOM     34  H   UNL A   1      41.920  20.746  25.849  1.00  0.00     0.163 HD
ATOM     35  O   UNL A   1      43.381  22.112  24.663  1.00  0.00    -0.269 OA
BRANCH  33  36
ATOM     36  C   UNL A   1      42.835  23.971  25.991  1.00  0.00     0.039 A 
ATOM     37  C   UNL A   1      43.057  24.913  24.971  1.00  0.00     0.014 A 
ATOM     38  C   UNL A   1      42.865  24.425  27.311  1.00  0.00     0.014 A 
ATOM     39  C   UNL A   1      43.234  26.271  25.260  1.00  0.00     0.010 A 
ATOM     40  C   UNL A   1      43.026  25.793  27.602  1.00  0.00     0.010 A 
ATOM     41  C   UNL A   1      43.179  26.732  26.581  1.00  0.00    -0.014 A 
BRANCH  41  42
ATOM     42  C   UNL A   1      42.986  28.189  26.777  1.00  0.00     0.031 A 
ATOM     43  C   UNL A   1      41.643  28.465  27.409  1.00  0.00     0.074 A 
ATOM     44  C   UNL A   1      43.886  29.121  27.189  1.00  0.00     0.049 A 
ATOM     45  N   UNL A   1      41.449  28.255  28.675  1.00  0.00    -0.248 NA
ATOM     46  C   UNL A   1      40.419  28.826  26.697  1.00  0.00     0.031 C 
ATOM     47  C   UNL A   1      43.733  30.539  26.857  1.00  0.00     0.029 A 
ATOM     48  N   UNL A   1      45.064  29.085  27.937  1.00  0.00    -0.354 N 
ATOM     49  C   UNL A   1      40.171  28.686  28.987  1.00  0.00     0.074 A 
ATOM     50  C   UNL A   1      39.530  28.908  27.708  1.00  0.00     0.031 C 
ATOM     51  C   UNL A   1      44.711  31.253  27.446  1.00  0.00     0.029 A 
ATOM     52  C   UNL A   1      45.494  30.374  28.316  1.00  0.00     0.049 A 
ATOM     53  H   UNL A   1      45.540  28.255  28.174  1.00  0.00     0.167 HD
ATOM     54  C   UNL A   1      39.857  29.025  30.278  1.00  0.00     0.037 A 
ATOM     55  C   UNL A   1      46.231  30.830  29.377  1.00  0.00     0.037 A 
ATOM     56  C   UNL A   1      41.078  29.219  31.023  1.00  0.00     0.049 A 
ATOM     57  C   UNL A   1      46.458  29.783  30.424  1.00  0.00     0.074 A 
ATOM     58  C   UNL A   1      41.861  30.330  30.841  1.00  0.00     0.029 A 
ATOM     59  N   UNL A   1      41.836  28.237  31.651  1.00  0.00    -0.354 N 
ATOM     60  N   UNL A   1      45.714  29.718  31.487  1.00  0.00    -0.248 NA
ATOM     61  C   UNL A   1      47.314  28.604  30.272  1.00  0.00     0.031 C 
ATOM     62  C   UNL A   1      43.135  29.817  30.934  1.00  0.00     0.029 A 
ATOM     63  C   UNL A   1      43.184  28.603  31.593  1.00  0.00     0.049 A 
ATOM     64  H   UNL A   1      41.482  27.418  32.066  1.00  0.00     0.167 HD
ATOM     65  C   UNL A   1      45.567  28.370  31.728  1.00  0.00     0.074 A 
ATOM     66  C   UNL A   1      46.779  27.774  31.186  1.00  0.00     0.031 C 
ATOM     67  C   UNL A   1      44.345  27.759  31.910  1.00  0.00     0.037 A 
BRANCH  54  68
ATOM     68  C   UNL A   1      38.607  29.700  30.771  1.00  0.00     0.057 A 
ATOM     69  C   UNL A   1      38.289  31.024  30.372  1.00  0.00     0.134 A 
ATOM     70  C   UNL A   1      37.736  29.130  31.698  1.00  0.00     0.134 A 
ATOM     71  F   UNL A   1      39.034  31.710  29.493  1.00  0.00    -0.206 F 
ATOM     72  C   UNL A   1      37.189  31.728  30.858  1.00  0.00     0.040 A 
ATOM     73  C   UNL A   1      36.621  29.828  32.192  1.00  0.00     0.040 A 
ATOM     74  F   UNL A   1      37.952  27.896  32.175  1.00  0.00    -0.206 F 
ATOM     75  C   UNL A   1      36.349  31.131  31.778  1.00  0.00     0.006 A 
ENDBRANCH  54  68
BRANCH  55  76
ATOM     76  C   UNL A   1      46.207  32.280  29.791  1.00  0.00     0.057 A 
ATOM     77  C   UNL A   1      47.378  33.037  29.823  1.00  0.00     0.134 A 
ATOM     78  C   UNL A   1      45.034  32.985  30.135  1.00  0.00     0.134 A 
ATOM     79  F   UNL A   1      48.554  32.470  29.517  1.00  0.00    -0.206 F 
ATOM     80  C   UNL A   1      47.377  34.403  30.168  1.00  0.00     0.040 A 
ATOM     81  C   UNL A   1      45.012  34.343  30.465  1.00  0.00     0.040 A 
ATOM     82  F   UNL A   1      43.835  32.413  30.166  1.00  0.00    -0.206 F 
ATOM     83  C   UNL A   1      46.190  35.061  30.486  1.00  0.00     0.006 A 
ENDBRANCH  55  76
BRANCH  67  84
ATOM     84  C   UNL A   1      44.303  26.285  32.176  1.00  0.00     0.057 A 
ATOM     85  C   UNL A   1      44.447  25.355  31.133  1.00  0.00     0.134 A 
ATOM     86  C   UNL A   1      44.144  25.741  33.458  1.00  0.00     0.134 A 
ATOM     87  F   UNL A   1      44.658  25.767  29.872  1.00  0.00    -0.206 F 
ATOM     88  C   UNL A   1      44.366  23.974  31.343  1.00  0.00     0.040 A 
ATOM     89  C   UNL A   1      44.077  24.363  33.688  1.00  0.00     0.040 A 
ATOM     90  F   UNL A   1      44.056  26.525  34.538  1.00  0.00    -0.206 F 
ATOM     91  C   UNL A   1      44.174  23.473  32.626  1.00  0.00     0.006 A 
ENDBRANCH  67  84
ENDBRANCH  41  42
ENDBRANCH  33  36
ENDBRANCH  31  32
ENDBRANCH  30  31
ENDBRANCH   1  30
TORSDOF 13
ENDMDL
MODEL 3
REMARK VINA RESULT:     -12.3      3.143      6.652
REMARK SMILES Cc1ccccc1CN1C(=O)[C@H](CC(=O)NCCCNC(=O)c2ccc(-c3c4nc(c(-c5c(F)cccc5F)c5ccc([nH]5)c(-c5c(F)cccc5F)c5nc(c(-c6c(F)cccc6F)c6ccc3[nH]6)C=C5)C=C4)cc2)n2c(nc3ccccc32)[C@H]1C
REMARK SMILES IDX 17 1 16 2 14 3 15 4 13 6 12 7 9 8 10 9 86 10 11 11 78 12
REMARK SMILES IDX 87 13 77 14 79 15 85 16 80 17 84 18 81 19 83 20 82 21 8 22
REMARK SMILES IDX 7 23 1 24 2 25 3 26 4 27 6 28 5 29 18 30 19 31 20 32 21 33
REMARK SMILES IDX 22 35 23 36 24 37 76 38 25 39 75 40 26 41 27 42 28 43 69 44
REMARK SMILES IDX 29 45 74 46 68 47 70 48 30 49 73 50 67 51 66 52 31 54 57 55
REMARK SMILES IDX 40 56 56 57 41 58 44 59 55 60 71 61 42 62 43 63 54 65 72 66
REMARK SMILES IDX 45 67 32 68 33 69 38 70 34 71 35 72 37 73 39 74 36 75 58 76
REMARK SMILES IDX 59 77 64 78 60 79 61 80 63 81 65 82 62 83 46 84 47 85 52 86
REMARK SMILES IDX 48 87 49 88 51 89 53 90 50 91
REMARK H PARENT 16 5 20 34 70 53 44 64
REMARK Flexibility Score: inf
ROOT
ATOM      1  C   UNL A   1      35.389  29.780  27.830  1.00  0.00     0.117 C 
ENDROOT
BRANCH   1   2
ATOM      2  N   UNL A   1      34.060  29.213  28.052  1.00  0.00    -0.356 N 
ATOM      3  C   UNL A   1      33.333  28.318  27.328  1.00  0.00     0.222 C 
ATOM      4  O   UNL A   1      32.154  28.148  27.650  1.00  0.00    -0.275 OA
ATOM      5  H   UNL A   1      33.613  29.535  28.868  1.00  0.00     0.163 HD
BRANCH   3   6
ATOM      6  C   UNL A   1      33.926  27.524  26.175  1.00  0.00     0.135 C 
BRANCH   6   7
ATOM      7  C   UNL A   1      32.812  27.054  25.223  1.00  0.00     0.187 C 
ATOM      8  N   UNL A   1      32.002  27.655  22.971  1.00  0.00    -0.327 N 
ATOM      9  C   UNL A   1      32.644  28.085  24.112  1.00  0.00     0.247 C 
ATOM     10  C   UNL A   1      32.761  26.609  22.280  1.00  0.00     0.149 C 
ATOM     11  O   UNL A   1      33.042  29.247  24.193  1.00  0.00    -0.272 OA
ATOM     12  C   UNL A   1      33.019  25.505  23.270  1.00  0.00     0.133 A 
ATOM     13  C   UNL A   1      32.172  26.062  20.988  1.00  0.00     0.040 C 
ATOM     14  N   UNL A   1      33.032  25.737  24.632  1.00  0.00    -0.313 N 
ATOM     15  N   UNL A   1      33.253  24.238  23.005  1.00  0.00    -0.231 NA
ATOM     16  C   UNL A   1      33.098  24.518  25.264  1.00  0.00     0.069 A 
ATOM     17  C   UNL A   1      33.269  23.608  24.220  1.00  0.00     0.089 A 
ATOM     18  C   UNL A   1      33.020  24.112  26.601  1.00  0.00     0.028 A 
ATOM     19  C   UNL A   1      33.402  22.241  24.498  1.00  0.00     0.030 A 
ATOM     20  C   UNL A   1      33.144  22.739  26.859  1.00  0.00     0.002 A 
ATOM     21  C   UNL A   1      33.338  21.818  25.828  1.00  0.00     0.002 A 
BRANCH   8  22
ATOM     22  C   UNL A   1      31.165  28.625  22.257  1.00  0.00     0.156 C 
BRANCH  22  23
ATOM     23  C   UNL A   1      29.701  28.434  22.608  1.00  0.00    -0.026 A 
ATOM     24  C   UNL A   1      28.888  30.629  21.511  1.00  0.00     0.044 C 
ATOM     25  C   UNL A   1      28.697  29.397  22.356  1.00  0.00    -0.046 A 
ATOM     26  C   UNL A   1      27.402  29.187  22.871  1.00  0.00     0.004 A 
ATOM     27  C   UNL A   1      27.092  28.046  23.609  1.00  0.00     0.000 A 
ATOM     28  C   UNL A   1      29.341  27.257  23.292  1.00  0.00     0.006 A 
ATOM     29  C   UNL A   1      28.059  27.071  23.804  1.00  0.00     0.000 A 
ENDBRANCH  22  23
ENDBRANCH   8  22
ENDBRANCH   6   7
ENDBRANCH   3   6
ENDBRANCH   1   2
BRANCH   1  30
ATOM     30  C   UNL A   1      35.330  31.313  27.706  1.00  0.00     0.042 C 
BRANCH  30  31
ATOM     31  C   UNL A   1      34.004  31.935  28.119  1.00  0.00     0.118 C 
BRANCH  31  32
ATOM     32  N   UNL A   1      34.226  33.145  28.889  1.00  0.00    -0.352 N 
ATOM     33  C   UNL A   1      34.977  33.430  29.996  1.00  0.00     0.251 C 
ATOM     34  H   UNL A   1      33.732  33.923  28.543  1.00  0.00     0.163 HD
ATOM     35  O   UNL A   1      34.668  34.457  30.603  1.00  0.00    -0.269 OA
BRANCH  33  36
ATOM     36  C   UNL A   1      36.102  32.598  30.515  1.00  0.00     0.039 A 
ATOM     37  C   UNL A   1      35.767  31.646  31.493  1.00  0.00     0.014 A 
ATOM     38  C   UNL A   1      37.448  32.723  30.164  1.00  0.00     0.014 A 
ATOM     39  C   UNL A   1      36.736  30.801  32.048  1.00  0.00     0.010 A 
ATOM     40  C   UNL A   1      38.420  31.863  30.709  1.00  0.00     0.010 A 
ATOM     41  C   UNL A   1      38.070  30.874  31.630  1.00  0.00    -0.014 A 
BRANCH  41  42
ATOM     42  C   UNL A   1      38.942  29.722  31.959  1.00  0.00     0.031 A 
ATOM     43  C   UNL A   1      39.274  28.936  30.714  1.00  0.00     0.074 A 
ATOM     44  C   UNL A   1      39.985  29.663  32.829  1.00  0.00     0.049 A 
ATOM     45  N   UNL A   1      40.152  29.375  29.866  1.00  0.00    -0.248 NA
ATOM     46  C   UNL A   1      38.580  27.737  30.248  1.00  0.00     0.031 C 
ATOM     47  C   UNL A   1      40.416  28.399  33.432  1.00  0.00     0.029 A 
ATOM     48  N   UNL A   1      40.867  30.601  33.371  1.00  0.00    -0.354 N 
ATOM     49  C   UNL A   1      40.319  28.410  28.887  1.00  0.00     0.074 A 
ATOM     50  C   UNL A   1      39.232  27.475  29.096  1.00  0.00     0.031 C 
ATOM     51  C   UNL A   1      41.509  28.605  34.190  1.00  0.00     0.029 A 
ATOM     52  C   UNL A   1      41.953  29.989  34.031  1.00  0.00     0.049 A 
ATOM     53  H   UNL A   1      40.744  31.575  33.299  1.00  0.00     0.167 HD
ATOM     54  C   UNL A   1      41.474  28.372  28.149  1.00  0.00     0.037 A 
ATOM     55  C   UNL A   1      43.239  30.398  34.271  1.00  0.00     0.037 A 
ATOM     56  C   UNL A   1      42.483  29.159  28.817  1.00  0.00     0.049 A 
ATOM     57  C   UNL A   1      43.605  31.645  33.527  1.00  0.00     0.074 A 
ATOM     58  C   UNL A   1      43.106  28.713  29.954  1.00  0.00     0.029 A 
ATOM     59  N   UNL A   1      42.670  30.533  28.715  1.00  0.00    -0.354 N 
ATOM     60  N   UNL A   1      44.259  31.595  32.405  1.00  0.00    -0.248 NA
ATOM     61  C   UNL A   1      43.076  32.984  33.802  1.00  0.00     0.031 C 
ATOM     62  C   UNL A   1      43.226  29.863  30.701  1.00  0.00     0.029 A 
ATOM     63  C   UNL A   1      43.144  31.015  29.939  1.00  0.00     0.049 A 
ATOM     64  H   UNL A   1      42.496  31.078  27.914  1.00  0.00     0.167 HD
ATOM     65  C   UNL A   1      43.717  32.605  31.640  1.00  0.00     0.074 A 
ATOM     66  C   UNL A   1      43.260  33.586  32.614  1.00  0.00     0.031 C 
ATOM     67  C   UNL A   1      43.248  32.420  30.357  1.00  0.00     0.037 A 
BRANCH  54  68
ATOM     68  C   UNL A   1      41.922  27.294  27.202  1.00  0.00     0.057 A 
ATOM     69  C   UNL A   1      42.264  26.001  27.678  1.00  0.00     0.134 A 
ATOM     70  C   UNL A   1      42.118  27.498  25.837  1.00  0.00     0.134 A 
ATOM     71  F   UNL A   1      42.140  25.653  28.967  1.00  0.00    -0.206 F 
ATOM     72  C   UNL A   1      42.761  24.989  26.860  1.00  0.00     0.040 A 
ATOM     73  C   UNL A   1      42.614  26.484  25.000  1.00  0.00     0.040 A 
ATOM     74  F   UNL A   1      41.863  28.689  25.277  1.00  0.00    -0.206 F 
ATOM     75  C   UNL A   1      42.943  25.230  25.511  1.00  0.00     0.006 A 
ENDBRANCH  54  68
BRANCH  55  76
ATOM     76  C   UNL A   1      44.328  29.415  34.625  1.00  0.00     0.057 A 
ATOM     77  C   UNL A   1      45.034  29.525  35.822  1.00  0.00     0.134 A 
ATOM     78  C   UNL A   1      44.691  28.314  33.820  1.00  0.00     0.134 A 
ATOM     79  F   UNL A   1      44.774  30.536  36.665  1.00  0.00    -0.206 F 
ATOM     80  C   UNL A   1      46.027  28.598  36.193  1.00  0.00     0.040 A 
ATOM     81  C   UNL A   1      45.663  27.377  34.178  1.00  0.00     0.040 A 
ATOM     82  F   UNL A   1      44.126  28.068  32.642  1.00  0.00    -0.206 F 
ATOM     83  C   UNL A   1      46.341  27.517  35.372  1.00  0.00     0.006 A 
ENDBRANCH  55  76
BRANCH  67  84
ATOM     84  C   UNL A   1      42.687  33.593  29.613  1.00  0.00     0.057 A 
ATOM     85  C   UNL A   1      41.402  34.087  29.898  1.00  0.00     0.134 A 
ATOM     86  C   UNL A   1      43.395  34.281  28.619  1.00  0.00     0.134 A 
ATOM     87  F   UNL A   1      40.657  33.536  30.870  1.00  0.00    -0.206 F 
ATOM     88  C   UNL A   1      40.834  35.151  29.189  1.00  0.00     0.040 A 
ATOM     89  C   UNL A   1      42.848  35.356  27.912  1.00  0.00     0.040 A 
ATOM     90  F   UNL A   1      44.650  33.942  28.301  1.00  0.00    -0.206 F 
ATOM     91  C   UNL A   1      41.557  35.786  28.186  1.00  0.00     0.006 A 
ENDBRANCH  67  84
ENDBRANCH  41  42
ENDBRANCH  33  36
ENDBRANCH  31  32
ENDBRANCH  30  31
ENDBRANCH   1  30
TORSDOF 13
ENDMDL
