MODEL 1
REMARK VINA RESULT:     -12.6      0.000      0.000
REMARK SMILES Cc1ccccc1OCC(=O)N[C@@H](Cc1c[nH]c2ccccc12)C(=O)NCCCNC(=O)c1ccc(-c2c3nc(c(-c4c(F)cccc4F)c4ccc([nH]4)c(-c4c(F)cccc4F)c4nc(c(-c5c(F)cccc5F)c5ccc2[nH]5)C=C4)C=C3)cc1
REMARK SMILES IDX 27 1 26 2 24 3 25 4 13 6 12 7 10 8 11 9 9 11 8 12 7 13 1 14
REMARK SMILES IDX 2 15 3 16 4 17 6 18 5 19 14 20 15 21 16 22 23 23 17 24 18 25
REMARK SMILES IDX 22 26 19 28 21 29 20 30 28 31 29 32 30 33 31 34 32 36 33 37
REMARK SMILES IDX 34 38 86 39 35 40 85 41 36 42 37 43 38 44 79 45 39 46 84 47
REMARK SMILES IDX 78 48 80 49 40 50 83 51 77 52 76 53 41 55 67 56 50 57 66 58
REMARK SMILES IDX 51 59 54 60 65 61 81 62 52 63 53 64 64 66 82 67 55 68 42 69
REMARK SMILES IDX 43 70 48 71 44 72 45 73 47 74 49 75 46 76 68 77 69 78 74 79
REMARK SMILES IDX 70 80 71 81 73 82 75 83 72 84 56 85 57 86 62 87 58 88 59 89
REMARK SMILES IDX 61 90 63 91 60 92
REMARK H PARENT 26 5 12 10 17 27 30 35 80 54 54 65
REMARK Flexibility Score: inf
ROOT
ATOM      1  C   UNL A   1      31.959  30.083  25.692  1.00  0.00     0.117 C 
ENDROOT
BRANCH   1   2
ATOM      2  N   UNL A   1      33.063  29.624  24.873  1.00  0.00    -0.354 N 
ATOM      3  C   UNL A   1      33.290  28.367  24.374  1.00  0.00     0.242 C 
ATOM      4  O   UNL A   1      33.985  28.283  23.356  1.00  0.00    -0.273 OA
ATOM      5  H   UNL A   1      33.737  30.304  24.644  1.00  0.00     0.163 HD
BRANCH   3   6
ATOM      6  C   UNL A   1      32.681  27.084  25.010  1.00  0.00     0.175 C 
BRANCH   6   7
ATOM      7  N   UNL A   1      31.664  26.537  24.113  1.00  0.00    -0.341 N 
ATOM      8  C   UNL A   1      30.587  25.792  24.499  1.00  0.00     0.258 C 
ATOM      9  O   UNL A   1      29.527  25.928  23.885  1.00  0.00    -0.271 OA
ATOM     10  H   UNL A   1      31.764  26.721  23.150  1.00  0.00     0.164 HD
BRANCH   8  11
ATOM     11  C   UNL A   1      30.721  24.819  25.678  1.00  0.00     0.329 C 
BRANCH  11  12
ATOM     12  O   UNL A   1      30.836  23.429  25.422  1.00  0.00    -0.484 OA
BRANCH  12  13
ATOM     13  C   UNL A   1      31.915  22.721  25.874  1.00  0.00     0.122 A 
ATOM     14  C   UNL A   1      32.329  21.114  23.886  1.00  0.00     0.048 C 
ATOM     15  C   UNL A   1      32.629  21.695  25.237  1.00  0.00    -0.009 A 
ATOM     16  C   UNL A   1      33.737  21.130  25.909  1.00  0.00     0.007 A 
ATOM     17  C   UNL A   1      34.087  21.518  27.201  1.00  0.00     0.001 A 
ATOM     18  C   UNL A   1      32.262  23.080  27.189  1.00  0.00     0.047 A 
ATOM     19  C   UNL A   1      33.338  22.487  27.850  1.00  0.00     0.004 A 
ENDBRANCH  12  13
ENDBRANCH  11  12
ENDBRANCH   8  11
ENDBRANCH   6   7
BRANCH   6  20
ATOM     20  C   UNL A   1      33.697  26.064  25.570  1.00  0.00     0.072 C 
BRANCH  20  21
ATOM     21  C   UNL A   1      34.322  25.109  24.597  1.00  0.00    -0.020 A 
ATOM     22  C   UNL A   1      33.833  24.792  23.341  1.00  0.00     0.087 A 
ATOM     23  C   UNL A   1      35.475  24.276  24.811  1.00  0.00     0.003 A 
ATOM     24  N   UNL A   1      34.582  23.765  22.830  1.00  0.00    -0.361 N 
ATOM     25  C   UNL A   1      35.554  23.393  23.731  1.00  0.00     0.046 A 
ATOM     26  C   UNL A   1      36.387  24.117  25.876  1.00  0.00     0.010 A 
ATOM     27  H   UNL A   1      34.445  23.353  21.947  1.00  0.00     0.166 HD
ATOM     28  C   UNL A   1      36.468  22.333  23.682  1.00  0.00     0.026 A 
ATOM     29  C   UNL A   1      37.317  23.073  25.834  1.00  0.00     0.001 A 
ATOM     30  C   UNL A   1      37.346  22.187  24.759  1.00  0.00     0.002 A 
ENDBRANCH  20  21
ENDBRANCH   6  20
ENDBRANCH   3   6
ENDBRANCH   1   2
BRANCH   1  31
ATOM     31  C   UNL A   1      32.323  30.848  26.949  1.00  0.00     0.042 C 
BRANCH  31  32
ATOM     32  C   UNL A   1      33.720  30.500  27.418  1.00  0.00     0.118 C 
BRANCH  32  33
ATOM     33  N   UNL A   1      34.330  31.456  28.345  1.00  0.00    -0.352 N 
ATOM     34  C   UNL A   1      35.492  31.322  29.100  1.00  0.00     0.251 C 
ATOM     35  H   UNL A   1      33.852  32.310  28.450  1.00  0.00     0.163 HD
ATOM     36  O   UNL A   1      35.877  32.237  29.809  1.00  0.00    -0.269 OA
BRANCH  34  37
ATOM     37  C   UNL A   1      36.333  30.108  28.919  1.00  0.00     0.039 A 
ATOM     38  C   UNL A   1      36.637  29.333  30.044  1.00  0.00     0.014 A 
ATOM     39  C   UNL A   1      37.034  29.918  27.736  1.00  0.00     0.014 A 
ATOM     40  C   UNL A   1      37.828  28.609  30.065  1.00  0.00     0.010 A 
ATOM     41  C   UNL A   1      38.284  29.346  27.809  1.00  0.00     0.010 A 
ATOM     42  C   UNL A   1      38.709  28.740  28.992  1.00  0.00    -0.014 A 
BRANCH  42  43
ATOM     43  C   UNL A   1      40.123  28.392  29.060  1.00  0.00     0.031 A 
ATOM     44  C   UNL A   1      40.603  27.100  28.526  1.00  0.00     0.074 A 
ATOM     45  C   UNL A   1      41.017  29.296  29.522  1.00  0.00     0.049 A 
ATOM     46  N   UNL A   1      41.640  26.478  28.977  1.00  0.00    -0.248 NA
ATOM     47  C   UNL A   1      39.936  26.393  27.438  1.00  0.00     0.031 C 
ATOM     48  C   UNL A   1      42.473  29.225  29.429  1.00  0.00     0.029 A 
ATOM     49  N   UNL A   1      40.776  30.408  30.341  1.00  0.00    -0.354 N 
ATOM     50  C   UNL A   1      41.931  25.466  28.094  1.00  0.00     0.074 A 
ATOM     51  C   UNL A   1      40.812  25.418  27.183  1.00  0.00     0.031 C 
ATOM     52  C   UNL A   1      43.007  30.034  30.356  1.00  0.00     0.029 A 
ATOM     53  C   UNL A   1      41.917  30.555  31.161  1.00  0.00     0.049 A 
ATOM     54  H   UNL A   1      39.972  30.975  30.343  1.00  0.00     0.167 HD
ATOM     55  C   UNL A   1      43.148  24.857  28.128  1.00  0.00     0.037 A 
ATOM     56  C   UNL A   1      41.828  30.452  32.519  1.00  0.00     0.037 A 
ATOM     57  C   UNL A   1      44.007  25.438  29.152  1.00  0.00     0.049 A 
ATOM     58  C   UNL A   1      42.607  29.293  33.098  1.00  0.00     0.074 A 
ATOM     59  C   UNL A   1      44.982  26.421  29.095  1.00  0.00     0.029 A 
ATOM     60  N   UNL A   1      43.689  25.277  30.495  1.00  0.00    -0.354 N 
ATOM     61  N   UNL A   1      43.107  28.326  32.380  1.00  0.00    -0.248 NA
ATOM     62  C   UNL A   1      42.855  29.106  34.527  1.00  0.00     0.031 C 
ATOM     63  C   UNL A   1      45.204  26.898  30.409  1.00  0.00     0.029 A 
ATOM     64  C   UNL A   1      44.384  26.190  31.267  1.00  0.00     0.049 A 
ATOM     65  H   UNL A   1      43.058  24.609  30.847  1.00  0.00     0.167 HD
ATOM     66  C   UNL A   1      43.675  27.388  33.202  1.00  0.00     0.074 A 
ATOM     67  C   UNL A   1      43.519  27.936  34.534  1.00  0.00     0.031 C 
ATOM     68  C   UNL A   1      44.206  26.230  32.710  1.00  0.00     0.037 A 
BRANCH  55  69
ATOM     69  C   UNL A   1      43.630  23.962  27.014  1.00  0.00     0.057 A 
ATOM     70  C   UNL A   1      44.325  24.479  25.905  1.00  0.00     0.134 A 
ATOM     71  C   UNL A   1      43.392  22.578  26.967  1.00  0.00     0.134 A 
ATOM     72  F   UNL A   1      44.709  25.760  25.848  1.00  0.00    -0.206 F 
ATOM     73  C   UNL A   1      44.650  23.703  24.786  1.00  0.00     0.040 A 
ATOM     74  C   UNL A   1      43.663  21.800  25.833  1.00  0.00     0.040 A 
ATOM     75  F   UNL A   1      42.904  21.922  28.031  1.00  0.00    -0.206 F 
ATOM     76  C   UNL A   1      44.283  22.367  24.730  1.00  0.00     0.006 A 
ENDBRANCH  55  69
BRANCH  56  77
ATOM     77  C   UNL A   1      40.553  30.996  33.053  1.00  0.00     0.057 A 
ATOM     78  C   UNL A   1      39.534  30.087  33.388  1.00  0.00     0.134 A 
ATOM     79  C   UNL A   1      40.476  32.273  33.615  1.00  0.00     0.134 A 
ATOM     80  F   UNL A   1      39.545  28.846  32.876  1.00  0.00    -0.206 F 
ATOM     81  C   UNL A   1      38.556  30.388  34.339  1.00  0.00     0.040 A 
ATOM     82  C   UNL A   1      39.496  32.589  34.565  1.00  0.00     0.040 A 
ATOM     83  F   UNL A   1      41.421  33.189  33.357  1.00  0.00    -0.206 F 
ATOM     84  C   UNL A   1      38.561  31.633  34.961  1.00  0.00     0.006 A 
ENDBRANCH  56  77
BRANCH  68  85
ATOM     85  C   UNL A   1      44.672  25.051  33.522  1.00  0.00     0.057 A 
ATOM     86  C   UNL A   1      46.002  24.615  33.586  1.00  0.00     0.134 A 
ATOM     87  C   UNL A   1      43.783  24.411  34.417  1.00  0.00     0.134 A 
ATOM     88  F   UNL A   1      46.965  25.197  32.860  1.00  0.00    -0.206 F 
ATOM     89  C   UNL A   1      46.411  23.590  34.450  1.00  0.00     0.040 A 
ATOM     90  C   UNL A   1      44.191  23.426  35.318  1.00  0.00     0.040 A 
ATOM     91  F   UNL A   1      42.482  24.736  34.468  1.00  0.00    -0.206 F 
ATOM     92  C   UNL A   1      45.509  23.003  35.331  1.00  0.00     0.006 A 
ENDBRANCH  68  85
ENDBRANCH  42  43
ENDBRANCH  34  37
ENDBRANCH  32  33
ENDBRANCH  31  32
ENDBRANCH   1  31
TORSDOF 16
ENDMDL
MODEL 2
REMARK VINA RESULT:     -12.5      1.385      2.625
REMARK SMILES Cc1ccccc1OCC(=O)N[C@@H](Cc1c[nH]c2ccccc12)C(=O)NCCCNC(=O)c1ccc(-c2c3nc(c(-c4c(F)cccc4F)c4ccc([nH]4)c(-c4c(F)cccc4F)c4nc(c(-c5c(F)cccc5F)c5ccc2[nH]5)C=C4)C=C3)cc1
REMARK SMILES IDX 27 1 26 2 24 3 25 4 13 6 12 7 10 8 11 9 9 11 8 12 7 13 1 14
REMARK SMILES IDX 2 15 3 16 4 17 6 18 5 19 14 20 15 21 16 22 23 23 17 24 18 25
REMARK SMILES IDX 22 26 19 28 21 29 20 30 28 31 29 32 30 33 31 34 32 36 33 37
REMARK SMILES IDX 34 38 86 39 35 40 85 41 36 42 37 43 38 44 79 45 39 46 84 47
REMARK SMILES IDX 78 48 80 49 40 50 83 51 77 52 76 53 41 55 67 56 50 57 66 58
REMARK SMILES IDX 51 59 54 60 65 61 81 62 52 63 53 64 64 66 82 67 55 68 42 69
REMARK SMILES IDX 43 70 48 71 44 72 45 73 47 74 49 75 46 76 68 77 69 78 74 79
REMARK SMILES IDX 70 80 71 81 73 82 75 83 72 84 56 85 57 86 62 87 58 88 59 89
REMARK SMILES IDX 61 90 63 91 60 92
REMARK H PARENT 26 5 12 10 17 27 30 35 80 54 54 65
REMARK Flexibility Score: inf
ROOT
ATOM      1  C   UNL A   1      31.999  30.368  26.656  1.00  0.00     0.117 C 
ENDROOT
BRANCH   1   2
ATOM      2  N   UNL A   1      31.384  30.478  25.348  1.00  0.00    -0.354 N 
ATOM      3  C   UNL A   1      31.122  29.482  24.441  1.00  0.00     0.242 C 
ATOM      4  O   UNL A   1      30.209  29.682  23.634  1.00  0.00    -0.273 OA
ATOM      5  H   UNL A   1      31.119  31.385  25.074  1.00  0.00     0.163 HD
BRANCH   3   6
ATOM      6  C   UNL A   1      31.891  28.129  24.429  1.00  0.00     0.175 C 
BRANCH   6   7
ATOM      7  N   UNL A   1      33.116  28.277  23.644  1.00  0.00    -0.341 N 
ATOM      8  C   UNL A   1      33.441  27.543  22.539  1.00  0.00     0.258 C 
ATOM      9  O   UNL A   1      34.059  28.096  21.627  1.00  0.00    -0.271 OA
ATOM     10  H   UNL A   1      33.760  28.963  23.936  1.00  0.00     0.164 HD
BRANCH   8  11
ATOM     11  C   UNL A   1      33.030  26.067  22.461  1.00  0.00     0.329 C 
BRANCH  11  12
ATOM     12  O   UNL A   1      34.033  25.070  22.376  1.00  0.00    -0.484 OA
BRANCH  12  13
ATOM     13  C   UNL A   1      33.820  23.818  22.883  1.00  0.00     0.122 A 
ATOM     14  C   UNL A   1      36.243  23.076  23.419  1.00  0.00     0.048 C 
ATOM     15  C   UNL A   1      34.754  22.893  23.374  1.00  0.00    -0.009 A 
ATOM     16  C   UNL A   1      34.279  21.659  23.875  1.00  0.00     0.007 A 
ATOM     17  C   UNL A   1      32.928  21.320  23.827  1.00  0.00     0.001 A 
ATOM     18  C   UNL A   1      32.465  23.449  22.814  1.00  0.00     0.047 A 
ATOM     19  C   UNL A   1      32.018  22.212  23.282  1.00  0.00     0.004 A 
ENDBRANCH  12  13
ENDBRANCH  11  12
ENDBRANCH   8  11
ENDBRANCH   6   7
BRANCH   6  20
ATOM     20  C   UNL A   1      32.055  27.437  25.800  1.00  0.00     0.072 C 
BRANCH  20  21
ATOM     21  C   UNL A   1      31.479  26.061  25.950  1.00  0.00    -0.020 A 
ATOM     22  C   UNL A   1      30.135  25.731  25.894  1.00  0.00     0.087 A 
ATOM     23  C   UNL A   1      32.186  24.850  26.274  1.00  0.00     0.003 A 
ATOM     24  N   UNL A   1      29.997  24.414  26.241  1.00  0.00    -0.361 N 
ATOM     25  C   UNL A   1      31.226  23.868  26.534  1.00  0.00     0.046 A 
ATOM     26  C   UNL A   1      33.544  24.532  26.480  1.00  0.00     0.010 A 
ATOM     27  H   UNL A   1      29.142  23.927  26.277  1.00  0.00     0.166 HD
ATOM     28  C   UNL A   1      31.553  22.601  27.033  1.00  0.00     0.026 A 
ATOM     29  C   UNL A   1      33.888  23.264  26.963  1.00  0.00     0.001 A 
ATOM     30  C   UNL A   1      32.905  22.320  27.247  1.00  0.00     0.002 A 
ENDBRANCH  20  21
ENDBRANCH   6  20
ENDBRANCH   3   6
ENDBRANCH   1   2
BRANCH   1  31
ATOM     31  C   UNL A   1      33.216  31.236  26.904  1.00  0.00     0.042 C 
BRANCH  31  32
ATOM     32  C   UNL A   1      34.232  30.522  27.770  1.00  0.00     0.118 C 
BRANCH  32  33
ATOM     33  N   UNL A   1      34.902  31.354  28.772  1.00  0.00    -0.352 N 
ATOM     34  C   UNL A   1      36.061  31.090  29.496  1.00  0.00     0.251 C 
ATOM     35  H   UNL A   1      34.473  32.221  28.961  1.00  0.00     0.163 HD
ATOM     36  O   UNL A   1      36.502  31.913  30.280  1.00  0.00    -0.269 OA
BRANCH  34  37
ATOM     37  C   UNL A   1      36.833  29.854  29.193  1.00  0.00     0.039 A 
ATOM     38  C   UNL A   1      37.089  28.955  30.235  1.00  0.00     0.014 A 
ATOM     39  C   UNL A   1      37.525  29.742  27.995  1.00  0.00     0.014 A 
ATOM     40  C   UNL A   1      38.237  28.166  30.181  1.00  0.00     0.010 A 
ATOM     41  C   UNL A   1      38.741  29.096  28.007  1.00  0.00     0.010 A 
ATOM     42  C   UNL A   1      39.127  28.352  29.123  1.00  0.00    -0.014 A 
BRANCH  42  43
ATOM     43  C   UNL A   1      40.519  27.920  29.154  1.00  0.00     0.031 A 
ATOM     44  C   UNL A   1      40.913  26.623  28.563  1.00  0.00     0.074 A 
ATOM     45  C   UNL A   1      41.472  28.752  29.631  1.00  0.00     0.049 A 
ATOM     46  N   UNL A   1      41.918  25.924  28.973  1.00  0.00    -0.248 NA
ATOM     47  C   UNL A   1      40.187  25.997  27.463  1.00  0.00     0.031 C 
ATOM     48  C   UNL A   1      42.919  28.599  29.509  1.00  0.00     0.029 A 
ATOM     49  N   UNL A   1      41.311  29.845  30.495  1.00  0.00    -0.354 N 
ATOM     50  C   UNL A   1      42.134  24.931  28.048  1.00  0.00     0.074 A 
ATOM     51  C   UNL A   1      40.999  24.983  27.156  1.00  0.00     0.031 C 
ATOM     52  C   UNL A   1      43.516  29.340  30.455  1.00  0.00     0.029 A 
ATOM     53  C   UNL A   1      42.472  29.893  31.299  1.00  0.00     0.049 A 
ATOM     54  H   UNL A   1      40.542  30.457  30.533  1.00  0.00     0.167 HD
ATOM     55  C   UNL A   1      43.313  24.250  28.037  1.00  0.00     0.037 A 
ATOM     56  C   UNL A   1      42.398  29.744  32.653  1.00  0.00     0.037 A 
ATOM     57  C   UNL A   1      44.221  24.742  29.066  1.00  0.00     0.049 A 
ATOM     58  C   UNL A   1      43.117  28.521  33.176  1.00  0.00     0.074 A 
ATOM     59  C   UNL A   1      45.252  25.667  29.027  1.00  0.00     0.029 A 
ATOM     60  N   UNL A   1      43.916  24.549  30.408  1.00  0.00    -0.354 N 
ATOM     61  N   UNL A   1      43.547  27.554  32.414  1.00  0.00    -0.248 NA
ATOM     62  C   UNL A   1      43.376  28.266  34.592  1.00  0.00     0.031 C 
ATOM     63  C   UNL A   1      45.523  26.080  30.353  1.00  0.00     0.029 A 
ATOM     64  C   UNL A   1      44.676  25.390  31.199  1.00  0.00     0.049 A 
ATOM     65  H   UNL A   1      43.252  23.906  30.746  1.00  0.00     0.167 HD
ATOM     66  C   UNL A   1      44.072  26.554  33.190  1.00  0.00     0.074 A 
ATOM     67  C   UNL A   1      43.970  27.060  34.544  1.00  0.00     0.031 C 
ATOM     68  C   UNL A   1      44.525  25.386  32.646  1.00  0.00     0.037 A 
BRANCH  55  69
ATOM     69  C   UNL A   1      43.723  23.372  26.883  1.00  0.00     0.057 A 
ATOM     70  C   UNL A   1      43.197  22.077  26.723  1.00  0.00     0.134 A 
ATOM     71  C   UNL A   1      44.674  23.745  25.917  1.00  0.00     0.134 A 
ATOM     72  F   UNL A   1      42.214  21.613  27.504  1.00  0.00    -0.206 F 
ATOM     73  C   UNL A   1      43.668  21.182  25.754  1.00  0.00     0.040 A 
ATOM     74  C   UNL A   1      45.192  22.844  24.976  1.00  0.00     0.040 A 
ATOM     75  F   UNL A   1      45.123  25.006  25.837  1.00  0.00    -0.206 F 
ATOM     76  C   UNL A   1      44.698  21.550  24.902  1.00  0.00     0.006 A 
ENDBRANCH  55  69
BRANCH  56  77
ATOM     77  C   UNL A   1      41.167  30.342  33.230  1.00  0.00     0.057 A 
ATOM     78  C   UNL A   1      41.123  31.739  33.393  1.00  0.00     0.134 A 
ATOM     79  C   UNL A   1      39.945  29.664  33.221  1.00  0.00     0.134 A 
ATOM     80  F   UNL A   1      42.262  32.448  33.418  1.00  0.00    -0.206 F 
ATOM     81  C   UNL A   1      39.918  32.443  33.414  1.00  0.00     0.040 A 
ATOM     82  C   UNL A   1      38.730  30.361  33.249  1.00  0.00     0.040 A 
ATOM     83  F   UNL A   1      39.905  28.334  33.052  1.00  0.00    -0.206 F 
ATOM     84  C   UNL A   1      38.714  31.755  33.302  1.00  0.00     0.006 A 
ENDBRANCH  56  77
BRANCH  68  85
ATOM     85  C   UNL A   1      44.933  24.151  33.406  1.00  0.00     0.057 A 
ATOM     86  C   UNL A   1      46.241  23.885  33.832  1.00  0.00     0.134 A 
ATOM     87  C   UNL A   1      43.948  23.255  33.882  1.00  0.00     0.134 A 
ATOM     88  F   UNL A   1      47.255  24.706  33.530  1.00  0.00    -0.206 F 
ATOM     89  C   UNL A   1      46.553  22.786  34.642  1.00  0.00     0.040 A 
ATOM     90  C   UNL A   1      44.241  22.187  34.733  1.00  0.00     0.040 A 
ATOM     91  F   UNL A   1      42.653  23.396  33.560  1.00  0.00    -0.206 F 
ATOM     92  C   UNL A   1      45.551  21.941  35.109  1.00  0.00     0.006 A 
ENDBRANCH  68  85
ENDBRANCH  42  43
ENDBRANCH  34  37
ENDBRANCH  32  33
ENDBRANCH  31  32
ENDBRANCH   1  31
TORSDOF 16
ENDMDL
MODEL 3
REMARK VINA RESULT:     -12.4      3.604      8.820
REMARK SMILES Cc1ccccc1OCC(=O)N[C@@H](Cc1c[nH]c2ccccc12)C(=O)NCCCNC(=O)c1ccc(-c2c3nc(c(-c4c(F)cccc4F)c4ccc([nH]4)c(-c4c(F)cccc4F)c4nc(c(-c5c(F)cccc5F)c5ccc2[nH]5)C=C4)C=C3)cc1
REMARK SMILES IDX 27 1 26 2 24 3 25 4 13 6 12 7 10 8 11 9 9 11 8 12 7 13 1 14
REMARK SMILES IDX 2 15 3 16 4 17 6 18 5 19 14 20 15 21 16 22 23 23 17 24 18 25
REMARK SMILES IDX 22 26 19 28 21 29 20 30 28 31 29 32 30 33 31 34 32 36 33 37
REMARK SMILES IDX 34 38 86 39 35 40 85 41 36 42 37 43 38 44 79 45 39 46 84 47
REMARK SMILES IDX 78 48 80 49 40 50 83 51 77 52 76 53 41 55 67 56 50 57 66 58
REMARK SMILES IDX 51 59 54 60 65 61 81 62 52 63 53 64 64 66 82 67 55 68 42 69
REMARK SMILES IDX 43 70 48 71 44 72 45 73 47 74 49 75 46 76 68 77 69 78 74 79
REMARK SMILES IDX 70 80 71 81 73 82 75 83 72 84 56 85 57 86 62 87 58 88 59 89
REMARK SMILES IDX 61 90 63 91 60 92
REMARK H PARENT 26 5 12 10 17 27 30 35 80 54 54 65
REMARK Flexibility Score: inf
ROOT
ATOM      1  C   UNL A   1      37.147  21.544  25.439  1.00  0.00     0.117 C 
ENDROOT
BRANCH   1   2
ATOM      2  N   UNL A   1      36.893  21.872  24.050  1.00  0.00    -0.354 N 
ATOM      3  C   UNL A   1      35.922  22.691  23.530  1.00  0.00     0.242 C 
ATOM      4  O   UNL A   1      36.150  23.203  22.429  1.00  0.00    -0.273 OA
ATOM      5  H   UNL A   1      37.495  21.453  23.395  1.00  0.00     0.163 HD
BRANCH   3   6
ATOM      6  C   UNL A   1      34.602  23.019  24.285  1.00  0.00     0.175 C 
BRANCH   6   7
ATOM      7  N   UNL A   1      33.769  21.819  24.345  1.00  0.00    -0.341 N 
ATOM      8  C   UNL A   1      32.656  21.590  23.587  1.00  0.00     0.258 C 
ATOM      9  O   UNL A   1      32.424  20.437  23.217  1.00  0.00    -0.271 OA
ATOM     10  H   UNL A   1      34.033  21.117  24.984  1.00  0.00     0.164 HD
BRANCH   8  11
ATOM     11  C   UNL A   1      31.736  22.761  23.218  1.00  0.00     0.329 C 
BRANCH  11  12
ATOM     12  O   UNL A   1      32.308  23.993  22.814  1.00  0.00    -0.484 OA
BRANCH  12  13
ATOM     13  C   UNL A   1      31.598  25.158  22.906  1.00  0.00     0.122 A 
ATOM     14  C   UNL A   1      33.334  26.873  22.039  1.00  0.00     0.048 C 
ATOM     15  C   UNL A   1      31.990  26.462  22.566  1.00  0.00    -0.009 A 
ATOM     16  C   UNL A   1      31.055  27.509  22.730  1.00  0.00     0.007 A 
ATOM     17  C   UNL A   1      29.794  27.287  23.280  1.00  0.00     0.001 A 
ATOM     18  C   UNL A   1      30.333  24.956  23.487  1.00  0.00     0.047 A 
ATOM     19  C   UNL A   1      29.436  26.008  23.674  1.00  0.00     0.004 A 
ENDBRANCH  12  13
ENDBRANCH  11  12
ENDBRANCH   8  11
ENDBRANCH   6   7
BRANCH   6  20
ATOM     20  C   UNL A   1      34.762  23.789  25.614  1.00  0.00     0.072 C 
BRANCH  20  21
ATOM     21  C   UNL A   1      33.546  24.472  26.165  1.00  0.00    -0.020 A 
ATOM     22  C   UNL A   1      32.432  23.845  26.698  1.00  0.00     0.087 A 
ATOM     23  C   UNL A   1      33.259  25.882  26.158  1.00  0.00     0.003 A 
ATOM     24  N   UNL A   1      31.473  24.794  26.935  1.00  0.00    -0.361 N 
ATOM     25  C   UNL A   1      31.930  26.037  26.561  1.00  0.00     0.046 A 
ATOM     26  C   UNL A   1      33.971  27.026  25.738  1.00  0.00     0.010 A 
ATOM     27  H   UNL A   1      30.584  24.613  27.318  1.00  0.00     0.166 HD
ATOM     28  C   UNL A   1      31.263  27.267  26.522  1.00  0.00     0.026 A 
ATOM     29  C   UNL A   1      33.323  28.266  25.709  1.00  0.00     0.001 A 
ATOM     30  C   UNL A   1      31.986  28.380  26.083  1.00  0.00     0.002 A 
ENDBRANCH  20  21
ENDBRANCH   6  20
ENDBRANCH   3   6
ENDBRANCH   1   2
BRANCH   1  31
ATOM     31  C   UNL A   1      38.591  21.614  25.895  1.00  0.00     0.042 C 
BRANCH  31  32
ATOM     32  C   UNL A   1      39.023  23.044  26.134  1.00  0.00     0.118 C 
BRANCH  32  33
ATOM     33  N   UNL A   1      40.422  23.223  26.530  1.00  0.00    -0.352 N 
ATOM     34  C   UNL A   1      41.081  24.386  26.917  1.00  0.00     0.251 C 
ATOM     35  H   UNL A   1      40.974  22.406  26.519  1.00  0.00     0.163 HD
ATOM     36  O   UNL A   1      42.255  24.352  27.244  1.00  0.00    -0.269 OA
BRANCH  34  37
ATOM     37  C   UNL A   1      40.296  25.642  27.066  1.00  0.00     0.039 A 
ATOM     38  C   UNL A   1      40.732  26.785  26.386  1.00  0.00     0.014 A 
ATOM     39  C   UNL A   1      39.346  25.752  28.072  1.00  0.00     0.014 A 
ATOM     40  C   UNL A   1      40.450  28.040  26.923  1.00  0.00     0.010 A 
ATOM     41  C   UNL A   1      39.206  26.971  28.699  1.00  0.00     0.010 A 
ATOM     42  C   UNL A   1      39.805  28.109  28.158  1.00  0.00    -0.014 A 
BRANCH  42  43
ATOM     43  C   UNL A   1      39.820  29.291  29.012  1.00  0.00     0.031 A 
ATOM     44  C   UNL A   1      38.739  30.294  28.921  1.00  0.00     0.074 A 
ATOM     45  C   UNL A   1      40.772  29.421  29.964  1.00  0.00     0.049 A 
ATOM     46  N   UNL A   1      38.897  31.546  29.193  1.00  0.00    -0.248 NA
ATOM     47  C   UNL A   1      37.382  29.964  28.496  1.00  0.00     0.031 C 
ATOM     48  C   UNL A   1      40.799  30.387  31.059  1.00  0.00     0.029 A 
ATOM     49  N   UNL A   1      42.023  28.792  30.027  1.00  0.00    -0.354 N 
ATOM     50  C   UNL A   1      37.648  32.118  29.246  1.00  0.00     0.074 A 
ATOM     51  C   UNL A   1      36.742  31.108  28.753  1.00  0.00     0.031 C 
ATOM     52  C   UNL A   1      42.059  30.506  31.502  1.00  0.00     0.029 A 
ATOM     53  C   UNL A   1      42.906  29.718  30.625  1.00  0.00     0.049 A 
ATOM     54  H   UNL A   1      42.243  27.885  29.716  1.00  0.00     0.167 HD
ATOM     55  C   UNL A   1      37.477  33.336  29.831  1.00  0.00     0.037 A 
ATOM     56  C   UNL A   1      43.993  30.194  29.950  1.00  0.00     0.037 A 
ATOM     57  C   UNL A   1      38.733  33.854  30.360  1.00  0.00     0.049 A 
ATOM     58  C   UNL A   1      43.953  31.685  29.698  1.00  0.00     0.074 A 
ATOM     59  C   UNL A   1      39.295  33.806  31.626  1.00  0.00     0.029 A 
ATOM     60  N   UNL A   1      39.755  34.215  29.489  1.00  0.00    -0.354 N 
ATOM     61  N   UNL A   1      42.889  32.419  29.865  1.00  0.00    -0.248 NA
ATOM     62  C   UNL A   1      45.089  32.462  29.205  1.00  0.00     0.031 C 
ATOM     63  C   UNL A   1      40.678  34.078  31.504  1.00  0.00     0.029 A 
ATOM     64  C   UNL A   1      40.953  34.315  30.170  1.00  0.00     0.049 A 
ATOM     65  H   UNL A   1      39.640  34.375  28.525  1.00  0.00     0.167 HD
ATOM     66  C   UNL A   1      43.149  33.705  29.471  1.00  0.00     0.074 A 
ATOM     67  C   UNL A   1      44.548  33.689  29.094  1.00  0.00     0.031 C 
ATOM     68  C   UNL A   1      42.178  34.666  29.469  1.00  0.00     0.037 A 
BRANCH  55  69
ATOM     69  C   UNL A   1      36.114  33.873  30.183  1.00  0.00     0.057 A 
ATOM     70  C   UNL A   1      35.225  34.328  29.191  1.00  0.00     0.134 A 
ATOM     71  C   UNL A   1      35.644  34.005  31.500  1.00  0.00     0.134 A 
ATOM     72  F   UNL A   1      35.489  34.182  27.887  1.00  0.00    -0.206 F 
ATOM     73  C   UNL A   1      34.019  34.971  29.493  1.00  0.00     0.040 A 
ATOM     74  C   UNL A   1      34.465  34.694  31.820  1.00  0.00     0.040 A 
ATOM     75  F   UNL A   1      36.302  33.452  32.530  1.00  0.00    -0.206 F 
ATOM     76  C   UNL A   1      33.654  35.193  30.812  1.00  0.00     0.006 A 
ENDBRANCH  55  69
BRANCH  56  77
ATOM     77  C   UNL A   1      44.605  29.177  29.057  1.00  0.00     0.057 A 
ATOM     78  C   UNL A   1      44.303  29.234  27.685  1.00  0.00     0.134 A 
ATOM     79  C   UNL A   1      45.748  28.465  29.428  1.00  0.00     0.134 A 
ATOM     80  F   UNL A   1      43.214  29.897  27.263  1.00  0.00    -0.206 F 
ATOM     81  C   UNL A   1      45.166  28.719  26.715  1.00  0.00     0.040 A 
ATOM     82  C   UNL A   1      46.617  27.938  28.464  1.00  0.00     0.040 A 
ATOM     83  F   UNL A   1      46.111  28.381  30.716  1.00  0.00    -0.206 F 
ATOM     84  C   UNL A   1      46.350  28.102  27.105  1.00  0.00     0.006 A 
ENDBRANCH  56  77
BRANCH  68  85
ATOM     85  C   UNL A   1      42.295  36.045  28.875  1.00  0.00     0.057 A 
ATOM     86  C   UNL A   1      42.993  37.103  29.473  1.00  0.00     0.134 A 
ATOM     87  C   UNL A   1      41.827  36.294  27.564  1.00  0.00     0.134 A 
ATOM     88  F   UNL A   1      43.567  36.971  30.676  1.00  0.00    -0.206 F 
ATOM     89  C   UNL A   1      43.179  38.334  28.829  1.00  0.00     0.040 A 
ATOM     90  C   UNL A   1      42.053  37.497  26.893  1.00  0.00     0.040 A 
ATOM     91  F   UNL A   1      41.151  35.365  26.871  1.00  0.00    -0.206 F 
ATOM     92  C   UNL A   1      42.723  38.529  27.529  1.00  0.00     0.006 A 
ENDBRANCH  68  85
ENDBRANCH  42  43
ENDBRANCH  34  37
ENDBRANCH  32  33
ENDBRANCH  31  32
ENDBRANCH   1  31
TORSDOF 16
ENDMDL
