MODEL 1
REMARK VINA RESULT:     -13.5      0.000      0.000
REMARK SMILES O=C(NCCCNC(=O)[C@H]1[C@H]2CC[C@H](C2)[C@@H]1C(=O)N1CCN(c2cccc(Cl)c2)CC1)c1ccc(-c2c3nc(c(-c4c(F)cccc4F)c4ccc([nH]4)c(-c4c(F)cccc4F)c4nc(c(-c5c(F)cccc5F)c5ccc2[nH]5)C=C4)C=C3)cc1
REMARK SMILES IDX 5 1 4 2 3 3 1 4 2 5 32 7 33 8 85 9 34 10 84 11 35 12 36 13
REMARK SMILES IDX 37 14 78 15 38 16 83 17 77 18 79 19 39 20 82 21 76 22 75 23
REMARK SMILES IDX 40 25 66 26 49 27 65 28 50 29 53 30 64 31 80 32 51 33 52 34
REMARK SMILES IDX 63 36 81 37 54 38 41 39 42 40 47 41 43 42 44 43 46 44 48 45
REMARK SMILES IDX 45 46 67 47 68 48 73 49 69 50 70 51 72 52 74 53 71 54 55 55
REMARK SMILES IDX 56 56 61 57 57 58 58 59 60 60 62 61 59 62 6 63 7 64 8 65
REMARK SMILES IDX 9 67 10 68 11 69 16 70 12 71 15 72 14 73 13 74 17 75 18 76
REMARK SMILES IDX 19 77 20 78 31 79 21 80 30 81 22 82 23 83 24 84 29 85 25 86
REMARK SMILES IDX 27 87 26 88 28 89
REMARK H PARENT 3 6 79 24 53 35 7 66
REMARK Flexibility Score: inf
ROOT
ATOM      1  C   UNL A   1      31.047  31.840  26.526  1.00  0.00     0.042 C 
ENDROOT
BRANCH   1   2
ATOM      2  C   UNL A   1      32.413  32.418  26.848  1.00  0.00     0.118 C 
BRANCH   2   3
ATOM      3  N   UNL A   1      32.329  33.805  27.288  1.00  0.00    -0.352 N 
ATOM      4  O   UNL A   1      32.574  35.545  28.691  1.00  0.00    -0.269 OA
ATOM      5  C   UNL A   1      32.989  34.461  28.297  1.00  0.00     0.251 C 
ATOM      6  H   UNL A   1      31.695  34.362  26.778  1.00  0.00     0.163 HD
BRANCH   5   7
ATOM      7  C   UNL A   1      34.189  33.861  28.917  1.00  0.00     0.039 A 
ATOM      8  C   UNL A   1      34.077  32.756  29.762  1.00  0.00     0.014 A 
ATOM      9  C   UNL A   1      35.450  34.379  28.608  1.00  0.00     0.014 A 
ATOM     10  C   UNL A   1      35.193  32.275  30.429  1.00  0.00     0.010 A 
ATOM     11  C   UNL A   1      36.588  33.819  29.192  1.00  0.00     0.010 A 
ATOM     12  C   UNL A   1      36.464  32.781  30.128  1.00  0.00    -0.014 A 
BRANCH  12  13
ATOM     13  C   UNL A   1      37.662  32.164  30.744  1.00  0.00     0.031 A 
ATOM     14  C   UNL A   1      38.407  31.069  30.041  1.00  0.00     0.074 A 
ATOM     15  C   UNL A   1      38.059  32.593  31.957  1.00  0.00     0.049 A 
ATOM     16  N   UNL A   1      39.412  30.350  30.470  1.00  0.00    -0.248 NA
ATOM     17  C   UNL A   1      37.957  30.728  28.684  1.00  0.00     0.031 C 
ATOM     18  C   UNL A   1      37.411  33.658  32.728  1.00  0.00     0.029 A 
ATOM     19  N   UNL A   1      39.094  32.188  32.757  1.00  0.00    -0.354 N 
ATOM     20  C   UNL A   1      39.696  29.451  29.451  1.00  0.00     0.074 A 
ATOM     21  C   UNL A   1      38.743  29.702  28.390  1.00  0.00     0.031 C 
ATOM     22  C   UNL A   1      38.072  33.832  33.880  1.00  0.00     0.029 A 
ATOM     23  C   UNL A   1      39.140  32.844  33.962  1.00  0.00     0.049 A 
ATOM     24  H   UNL A   1      39.741  31.494  32.494  1.00  0.00     0.167 HD
ATOM     25  C   UNL A   1      40.664  28.505  29.410  1.00  0.00     0.037 A 
ATOM     26  C   UNL A   1      39.925  32.646  35.036  1.00  0.00     0.037 A 
ATOM     27  C   UNL A   1      41.609  28.276  30.472  1.00  0.00     0.049 A 
ATOM     28  C   UNL A   1      40.964  31.566  34.984  1.00  0.00     0.074 A 
ATOM     29  C   UNL A   1      42.651  27.366  30.520  1.00  0.00     0.029 A 
ATOM     30  N   UNL A   1      41.619  28.959  31.681  1.00  0.00    -0.354 N 
ATOM     31  N   UNL A   1      41.236  30.734  34.008  1.00  0.00    -0.248 NA
ATOM     32  C   UNL A   1      41.800  31.394  36.178  1.00  0.00     0.031 C 
ATOM     33  C   UNL A   1      43.258  27.463  31.777  1.00  0.00     0.029 A 
ATOM     34  C   UNL A   1      42.633  28.473  32.491  1.00  0.00     0.049 A 
ATOM     35  H   UNL A   1      40.998  29.682  31.927  1.00  0.00     0.167 HD
ATOM     36  C   UNL A   1      42.292  29.955  34.457  1.00  0.00     0.074 A 
ATOM     37  C   UNL A   1      42.611  30.417  35.793  1.00  0.00     0.031 C 
ATOM     38  C   UNL A   1      42.941  28.953  33.817  1.00  0.00     0.037 A 
BRANCH  25  39
ATOM     39  C   UNL A   1      40.717  27.623  28.195  1.00  0.00     0.057 A 
ATOM     40  C   UNL A   1      40.035  26.400  28.128  1.00  0.00     0.134 A 
ATOM     41  C   UNL A   1      41.458  28.008  27.070  1.00  0.00     0.134 A 
ATOM     42  F   UNL A   1      39.317  25.964  29.175  1.00  0.00    -0.206 F 
ATOM     43  C   UNL A   1      40.117  25.578  27.003  1.00  0.00     0.040 A 
ATOM     44  C   UNL A   1      41.524  27.207  25.928  1.00  0.00     0.040 A 
ATOM     45  F   UNL A   1      42.130  29.169  27.060  1.00  0.00    -0.206 F 
ATOM     46  C   UNL A   1      40.862  25.983  25.896  1.00  0.00     0.006 A 
ENDBRANCH  25  39
BRANCH  26  47
ATOM     47  C   UNL A   1      39.727  33.485  36.241  1.00  0.00     0.057 A 
ATOM     48  C   UNL A   1      40.371  34.719  36.378  1.00  0.00     0.134 A 
ATOM     49  C   UNL A   1      38.836  33.104  37.254  1.00  0.00     0.134 A 
ATOM     50  F   UNL A   1      41.240  35.134  35.445  1.00  0.00    -0.206 F 
ATOM     51  C   UNL A   1      40.137  35.544  37.480  1.00  0.00     0.040 A 
ATOM     52  C   UNL A   1      38.576  33.929  38.348  1.00  0.00     0.040 A 
ATOM     53  F   UNL A   1      38.178  31.938  37.171  1.00  0.00    -0.206 F 
ATOM     54  C   UNL A   1      39.230  35.154  38.462  1.00  0.00     0.006 A 
ENDBRANCH  26  47
BRANCH  38  55
ATOM     55  C   UNL A   1      44.095  28.316  34.530  1.00  0.00     0.057 A 
ATOM     56  C   UNL A   1      45.382  28.864  34.494  1.00  0.00     0.134 A 
ATOM     57  C   UNL A   1      43.896  27.174  35.316  1.00  0.00     0.134 A 
ATOM     58  F   UNL A   1      45.641  29.947  33.747  1.00  0.00    -0.206 F 
ATOM     59  C   UNL A   1      46.435  28.292  35.211  1.00  0.00     0.040 A 
ATOM     60  C   UNL A   1      44.934  26.608  36.056  1.00  0.00     0.040 A 
ATOM     61  F   UNL A   1      42.683  26.605  35.396  1.00  0.00    -0.206 F 
ATOM     62  C   UNL A   1      46.209  27.167  36.003  1.00  0.00     0.006 A 
ENDBRANCH  38  55
ENDBRANCH  12  13
ENDBRANCH   5   7
ENDBRANCH   2   3
ENDBRANCH   1   2
BRANCH   1  63
ATOM     63  C   UNL A   1      31.085  30.830  25.396  1.00  0.00     0.117 C 
BRANCH  63  64
ATOM     64  N   UNL A   1      32.292  30.033  25.399  1.00  0.00    -0.356 N 
ATOM     65  C   UNL A   1      32.505  28.717  25.158  1.00  0.00     0.224 C 
ATOM     66  H   UNL A   1      33.107  30.541  25.615  1.00  0.00     0.163 HD
ATOM     67  O   UNL A   1      33.685  28.355  25.192  1.00  0.00    -0.275 OA
BRANCH  65  68
ATOM     68  C   UNL A   1      31.369  27.709  24.982  1.00  0.00     0.094 C 
ATOM     69  C   UNL A   1      30.259  27.996  23.939  1.00  0.00     0.002 C 
ATOM     70  C   UNL A   1      31.942  26.351  24.460  1.00  0.00     0.094 C 
ATOM     71  C   UNL A   1      30.857  28.306  22.563  1.00  0.00     0.005 C 
ATOM     72  C   UNL A   1      29.668  26.616  23.699  1.00  0.00     0.009 C 
ATOM     73  C   UNL A   1      30.999  26.004  23.289  1.00  0.00     0.002 C 
ATOM     74  C   UNL A   1      31.357  26.929  22.099  1.00  0.00     0.005 C 
BRANCH  70  75
ATOM     75  C   UNL A   1      32.154  25.322  25.581  1.00  0.00     0.226 C 
ATOM     76  O   UNL A   1      31.953  25.633  26.755  1.00  0.00    -0.275 OA
ATOM     77  N   UNL A   1      32.400  24.011  25.234  1.00  0.00    -0.339 N 
ATOM     78  C   UNL A   1      31.719  22.959  25.997  1.00  0.00     0.141 C 
ATOM     79  C   UNL A   1      33.687  23.572  24.693  1.00  0.00     0.141 C 
ATOM     80  C   UNL A   1      31.505  21.699  25.131  1.00  0.00     0.138 C 
ATOM     81  C   UNL A   1      33.508  22.341  23.789  1.00  0.00     0.138 C 
ATOM     82  N   UNL A   1      32.779  21.286  24.515  1.00  0.00    -0.368 N 
BRANCH  82  83
ATOM     83  C   UNL A   1      32.991  19.981  24.104  1.00  0.00     0.038 A 
ATOM     84  C   UNL A   1      32.220  19.464  23.050  1.00  0.00     0.026 A 
ATOM     85  C   UNL A   1      33.945  19.142  24.686  1.00  0.00     0.046 A 
ATOM     86  C   UNL A   1      32.390  18.159  22.586  1.00  0.00     0.004 A 
ATOM     87  C   UNL A   1      34.108  17.829  24.232  1.00  0.00     0.043 A 
ATOM     88  C   UNL A   1      33.338  17.336  23.182  1.00  0.00     0.020 A 
ATOM     89  Cl  UNL A   1      35.270  16.804  24.985  1.00  0.00    -0.084 Cl
ENDBRANCH  82  83
ENDBRANCH  70  75
ENDBRANCH  65  68
ENDBRANCH  63  64
ENDBRANCH   1  63
TORSDOF 12
ENDMDL
MODEL 2
REMARK VINA RESULT:     -13.5      4.854      9.873
REMARK SMILES O=C(NCCCNC(=O)[C@H]1[C@H]2CC[C@H](C2)[C@@H]1C(=O)N1CCN(c2cccc(Cl)c2)CC1)c1ccc(-c2c3nc(c(-c4c(F)cccc4F)c4ccc([nH]4)c(-c4c(F)cccc4F)c4nc(c(-c5c(F)cccc5F)c5ccc2[nH]5)C=C4)C=C3)cc1
REMARK SMILES IDX 5 1 4 2 3 3 1 4 2 5 32 7 33 8 85 9 34 10 84 11 35 12 36 13
REMARK SMILES IDX 37 14 78 15 38 16 83 17 77 18 79 19 39 20 82 21 76 22 75 23
REMARK SMILES IDX 40 25 66 26 49 27 65 28 50 29 53 30 64 31 80 32 51 33 52 34
REMARK SMILES IDX 63 36 81 37 54 38 41 39 42 40 47 41 43 42 44 43 46 44 48 45
REMARK SMILES IDX 45 46 67 47 68 48 73 49 69 50 70 51 72 52 74 53 71 54 55 55
REMARK SMILES IDX 56 56 61 57 57 58 58 59 60 60 62 61 59 62 6 63 7 64 8 65
REMARK SMILES IDX 9 67 10 68 11 69 16 70 12 71 15 72 14 73 13 74 17 75 18 76
REMARK SMILES IDX 19 77 20 78 31 79 21 80 30 81 22 82 23 83 24 84 29 85 25 86
REMARK SMILES IDX 27 87 26 88 28 89
REMARK H PARENT 3 6 79 24 53 35 7 66
REMARK Flexibility Score: inf
ROOT
ATOM      1  C   UNL A   1      37.950  19.464  24.878  1.00  0.00     0.042 C 
ENDROOT
BRANCH   1   2
ATOM      2  C   UNL A   1      39.041  20.081  25.733  1.00  0.00     0.118 C 
BRANCH   2   3
ATOM      3  N   UNL A   1      40.207  19.213  25.841  1.00  0.00    -0.352 N 
ATOM      4  O   UNL A   1      42.392  18.679  25.840  1.00  0.00    -0.269 OA
ATOM      5  C   UNL A   1      41.527  19.517  26.067  1.00  0.00     0.251 C 
ATOM      6  H   UNL A   1      40.017  18.252  25.733  1.00  0.00     0.163 HD
BRANCH   5   7
ATOM      7  C   UNL A   1      41.909  20.852  26.572  1.00  0.00     0.039 A 
ATOM      8  C   UNL A   1      41.985  21.100  27.943  1.00  0.00     0.014 A 
ATOM      9  C   UNL A   1      42.248  21.858  25.662  1.00  0.00     0.014 A 
ATOM     10  C   UNL A   1      42.230  22.384  28.406  1.00  0.00     0.010 A 
ATOM     11  C   UNL A   1      42.608  23.122  26.132  1.00  0.00     0.010 A 
ATOM     12  C   UNL A   1      42.574  23.401  27.506  1.00  0.00    -0.014 A 
BRANCH  12  13
ATOM     13  C   UNL A   1      42.969  24.732  28.024  1.00  0.00     0.031 A 
ATOM     14  C   UNL A   1      41.933  25.768  28.342  1.00  0.00     0.074 A 
ATOM     15  C   UNL A   1      44.279  25.000  28.188  1.00  0.00     0.049 A 
ATOM     16  N   UNL A   1      42.098  27.012  28.708  1.00  0.00    -0.248 NA
ATOM     17  C   UNL A   1      40.527  25.357  28.219  1.00  0.00     0.031 C 
ATOM     18  C   UNL A   1      45.371  24.061  27.916  1.00  0.00     0.029 A 
ATOM     19  N   UNL A   1      44.914  26.135  28.614  1.00  0.00    -0.354 N 
ATOM     20  C   UNL A   1      40.822  27.543  28.830  1.00  0.00     0.074 A 
ATOM     21  C   UNL A   1      39.892  26.491  28.478  1.00  0.00     0.031 C 
ATOM     22  C   UNL A   1      46.539  24.654  28.198  1.00  0.00     0.029 A 
ATOM     23  C   UNL A   1      46.283  26.032  28.595  1.00  0.00     0.049 A 
ATOM     24  H   UNL A   1      44.437  26.946  28.905  1.00  0.00     0.167 HD
ATOM     25  C   UNL A   1      40.464  28.796  29.202  1.00  0.00     0.037 A 
ATOM     26  C   UNL A   1      47.233  26.955  28.828  1.00  0.00     0.037 A 
ATOM     27  C   UNL A   1      41.404  29.828  29.557  1.00  0.00     0.049 A 
ATOM     28  C   UNL A   1      46.815  28.346  29.200  1.00  0.00     0.074 A 
ATOM     29  C   UNL A   1      41.148  31.121  29.980  1.00  0.00     0.029 A 
ATOM     30  N   UNL A   1      42.784  29.686  29.520  1.00  0.00    -0.354 N 
ATOM     31  N   UNL A   1      45.604  28.832  29.331  1.00  0.00    -0.248 NA
ATOM     32  C   UNL A   1      47.888  29.316  29.452  1.00  0.00     0.031 C 
ATOM     33  C   UNL A   1      42.373  31.775  30.149  1.00  0.00     0.029 A 
ATOM     34  C   UNL A   1      43.393  30.874  29.888  1.00  0.00     0.049 A 
ATOM     35  H   UNL A   1      43.261  28.861  29.269  1.00  0.00     0.167 HD
ATOM     36  C   UNL A   1      45.767  30.158  29.706  1.00  0.00     0.074 A 
ATOM     37  C   UNL A   1      47.194  30.397  29.783  1.00  0.00     0.031 C 
ATOM     38  C   UNL A   1      44.818  31.089  29.968  1.00  0.00     0.037 A 
BRANCH  25  39
ATOM     39  C   UNL A   1      38.998  29.125  29.200  1.00  0.00     0.057 A 
ATOM     40  C   UNL A   1      38.210  29.035  30.356  1.00  0.00     0.134 A 
ATOM     41  C   UNL A   1      38.367  29.546  28.022  1.00  0.00     0.134 A 
ATOM     42  F   UNL A   1      38.748  28.626  31.515  1.00  0.00    -0.206 F 
ATOM     43  C   UNL A   1      36.843  29.317  30.332  1.00  0.00     0.040 A 
ATOM     44  C   UNL A   1      37.006  29.859  27.993  1.00  0.00     0.040 A 
ATOM     45  F   UNL A   1      39.060  29.663  26.880  1.00  0.00    -0.206 F 
ATOM     46  C   UNL A   1      36.238  29.734  29.148  1.00  0.00     0.006 A 
ENDBRANCH  25  39
BRANCH  26  47
ATOM     47  C   UNL A   1      48.659  26.576  28.694  1.00  0.00     0.057 A 
ATOM     48  C   UNL A   1      49.348  26.765  27.492  1.00  0.00     0.134 A 
ATOM     49  C   UNL A   1      49.384  26.078  29.785  1.00  0.00     0.134 A 
ATOM     50  F   UNL A   1      48.706  27.230  26.411  1.00  0.00    -0.206 F 
ATOM     51  C   UNL A   1      50.708  26.471  27.378  1.00  0.00     0.040 A 
ATOM     52  C   UNL A   1      50.748  25.803  29.692  1.00  0.00     0.040 A 
ATOM     53  F   UNL A   1      48.781  25.889  30.968  1.00  0.00    -0.206 F 
ATOM     54  C   UNL A   1      51.414  25.999  28.484  1.00  0.00     0.006 A 
ENDBRANCH  26  47
BRANCH  38  55
ATOM     55  C   UNL A   1      45.288  32.442  30.411  1.00  0.00     0.057 A 
ATOM     56  C   UNL A   1      45.511  33.483  29.503  1.00  0.00     0.134 A 
ATOM     57  C   UNL A   1      45.454  32.720  31.774  1.00  0.00     0.134 A 
ATOM     58  F   UNL A   1      45.385  33.275  28.184  1.00  0.00    -0.206 F 
ATOM     59  C   UNL A   1      45.893  34.755  29.935  1.00  0.00     0.040 A 
ATOM     60  C   UNL A   1      45.811  33.993  32.219  1.00  0.00     0.040 A 
ATOM     61  F   UNL A   1      45.249  31.766  32.694  1.00  0.00    -0.206 F 
ATOM     62  C   UNL A   1      46.032  35.014  31.299  1.00  0.00     0.006 A 
ENDBRANCH  38  55
ENDBRANCH  12  13
ENDBRANCH   5   7
ENDBRANCH   2   3
ENDBRANCH   1   2
BRANCH   1  63
ATOM     63  C   UNL A   1      36.626  20.192  24.996  1.00  0.00     0.117 C 
BRANCH  63  64
ATOM     64  N   UNL A   1      36.775  21.553  25.461  1.00  0.00    -0.356 N 
ATOM     65  C   UNL A   1      35.887  22.570  25.578  1.00  0.00     0.224 C 
ATOM     66  H   UNL A   1      37.689  21.781  25.746  1.00  0.00     0.163 HD
ATOM     67  O   UNL A   1      36.333  23.611  26.068  1.00  0.00    -0.275 OA
BRANCH  65  68
ATOM     68  C   UNL A   1      34.462  22.495  25.029  1.00  0.00     0.094 C 
ATOM     69  C   UNL A   1      33.453  21.512  25.674  1.00  0.00     0.002 C 
ATOM     70  C   UNL A   1      33.740  23.866  25.243  1.00  0.00     0.094 C 
ATOM     71  C   UNL A   1      33.384  21.705  27.193  1.00  0.00     0.005 C 
ATOM     72  C   UNL A   1      32.112  22.085  25.244  1.00  0.00     0.009 C 
ATOM     73  C   UNL A   1      32.384  23.453  25.853  1.00  0.00     0.002 C 
ATOM     74  C   UNL A   1      32.631  23.039  27.325  1.00  0.00     0.005 C 
BRANCH  70  75
ATOM     75  C   UNL A   1      33.757  24.752  23.989  1.00  0.00     0.226 C 
ATOM     76  O   UNL A   1      34.536  24.508  23.066  1.00  0.00    -0.275 OA
ATOM     77  N   UNL A   1      32.775  25.709  23.843  1.00  0.00    -0.339 N 
ATOM     78  C   UNL A   1      32.163  25.870  22.520  1.00  0.00     0.141 C 
ATOM     79  C   UNL A   1      32.765  26.946  24.624  1.00  0.00     0.141 C 
ATOM     80  C   UNL A   1      30.713  26.385  22.640  1.00  0.00     0.138 C 
ATOM     81  C   UNL A   1      31.330  27.469  24.802  1.00  0.00     0.138 C 
ATOM     82  N   UNL A   1      30.673  27.591  23.488  1.00  0.00    -0.368 N 
BRANCH  82  83
ATOM     83  C   UNL A   1      29.643  28.511  23.386  1.00  0.00     0.038 A 
ATOM     84  C   UNL A   1      28.332  28.048  23.186  1.00  0.00     0.026 A 
ATOM     85  C   UNL A   1      29.840  29.892  23.474  1.00  0.00     0.046 A 
ATOM     86  C   UNL A   1      27.251  28.924  23.080  1.00  0.00     0.004 A 
ATOM     87  C   UNL A   1      28.761  30.772  23.355  1.00  0.00     0.043 A 
ATOM     88  C   UNL A   1      27.467  30.294  23.162  1.00  0.00     0.020 A 
ATOM     89  Cl  UNL A   1      29.033  32.471  23.438  1.00  0.00    -0.084 Cl
ENDBRANCH  82  83
ENDBRANCH  70  75
ENDBRANCH  65  68
ENDBRANCH  63  64
ENDBRANCH   1  63
TORSDOF 12
ENDMDL
MODEL 3
REMARK VINA RESULT:     -13.3      0.456      6.108
REMARK SMILES O=C(NCCCNC(=O)[C@H]1[C@H]2CC[C@H](C2)[C@@H]1C(=O)N1CCN(c2cccc(Cl)c2)CC1)c1ccc(-c2c3nc(c(-c4c(F)cccc4F)c4ccc([nH]4)c(-c4c(F)cccc4F)c4nc(c(-c5c(F)cccc5F)c5ccc2[nH]5)C=C4)C=C3)cc1
REMARK SMILES IDX 5 1 4 2 3 3 1 4 2 5 32 7 33 8 85 9 34 10 84 11 35 12 36 13
REMARK SMILES IDX 37 14 78 15 38 16 83 17 77 18 79 19 39 20 82 21 76 22 75 23
REMARK SMILES IDX 40 25 66 26 49 27 65 28 50 29 53 30 64 31 80 32 51 33 52 34
REMARK SMILES IDX 63 36 81 37 54 38 41 39 42 40 47 41 43 42 44 43 46 44 48 45
REMARK SMILES IDX 45 46 67 47 68 48 73 49 69 50 70 51 72 52 74 53 71 54 55 55
REMARK SMILES IDX 56 56 61 57 57 58 58 59 60 60 62 61 59 62 6 63 7 64 8 65
REMARK SMILES IDX 9 67 10 68 11 69 16 70 12 71 15 72 14 73 13 74 17 75 18 76
REMARK SMILES IDX 19 77 20 78 31 79 21 80 30 81 22 82 23 83 24 84 29 85 25 86
REMARK SMILES IDX 27 87 26 88 28 89
REMARK H PARENT 3 6 79 24 53 35 7 66
REMARK Flexibility Score: inf
ROOT
ATOM      1  C   UNL A   1      31.286  32.201  26.125  1.00  0.00     0.042 C 
ENDROOT
BRANCH   1   2
ATOM      2  C   UNL A   1      32.320  32.442  27.210  1.00  0.00     0.118 C 
BRANCH   2   3
ATOM      3  N   UNL A   1      32.476  33.860  27.510  1.00  0.00    -0.352 N 
ATOM      4  O   UNL A   1      33.058  35.664  28.721  1.00  0.00    -0.269 OA
ATOM      5  C   UNL A   1      33.278  34.494  28.425  1.00  0.00     0.251 C 
ATOM      6  H   UNL A   1      31.913  34.460  26.967  1.00  0.00     0.163 HD
BRANCH   5   7
ATOM      7  C   UNL A   1      34.399  33.772  29.063  1.00  0.00     0.039 A 
ATOM      8  C   UNL A   1      34.157  32.703  29.927  1.00  0.00     0.014 A 
ATOM      9  C   UNL A   1      35.713  34.133  28.750  1.00  0.00     0.014 A 
ATOM     10  C   UNL A   1      35.207  32.108  30.609  1.00  0.00     0.010 A 
ATOM     11  C   UNL A   1      36.776  33.456  29.351  1.00  0.00     0.010 A 
ATOM     12  C   UNL A   1      36.529  32.458  30.305  1.00  0.00    -0.014 A 
BRANCH  12  13
ATOM     13  C   UNL A   1      37.645  31.717  30.939  1.00  0.00     0.031 A 
ATOM     14  C   UNL A   1      38.097  32.056  32.328  1.00  0.00     0.074 A 
ATOM     15  C   UNL A   1      38.258  30.745  30.238  1.00  0.00     0.049 A 
ATOM     16  N   UNL A   1      39.113  31.584  33.002  1.00  0.00    -0.248 NA
ATOM     17  C   UNL A   1      37.312  33.068  33.051  1.00  0.00     0.031 C 
ATOM     18  C   UNL A   1      37.895  30.328  28.880  1.00  0.00     0.029 A 
ATOM     19  N   UNL A   1      39.315  29.937  30.562  1.00  0.00    -0.354 N 
ATOM     20  C   UNL A   1      39.111  32.260  34.214  1.00  0.00     0.074 A 
ATOM     21  C   UNL A   1      38.004  33.191  34.176  1.00  0.00     0.031 C 
ATOM     22  C   UNL A   1      38.704  29.333  28.495  1.00  0.00     0.029 A 
ATOM     23  C   UNL A   1      39.687  29.093  29.544  1.00  0.00     0.049 A 
ATOM     24  H   UNL A   1      39.764  29.958  31.438  1.00  0.00     0.167 HD
ATOM     25  C   UNL A   1      39.959  32.114  35.260  1.00  0.00     0.037 A 
ATOM     26  C   UNL A   1      40.729  28.250  29.445  1.00  0.00     0.037 A 
ATOM     27  C   UNL A   1      41.051  31.175  35.284  1.00  0.00     0.049 A 
ATOM     28  C   UNL A   1      41.678  28.132  30.599  1.00  0.00     0.074 A 
ATOM     29  C   UNL A   1      41.950  30.922  36.305  1.00  0.00     0.029 A 
ATOM     30  N   UNL A   1      41.399  30.340  34.230  1.00  0.00    -0.354 N 
ATOM     31  N   UNL A   1      41.656  28.763  31.748  1.00  0.00    -0.248 NA
ATOM     32  C   UNL A   1      42.796  27.194  30.445  1.00  0.00     0.031 C 
ATOM     33  C   UNL A   1      42.871  29.972  35.850  1.00  0.00     0.029 A 
ATOM     34  C   UNL A   1      42.513  29.590  34.568  1.00  0.00     0.049 A 
ATOM     35  H   UNL A   1      40.923  30.290  33.369  1.00  0.00     0.167 HD
ATOM     36  C   UNL A   1      42.740  28.280  32.467  1.00  0.00     0.074 A 
ATOM     37  C   UNL A   1      43.397  27.302  31.623  1.00  0.00     0.031 C 
ATOM     38  C   UNL A   1      43.148  28.614  33.715  1.00  0.00     0.037 A 
BRANCH  25  39
ATOM     39  C   UNL A   1      39.760  33.019  36.443  1.00  0.00     0.057 A 
ATOM     40  C   UNL A   1      38.859  32.716  37.473  1.00  0.00     0.134 A 
ATOM     41  C   UNL A   1      40.489  34.210  36.555  1.00  0.00     0.134 A 
ATOM     42  F   UNL A   1      38.120  31.597  37.422  1.00  0.00    -0.206 F 
ATOM     43  C   UNL A   1      38.665  33.581  38.551  1.00  0.00     0.040 A 
ATOM     44  C   UNL A   1      40.324  35.069  37.643  1.00  0.00     0.040 A 
ATOM     45  F   UNL A   1      41.375  34.560  35.610  1.00  0.00    -0.206 F 
ATOM     46  C   UNL A   1      39.402  34.761  38.640  1.00  0.00     0.006 A 
ENDBRANCH  25  39
BRANCH  26  47
ATOM     47  C   UNL A   1      40.919  27.478  28.193  1.00  0.00     0.057 A 
ATOM     48  C   UNL A   1      40.292  26.243  28.002  1.00  0.00     0.134 A 
ATOM     49  C   UNL A   1      41.678  27.991  27.132  1.00  0.00     0.134 A 
ATOM     50  F   UNL A   1      39.560  25.698  28.985  1.00  0.00    -0.206 F 
ATOM     51  C   UNL A   1      40.413  25.543  26.800  1.00  0.00     0.040 A 
ATOM     52  C   UNL A   1      41.787  27.313  25.918  1.00  0.00     0.040 A 
ATOM     53  F   UNL A   1      42.290  29.178  27.251  1.00  0.00    -0.206 F 
ATOM     54  C   UNL A   1      41.154  26.084  25.751  1.00  0.00     0.006 A 
ENDBRANCH  26  47
BRANCH  38  55
ATOM     55  C   UNL A   1      44.334  27.882  34.268  1.00  0.00     0.057 A 
ATOM     56  C   UNL A   1      44.206  26.654  34.926  1.00  0.00     0.134 A 
ATOM     57  C   UNL A   1      45.626  28.389  34.079  1.00  0.00     0.134 A 
ATOM     58  F   UNL A   1      42.995  26.125  35.152  1.00  0.00    -0.206 F 
ATOM     59  C   UNL A   1      45.326  25.957  35.385  1.00  0.00     0.040 A 
ATOM     60  C   UNL A   1      46.753  27.689  34.511  1.00  0.00     0.040 A 
ATOM     61  F   UNL A   1      45.814  29.559  33.451  1.00  0.00    -0.206 F 
ATOM     62  C   UNL A   1      46.604  26.470  35.167  1.00  0.00     0.006 A 
ENDBRANCH  38  55
ENDBRANCH  12  13
ENDBRANCH   5   7
ENDBRANCH   2   3
ENDBRANCH   1   2
BRANCH   1  63
ATOM     63  C   UNL A   1      31.080  30.730  25.824  1.00  0.00     0.117 C 
BRANCH  63  64
ATOM     64  N   UNL A   1      32.276  30.087  25.327  1.00  0.00    -0.356 N 
ATOM     65  C   UNL A   1      32.492  28.850  24.817  1.00  0.00     0.224 C 
ATOM     66  H   UNL A   1      33.081  30.653  25.366  1.00  0.00     0.163 HD
ATOM     67  O   UNL A   1      33.642  28.629  24.430  1.00  0.00    -0.275 OA
BRANCH  65  68
ATOM     68  C   UNL A   1      31.430  27.750  24.831  1.00  0.00     0.094 C 
ATOM     69  C   UNL A   1      30.168  27.906  23.946  1.00  0.00     0.002 C 
ATOM     70  C   UNL A   1      32.039  26.421  24.272  1.00  0.00     0.094 C 
ATOM     71  C   UNL A   1      30.543  28.207  22.492  1.00  0.00     0.005 C 
ATOM     72  C   UNL A   1      29.667  26.475  23.830  1.00  0.00     0.009 C 
ATOM     73  C   UNL A   1      30.976  25.954  23.256  1.00  0.00     0.002 C 
ATOM     74  C   UNL A   1      31.088  26.857  22.001  1.00  0.00     0.005 C 
BRANCH  70  75
ATOM     75  C   UNL A   1      32.488  25.458  25.381  1.00  0.00     0.226 C 
ATOM     76  O   UNL A   1      32.539  25.838  26.551  1.00  0.00    -0.275 OA
ATOM     77  N   UNL A   1      32.662  24.127  25.067  1.00  0.00    -0.339 N 
ATOM     78  C   UNL A   1      32.164  23.126  26.017  1.00  0.00     0.141 C 
ATOM     79  C   UNL A   1      33.808  23.648  24.293  1.00  0.00     0.141 C 
ATOM     80  C   UNL A   1      31.778  21.819  25.291  1.00  0.00     0.138 C 
ATOM     81  C   UNL A   1      33.449  22.368  23.520  1.00  0.00     0.138 C 
ATOM     82  N   UNL A   1      32.895  21.362  24.445  1.00  0.00    -0.368 N 
BRANCH  82  83
ATOM     83  C   UNL A   1      33.023  20.034  24.074  1.00  0.00     0.038 A 
ATOM     84  C   UNL A   1      32.191  19.525  23.064  1.00  0.00     0.026 A 
ATOM     85  C   UNL A   1      33.948  19.164  24.657  1.00  0.00     0.046 A 
ATOM     86  C   UNL A   1      32.273  18.197  22.643  1.00  0.00     0.004 A 
ATOM     87  C   UNL A   1      34.024  17.829  24.246  1.00  0.00     0.043 A 
ATOM     88  C   UNL A   1      33.194  17.343  23.239  1.00  0.00     0.020 A 
ATOM     89  Cl  UNL A   1      35.153  16.768  25.000  1.00  0.00    -0.084 Cl
ENDBRANCH  82  83
ENDBRANCH  70  75
ENDBRANCH  65  68
ENDBRANCH  63  64
ENDBRANCH   1  63
TORSDOF 12
ENDMDL
