MODEL 1
REMARK VINA RESULT:      -8.7      0.000      0.000
REMARK SMILES CCC1(CC)CCN(c2ccc(/C=C/C(=O)NCCCNC(=O)c3ccc(-c4c5nc(c(-c6c(F)cccc6F)c6ccc([nH]6)c(-c6c(F)cccc6F)c6nc(c(-c7c(F)cccc7F)c7ccc4[nH]7)C=C6)C=C5)cc3)cc2F)C1
REMARK SMILES IDX 18 1 17 2 15 3 16 4 14 6 13 7 12 8 9 9 10 10 79 11 11 12
REMARK SMILES IDX 78 13 80 14 8 15 3 16 6 17 81 18 7 19 2 20 1 21 4 22 5 23
REMARK SMILES IDX 19 24 20 25 21 26 22 27 23 29 24 30 25 31 77 32 26 33 76 34
REMARK SMILES IDX 27 35 28 36 29 37 70 38 30 39 75 40 69 41 71 42 31 43 74 44
REMARK SMILES IDX 68 45 67 46 32 48 58 49 41 50 57 51 42 52 45 53 56 54 72 55
REMARK SMILES IDX 43 56 44 57 55 59 73 60 46 61 33 62 34 63 39 64 35 65 36 66
REMARK SMILES IDX 38 67 40 68 37 69 59 70 60 71 65 72 61 73 62 74 64 75 66 76
REMARK SMILES IDX 63 77 47 78 48 79 53 80 49 81 50 82 52 83 54 84 51 85
REMARK H PARENT 17 5 21 28 71 47 45 58
REMARK Flexibility Score: inf
ROOT
ATOM      1  C   UNL A   1      36.089  33.808  30.397  1.00  0.00     0.118 C 
ENDROOT
BRANCH   1   2
ATOM      2  N   UNL A   1      35.949  34.423  31.705  1.00  0.00    -0.352 N 
ATOM      3  C   UNL A   1      36.633  34.210  32.861  1.00  0.00     0.244 C 
ATOM      4  O   UNL A   1      36.421  34.928  33.835  1.00  0.00    -0.270 OA
ATOM      5  H   UNL A   1      35.242  35.106  31.765  1.00  0.00     0.163 HD
BRANCH   3   6
ATOM      6  C   UNL A   1      37.695  33.186  32.930  1.00  0.00     0.072 C 
ATOM      7  C   UNL A   1      37.486  31.913  33.296  1.00  0.00     0.014 C 
BRANCH   7   8
ATOM      8  C   UNL A   1      38.558  30.914  33.355  1.00  0.00    -0.022 A 
ATOM      9  C   UNL A   1      40.581  28.916  33.462  1.00  0.00     0.073 A 
ATOM     10  C   UNL A   1      40.781  30.187  34.016  1.00  0.00     0.029 A 
ATOM     11  C   UNL A   1      39.328  28.669  32.879  1.00  0.00     0.147 A 
ATOM     12  C   UNL A   1      39.790  31.176  33.961  1.00  0.00     0.010 A 
ATOM     13  C   UNL A   1      38.328  29.642  32.828  1.00  0.00     0.049 A 
ATOM     14  F   UNL A   1      39.031  27.451  32.394  1.00  0.00    -0.205 F 
BRANCH   9  15
ATOM     15  N   UNL A   1      41.589  27.972  33.561  1.00  0.00    -0.369 N 
ATOM     16  C   UNL A   1      43.894  27.386  33.844  1.00  0.00    -0.011 C 
ATOM     17  C   UNL A   1      43.094  27.089  35.128  1.00  0.00     0.030 C 
ATOM     18  C   UNL A   1      42.931  28.381  33.129  1.00  0.00     0.123 C 
ATOM     19  C   UNL A   1      41.651  26.996  34.645  1.00  0.00     0.117 C 
BRANCH  16  20
ATOM     20  C   UNL A   1      44.104  26.146  32.925  1.00  0.00     0.005 C 
ATOM     21  C   UNL A   1      44.047  24.776  33.591  1.00  0.00     0.004 C 
ENDBRANCH  16  20
BRANCH  16  22
ATOM     22  C   UNL A   1      45.225  28.118  34.152  1.00  0.00     0.005 C 
ATOM     23  C   UNL A   1      45.179  29.148  35.269  1.00  0.00     0.004 C 
ENDBRANCH  16  22
ENDBRANCH   9  15
ENDBRANCH   7   8
ENDBRANCH   3   6
ENDBRANCH   1   2
BRANCH   1  24
ATOM     24  C   UNL A   1      34.891  32.922  30.061  1.00  0.00     0.042 C 
BRANCH  24  25
ATOM     25  C   UNL A   1      34.653  32.753  28.562  1.00  0.00     0.118 C 
BRANCH  25  26
ATOM     26  N   UNL A   1      33.967  31.508  28.252  1.00  0.00    -0.352 N 
ATOM     27  C   UNL A   1      34.467  30.253  28.018  1.00  0.00     0.251 C 
ATOM     28  H   UNL A   1      32.987  31.578  28.205  1.00  0.00     0.163 HD
ATOM     29  O   UNL A   1      33.721  29.387  27.569  1.00  0.00    -0.269 OA
BRANCH  27  30
ATOM     30  C   UNL A   1      35.885  29.927  28.289  1.00  0.00     0.039 A 
ATOM     31  C   UNL A   1      36.812  30.078  27.252  1.00  0.00     0.014 A 
ATOM     32  C   UNL A   1      36.298  29.405  29.518  1.00  0.00     0.014 A 
ATOM     33  C   UNL A   1      38.152  29.739  27.457  1.00  0.00     0.010 A 
ATOM     34  C   UNL A   1      37.647  29.130  29.743  1.00  0.00     0.010 A 
ATOM     35  C   UNL A   1      38.584  29.279  28.711  1.00  0.00    -0.014 A 
BRANCH  35  36
ATOM     36  C   UNL A   1      40.007  28.925  28.942  1.00  0.00     0.031 A 
ATOM     37  C   UNL A   1      40.926  29.890  29.642  1.00  0.00     0.074 A 
ATOM     38  C   UNL A   1      40.480  27.742  28.504  1.00  0.00     0.049 A 
ATOM     39  N   UNL A   1      42.203  29.773  29.905  1.00  0.00    -0.248 NA
ATOM     40  C   UNL A   1      40.337  31.164  30.086  1.00  0.00     0.031 C 
ATOM     41  C   UNL A   1      39.699  26.733  27.788  1.00  0.00     0.029 A 
ATOM     42  N   UNL A   1      41.731  27.188  28.600  1.00  0.00    -0.354 N 
ATOM     43  C   UNL A   1      42.570  30.955  30.535  1.00  0.00     0.074 A 
ATOM     44  C   UNL A   1      41.395  31.799  30.569  1.00  0.00     0.031 C 
ATOM     45  C   UNL A   1      40.477  25.667  27.544  1.00  0.00     0.029 A 
ATOM     46  C   UNL A   1      41.820  25.930  28.054  1.00  0.00     0.049 A 
ATOM     47  H   UNL A   1      42.494  27.647  29.022  1.00  0.00     0.167 HD
ATOM     48  C   UNL A   1      43.771  31.297  31.061  1.00  0.00     0.037 A 
ATOM     49  C   UNL A   1      42.863  25.082  27.979  1.00  0.00     0.037 A 
ATOM     50  C   UNL A   1      44.931  30.447  31.050  1.00  0.00     0.049 A 
ATOM     51  C   UNL A   1      44.184  25.485  28.570  1.00  0.00     0.074 A 
ATOM     52  C   UNL A   1      46.187  30.696  31.579  1.00  0.00     0.029 A 
ATOM     53  N   UNL A   1      44.978  29.179  30.491  1.00  0.00    -0.354 N 
ATOM     54  N   UNL A   1      44.510  26.596  29.185  1.00  0.00    -0.248 NA
ATOM     55  C   UNL A   1      45.283  24.514  28.462  1.00  0.00     0.031 C 
ATOM     56  C   UNL A   1      46.999  29.590  31.315  1.00  0.00     0.029 A 
ATOM     57  C   UNL A   1      46.240  28.635  30.659  1.00  0.00     0.049 A 
ATOM     58  H   UNL A   1      44.224  28.733  30.041  1.00  0.00     0.167 HD
ATOM     59  C   UNL A   1      45.837  26.448  29.562  1.00  0.00     0.074 A 
ATOM     60  C   UNL A   1      46.256  25.136  29.116  1.00  0.00     0.031 C 
ATOM     61  C   UNL A   1      46.637  27.322  30.220  1.00  0.00     0.037 A 
BRANCH  48  62
ATOM     62  C   UNL A   1      43.886  32.645  31.710  1.00  0.00     0.057 A 
ATOM     63  C   UNL A   1      44.149  33.790  30.947  1.00  0.00     0.134 A 
ATOM     64  C   UNL A   1      43.795  32.799  33.099  1.00  0.00     0.134 A 
ATOM     65  F   UNL A   1      44.255  33.712  29.613  1.00  0.00    -0.206 F 
ATOM     66  C   UNL A   1      44.325  35.040  31.546  1.00  0.00     0.040 A 
ATOM     67  C   UNL A   1      43.943  34.047  33.707  1.00  0.00     0.040 A 
ATOM     68  F   UNL A   1      43.533  31.744  33.884  1.00  0.00    -0.206 F 
ATOM     69  C   UNL A   1      44.219  35.171  32.929  1.00  0.00     0.006 A 
ENDBRANCH  48  62
BRANCH  49  70
ATOM     70  C   UNL A   1      42.682  23.745  27.362  1.00  0.00     0.057 A 
ATOM     71  C   UNL A   1      42.360  22.619  28.129  1.00  0.00     0.134 A 
ATOM     72  C   UNL A   1      42.846  23.564  25.984  1.00  0.00     0.134 A 
ATOM     73  F   UNL A   1      42.196  22.727  29.455  1.00  0.00    -0.206 F 
ATOM     74  C   UNL A   1      42.220  21.357  27.547  1.00  0.00     0.040 A 
ATOM     75  C   UNL A   1      42.688  22.313  25.387  1.00  0.00     0.040 A 
ATOM     76  F   UNL A   1      43.138  24.609  25.197  1.00  0.00    -0.206 F 
ATOM     77  C   UNL A   1      42.380  21.203  26.172  1.00  0.00     0.006 A 
ENDBRANCH  49  70
BRANCH  61  78
ATOM     78  C   UNL A   1      48.036  26.881  30.530  1.00  0.00     0.057 A 
ATOM     79  C   UNL A   1      48.334  26.271  31.755  1.00  0.00     0.134 A 
ATOM     80  C   UNL A   1      49.096  27.113  29.646  1.00  0.00     0.134 A 
ATOM     81  F   UNL A   1      47.364  26.030  32.650  1.00  0.00    -0.206 F 
ATOM     82  C   UNL A   1      49.640  25.916  32.094  1.00  0.00     0.040 A 
ATOM     83  C   UNL A   1      50.403  26.740  29.963  1.00  0.00     0.040 A 
ATOM     84  F   UNL A   1      48.873  27.684  28.453  1.00  0.00    -0.206 F 
ATOM     85  C   UNL A   1      50.679  26.147  31.195  1.00  0.00     0.006 A 
ENDBRANCH  61  78
ENDBRANCH  35  36
ENDBRANCH  27  30
ENDBRANCH  25  26
ENDBRANCH  24  25
ENDBRANCH   1  24
TORSDOF 14
ENDMDL
MODEL 2
REMARK VINA RESULT:      -8.6      5.044     10.812
REMARK SMILES CCC1(CC)CCN(c2ccc(/C=C/C(=O)NCCCNC(=O)c3ccc(-c4c5nc(c(-c6c(F)cccc6F)c6ccc([nH]6)c(-c6c(F)cccc6F)c6nc(c(-c7c(F)cccc7F)c7ccc4[nH]7)C=C6)C=C5)cc3)cc2F)C1
REMARK SMILES IDX 18 1 17 2 15 3 16 4 14 6 13 7 12 8 9 9 10 10 79 11 11 12
REMARK SMILES IDX 78 13 80 14 8 15 3 16 6 17 81 18 7 19 2 20 1 21 4 22 5 23
REMARK SMILES IDX 19 24 20 25 21 26 22 27 23 29 24 30 25 31 77 32 26 33 76 34
REMARK SMILES IDX 27 35 28 36 29 37 70 38 30 39 75 40 69 41 71 42 31 43 74 44
REMARK SMILES IDX 68 45 67 46 32 48 58 49 41 50 57 51 42 52 45 53 56 54 72 55
REMARK SMILES IDX 43 56 44 57 55 59 73 60 46 61 33 62 34 63 39 64 35 65 36 66
REMARK SMILES IDX 38 67 40 68 37 69 59 70 60 71 65 72 61 73 62 74 64 75 66 76
REMARK SMILES IDX 63 77 47 78 48 79 53 80 49 81 50 82 52 83 54 84 51 85
REMARK H PARENT 17 5 21 28 71 47 45 58
REMARK Flexibility Score: inf
ROOT
ATOM      1  C   UNL A   1      42.162  19.182  26.531  1.00  0.00     0.118 C 
ENDROOT
BRANCH   1   2
ATOM      2  N   UNL A   1      42.627  20.298  27.337  1.00  0.00    -0.352 N 
ATOM      3  C   UNL A   1      41.970  21.401  27.785  1.00  0.00     0.244 C 
ATOM      4  O   UNL A   1      42.533  22.174  28.555  1.00  0.00    -0.270 OA
ATOM      5  H   UNL A   1      43.574  20.246  27.603  1.00  0.00     0.163 HD
BRANCH   3   6
ATOM      6  C   UNL A   1      40.554  21.630  27.430  1.00  0.00     0.072 C 
ATOM      7  C   UNL A   1      40.153  22.378  26.392  1.00  0.00     0.014 C 
BRANCH   7   8
ATOM      8  C   UNL A   1      38.741  22.588  26.059  1.00  0.00    -0.022 A 
ATOM      9  C   UNL A   1      36.002  22.928  25.367  1.00  0.00     0.073 A 
ATOM     10  C   UNL A   1      36.797  24.015  25.754  1.00  0.00     0.029 A 
ATOM     11  C   UNL A   1      36.628  21.673  25.312  1.00  0.00     0.147 A 
ATOM     12  C   UNL A   1      38.145  23.852  26.100  1.00  0.00     0.010 A 
ATOM     13  C   UNL A   1      37.973  21.499  25.645  1.00  0.00     0.049 A 
ATOM     14  F   UNL A   1      35.954  20.594  24.879  1.00  0.00    -0.205 F 
BRANCH   9  15
ATOM     15  N   UNL A   1      34.681  23.151  25.019  1.00  0.00    -0.369 N 
ATOM     16  C   UNL A   1      32.699  22.553  23.813  1.00  0.00    -0.011 C 
ATOM     17  C   UNL A   1      32.549  22.218  25.310  1.00  0.00     0.030 C 
ATOM     18  C   UNL A   1      34.249  22.674  23.699  1.00  0.00     0.123 C 
ATOM     19  C   UNL A   1      33.590  23.101  25.988  1.00  0.00     0.117 C 
BRANCH  16  20
ATOM     20  C   UNL A   1      32.061  23.914  23.400  1.00  0.00     0.005 C 
ATOM     21  C   UNL A   1      30.542  24.011  23.466  1.00  0.00     0.004 C 
ENDBRANCH  16  20
BRANCH  16  22
ATOM     22  C   UNL A   1      32.225  21.386  22.911  1.00  0.00     0.005 C 
ATOM     23  C   UNL A   1      32.469  19.985  23.447  1.00  0.00     0.004 C 
ENDBRANCH  16  22
ENDBRANCH   9  15
ENDBRANCH   7   8
ENDBRANCH   3   6
ENDBRANCH   1   2
BRANCH   1  24
ATOM     24  C   UNL A   1      43.151  18.019  26.558  1.00  0.00     0.042 C 
BRANCH  24  25
ATOM     25  C   UNL A   1      44.565  18.405  26.131  1.00  0.00     0.118 C 
BRANCH  25  26
ATOM     26  N   UNL A   1      44.692  18.511  24.685  1.00  0.00    -0.352 N 
ATOM     27  C   UNL A   1      44.729  19.618  23.876  1.00  0.00     0.251 C 
ATOM     28  H   UNL A   1      44.764  17.651  24.213  1.00  0.00     0.163 HD
ATOM     29  O   UNL A   1      44.632  19.474  22.661  1.00  0.00    -0.269 OA
BRANCH  27  30
ATOM     30  C   UNL A   1      44.877  20.978  24.441  1.00  0.00     0.039 A 
ATOM     31  C   UNL A   1      44.506  22.070  23.649  1.00  0.00     0.014 A 
ATOM     32  C   UNL A   1      45.446  21.196  25.699  1.00  0.00     0.014 A 
ATOM     33  C   UNL A   1      44.672  23.371  24.130  1.00  0.00     0.010 A 
ATOM     34  C   UNL A   1      45.549  22.491  26.206  1.00  0.00     0.010 A 
ATOM     35  C   UNL A   1      45.178  23.592  25.421  1.00  0.00    -0.014 A 
BRANCH  35  36
ATOM     36  C   UNL A   1      45.350  24.970  25.945  1.00  0.00     0.031 A 
ATOM     37  C   UNL A   1      46.694  25.643  25.887  1.00  0.00     0.074 A 
ATOM     38  C   UNL A   1      44.299  25.611  26.494  1.00  0.00     0.049 A 
ATOM     39  N   UNL A   1      47.046  26.826  26.322  1.00  0.00    -0.248 NA
ATOM     40  C   UNL A   1      47.794  24.877  25.278  1.00  0.00     0.031 C 
ATOM     41  C   UNL A   1      42.952  25.058  26.635  1.00  0.00     0.029 A 
ATOM     42  N   UNL A   1      44.200  26.869  27.032  1.00  0.00    -0.354 N 
ATOM     43  C   UNL A   1      48.404  26.943  26.049  1.00  0.00     0.074 A 
ATOM     44  C   UNL A   1      48.825  25.691  25.457  1.00  0.00     0.031 C 
ATOM     45  C   UNL A   1      42.153  25.984  27.186  1.00  0.00     0.029 A 
ATOM     46  C   UNL A   1      42.936  27.184  27.468  1.00  0.00     0.049 A 
ATOM     47  H   UNL A   1      44.963  27.489  27.099  1.00  0.00     0.167 HD
ATOM     48  C   UNL A   1      49.220  28.005  26.248  1.00  0.00     0.037 A 
ATOM     49  C   UNL A   1      42.460  28.313  28.026  1.00  0.00     0.037 A 
ATOM     50  C   UNL A   1      48.794  29.258  26.812  1.00  0.00     0.049 A 
ATOM     51  C   UNL A   1      43.386  29.477  28.237  1.00  0.00     0.074 A 
ATOM     52  C   UNL A   1      49.543  30.403  27.032  1.00  0.00     0.029 A 
ATOM     53  N   UNL A   1      47.504  29.537  27.237  1.00  0.00    -0.354 N 
ATOM     54  N   UNL A   1      44.661  29.582  27.949  1.00  0.00    -0.248 NA
ATOM     55  C   UNL A   1      42.806  30.685  28.843  1.00  0.00     0.031 C 
ATOM     56  C   UNL A   1      48.711  31.363  27.615  1.00  0.00     0.029 A 
ATOM     57  C   UNL A   1      47.436  30.833  27.720  1.00  0.00     0.049 A 
ATOM     58  H   UNL A   1      46.749  28.907  27.200  1.00  0.00     0.167 HD
ATOM     59  C   UNL A   1      45.029  30.870  28.312  1.00  0.00     0.074 A 
ATOM     60  C   UNL A   1      43.841  31.514  28.832  1.00  0.00     0.031 C 
ATOM     61  C   UNL A   1      46.243  31.464  28.223  1.00  0.00     0.037 A 
BRANCH  48  62
ATOM     62  C   UNL A   1      50.656  27.865  25.837  1.00  0.00     0.057 A 
ATOM     63  C   UNL A   1      51.035  27.988  24.495  1.00  0.00     0.134 A 
ATOM     64  C   UNL A   1      51.656  27.550  26.766  1.00  0.00     0.134 A 
ATOM     65  F   UNL A   1      50.126  28.282  23.553  1.00  0.00    -0.206 F 
ATOM     66  C   UNL A   1      52.357  27.793  24.090  1.00  0.00     0.040 A 
ATOM     67  C   UNL A   1      52.986  27.378  26.377  1.00  0.00     0.040 A 
ATOM     68  F   UNL A   1      51.360  27.430  28.069  1.00  0.00    -0.206 F 
ATOM     69  C   UNL A   1      53.338  27.491  25.033  1.00  0.00     0.006 A 
ENDBRANCH  48  62
BRANCH  49  70
ATOM     70  C   UNL A   1      41.022  28.411  28.376  1.00  0.00     0.057 A 
ATOM     71  C   UNL A   1      40.540  28.010  29.627  1.00  0.00     0.134 A 
ATOM     72  C   UNL A   1      40.091  28.898  27.450  1.00  0.00     0.134 A 
ATOM     73  F   UNL A   1      41.381  27.529  30.554  1.00  0.00    -0.206 F 
ATOM     74  C   UNL A   1      39.181  28.077  29.940  1.00  0.00     0.040 A 
ATOM     75  C   UNL A   1      38.733  28.990  27.758  1.00  0.00     0.040 A 
ATOM     76  F   UNL A   1      40.497  29.313  26.241  1.00  0.00    -0.206 F 
ATOM     77  C   UNL A   1      38.274  28.572  29.005  1.00  0.00     0.006 A 
ENDBRANCH  49  70
BRANCH  61  78
ATOM     78  C   UNL A   1      46.347  32.894  28.662  1.00  0.00     0.057 A 
ATOM     79  C   UNL A   1      46.105  33.935  27.758  1.00  0.00     0.134 A 
ATOM     80  C   UNL A   1      46.745  33.240  29.959  1.00  0.00     0.134 A 
ATOM     81  F   UNL A   1      45.730  33.670  26.497  1.00  0.00    -0.206 F 
ATOM     82  C   UNL A   1      46.264  35.272  28.125  1.00  0.00     0.040 A 
ATOM     83  C   UNL A   1      46.884  34.574  30.346  1.00  0.00     0.040 A 
ATOM     84  F   UNL A   1      46.982  32.288  30.874  1.00  0.00    -0.206 F 
ATOM     85  C   UNL A   1      46.651  35.594  29.424  1.00  0.00     0.006 A 
ENDBRANCH  61  78
ENDBRANCH  35  36
ENDBRANCH  27  30
ENDBRANCH  25  26
ENDBRANCH  24  25
ENDBRANCH   1  24
TORSDOF 14
ENDMDL
MODEL 3
REMARK VINA RESULT:      -8.5      4.091     10.241
REMARK SMILES CCC1(CC)CCN(c2ccc(/C=C/C(=O)NCCCNC(=O)c3ccc(-c4c5nc(c(-c6c(F)cccc6F)c6ccc([nH]6)c(-c6c(F)cccc6F)c6nc(c(-c7c(F)cccc7F)c7ccc4[nH]7)C=C6)C=C5)cc3)cc2F)C1
REMARK SMILES IDX 18 1 17 2 15 3 16 4 14 6 13 7 12 8 9 9 10 10 79 11 11 12
REMARK SMILES IDX 78 13 80 14 8 15 3 16 6 17 81 18 7 19 2 20 1 21 4 22 5 23
REMARK SMILES IDX 19 24 20 25 21 26 22 27 23 29 24 30 25 31 77 32 26 33 76 34
REMARK SMILES IDX 27 35 28 36 29 37 70 38 30 39 75 40 69 41 71 42 31 43 74 44
REMARK SMILES IDX 68 45 67 46 32 48 58 49 41 50 57 51 42 52 45 53 56 54 72 55
REMARK SMILES IDX 43 56 44 57 55 59 73 60 46 61 33 62 34 63 39 64 35 65 36 66
REMARK SMILES IDX 38 67 40 68 37 69 59 70 60 71 65 72 61 73 62 74 64 75 66 76
REMARK SMILES IDX 63 77 47 78 48 79 53 80 49 81 50 82 52 83 54 84 51 85
REMARK H PARENT 17 5 21 28 71 47 45 58
REMARK Flexibility Score: inf
ROOT
ATOM      1  C   UNL A   1      34.436  35.557  27.907  1.00  0.00     0.118 C 
ENDROOT
BRANCH   1   2
ATOM      2  N   UNL A   1      35.579  35.106  28.681  1.00  0.00    -0.352 N 
ATOM      3  C   UNL A   1      36.183  33.889  28.741  1.00  0.00     0.244 C 
ATOM      4  O   UNL A   1      37.218  33.754  29.388  1.00  0.00    -0.270 OA
ATOM      5  H   UNL A   1      35.983  35.795  29.258  1.00  0.00     0.163 HD
BRANCH   3   6
ATOM      6  C   UNL A   1      35.660  32.750  27.959  1.00  0.00     0.072 C 
ATOM      7  C   UNL A   1      34.701  31.919  28.394  1.00  0.00     0.014 C 
BRANCH   7   8
ATOM      8  C   UNL A   1      34.197  30.796  27.598  1.00  0.00    -0.022 A 
ATOM      9  C   UNL A   1      33.143  28.646  26.061  1.00  0.00     0.073 A 
ATOM     10  C   UNL A   1      34.355  28.523  26.754  1.00  0.00     0.029 A 
ATOM     11  C   UNL A   1      32.464  29.869  26.186  1.00  0.00     0.147 A 
ATOM     12  C   UNL A   1      34.881  29.580  27.508  1.00  0.00     0.010 A 
ATOM     13  C   UNL A   1      32.972  30.926  26.942  1.00  0.00     0.049 A 
ATOM     14  F   UNL A   1      31.260  30.040  25.614  1.00  0.00    -0.205 F 
BRANCH   9  15
ATOM     15  N   UNL A   1      32.663  27.562  25.347  1.00  0.00    -0.369 N 
ATOM     16  C   UNL A   1      30.878  26.106  24.691  1.00  0.00    -0.011 C 
ATOM     17  C   UNL A   1      31.248  27.065  23.543  1.00  0.00     0.030 C 
ATOM     18  C   UNL A   1      31.505  26.854  25.906  1.00  0.00     0.123 C 
ATOM     19  C   UNL A   1      32.663  27.517  23.887  1.00  0.00     0.117 C 
BRANCH  16  20
ATOM     20  C   UNL A   1      31.536  24.697  24.578  1.00  0.00     0.005 C 
ATOM     21  C   UNL A   1      31.126  23.837  23.389  1.00  0.00     0.004 C 
ENDBRANCH  16  20
BRANCH  16  22
ATOM     22  C   UNL A   1      29.345  26.020  24.897  1.00  0.00     0.005 C 
ATOM     23  C   UNL A   1      28.489  26.710  23.847  1.00  0.00     0.004 C 
ENDBRANCH  16  22
ENDBRANCH   9  15
ENDBRANCH   7   8
ENDBRANCH   3   6
ENDBRANCH   1   2
BRANCH   1  24
ATOM     24  C   UNL A   1      33.348  36.146  28.803  1.00  0.00     0.042 C 
BRANCH  24  25
ATOM     25  C   UNL A   1      32.913  35.217  29.934  1.00  0.00     0.118 C 
BRANCH  25  26
ATOM     26  N   UNL A   1      32.442  35.951  31.098  1.00  0.00    -0.352 N 
ATOM     27  C   UNL A   1      32.824  35.874  32.412  1.00  0.00     0.251 C 
ATOM     28  H   UNL A   1      31.736  36.611  30.911  1.00  0.00     0.163 HD
ATOM     29  O   UNL A   1      32.147  36.440  33.266  1.00  0.00    -0.269 OA
BRANCH  27  30
ATOM     30  C   UNL A   1      34.030  35.117  32.819  1.00  0.00     0.039 A 
ATOM     31  C   UNL A   1      35.284  35.693  32.590  1.00  0.00     0.014 A 
ATOM     32  C   UNL A   1      33.946  33.826  33.346  1.00  0.00     0.014 A 
ATOM     33  C   UNL A   1      36.446  34.992  32.921  1.00  0.00     0.010 A 
ATOM     34  C   UNL A   1      35.103  33.153  33.738  1.00  0.00     0.010 A 
ATOM     35  C   UNL A   1      36.365  33.722  33.514  1.00  0.00    -0.014 A 
BRANCH  35  36
ATOM     36  C   UNL A   1      37.594  32.972  33.878  1.00  0.00     0.031 A 
ATOM     37  C   UNL A   1      38.135  31.911  32.959  1.00  0.00     0.074 A 
ATOM     38  C   UNL A   1      38.212  33.231  35.047  1.00  0.00     0.049 A 
ATOM     39  N   UNL A   1      39.173  31.130  33.120  1.00  0.00    -0.248 NA
ATOM     40  C   UNL A   1      37.401  31.682  31.704  1.00  0.00     0.031 C 
ATOM     41  C   UNL A   1      37.772  34.216  36.036  1.00  0.00     0.029 A 
ATOM     42  N   UNL A   1      39.346  32.691  35.597  1.00  0.00    -0.354 N 
ATOM     43  C   UNL A   1      39.212  30.315  31.995  1.00  0.00     0.074 A 
ATOM     44  C   UNL A   1      38.065  30.659  31.184  1.00  0.00     0.031 C 
ATOM     45  C   UNL A   1      38.645  34.236  37.054  1.00  0.00     0.029 A 
ATOM     46  C   UNL A   1      39.689  33.245  36.807  1.00  0.00     0.049 A 
ATOM     47  H   UNL A   1      39.867  31.975  35.167  1.00  0.00     0.167 HD
ATOM     48  C   UNL A   1      40.134  29.383  31.656  1.00  0.00     0.037 A 
ATOM     49  C   UNL A   1      40.728  32.988  37.623  1.00  0.00     0.037 A 
ATOM     50  C   UNL A   1      41.289  29.060  32.450  1.00  0.00     0.049 A 
ATOM     51  C   UNL A   1      41.738  31.949  37.224  1.00  0.00     0.074 A 
ATOM     52  C   UNL A   1      42.294  28.147  32.179  1.00  0.00     0.029 A 
ATOM     53  N   UNL A   1      41.601  29.647  33.667  1.00  0.00    -0.354 N 
ATOM     54  N   UNL A   1      41.775  31.204  36.145  1.00  0.00    -0.248 NA
ATOM     55  C   UNL A   1      42.855  31.717  38.152  1.00  0.00     0.031 C 
ATOM     56  C   UNL A   1      43.198  28.161  33.245  1.00  0.00     0.029 A 
ATOM     57  C   UNL A   1      42.780  29.113  34.160  1.00  0.00     0.049 A 
ATOM     58  H   UNL A   1      41.064  30.341  34.114  1.00  0.00     0.167 HD
ATOM     59  C   UNL A   1      42.929  30.439  36.251  1.00  0.00     0.074 A 
ATOM     60  C   UNL A   1      43.569  30.815  37.493  1.00  0.00     0.031 C 
ATOM     61  C   UNL A   1      43.412  29.507  35.393  1.00  0.00     0.037 A 
BRANCH  48  62
ATOM     62  C   UNL A   1      39.941  28.655  30.358  1.00  0.00     0.057 A 
ATOM     63  C   UNL A   1      40.473  29.159  29.165  1.00  0.00     0.134 A 
ATOM     64  C   UNL A   1      39.178  27.482  30.283  1.00  0.00     0.134 A 
ATOM     65  F   UNL A   1      41.207  30.281  29.165  1.00  0.00    -0.206 F 
ATOM     66  C   UNL A   1      40.244  28.527  27.941  1.00  0.00     0.040 A 
ATOM     67  C   UNL A   1      38.964  26.827  29.070  1.00  0.00     0.040 A 
ATOM     68  F   UNL A   1      38.652  26.942  31.392  1.00  0.00    -0.206 F 
ATOM     69  C   UNL A   1      39.491  27.355  27.892  1.00  0.00     0.006 A 
ENDBRANCH  48  62
BRANCH  49  70
ATOM     70  C   UNL A   1      40.893  33.767  38.875  1.00  0.00     0.057 A 
ATOM     71  C   UNL A   1      41.735  34.883  38.942  1.00  0.00     0.134 A 
ATOM     72  C   UNL A   1      40.218  33.395  40.044  1.00  0.00     0.134 A 
ATOM     73  F   UNL A   1      42.413  35.285  37.858  1.00  0.00    -0.206 F 
ATOM     74  C   UNL A   1      41.909  35.594  40.130  1.00  0.00     0.040 A 
ATOM     75  C   UNL A   1      40.367  34.109  41.232  1.00  0.00     0.040 A 
ATOM     76  F   UNL A   1      39.385  32.343  40.035  1.00  0.00    -0.206 F 
ATOM     77  C   UNL A   1      41.220  35.210  41.279  1.00  0.00     0.006 A 
ENDBRANCH  49  70
BRANCH  61  78
ATOM     78  C   UNL A   1      44.714  28.852  35.746  1.00  0.00     0.057 A 
ATOM     79  C   UNL A   1      45.924  29.374  35.272  1.00  0.00     0.134 A 
ATOM     80  C   UNL A   1      44.766  27.675  36.501  1.00  0.00     0.134 A 
ATOM     81  F   UNL A   1      45.941  30.494  34.535  1.00  0.00    -0.206 F 
ATOM     82  C   UNL A   1      47.140  28.741  35.529  1.00  0.00     0.040 A 
ATOM     83  C   UNL A   1      45.979  27.047  36.786  1.00  0.00     0.040 A 
ATOM     84  F   UNL A   1      43.642  27.132  36.992  1.00  0.00    -0.206 F 
ATOM     85  C   UNL A   1      47.171  27.576  36.292  1.00  0.00     0.006 A 
ENDBRANCH  61  78
ENDBRANCH  35  36
ENDBRANCH  27  30
ENDBRANCH  25  26
ENDBRANCH  24  25
ENDBRANCH   1  24
TORSDOF 14
ENDMDL
