MODEL 1
REMARK VINA RESULT:     -14.0      0.000      0.000
REMARK SMILES CCOC(=O)c1ccc(NC(=O)[C@@H]2[C@H]3c4ccccc4[C@H](c4ccccc43)[C@@H]2C(=O)NCCCNC(=O)c2ccc(-c3c4nc(c(-c5c(F)cccc5F)c5ccc([nH]5)c(-c5c(F)cccc5F)c5nc(c(-c6c(F)cccc6F)c6ccc3[nH]6)C=C5)C=C4)cc2)cc1
REMARK SMILES IDX 29 1 30 2 31 3 28 5 13 6 14 7 27 8 15 9 21 10 26 11 22 12
REMARK SMILES IDX 20 13 16 14 25 15 23 16 19 17 17 18 24 19 18 20 11 21 10 22
REMARK SMILES IDX 12 24 9 25 6 26 7 27 93 28 8 29 92 30 4 31 5 32 3 33 2 34
REMARK SMILES IDX 1 35 32 36 33 37 34 38 35 39 36 40 37 42 38 43 39 44 91 45
REMARK SMILES IDX 40 46 90 47 41 48 42 49 43 50 84 51 44 52 89 53 83 54 85 55
REMARK SMILES IDX 45 56 88 57 82 58 81 59 46 61 72 62 55 63 71 64 56 65 59 66
REMARK SMILES IDX 70 67 86 68 57 69 58 70 69 72 87 73 60 74 47 75 48 76 53 77
REMARK SMILES IDX 49 78 50 79 52 80 54 81 51 82 73 83 74 84 79 85 75 86 76 87
REMARK SMILES IDX 78 88 80 89 77 90 61 91 62 92 67 93 63 94 64 95 66 96 68 97
REMARK SMILES IDX 65 98
REMARK H PARENT 31 4 10 23 35 41 85 60 59 71
REMARK Flexibility Score: inf
ROOT
ATOM      1  C   UNL A   1      31.695  25.582  26.409  1.00  0.00     0.224 C 
ATOM      2  O   UNL A   1      30.737  24.915  26.829  1.00  0.00    -0.275 OA
ATOM      3  N   UNL A   1      31.659  26.889  26.733  1.00  0.00    -0.356 N 
ATOM      4  H   UNL A   1      31.500  27.099  27.682  1.00  0.00     0.163 HD
ENDROOT
BRANCH   1   5
ATOM      5  C   UNL A   1      32.736  24.910  25.550  1.00  0.00     0.104 C 
ATOM      6  C   UNL A   1      32.657  23.387  25.281  1.00  0.00     0.104 C 
ATOM      7  C   UNL A   1      33.547  23.214  23.904  1.00  0.00     0.063 C 
ATOM      8  C   UNL A   1      34.992  23.207  24.332  1.00  0.00    -0.036 A 
ATOM      9  C   UNL A   1      33.486  24.516  23.020  1.00  0.00    -0.036 A 
ATOM     10  C   UNL A   1      34.194  25.392  25.220  1.00  0.00     0.063 C 
ATOM     11  C   UNL A   1      35.965  22.331  23.862  1.00  0.00     0.004 A 
ATOM     12  C   UNL A   1      35.295  24.294  25.192  1.00  0.00    -0.036 A 
ATOM     13  C   UNL A   1      33.915  25.696  23.731  1.00  0.00    -0.036 A 
ATOM     14  C   UNL A   1      32.946  24.651  21.755  1.00  0.00     0.004 A 
ATOM     15  C   UNL A   1      37.248  22.439  24.380  1.00  0.00     0.000 A 
ATOM     16  C   UNL A   1      36.560  24.342  25.764  1.00  0.00     0.004 A 
ATOM     17  C   UNL A   1      33.676  26.977  23.248  1.00  0.00     0.004 A 
ATOM     18  C   UNL A   1      32.718  25.949  21.267  1.00  0.00     0.000 A 
ATOM     19  C   UNL A   1      37.524  23.396  25.369  1.00  0.00     0.000 A 
ATOM     20  C   UNL A   1      33.042  27.094  22.019  1.00  0.00     0.000 A 
BRANCH   6  21
ATOM     21  C   UNL A   1      33.115  22.664  26.609  1.00  0.00     0.229 C 
ATOM     22  N   UNL A   1      33.053  21.275  26.684  1.00  0.00    -0.326 N 
ATOM     23  H   UNL A   1      32.731  20.901  27.536  1.00  0.00     0.169 HD
ATOM     24  O   UNL A   1      33.430  23.262  27.637  1.00  0.00    -0.274 OA
BRANCH  22  25
ATOM     25  C   UNL A   1      33.395  20.338  25.688  1.00  0.00     0.041 A 
ATOM     26  C   UNL A   1      34.014  18.069  24.179  1.00  0.00     0.060 A 
ATOM     27  C   UNL A   1      32.701  18.549  24.224  1.00  0.00     0.018 A 
ATOM     28  C   UNL A   1      35.049  18.821  24.751  1.00  0.00     0.018 A 
ATOM     29  C   UNL A   1      32.393  19.673  24.987  1.00  0.00     0.027 A 
ATOM     30  C   UNL A   1      34.741  20.000  25.460  1.00  0.00     0.027 A 
BRANCH  26  31
ATOM     31  C   UNL A   1      34.212  16.740  23.562  1.00  0.00     0.338 C 
ATOM     32  O   UNL A   1      33.944  16.512  22.388  1.00  0.00    -0.246 OA
BRANCH  31  33
ATOM     33  O   UNL A   1      34.567  15.822  24.497  1.00  0.00    -0.462 OA
BRANCH  33  34
ATOM     34  C   UNL A   1      33.710  15.774  25.655  1.00  0.00     0.230 C 
ATOM     35  C   UNL A   1      32.549  14.809  25.458  1.00  0.00     0.049 C 
ENDBRANCH  33  34
ENDBRANCH  31  33
ENDBRANCH  26  31
ENDBRANCH  22  25
ENDBRANCH   6  21
ENDBRANCH   1   5
BRANCH   3  36
ATOM     36  C   UNL A   1      31.825  28.013  25.849  1.00  0.00     0.117 C 
BRANCH  36  37
ATOM     37  C   UNL A   1      33.212  28.609  26.054  1.00  0.00     0.042 C 
BRANCH  37  38
ATOM     38  C   UNL A   1      33.508  28.788  27.540  1.00  0.00     0.118 C 
BRANCH  38  39
ATOM     39  N   UNL A   1      33.637  30.198  27.868  1.00  0.00    -0.352 N 
ATOM     40  C   UNL A   1      34.657  30.845  28.520  1.00  0.00     0.251 C 
ATOM     41  H   UNL A   1      32.889  30.770  27.581  1.00  0.00     0.163 HD
ATOM     42  O   UNL A   1      34.431  31.928  29.054  1.00  0.00    -0.269 OA
BRANCH  40  43
ATOM     43  C   UNL A   1      36.014  30.252  28.597  1.00  0.00     0.039 A 
ATOM     44  C   UNL A   1      36.428  29.669  29.797  1.00  0.00     0.014 A 
ATOM     45  C   UNL A   1      36.918  30.352  27.537  1.00  0.00     0.014 A 
ATOM     46  C   UNL A   1      37.738  29.199  29.929  1.00  0.00     0.010 A 
ATOM     47  C   UNL A   1      38.173  29.758  27.621  1.00  0.00     0.010 A 
ATOM     48  C   UNL A   1      38.621  29.235  28.838  1.00  0.00    -0.014 A 
BRANCH  48  49
ATOM     49  C   UNL A   1      40.044  28.827  28.980  1.00  0.00     0.031 A 
ATOM     50  C   UNL A   1      41.037  29.770  29.614  1.00  0.00     0.074 A 
ATOM     51  C   UNL A   1      40.448  27.625  28.528  1.00  0.00     0.049 A 
ATOM     52  N   UNL A   1      42.321  29.607  29.821  1.00  0.00    -0.248 NA
ATOM     53  C   UNL A   1      40.530  31.083  30.043  1.00  0.00     0.031 C 
ATOM     54  C   UNL A   1      39.594  26.639  27.867  1.00  0.00     0.029 A 
ATOM     55  N   UNL A   1      41.681  27.026  28.569  1.00  0.00    -0.354 N 
ATOM     56  C   UNL A   1      42.768  30.800  30.379  1.00  0.00     0.074 A 
ATOM     57  C   UNL A   1      41.641  31.703  30.405  1.00  0.00     0.031 C 
ATOM     58  C   UNL A   1      40.314  25.534  27.616  1.00  0.00     0.029 A 
ATOM     59  C   UNL A   1      41.688  25.753  28.056  1.00  0.00     0.049 A 
ATOM     60  H   UNL A   1      42.483  27.466  28.932  1.00  0.00     0.167 HD
ATOM     61  C   UNL A   1      43.996  31.109  30.860  1.00  0.00     0.037 A 
ATOM     62  C   UNL A   1      42.691  24.859  27.959  1.00  0.00     0.037 A 
ATOM     63  C   UNL A   1      45.109  30.198  30.856  1.00  0.00     0.049 A 
ATOM     64  C   UNL A   1      44.054  25.231  28.472  1.00  0.00     0.074 A 
ATOM     65  C   UNL A   1      46.381  30.383  31.368  1.00  0.00     0.029 A 
ATOM     66  N   UNL A   1      45.082  28.925  30.303  1.00  0.00    -0.354 N 
ATOM     67  N   UNL A   1      44.447  26.336  29.059  1.00  0.00    -0.248 NA
ATOM     68  C   UNL A   1      45.114  24.227  28.309  1.00  0.00     0.031 C 
ATOM     69  C   UNL A   1      47.140  29.246  31.073  1.00  0.00     0.029 A 
ATOM     70  C   UNL A   1      46.325  28.327  30.433  1.00  0.00     0.049 A 
ATOM     71  H   UNL A   1      44.295  28.509  29.882  1.00  0.00     0.167 HD
ATOM     72  C   UNL A   1      45.789  26.150  29.364  1.00  0.00     0.074 A 
ATOM     73  C   UNL A   1      46.139  24.820  28.907  1.00  0.00     0.031 C 
ATOM     74  C   UNL A   1      46.654  27.000  29.971  1.00  0.00     0.037 A 
BRANCH  61  75
ATOM     75  C   UNL A   1      44.190  32.495  31.415  1.00  0.00     0.057 A 
ATOM     76  C   UNL A   1      43.952  32.799  32.764  1.00  0.00     0.134 A 
ATOM     77  C   UNL A   1      44.606  33.545  30.586  1.00  0.00     0.134 A 
ATOM     78  F   UNL A   1      43.539  31.846  33.614  1.00  0.00    -0.206 F 
ATOM     79  C   UNL A   1      44.068  34.101  33.254  1.00  0.00     0.040 A 
ATOM     80  C   UNL A   1      44.762  34.844  31.074  1.00  0.00     0.040 A 
ATOM     81  F   UNL A   1      44.864  33.328  29.288  1.00  0.00    -0.206 F 
ATOM     82  C   UNL A   1      44.478  35.129  32.408  1.00  0.00     0.006 A 
ENDBRANCH  61  75
BRANCH  62  83
ATOM     83  C   UNL A   1      42.426  23.510  27.402  1.00  0.00     0.057 A 
ATOM     84  C   UNL A   1      42.125  22.433  28.244  1.00  0.00     0.134 A 
ATOM     85  C   UNL A   1      42.446  23.264  26.023  1.00  0.00     0.134 A 
ATOM     86  F   UNL A   1      42.105  22.602  29.575  1.00  0.00    -0.206 F 
ATOM     87  C   UNL A   1      41.865  21.159  27.738  1.00  0.00     0.040 A 
ATOM     88  C   UNL A   1      42.163  22.000  25.502  1.00  0.00     0.040 A 
ATOM     89  F   UNL A   1      42.718  24.255  25.162  1.00  0.00    -0.206 F 
ATOM     90  C   UNL A   1      41.877  20.941  26.362  1.00  0.00     0.006 A 
ENDBRANCH  62  83
BRANCH  74  91
ATOM     91  C   UNL A   1      48.051  26.505  30.209  1.00  0.00     0.057 A 
ATOM     92  C   UNL A   1      48.409  25.825  31.379  1.00  0.00     0.134 A 
ATOM     93  C   UNL A   1      49.043  26.679  29.233  1.00  0.00     0.134 A 
ATOM     94  F   UNL A   1      47.512  25.636  32.359  1.00  0.00    -0.206 F 
ATOM     95  C   UNL A   1      49.709  25.359  31.583  1.00  0.00     0.040 A 
ATOM     96  C   UNL A   1      50.337  26.189  29.412  1.00  0.00     0.040 A 
ATOM     97  F   UNL A   1      48.763  27.312  28.084  1.00  0.00    -0.206 F 
ATOM     98  C   UNL A   1      50.676  25.535  30.594  1.00  0.00     0.006 A 
ENDBRANCH  74  91
ENDBRANCH  48  49
ENDBRANCH  40  43
ENDBRANCH  38  39
ENDBRANCH  37  38
ENDBRANCH  36  37
ENDBRANCH   3  36
TORSDOF 15
ENDMDL
MODEL 2
REMARK VINA RESULT:     -13.5      2.835      3.772
REMARK SMILES CCOC(=O)c1ccc(NC(=O)[C@@H]2[C@H]3c4ccccc4[C@H](c4ccccc43)[C@@H]2C(=O)NCCCNC(=O)c2ccc(-c3c4nc(c(-c5c(F)cccc5F)c5ccc([nH]5)c(-c5c(F)cccc5F)c5nc(c(-c6c(F)cccc6F)c6ccc3[nH]6)C=C5)C=C4)cc2)cc1
REMARK SMILES IDX 29 1 30 2 31 3 28 5 13 6 14 7 27 8 15 9 21 10 26 11 22 12
REMARK SMILES IDX 20 13 16 14 25 15 23 16 19 17 17 18 24 19 18 20 11 21 10 22
REMARK SMILES IDX 12 24 9 25 6 26 7 27 93 28 8 29 92 30 4 31 5 32 3 33 2 34
REMARK SMILES IDX 1 35 32 36 33 37 34 38 35 39 36 40 37 42 38 43 39 44 91 45
REMARK SMILES IDX 40 46 90 47 41 48 42 49 43 50 84 51 44 52 89 53 83 54 85 55
REMARK SMILES IDX 45 56 88 57 82 58 81 59 46 61 72 62 55 63 71 64 56 65 59 66
REMARK SMILES IDX 70 67 86 68 57 69 58 70 69 72 87 73 60 74 47 75 48 76 53 77
REMARK SMILES IDX 49 78 50 79 52 80 54 81 51 82 73 83 74 84 79 85 75 86 76 87
REMARK SMILES IDX 78 88 80 89 77 90 61 91 62 92 67 93 63 94 64 95 66 96 68 97
REMARK SMILES IDX 65 98
REMARK H PARENT 31 4 10 23 35 41 85 60 59 71
REMARK Flexibility Score: inf
ROOT
ATOM      1  C   UNL A   1      31.409  25.534  26.166  1.00  0.00     0.224 C 
ATOM      2  O   UNL A   1      30.522  24.818  26.655  1.00  0.00    -0.275 OA
ATOM      3  N   UNL A   1      31.245  26.855  26.367  1.00  0.00    -0.356 N 
ATOM      4  H   UNL A   1      31.068  27.137  27.294  1.00  0.00     0.163 HD
ENDROOT
BRANCH   1   5
ATOM      5  C   UNL A   1      32.510  24.888  25.363  1.00  0.00     0.104 C 
ATOM      6  C   UNL A   1      32.495  23.361  25.109  1.00  0.00     0.104 C 
ATOM      7  C   UNL A   1      33.452  23.204  23.776  1.00  0.00     0.063 C 
ATOM      8  C   UNL A   1      34.876  23.251  24.269  1.00  0.00    -0.036 A 
ATOM      9  C   UNL A   1      33.388  24.494  22.874  1.00  0.00    -0.036 A 
ATOM     10  C   UNL A   1      33.964  25.417  25.094  1.00  0.00     0.063 C 
ATOM     11  C   UNL A   1      35.898  22.404  23.854  1.00  0.00     0.004 A 
ATOM     12  C   UNL A   1      35.102  24.356  25.128  1.00  0.00    -0.036 A 
ATOM     13  C   UNL A   1      33.744  25.696  23.590  1.00  0.00    -0.036 A 
ATOM     14  C   UNL A   1      32.902  24.597  21.585  1.00  0.00     0.004 A 
ATOM     15  C   UNL A   1      37.152  22.561  24.428  1.00  0.00     0.000 A 
ATOM     16  C   UNL A   1      36.338  24.454  25.756  1.00  0.00     0.004 A 
ATOM     17  C   UNL A   1      33.484  26.963  23.082  1.00  0.00     0.004 A 
ATOM     18  C   UNL A   1      32.653  25.882  21.071  1.00  0.00     0.000 A 
ATOM     19  C   UNL A   1      37.350  23.537  25.417  1.00  0.00     0.000 A 
ATOM     20  C   UNL A   1      32.903  27.045  21.824  1.00  0.00     0.000 A 
BRANCH   6  21
ATOM     21  C   UNL A   1      32.916  22.668  26.465  1.00  0.00     0.229 C 
ATOM     22  N   UNL A   1      32.875  21.279  26.560  1.00  0.00    -0.326 N 
ATOM     23  H   UNL A   1      32.528  20.913  27.406  1.00  0.00     0.169 HD
ATOM     24  O   UNL A   1      33.182  23.288  27.494  1.00  0.00    -0.274 OA
BRANCH  22  25
ATOM     25  C   UNL A   1      33.270  20.333  25.593  1.00  0.00     0.041 A 
ATOM     26  C   UNL A   1      33.987  18.052  24.148  1.00  0.00     0.060 A 
ATOM     27  C   UNL A   1      32.664  18.502  24.142  1.00  0.00     0.018 A 
ATOM     28  C   UNL A   1      34.987  18.837  24.738  1.00  0.00     0.018 A 
ATOM     29  C   UNL A   1      32.307  19.632  24.874  1.00  0.00     0.027 A 
ATOM     30  C   UNL A   1      34.630  20.022  25.415  1.00  0.00     0.027 A 
BRANCH  26  31
ATOM     31  C   UNL A   1      34.235  16.717  23.562  1.00  0.00     0.338 C 
ATOM     32  O   UNL A   1      34.033  16.468  22.379  1.00  0.00    -0.246 OA
BRANCH  31  33
ATOM     33  O   UNL A   1      34.551  15.817  24.529  1.00  0.00    -0.462 OA
BRANCH  33  34
ATOM     34  C   UNL A   1      33.615  15.749  25.623  1.00  0.00     0.230 C 
ATOM     35  C   UNL A   1      32.532  14.708  25.376  1.00  0.00     0.049 C 
ENDBRANCH  33  34
ENDBRANCH  31  33
ENDBRANCH  26  31
ENDBRANCH  22  25
ENDBRANCH   6  21
ENDBRANCH   1   5
BRANCH   3  36
ATOM     36  C   UNL A   1      31.300  27.902  25.381  1.00  0.00     0.117 C 
BRANCH  36  37
ATOM     37  C   UNL A   1      32.429  28.863  25.734  1.00  0.00     0.042 C 
BRANCH  37  38
ATOM     38  C   UNL A   1      32.090  29.654  26.993  1.00  0.00     0.118 C 
BRANCH  38  39
ATOM     39  N   UNL A   1      32.220  31.081  26.749  1.00  0.00    -0.352 N 
ATOM     40  C   UNL A   1      33.143  31.964  27.253  1.00  0.00     0.251 C 
ATOM     41  H   UNL A   1      31.555  31.468  26.136  1.00  0.00     0.163 HD
ATOM     42  O   UNL A   1      32.875  33.163  27.265  1.00  0.00    -0.269 OA
BRANCH  40  43
ATOM     43  C   UNL A   1      34.442  31.492  27.789  1.00  0.00     0.039 A 
ATOM     44  C   UNL A   1      34.576  30.147  28.145  1.00  0.00     0.014 A 
ATOM     45  C   UNL A   1      35.495  32.374  28.038  1.00  0.00     0.014 A 
ATOM     46  C   UNL A   1      35.754  29.700  28.750  1.00  0.00     0.010 A 
ATOM     47  C   UNL A   1      36.715  31.902  28.510  1.00  0.00     0.010 A 
ATOM     48  C   UNL A   1      36.838  30.575  28.933  1.00  0.00    -0.014 A 
BRANCH  48  49
ATOM     49  C   UNL A   1      38.064  30.147  29.657  1.00  0.00     0.031 A 
ATOM     50  C   UNL A   1      38.289  30.589  31.082  1.00  0.00     0.074 A 
ATOM     51  C   UNL A   1      38.980  29.381  29.036  1.00  0.00     0.049 A 
ATOM     52  N   UNL A   1      39.295  30.333  31.882  1.00  0.00    -0.248 NA
ATOM     53  C   UNL A   1      37.265  31.462  31.679  1.00  0.00     0.031 C 
ATOM     54  C   UNL A   1      38.895  28.917  27.651  1.00  0.00     0.029 A 
ATOM     55  N   UNL A   1      40.157  28.849  29.496  1.00  0.00    -0.354 N 
ATOM     56  C   UNL A   1      39.031  31.029  33.057  1.00  0.00     0.074 A 
ATOM     57  C   UNL A   1      37.816  31.780  32.839  1.00  0.00     0.031 C 
ATOM     58  C   UNL A   1      39.945  28.121  27.392  1.00  0.00     0.029 A 
ATOM     59  C   UNL A   1      40.797  28.058  28.574  1.00  0.00     0.049 A 
ATOM     60  H   UNL A   1      40.508  29.017  30.400  1.00  0.00     0.167 HD
ATOM     61  C   UNL A   1      39.716  31.021  34.225  1.00  0.00     0.037 A 
ATOM     62  C   UNL A   1      41.941  27.354  28.677  1.00  0.00     0.037 A 
ATOM     63  C   UNL A   1      40.911  30.251  34.446  1.00  0.00     0.049 A 
ATOM     64  C   UNL A   1      42.703  27.380  29.972  1.00  0.00     0.074 A 
ATOM     65  C   UNL A   1      41.654  30.121  35.606  1.00  0.00     0.029 A 
ATOM     66  N   UNL A   1      41.542  29.482  33.478  1.00  0.00    -0.354 N 
ATOM     67  N   UNL A   1      42.407  27.988  31.097  1.00  0.00    -0.248 NA
ATOM     68  C   UNL A   1      43.959  26.620  30.012  1.00  0.00     0.031 C 
ATOM     69  C   UNL A   1      42.767  29.322  35.323  1.00  0.00     0.029 A 
ATOM     70  C   UNL A   1      42.685  28.903  34.005  1.00  0.00     0.049 A 
ATOM     71  H   UNL A   1      41.224  29.366  32.554  1.00  0.00     0.167 HD
ATOM     72  C   UNL A   1      43.421  27.658  31.987  1.00  0.00     0.074 A 
ATOM     73  C   UNL A   1      44.333  26.787  31.273  1.00  0.00     0.031 C 
ATOM     74  C   UNL A   1      43.581  28.037  33.279  1.00  0.00     0.037 A 
BRANCH  61  75
ATOM     75  C   UNL A   1      39.186  31.882  35.341  1.00  0.00     0.057 A 
ATOM     76  C   UNL A   1      38.315  31.383  36.320  1.00  0.00     0.134 A 
ATOM     77  C   UNL A   1      39.540  33.234  35.428  1.00  0.00     0.134 A 
ATOM     78  F   UNL A   1      37.924  30.099  36.292  1.00  0.00    -0.206 F 
ATOM     79  C   UNL A   1      37.775  32.206  37.310  1.00  0.00     0.040 A 
ATOM     80  C   UNL A   1      39.035  34.059  36.436  1.00  0.00     0.040 A 
ATOM     81  F   UNL A   1      40.377  33.781  34.534  1.00  0.00    -0.206 F 
ATOM     82  C   UNL A   1      38.138  33.549  37.372  1.00  0.00     0.006 A 
ENDBRANCH  61  75
BRANCH  62  83
ATOM     83  C   UNL A   1      42.402  26.525  27.536  1.00  0.00     0.057 A 
ATOM     84  C   UNL A   1      43.226  27.068  26.542  1.00  0.00     0.134 A 
ATOM     85  C   UNL A   1      42.053  25.174  27.417  1.00  0.00     0.134 A 
ATOM     86  F   UNL A   1      43.582  28.360  26.593  1.00  0.00    -0.206 F 
ATOM     87  C   UNL A   1      43.676  26.302  25.466  1.00  0.00     0.040 A 
ATOM     88  C   UNL A   1      42.517  24.390  26.359  1.00  0.00     0.040 A 
ATOM     89  F   UNL A   1      41.275  24.592  28.341  1.00  0.00    -0.206 F 
ATOM     90  C   UNL A   1      43.327  24.956  25.376  1.00  0.00     0.006 A 
ENDBRANCH  62  83
BRANCH  74  91
ATOM     91  C   UNL A   1      44.768  27.484  34.015  1.00  0.00     0.057 A 
ATOM     92  C   UNL A   1      45.987  28.169  34.078  1.00  0.00     0.134 A 
ATOM     93  C   UNL A   1      44.674  26.266  34.700  1.00  0.00     0.134 A 
ATOM     94  F   UNL A   1      46.148  29.335  33.433  1.00  0.00    -0.206 F 
ATOM     95  C   UNL A   1      47.080  27.650  34.774  1.00  0.00     0.040 A 
ATOM     96  C   UNL A   1      45.749  25.752  35.427  1.00  0.00     0.040 A 
ATOM     97  F   UNL A   1      43.531  25.564  34.689  1.00  0.00    -0.206 F 
ATOM     98  C   UNL A   1      46.960  26.441  35.458  1.00  0.00     0.006 A 
ENDBRANCH  74  91
ENDBRANCH  48  49
ENDBRANCH  40  43
ENDBRANCH  38  39
ENDBRANCH  37  38
ENDBRANCH  36  37
ENDBRANCH   3  36
TORSDOF 15
ENDMDL
MODEL 3
REMARK VINA RESULT:     -13.2      3.406      8.975
REMARK SMILES CCOC(=O)c1ccc(NC(=O)[C@@H]2[C@H]3c4ccccc4[C@H](c4ccccc43)[C@@H]2C(=O)NCCCNC(=O)c2ccc(-c3c4nc(c(-c5c(F)cccc5F)c5ccc([nH]5)c(-c5c(F)cccc5F)c5nc(c(-c6c(F)cccc6F)c6ccc3[nH]6)C=C5)C=C4)cc2)cc1
REMARK SMILES IDX 29 1 30 2 31 3 28 5 13 6 14 7 27 8 15 9 21 10 26 11 22 12
REMARK SMILES IDX 20 13 16 14 25 15 23 16 19 17 17 18 24 19 18 20 11 21 10 22
REMARK SMILES IDX 12 24 9 25 6 26 7 27 93 28 8 29 92 30 4 31 5 32 3 33 2 34
REMARK SMILES IDX 1 35 32 36 33 37 34 38 35 39 36 40 37 42 38 43 39 44 91 45
REMARK SMILES IDX 40 46 90 47 41 48 42 49 43 50 84 51 44 52 89 53 83 54 85 55
REMARK SMILES IDX 45 56 88 57 82 58 81 59 46 61 72 62 55 63 71 64 56 65 59 66
REMARK SMILES IDX 70 67 86 68 57 69 58 70 69 72 87 73 60 74 47 75 48 76 53 77
REMARK SMILES IDX 49 78 50 79 52 80 54 81 51 82 73 83 74 84 79 85 75 86 76 87
REMARK SMILES IDX 78 88 80 89 77 90 61 91 62 92 67 93 63 94 64 95 66 96 68 97
REMARK SMILES IDX 65 98
REMARK H PARENT 31 4 10 23 35 41 85 60 59 71
REMARK Flexibility Score: inf
ROOT
ATOM      1  C   UNL A   1      34.042  24.253  23.148  1.00  0.00     0.224 C 
ATOM      2  O   UNL A   1      33.658  24.236  21.970  1.00  0.00    -0.275 OA
ATOM      3  N   UNL A   1      35.077  23.435  23.418  1.00  0.00    -0.356 N 
ATOM      4  H   UNL A   1      35.854  23.501  22.817  1.00  0.00     0.163 HD
ENDROOT
BRANCH   1   5
ATOM      5  C   UNL A   1      33.300  25.104  24.149  1.00  0.00     0.104 C 
ATOM      6  C   UNL A   1      32.215  26.099  23.670  1.00  0.00     0.104 C 
ATOM      7  C   UNL A   1      31.308  26.328  25.028  1.00  0.00     0.063 C 
ATOM      8  C   UNL A   1      32.055  27.329  25.872  1.00  0.00    -0.036 A 
ATOM      9  C   UNL A   1      31.334  25.054  25.952  1.00  0.00    -0.036 A 
ATOM     10  C   UNL A   1      33.737  25.513  25.601  1.00  0.00     0.063 C 
ATOM     11  C   UNL A   1      31.481  28.411  26.532  1.00  0.00     0.004 A 
ATOM     12  C   UNL A   1      33.419  26.974  26.032  1.00  0.00    -0.036 A 
ATOM     13  C   UNL A   1      32.672  24.658  26.323  1.00  0.00    -0.036 A 
ATOM     14  C   UNL A   1      30.272  24.237  26.291  1.00  0.00     0.004 A 
ATOM     15  C   UNL A   1      32.315  29.258  27.248  1.00  0.00     0.000 A 
ATOM     16  C   UNL A   1      34.256  27.871  26.683  1.00  0.00     0.004 A 
ATOM     17  C   UNL A   1      32.946  23.417  26.885  1.00  0.00     0.004 A 
ATOM     18  C   UNL A   1      30.555  22.989  26.872  1.00  0.00     0.000 A 
ATOM     19  C   UNL A   1      33.698  29.023  27.269  1.00  0.00     0.000 A 
ATOM     20  C   UNL A   1      31.874  22.570  27.128  1.00  0.00     0.000 A 
BRANCH   6  21
ATOM     21  C   UNL A   1      32.973  27.321  23.015  1.00  0.00     0.229 C 
ATOM     22  N   UNL A   1      32.234  28.334  22.410  1.00  0.00    -0.326 N 
ATOM     23  H   UNL A   1      32.592  28.685  21.562  1.00  0.00     0.169 HD
ATOM     24  O   UNL A   1      34.197  27.387  22.910  1.00  0.00    -0.274 OA
BRANCH  22  25
ATOM     25  C   UNL A   1      31.035  28.921  22.863  1.00  0.00     0.041 A 
ATOM     26  C   UNL A   1      28.744  30.466  23.276  1.00  0.00     0.060 A 
ATOM     27  C   UNL A   1      28.672  29.283  22.534  1.00  0.00     0.018 A 
ATOM     28  C   UNL A   1      29.926  30.790  23.956  1.00  0.00     0.018 A 
ATOM     29  C   UNL A   1      29.818  28.522  22.319  1.00  0.00     0.027 A 
ATOM     30  C   UNL A   1      31.065  29.973  23.796  1.00  0.00     0.027 A 
BRANCH  26  31
ATOM     31  C   UNL A   1      27.553  31.342  23.245  1.00  0.00     0.338 C 
ATOM     32  O   UNL A   1      26.906  31.609  24.251  1.00  0.00    -0.246 OA
BRANCH  31  33
ATOM     33  O   UNL A   1      27.216  31.652  21.967  1.00  0.00    -0.462 OA
BRANCH  33  34
ATOM     34  C   UNL A   1      28.188  32.448  21.260  1.00  0.00     0.230 C 
ATOM     35  C   UNL A   1      28.027  32.328  19.751  1.00  0.00     0.049 C 
ENDBRANCH  33  34
ENDBRANCH  31  33
ENDBRANCH  26  31
ENDBRANCH  22  25
ENDBRANCH   6  21
ENDBRANCH   1   5
BRANCH   3  36
ATOM     36  C   UNL A   1      35.176  22.473  24.485  1.00  0.00     0.117 C 
BRANCH  36  37
ATOM     37  C   UNL A   1      36.079  23.032  25.578  1.00  0.00     0.042 C 
BRANCH  37  38
ATOM     38  C   UNL A   1      37.410  23.495  24.994  1.00  0.00     0.118 C 
BRANCH  38  39
ATOM     39  N   UNL A   1      38.494  22.648  25.460  1.00  0.00    -0.352 N 
ATOM     40  C   UNL A   1      39.639  22.999  26.132  1.00  0.00     0.251 C 
ATOM     41  H   UNL A   1      38.394  21.688  25.269  1.00  0.00     0.163 HD
ATOM     42  O   UNL A   1      40.607  22.243  26.095  1.00  0.00    -0.269 OA
BRANCH  40  43
ATOM     43  C   UNL A   1      39.725  24.273  26.886  1.00  0.00     0.039 A 
ATOM     44  C   UNL A   1      40.422  25.345  26.322  1.00  0.00     0.014 A 
ATOM     45  C   UNL A   1      39.215  24.394  28.180  1.00  0.00     0.014 A 
ATOM     46  C   UNL A   1      40.608  26.519  27.056  1.00  0.00     0.010 A 
ATOM     47  C   UNL A   1      39.278  25.609  28.853  1.00  0.00     0.010 A 
ATOM     48  C   UNL A   1      40.031  26.664  28.328  1.00  0.00    -0.014 A 
BRANCH  48  49
ATOM     49  C   UNL A   1      40.292  27.865  29.164  1.00  0.00     0.031 A 
ATOM     50  C   UNL A   1      41.601  27.998  29.903  1.00  0.00     0.074 A 
ATOM     51  C   UNL A   1      39.354  28.824  29.276  1.00  0.00     0.049 A 
ATOM     52  N   UNL A   1      42.017  28.960  30.689  1.00  0.00    -0.248 NA
ATOM     53  C   UNL A   1      42.559  26.888  29.767  1.00  0.00     0.031 C 
ATOM     54  C   UNL A   1      38.037  28.797  28.640  1.00  0.00     0.029 A 
ATOM     55  N   UNL A   1      39.373  30.015  29.956  1.00  0.00    -0.354 N 
ATOM     56  C   UNL A   1      43.265  28.557  31.153  1.00  0.00     0.074 A 
ATOM     57  C   UNL A   1      43.504  27.233  30.626  1.00  0.00     0.031 C 
ATOM     58  C   UNL A   1      37.396  29.945  28.913  1.00  0.00     0.029 A 
ATOM     59  C   UNL A   1      38.238  30.765  29.777  1.00  0.00     0.049 A 
ATOM     60  H   UNL A   1      40.129  30.304  30.517  1.00  0.00     0.167 HD
ATOM     61  C   UNL A   1      44.151  29.238  31.919  1.00  0.00     0.037 A 
ATOM     62  C   UNL A   1      37.916  31.983  30.254  1.00  0.00     0.037 A 
ATOM     63  C   UNL A   1      43.920  30.566  32.419  1.00  0.00     0.049 A 
ATOM     64  C   UNL A   1      38.900  32.711  31.127  1.00  0.00     0.074 A 
ATOM     65  C   UNL A   1      44.769  31.373  33.156  1.00  0.00     0.029 A 
ATOM     66  N   UNL A   1      42.744  31.282  32.238  1.00  0.00    -0.354 N 
ATOM     67  N   UNL A   1      40.104  32.348  31.502  1.00  0.00    -0.248 NA
ATOM     68  C   UNL A   1      38.479  34.020  31.641  1.00  0.00     0.031 C 
ATOM     69  C   UNL A   1      44.086  32.553  33.470  1.00  0.00     0.029 A 
ATOM     70  C   UNL A   1      42.834  32.508  32.877  1.00  0.00     0.049 A 
ATOM     71  H   UNL A   1      41.963  30.966  31.730  1.00  0.00     0.167 HD
ATOM     72  C   UNL A   1      40.597  33.396  32.268  1.00  0.00     0.074 A 
ATOM     73  C   UNL A   1      39.564  34.413  32.295  1.00  0.00     0.031 C 
ATOM     74  C   UNL A   1      41.796  33.509  32.891  1.00  0.00     0.037 A 
BRANCH  61  75
ATOM     75  C   UNL A   1      45.440  28.542  32.265  1.00  0.00     0.057 A 
ATOM     76  C   UNL A   1      46.580  28.635  31.454  1.00  0.00     0.134 A 
ATOM     77  C   UNL A   1      45.538  27.754  33.419  1.00  0.00     0.134 A 
ATOM     78  F   UNL A   1      46.555  29.362  30.326  1.00  0.00    -0.206 F 
ATOM     79  C   UNL A   1      47.749  27.930  31.747  1.00  0.00     0.040 A 
ATOM     80  C   UNL A   1      46.715  27.074  33.743  1.00  0.00     0.040 A 
ATOM     81  F   UNL A   1      44.493  27.626  34.250  1.00  0.00    -0.206 F 
ATOM     82  C   UNL A   1      47.820  27.148  32.898  1.00  0.00     0.006 A 
ENDBRANCH  61  75
BRANCH  62  83
ATOM     83  C   UNL A   1      36.627  32.609  29.869  1.00  0.00     0.057 A 
ATOM     84  C   UNL A   1      35.471  32.394  30.628  1.00  0.00     0.134 A 
ATOM     85  C   UNL A   1      36.519  33.450  28.754  1.00  0.00     0.134 A 
ATOM     86  F   UNL A   1      35.507  31.586  31.699  1.00  0.00    -0.206 F 
ATOM     87  C   UNL A   1      34.251  32.980  30.286  1.00  0.00     0.040 A 
ATOM     88  C   UNL A   1      35.311  34.063  28.415  1.00  0.00     0.040 A 
ATOM     89  F   UNL A   1      37.593  33.704  27.991  1.00  0.00    -0.206 F 
ATOM     90  C   UNL A   1      34.171  33.824  29.180  1.00  0.00     0.006 A 
ENDBRANCH  62  83
BRANCH  74  91
ATOM     91  C   UNL A   1      42.071  34.791  33.624  1.00  0.00     0.057 A 
ATOM     92  C   UNL A   1      41.684  34.982  34.956  1.00  0.00     0.134 A 
ATOM     93  C   UNL A   1      42.765  35.833  32.996  1.00  0.00     0.134 A 
ATOM     94  F   UNL A   1      41.005  34.029  35.612  1.00  0.00    -0.206 F 
ATOM     95  C   UNL A   1      41.955  36.174  35.630  1.00  0.00     0.040 A 
ATOM     96  C   UNL A   1      43.070  37.017  33.669  1.00  0.00     0.040 A 
ATOM     97  F   UNL A   1      43.174  35.710  31.725  1.00  0.00    -0.206 F 
ATOM     98  C   UNL A   1      42.658  37.193  34.988  1.00  0.00     0.006 A 
ENDBRANCH  74  91
ENDBRANCH  48  49
ENDBRANCH  40  43
ENDBRANCH  38  39
ENDBRANCH  37  38
ENDBRANCH  36  37
ENDBRANCH   3  36
TORSDOF 15
ENDMDL
