MODEL 1
REMARK VINA RESULT:     -12.8      0.000      0.000
REMARK SMILES Cc1sc(NC(=O)[C@@H]2[C@@H](C(=O)NCCCNC(=O)c3ccc(-c4c5nc(c(-c6c(F)cccc6F)c6ccc([nH]6)c(-c6c(F)cccc6F)c6nc(c(-c7c(F)cccc7F)c7ccc4[nH]7)C=C6)C=C5)cc3)[C@@H]3C=C[C@H]2C3)c(C#N)c1C
REMARK SMILES IDX 13 1 12 2 10 3 11 4 9 6 8 7 76 8 73 9 75 10 77 11 74 12 6 13
REMARK SMILES IDX 5 14 7 16 4 17 1 18 2 19 3 20 81 21 78 22 82 23 79 24 80 25
REMARK SMILES IDX 14 26 15 27 16 28 17 29 18 31 19 32 20 33 72 34 21 35 71 36
REMARK SMILES IDX 22 37 23 38 24 39 65 40 25 41 70 42 64 43 66 44 26 45 69 46
REMARK SMILES IDX 63 47 62 48 27 50 53 51 36 52 52 53 37 54 40 55 51 56 67 57
REMARK SMILES IDX 38 58 39 59 50 61 68 62 41 63 28 64 29 65 34 66 30 67 31 68
REMARK SMILES IDX 33 69 35 70 32 71 54 72 55 73 60 74 56 75 57 76 59 77 61 78
REMARK SMILES IDX 58 79 42 80 43 81 48 82 44 83 45 84 47 85 49 86 46 87
REMARK H PARENT 12 5 5 15 16 30 66 49 40 60
REMARK Flexibility Score: inf
ROOT
ATOM      1  C   UNL A   1      36.789  20.903  24.888  1.00  0.00     0.117 C 
ENDROOT
BRANCH   1   2
ATOM      2  N   UNL A   1      35.915  21.055  26.042  1.00  0.00    -0.356 N 
ATOM      3  C   UNL A   1      34.586  21.388  26.034  1.00  0.00     0.224 C 
ATOM      4  O   UNL A   1      33.923  21.210  27.054  1.00  0.00    -0.275 OA
ATOM      5  H   UNL A   1      36.324  20.903  26.924  1.00  0.00     0.163 HD
BRANCH   3   6
ATOM      6  C   UNL A   1      34.013  21.960  24.744  1.00  0.00     0.098 C 
ATOM      7  C   UNL A   1      33.649  23.486  24.794  1.00  0.00     0.099 C 
ATOM      8  C   UNL A   1      32.095  23.412  24.542  1.00  0.00     0.025 C 
ATOM      9  C   UNL A   1      32.634  21.263  24.554  1.00  0.00     0.025 C 
ATOM     10  C   UNL A   1      31.829  22.851  23.149  1.00  0.00    -0.027 C 
ATOM     11  C   UNL A   1      31.705  22.180  25.346  1.00  0.00     0.017 C 
ATOM     12  C   UNL A   1      32.179  21.559  23.156  1.00  0.00    -0.027 C 
BRANCH   7  13
ATOM     13  C   UNL A   1      34.262  24.460  23.772  1.00  0.00     0.229 C 
ATOM     14  N   UNL A   1      34.122  25.807  23.696  1.00  0.00    -0.316 N 
ATOM     15  H   UNL A   1      34.681  26.193  22.983  1.00  0.00     0.170 HD
ATOM     16  O   UNL A   1      34.938  24.001  22.834  1.00  0.00    -0.274 OA
BRANCH  14  17
ATOM     17  C   UNL A   1      33.398  26.773  24.359  1.00  0.00     0.113 A 
ATOM     18  C   UNL A   1      32.792  29.574  26.995  1.00  0.00     0.057 C 
ATOM     19  C   UNL A   1      32.711  28.563  25.900  1.00  0.00     0.008 A 
ATOM     20  S   UNL A   1      33.724  27.198  25.949  1.00  0.00    -0.122 S 
ATOM     21  C   UNL A   1      31.881  28.524  24.793  1.00  0.00    -0.017 A 
ATOM     22  C   UNL A   1      32.285  27.459  23.901  1.00  0.00     0.090 A 
ATOM     23  C   UNL A   1      30.754  29.471  24.525  1.00  0.00     0.047 C 
BRANCH  22  24
ATOM     24  C   UNL A   1      31.647  27.177  22.650  1.00  0.00     0.103 C 
ATOM     25  N   UNL A   1      31.132  26.949  21.630  1.00  0.00    -0.192 NA
ENDBRANCH  22  24
ENDBRANCH  14  17
ENDBRANCH   7  13
ENDBRANCH   3   6
ENDBRANCH   1   2
BRANCH   1  26
ATOM     26  C   UNL A   1      37.839  19.817  25.018  1.00  0.00     0.042 C 
BRANCH  26  27
ATOM     27  C   UNL A   1      39.059  20.286  25.770  1.00  0.00     0.118 C 
BRANCH  27  28
ATOM     28  N   UNL A   1      40.095  19.258  25.975  1.00  0.00    -0.352 N 
ATOM     29  C   UNL A   1      41.468  19.444  26.095  1.00  0.00     0.251 C 
ATOM     30  H   UNL A   1      39.776  18.328  26.036  1.00  0.00     0.163 HD
ATOM     31  O   UNL A   1      42.260  18.517  26.021  1.00  0.00    -0.269 OA
BRANCH  29  32
ATOM     32  C   UNL A   1      41.932  20.804  26.391  1.00  0.00     0.039 A 
ATOM     33  C   UNL A   1      42.562  21.705  25.525  1.00  0.00     0.014 A 
ATOM     34  C   UNL A   1      41.733  21.192  27.691  1.00  0.00     0.014 A 
ATOM     35  C   UNL A   1      42.907  22.962  26.043  1.00  0.00     0.010 A 
ATOM     36  C   UNL A   1      41.428  22.491  27.844  1.00  0.00     0.010 A 
ATOM     37  C   UNL A   1      42.404  23.283  27.301  1.00  0.00    -0.014 A 
BRANCH  37  38
ATOM     38  C   UNL A   1      42.583  24.469  28.104  1.00  0.00     0.031 A 
ATOM     39  C   UNL A   1      41.445  25.411  27.971  1.00  0.00     0.074 A 
ATOM     40  C   UNL A   1      43.448  24.428  29.149  1.00  0.00     0.049 A 
ATOM     41  N   UNL A   1      41.412  26.487  27.257  1.00  0.00    -0.248 NA
ATOM     42  C   UNL A   1      40.106  24.985  28.438  1.00  0.00     0.031 C 
ATOM     43  C   UNL A   1      44.349  23.341  29.577  1.00  0.00     0.029 A 
ATOM     44  N   UNL A   1      43.650  25.361  30.119  1.00  0.00    -0.354 N 
ATOM     45  C   UNL A   1      40.137  27.007  27.453  1.00  0.00     0.074 A 
ATOM     46  C   UNL A   1      39.325  25.900  27.861  1.00  0.00     0.031 C 
ATOM     47  C   UNL A   1      44.839  23.597  30.814  1.00  0.00     0.029 A 
ATOM     48  C   UNL A   1      44.418  24.925  31.207  1.00  0.00     0.049 A 
ATOM     49  H   UNL A   1      43.285  26.273  30.060  1.00  0.00     0.167 HD
ATOM     50  C   UNL A   1      39.957  28.343  27.654  1.00  0.00     0.037 A 
ATOM     51  C   UNL A   1      44.650  25.644  32.338  1.00  0.00     0.037 A 
ATOM     52  C   UNL A   1      41.178  29.054  27.343  1.00  0.00     0.049 A 
ATOM     53  C   UNL A   1      44.336  27.062  32.008  1.00  0.00     0.074 A 
ATOM     54  C   UNL A   1      41.962  29.196  26.215  1.00  0.00     0.029 A 
ATOM     55  N   UNL A   1      41.985  29.376  28.410  1.00  0.00    -0.354 N 
ATOM     56  N   UNL A   1      45.016  27.753  31.131  1.00  0.00    -0.248 NA
ATOM     57  C   UNL A   1      42.961  27.495  32.215  1.00  0.00     0.031 C 
ATOM     58  C   UNL A   1      43.306  29.135  26.691  1.00  0.00     0.029 A 
ATOM     59  C   UNL A   1      43.282  29.075  28.086  1.00  0.00     0.049 A 
ATOM     60  H   UNL A   1      41.681  29.760  29.264  1.00  0.00     0.167 HD
ATOM     61  C   UNL A   1      44.055  28.409  30.370  1.00  0.00     0.074 A 
ATOM     62  C   UNL A   1      42.806  28.244  31.117  1.00  0.00     0.031 C 
ATOM     63  C   UNL A   1      44.294  28.732  29.062  1.00  0.00     0.037 A 
BRANCH  50  64
ATOM     64  C   UNL A   1      38.895  28.959  28.543  1.00  0.00     0.057 A 
ATOM     65  C   UNL A   1      38.869  28.579  29.897  1.00  0.00     0.134 A 
ATOM     66  C   UNL A   1      37.750  29.657  28.104  1.00  0.00     0.134 A 
ATOM     67  F   UNL A   1      39.905  27.930  30.449  1.00  0.00    -0.206 F 
ATOM     68  C   UNL A   1      37.749  28.775  30.715  1.00  0.00     0.040 A 
ATOM     69  C   UNL A   1      36.645  29.898  28.926  1.00  0.00     0.040 A 
ATOM     70  F   UNL A   1      37.579  30.072  26.845  1.00  0.00    -0.206 F 
ATOM     71  C   UNL A   1      36.624  29.422  30.224  1.00  0.00     0.006 A 
ENDBRANCH  50  64
BRANCH  51  72
ATOM     72  C   UNL A   1      44.769  25.163  33.736  1.00  0.00     0.057 A 
ATOM     73  C   UNL A   1      43.652  24.776  34.492  1.00  0.00     0.134 A 
ATOM     74  C   UNL A   1      46.021  24.800  34.265  1.00  0.00     0.134 A 
ATOM     75  F   UNL A   1      42.411  25.024  34.045  1.00  0.00    -0.206 F 
ATOM     76  C   UNL A   1      43.772  24.070  35.700  1.00  0.00     0.040 A 
ATOM     77  C   UNL A   1      46.156  24.095  35.467  1.00  0.00     0.040 A 
ATOM     78  F   UNL A   1      47.149  25.038  33.579  1.00  0.00    -0.206 F 
ATOM     79  C   UNL A   1      45.028  23.719  36.187  1.00  0.00     0.006 A 
ENDBRANCH  51  72
BRANCH  63  80
ATOM     80  C   UNL A   1      45.698  28.543  28.542  1.00  0.00     0.057 A 
ATOM     81  C   UNL A   1      46.145  27.418  27.827  1.00  0.00     0.134 A 
ATOM     82  C   UNL A   1      46.591  29.612  28.636  1.00  0.00     0.134 A 
ATOM     83  F   UNL A   1      45.335  26.382  27.593  1.00  0.00    -0.206 F 
ATOM     84  C   UNL A   1      47.427  27.345  27.271  1.00  0.00     0.040 A 
ATOM     85  C   UNL A   1      47.865  29.566  28.062  1.00  0.00     0.040 A 
ATOM     86  F   UNL A   1      46.217  30.746  29.247  1.00  0.00    -0.206 F 
ATOM     87  C   UNL A   1      48.292  28.426  27.386  1.00  0.00     0.006 A 
ENDBRANCH  63  80
ENDBRANCH  37  38
ENDBRANCH  29  32
ENDBRANCH  27  28
ENDBRANCH  26  27
ENDBRANCH   1  26
TORSDOF 13
ENDMDL
MODEL 2
REMARK VINA RESULT:     -12.7      1.419      2.069
REMARK SMILES Cc1sc(NC(=O)[C@@H]2[C@@H](C(=O)NCCCNC(=O)c3ccc(-c4c5nc(c(-c6c(F)cccc6F)c6ccc([nH]6)c(-c6c(F)cccc6F)c6nc(c(-c7c(F)cccc7F)c7ccc4[nH]7)C=C6)C=C5)cc3)[C@@H]3C=C[C@H]2C3)c(C#N)c1C
REMARK SMILES IDX 13 1 12 2 10 3 11 4 9 6 8 7 76 8 73 9 75 10 77 11 74 12 6 13
REMARK SMILES IDX 5 14 7 16 4 17 1 18 2 19 3 20 81 21 78 22 82 23 79 24 80 25
REMARK SMILES IDX 14 26 15 27 16 28 17 29 18 31 19 32 20 33 72 34 21 35 71 36
REMARK SMILES IDX 22 37 23 38 24 39 65 40 25 41 70 42 64 43 66 44 26 45 69 46
REMARK SMILES IDX 63 47 62 48 27 50 53 51 36 52 52 53 37 54 40 55 51 56 67 57
REMARK SMILES IDX 38 58 39 59 50 61 68 62 41 63 28 64 29 65 34 66 30 67 31 68
REMARK SMILES IDX 33 69 35 70 32 71 54 72 55 73 60 74 56 75 57 76 59 77 61 78
REMARK SMILES IDX 58 79 42 80 43 81 48 82 44 83 45 84 47 85 49 86 46 87
REMARK H PARENT 12 5 5 15 16 30 66 49 40 60
REMARK Flexibility Score: inf
ROOT
ATOM      1  C   UNL A   1      37.018  20.830  24.616  1.00  0.00     0.117 C 
ENDROOT
BRANCH   1   2
ATOM      2  N   UNL A   1      35.998  21.182  25.594  1.00  0.00    -0.356 N 
ATOM      3  C   UNL A   1      34.702  20.738  25.633  1.00  0.00     0.224 C 
ATOM      4  O   UNL A   1      34.049  20.901  26.661  1.00  0.00    -0.275 OA
ATOM      5  H   UNL A   1      36.269  21.807  26.304  1.00  0.00     0.163 HD
BRANCH   3   6
ATOM      6  C   UNL A   1      34.155  20.058  24.384  1.00  0.00     0.098 C 
ATOM      7  C   UNL A   1      32.626  20.289  24.114  1.00  0.00     0.099 C 
ATOM      8  C   UNL A   1      32.097  18.808  24.212  1.00  0.00     0.025 C 
ATOM      9  C   UNL A   1      34.249  18.530  24.664  1.00  0.00     0.025 C 
ATOM     10  C   UNL A   1      32.710  17.971  23.093  1.00  0.00    -0.027 C 
ATOM     11  C   UNL A   1      32.922  18.256  25.367  1.00  0.00     0.017 C 
ATOM     12  C   UNL A   1      34.014  17.828  23.360  1.00  0.00    -0.027 C 
BRANCH   7  13
ATOM     13  C   UNL A   1      32.159  20.885  22.775  1.00  0.00     0.229 C 
ATOM     14  N   UNL A   1      31.977  22.188  22.445  1.00  0.00    -0.316 N 
ATOM     15  H   UNL A   1      31.739  22.295  21.496  1.00  0.00     0.170 HD
ATOM     16  O   UNL A   1      31.835  20.115  21.854  1.00  0.00    -0.274 OA
BRANCH  14  17
ATOM     17  C   UNL A   1      32.041  23.400  23.096  1.00  0.00     0.113 A 
ATOM     18  C   UNL A   1      30.726  26.310  25.324  1.00  0.00     0.057 C 
ATOM     19  C   UNL A   1      31.502  25.381  24.451  1.00  0.00     0.008 A 
ATOM     20  S   UNL A   1      30.670  24.310  23.425  1.00  0.00    -0.122 S 
ATOM     21  C   UNL A   1      32.872  25.249  24.300  1.00  0.00    -0.017 A 
ATOM     22  C   UNL A   1      33.177  24.089  23.489  1.00  0.00     0.090 A 
ATOM     23  C   UNL A   1      33.900  26.143  24.918  1.00  0.00     0.047 C 
BRANCH  22  24
ATOM     24  C   UNL A   1      34.506  23.660  23.175  1.00  0.00     0.103 C 
ATOM     25  N   UNL A   1      35.588  23.308  22.923  1.00  0.00    -0.192 NA
ENDBRANCH  22  24
ENDBRANCH  14  17
ENDBRANCH   7  13
ENDBRANCH   3   6
ENDBRANCH   1   2
BRANCH   1  26
ATOM     26  C   UNL A   1      37.932  19.692  25.025  1.00  0.00     0.042 C 
BRANCH  26  27
ATOM     27  C   UNL A   1      39.144  20.174  25.782  1.00  0.00     0.118 C 
BRANCH  27  28
ATOM     28  N   UNL A   1      40.209  19.170  25.952  1.00  0.00    -0.352 N 
ATOM     29  C   UNL A   1      41.579  19.390  26.046  1.00  0.00     0.251 C 
ATOM     30  H   UNL A   1      39.916  18.232  26.005  1.00  0.00     0.163 HD
ATOM     31  O   UNL A   1      42.394  18.485  25.943  1.00  0.00    -0.269 OA
BRANCH  29  32
ATOM     32  C   UNL A   1      42.015  20.757  26.353  1.00  0.00     0.039 A 
ATOM     33  C   UNL A   1      42.583  21.694  25.483  1.00  0.00     0.014 A 
ATOM     34  C   UNL A   1      41.855  21.113  27.668  1.00  0.00     0.014 A 
ATOM     35  C   UNL A   1      42.911  22.950  26.014  1.00  0.00     0.010 A 
ATOM     36  C   UNL A   1      41.519  22.398  27.861  1.00  0.00     0.010 A 
ATOM     37  C   UNL A   1      42.448  23.231  27.297  1.00  0.00    -0.014 A 
BRANCH  37  38
ATOM     38  C   UNL A   1      42.624  24.404  28.118  1.00  0.00     0.031 A 
ATOM     39  C   UNL A   1      41.502  25.363  27.971  1.00  0.00     0.074 A 
ATOM     40  C   UNL A   1      43.464  24.340  29.183  1.00  0.00     0.049 A 
ATOM     41  N   UNL A   1      41.499  26.447  27.268  1.00  0.00    -0.248 NA
ATOM     42  C   UNL A   1      40.147  24.949  28.401  1.00  0.00     0.031 C 
ATOM     43  C   UNL A   1      44.341  23.237  29.618  1.00  0.00     0.029 A 
ATOM     44  N   UNL A   1      43.655  25.259  30.168  1.00  0.00    -0.354 N 
ATOM     45  C   UNL A   1      40.227  26.982  27.441  1.00  0.00     0.074 A 
ATOM     46  C   UNL A   1      39.391  25.881  27.817  1.00  0.00     0.031 C 
ATOM     47  C   UNL A   1      44.804  23.472  30.869  1.00  0.00     0.029 A 
ATOM     48  C   UNL A   1      44.391  24.801  31.268  1.00  0.00     0.049 A 
ATOM     49  H   UNL A   1      43.303  26.177  30.111  1.00  0.00     0.167 HD
ATOM     50  C   UNL A   1      40.059  28.318  27.653  1.00  0.00     0.037 A 
ATOM     51  C   UNL A   1      44.607  25.503  32.413  1.00  0.00     0.037 A 
ATOM     52  C   UNL A   1      41.296  29.016  27.379  1.00  0.00     0.049 A 
ATOM     53  C   UNL A   1      44.319  26.929  32.092  1.00  0.00     0.074 A 
ATOM     54  C   UNL A   1      42.108  29.161  26.271  1.00  0.00     0.029 A 
ATOM     55  N   UNL A   1      42.083  29.315  28.468  1.00  0.00    -0.354 N 
ATOM     56  N   UNL A   1      45.028  27.621  31.239  1.00  0.00    -0.248 NA
ATOM     57  C   UNL A   1      42.945  27.378  32.272  1.00  0.00     0.031 C 
ATOM     58  C   UNL A   1      43.440  29.076  26.778  1.00  0.00     0.029 A 
ATOM     59  C   UNL A   1      43.383  29.001  28.171  1.00  0.00     0.049 A 
ATOM     60  H   UNL A   1      41.764  29.693  29.319  1.00  0.00     0.167 HD
ATOM     61  C   UNL A   1      44.094  28.299  30.464  1.00  0.00     0.074 A 
ATOM     62  C   UNL A   1      42.825  28.142  31.180  1.00  0.00     0.031 C 
ATOM     63  C   UNL A   1      44.367  28.633  29.166  1.00  0.00     0.037 A 
BRANCH  50  64
ATOM     64  C   UNL A   1      38.984  28.938  28.524  1.00  0.00     0.057 A 
ATOM     65  C   UNL A   1      38.923  28.542  29.873  1.00  0.00     0.134 A 
ATOM     66  C   UNL A   1      37.859  29.656  28.067  1.00  0.00     0.134 A 
ATOM     67  F   UNL A   1      39.936  27.873  30.441  1.00  0.00    -0.206 F 
ATOM     68  C   UNL A   1      37.787  28.743  30.667  1.00  0.00     0.040 A 
ATOM     69  C   UNL A   1      36.739  29.902  28.866  1.00  0.00     0.040 A 
ATOM     70  F   UNL A   1      37.723  30.087  26.810  1.00  0.00    -0.206 F 
ATOM     71  C   UNL A   1      36.681  29.411  30.157  1.00  0.00     0.006 A 
ENDBRANCH  50  64
BRANCH  51  72
ATOM     72  C   UNL A   1      44.687  25.005  33.808  1.00  0.00     0.057 A 
ATOM     73  C   UNL A   1      43.916  23.924  34.261  1.00  0.00     0.134 A 
ATOM     74  C   UNL A   1      45.740  25.401  34.651  1.00  0.00     0.134 A 
ATOM     75  F   UNL A   1      42.924  23.432  33.503  1.00  0.00    -0.206 F 
ATOM     76  C   UNL A   1      44.177  23.275  35.479  1.00  0.00     0.040 A 
ATOM     77  C   UNL A   1      46.013  24.764  35.867  1.00  0.00     0.040 A 
ATOM     78  F   UNL A   1      46.596  26.363  34.271  1.00  0.00    -0.206 F 
ATOM     79  C   UNL A   1      45.236  23.690  36.283  1.00  0.00     0.006 A 
ENDBRANCH  51  72
BRANCH  63  80
ATOM     80  C   UNL A   1      45.780  28.432  28.676  1.00  0.00     0.057 A 
ATOM     81  C   UNL A   1      46.228  27.311  27.956  1.00  0.00     0.134 A 
ATOM     82  C   UNL A   1      46.685  29.487  28.807  1.00  0.00     0.134 A 
ATOM     83  F   UNL A   1      45.410  26.290  27.688  1.00  0.00    -0.206 F 
ATOM     84  C   UNL A   1      47.522  27.228  27.430  1.00  0.00     0.040 A 
ATOM     85  C   UNL A   1      47.971  29.431  28.262  1.00  0.00     0.040 A 
ATOM     86  F   UNL A   1      46.313  30.617  29.426  1.00  0.00    -0.206 F 
ATOM     87  C   UNL A   1      48.399  28.295  27.580  1.00  0.00     0.006 A 
ENDBRANCH  63  80
ENDBRANCH  37  38
ENDBRANCH  29  32
ENDBRANCH  27  28
ENDBRANCH  26  27
ENDBRANCH   1  26
TORSDOF 13
ENDMDL
MODEL 3
REMARK VINA RESULT:     -12.1      2.894      6.589
REMARK SMILES Cc1sc(NC(=O)[C@@H]2[C@@H](C(=O)NCCCNC(=O)c3ccc(-c4c5nc(c(-c6c(F)cccc6F)c6ccc([nH]6)c(-c6c(F)cccc6F)c6nc(c(-c7c(F)cccc7F)c7ccc4[nH]7)C=C6)C=C5)cc3)[C@@H]3C=C[C@H]2C3)c(C#N)c1C
REMARK SMILES IDX 13 1 12 2 10 3 11 4 9 6 8 7 76 8 73 9 75 10 77 11 74 12 6 13
REMARK SMILES IDX 5 14 7 16 4 17 1 18 2 19 3 20 81 21 78 22 82 23 79 24 80 25
REMARK SMILES IDX 14 26 15 27 16 28 17 29 18 31 19 32 20 33 72 34 21 35 71 36
REMARK SMILES IDX 22 37 23 38 24 39 65 40 25 41 70 42 64 43 66 44 26 45 69 46
REMARK SMILES IDX 63 47 62 48 27 50 53 51 36 52 52 53 37 54 40 55 51 56 67 57
REMARK SMILES IDX 38 58 39 59 50 61 68 62 41 63 28 64 29 65 34 66 30 67 31 68
REMARK SMILES IDX 33 69 35 70 32 71 54 72 55 73 60 74 56 75 57 76 59 77 61 78
REMARK SMILES IDX 58 79 42 80 43 81 48 82 44 83 45 84 47 85 49 86 46 87
REMARK H PARENT 12 5 5 15 16 30 66 49 40 60
REMARK Flexibility Score: inf
ROOT
ATOM      1  C   UNL A   1      35.545  22.621  26.157  1.00  0.00     0.117 C 
ENDROOT
BRANCH   1   2
ATOM      2  N   UNL A   1      34.550  22.616  27.220  1.00  0.00    -0.356 N 
ATOM      3  C   UNL A   1      33.213  22.896  27.103  1.00  0.00     0.224 C 
ATOM      4  O   UNL A   1      32.459  22.585  28.022  1.00  0.00    -0.275 OA
ATOM      5  H   UNL A   1      34.873  22.388  28.121  1.00  0.00     0.163 HD
BRANCH   3   6
ATOM      6  C   UNL A   1      32.748  23.577  25.822  1.00  0.00     0.098 C 
ATOM      7  C   UNL A   1      32.743  25.146  25.865  1.00  0.00     0.099 C 
ATOM      8  C   UNL A   1      31.206  25.427  25.656  1.00  0.00     0.025 C 
ATOM      9  C   UNL A   1      31.243  23.212  25.677  1.00  0.00     0.025 C 
ATOM     10  C   UNL A   1      30.779  24.935  24.277  1.00  0.00    -0.027 C 
ATOM     11  C   UNL A   1      30.569  24.319  26.483  1.00  0.00     0.017 C 
ATOM     12  C   UNL A   1      30.827  23.597  24.289  1.00  0.00    -0.027 C 
BRANCH   7  13
ATOM     13  C   UNL A   1      33.532  25.951  24.816  1.00  0.00     0.229 C 
ATOM     14  N   UNL A   1      33.783  27.283  24.784  1.00  0.00    -0.316 N 
ATOM     15  H   UNL A   1      34.373  27.525  24.035  1.00  0.00     0.170 HD
ATOM     16  O   UNL A   1      33.971  25.362  23.813  1.00  0.00    -0.274 OA
BRANCH  14  17
ATOM     17  C   UNL A   1      33.424  28.384  25.530  1.00  0.00     0.113 A 
ATOM     18  C   UNL A   1      34.019  31.424  27.889  1.00  0.00     0.057 C 
ATOM     19  C   UNL A   1      33.476  30.357  26.998  1.00  0.00     0.008 A 
ATOM     20  S   UNL A   1      34.300  28.874  26.875  1.00  0.00    -0.122 S 
ATOM     21  C   UNL A   1      32.327  30.350  26.226  1.00  0.00    -0.017 A 
ATOM     22  C   UNL A   1      32.299  29.178  25.378  1.00  0.00     0.090 A 
ATOM     23  C   UNL A   1      31.279  31.419  26.227  1.00  0.00     0.047 C 
BRANCH  22  24
ATOM     24  C   UNL A   1      31.258  28.896  24.436  1.00  0.00     0.103 C 
ATOM     25  N   UNL A   1      30.408  28.667  23.673  1.00  0.00    -0.192 NA
ENDBRANCH  22  24
ENDBRANCH  14  17
ENDBRANCH   7  13
ENDBRANCH   3   6
ENDBRANCH   1   2
BRANCH   1  26
ATOM     26  C   UNL A   1      36.420  23.858  26.104  1.00  0.00     0.042 C 
BRANCH  26  27
ATOM     27  C   UNL A   1      37.784  23.571  25.530  1.00  0.00     0.118 C 
BRANCH  27  28
ATOM     28  N   UNL A   1      38.617  22.660  26.334  1.00  0.00    -0.352 N 
ATOM     29  C   UNL A   1      39.834  22.936  26.948  1.00  0.00     0.251 C 
ATOM     30  H   UNL A   1      38.269  21.746  26.452  1.00  0.00     0.163 HD
ATOM     31  O   UNL A   1      40.558  22.055  27.386  1.00  0.00    -0.269 OA
BRANCH  29  32
ATOM     32  C   UNL A   1      40.187  24.350  27.120  1.00  0.00     0.039 A 
ATOM     33  C   UNL A   1      40.439  25.300  26.125  1.00  0.00     0.014 A 
ATOM     34  C   UNL A   1      40.302  24.742  28.430  1.00  0.00     0.014 A 
ATOM     35  C   UNL A   1      40.751  26.602  26.542  1.00  0.00     0.010 A 
ATOM     36  C   UNL A   1      39.890  25.996  28.674  1.00  0.00     0.010 A 
ATOM     37  C   UNL A   1      40.573  26.890  27.893  1.00  0.00    -0.014 A 
BRANCH  37  38
ATOM     38  C   UNL A   1      40.814  28.107  28.629  1.00  0.00     0.031 A 
ATOM     39  C   UNL A   1      41.978  28.859  28.101  1.00  0.00     0.074 A 
ATOM     40  C   UNL A   1      39.803  28.641  29.361  1.00  0.00     0.049 A 
ATOM     41  N   UNL A   1      43.168  28.892  28.601  1.00  0.00    -0.248 NA
ATOM     42  C   UNL A   1      41.913  29.400  26.724  1.00  0.00     0.031 C 
ATOM     43  C   UNL A   1      38.448  28.114  29.612  1.00  0.00     0.029 A 
ATOM     44  N   UNL A   1      39.759  29.846  29.993  1.00  0.00    -0.354 N 
ATOM     45  C   UNL A   1      43.893  29.715  27.746  1.00  0.00     0.074 A 
ATOM     46  C   UNL A   1      43.197  29.681  26.493  1.00  0.00     0.031 C 
ATOM     47  C   UNL A   1      37.665  29.073  30.162  1.00  0.00     0.029 A 
ATOM     48  C   UNL A   1      38.490  30.229  30.446  1.00  0.00     0.049 A 
ATOM     49  H   UNL A   1      40.559  30.405  30.123  1.00  0.00     0.167 HD
ATOM     50  C   UNL A   1      44.749  30.651  28.244  1.00  0.00     0.037 A 
ATOM     51  C   UNL A   1      38.188  31.434  30.999  1.00  0.00     0.037 A 
ATOM     52  C   UNL A   1      44.957  30.422  29.657  1.00  0.00     0.049 A 
ATOM     53  C   UNL A   1      39.481  32.039  31.422  1.00  0.00     0.074 A 
ATOM     54  C   UNL A   1      45.452  29.377  30.412  1.00  0.00     0.029 A 
ATOM     55  N   UNL A   1      44.202  31.187  30.517  1.00  0.00    -0.354 N 
ATOM     56  N   UNL A   1      40.236  31.521  32.355  1.00  0.00    -0.248 NA
ATOM     57  C   UNL A   1      40.179  32.854  30.437  1.00  0.00     0.031 C 
ATOM     58  C   UNL A   1      44.595  29.309  31.552  1.00  0.00     0.029 A 
ATOM     59  C   UNL A   1      43.697  30.377  31.500  1.00  0.00     0.049 A 
ATOM     60  H   UNL A   1      44.050  32.157  30.438  1.00  0.00     0.167 HD
ATOM     61  C   UNL A   1      41.526  31.572  31.842  1.00  0.00     0.074 A 
ATOM     62  C   UNL A   1      41.432  32.447  30.671  1.00  0.00     0.031 C 
ATOM     63  C   UNL A   1      42.467  30.649  32.211  1.00  0.00     0.037 A 
BRANCH  50  64
ATOM     64  C   UNL A   1      45.027  32.004  27.619  1.00  0.00     0.057 A 
ATOM     65  C   UNL A   1      46.292  32.213  27.039  1.00  0.00     0.134 A 
ATOM     66  C   UNL A   1      44.261  33.175  27.802  1.00  0.00     0.134 A 
ATOM     67  F   UNL A   1      47.112  31.182  26.789  1.00  0.00    -0.206 F 
ATOM     68  C   UNL A   1      46.798  33.490  26.771  1.00  0.00     0.040 A 
ATOM     69  C   UNL A   1      44.740  34.452  27.495  1.00  0.00     0.040 A 
ATOM     70  F   UNL A   1      43.050  33.180  28.364  1.00  0.00    -0.206 F 
ATOM     71  C   UNL A   1      46.026  34.618  27.016  1.00  0.00     0.006 A 
ENDBRANCH  50  64
BRANCH  51  72
ATOM     72  C   UNL A   1      36.945  32.234  30.864  1.00  0.00     0.057 A 
ATOM     73  C   UNL A   1      36.061  32.428  31.936  1.00  0.00     0.134 A 
ATOM     74  C   UNL A   1      36.746  33.065  29.747  1.00  0.00     0.134 A 
ATOM     75  F   UNL A   1      36.203  31.725  33.069  1.00  0.00    -0.206 F 
ATOM     76  C   UNL A   1      35.041  33.393  31.899  1.00  0.00     0.040 A 
ATOM     77  C   UNL A   1      35.735  34.031  29.698  1.00  0.00     0.040 A 
ATOM     78  F   UNL A   1      37.592  33.027  28.706  1.00  0.00    -0.206 F 
ATOM     79  C   UNL A   1      34.881  34.205  30.780  1.00  0.00     0.006 A 
ENDBRANCH  51  72
BRANCH  63  80
ATOM     80  C   UNL A   1      42.120  29.712  33.342  1.00  0.00     0.057 A 
ATOM     81  C   UNL A   1      41.640  28.401  33.181  1.00  0.00     0.134 A 
ATOM     82  C   UNL A   1      42.430  30.102  34.647  1.00  0.00     0.134 A 
ATOM     83  F   UNL A   1      41.408  27.894  31.967  1.00  0.00    -0.206 F 
ATOM     84  C   UNL A   1      41.441  27.538  34.265  1.00  0.00     0.040 A 
ATOM     85  C   UNL A   1      42.263  29.243  35.736  1.00  0.00     0.040 A 
ATOM     86  F   UNL A   1      42.952  31.317  34.877  1.00  0.00    -0.206 F 
ATOM     87  C   UNL A   1      41.757  27.960  35.550  1.00  0.00     0.006 A 
ENDBRANCH  63  80
ENDBRANCH  37  38
ENDBRANCH  29  32
ENDBRANCH  27  28
ENDBRANCH  26  27
ENDBRANCH   1  26
TORSDOF 13
ENDMDL
