MODEL 1
REMARK VINA RESULT:     -11.7      0.000      0.000
REMARK SMILES CCOC(=O)c1ccc(-c2cc(F)cc(C(=O)NCCCNC(=O)c3ccc(-c4c5nc(c(-c6c(F)cccc6F)c6ccc([nH]6)c(-c6c(F)cccc6F)c6nc(c(-c7c(F)cccc7F)c7ccc4[nH]7)C=C6)C=C5)cc3)c2)cc1
REMARK SMILES IDX 19 1 18 2 16 3 17 4 15 6 10 7 11 8 79 9 12 10 13 11 14 12
REMARK SMILES IDX 9 13 6 14 7 15 81 16 8 17 80 18 4 19 5 20 3 21 2 22 1 23
REMARK SMILES IDX 20 24 21 25 22 26 23 27 24 29 25 30 26 31 78 32 27 33 77 34
REMARK SMILES IDX 28 35 29 36 30 37 71 38 31 39 76 40 70 41 72 42 32 43 75 44
REMARK SMILES IDX 69 45 68 46 33 48 59 49 42 50 58 51 43 52 46 53 57 54 73 55
REMARK SMILES IDX 44 56 45 57 56 59 74 60 47 61 34 62 35 63 40 64 36 65 37 66
REMARK SMILES IDX 39 67 41 68 38 69 60 70 61 71 66 72 62 73 63 74 65 75 67 76
REMARK SMILES IDX 64 77 48 78 49 79 54 80 50 81 51 82 53 83 55 84 52 85
REMARK H PARENT 18 5 22 28 72 47 46 58
REMARK Flexibility Score: inf
ROOT
ATOM      1  C   UNL A   1      31.608  30.481  26.988  1.00  0.00     0.118 C 
ENDROOT
BRANCH   1   2
ATOM      2  N   UNL A   1      32.987  30.168  27.350  1.00  0.00    -0.352 N 
ATOM      3  C   UNL A   1      33.954  29.333  26.841  1.00  0.00     0.251 C 
ATOM      4  O   UNL A   1      35.037  29.307  27.428  1.00  0.00    -0.269 OA
ATOM      5  H   UNL A   1      33.294  30.670  28.139  1.00  0.00     0.163 HD
BRANCH   3   6
ATOM      6  C   UNL A   1      33.756  28.426  25.678  1.00  0.00     0.043 A 
ATOM      7  C   UNL A   1      33.897  26.228  24.608  1.00  0.00    -0.015 A 
ATOM      8  C   UNL A   1      33.641  26.833  23.372  1.00  0.00     0.048 A 
ATOM      9  C   UNL A   1      33.823  27.035  25.759  1.00  0.00     0.022 A 
ATOM     10  C   UNL A   1      33.421  28.205  23.300  1.00  0.00     0.124 A 
ATOM     11  F   UNL A   1      33.184  28.767  22.107  1.00  0.00    -0.207 F 
ATOM     12  C   UNL A   1      33.513  29.008  24.429  1.00  0.00     0.053 A 
BRANCH   7  13
ATOM     13  C   UNL A   1      34.438  24.857  24.722  1.00  0.00    -0.018 A 
ATOM     14  C   UNL A   1      34.966  22.090  24.952  1.00  0.00     0.060 A 
ATOM     15  C   UNL A   1      34.667  22.841  26.088  1.00  0.00     0.016 A 
ATOM     16  C   UNL A   1      35.054  22.719  23.705  1.00  0.00     0.016 A 
ATOM     17  C   UNL A   1      34.416  24.209  25.974  1.00  0.00     0.009 A 
ATOM     18  C   UNL A   1      34.794  24.092  23.597  1.00  0.00     0.009 A 
BRANCH  14  19
ATOM     19  C   UNL A   1      35.087  20.623  25.099  1.00  0.00     0.338 C 
ATOM     20  O   UNL A   1      36.142  20.024  24.963  1.00  0.00    -0.246 OA
BRANCH  19  21
ATOM     21  O   UNL A   1      33.876  20.080  25.366  1.00  0.00    -0.462 OA
BRANCH  21  22
ATOM     22  C   UNL A   1      33.572  18.876  24.646  1.00  0.00     0.230 C 
ATOM     23  C   UNL A   1      32.677  17.954  25.459  1.00  0.00     0.049 C 
ENDBRANCH  21  22
ENDBRANCH  19  21
ENDBRANCH  14  19
ENDBRANCH   7  13
ENDBRANCH   3   6
ENDBRANCH   1   2
BRANCH   1  24
ATOM     24  C   UNL A   1      31.319  31.969  26.853  1.00  0.00     0.042 C 
BRANCH  24  25
ATOM     25  C   UNL A   1      32.552  32.854  26.742  1.00  0.00     0.118 C 
BRANCH  25  26
ATOM     26  N   UNL A   1      32.466  34.059  27.558  1.00  0.00    -0.352 N 
ATOM     27  C   UNL A   1      33.174  34.474  28.661  1.00  0.00     0.251 C 
ATOM     28  H   UNL A   1      31.773  34.694  27.265  1.00  0.00     0.163 HD
ATOM     29  O   UNL A   1      32.777  35.453  29.288  1.00  0.00    -0.269 OA
BRANCH  27  30
ATOM     30  C   UNL A   1      34.381  33.755  29.129  1.00  0.00     0.039 A 
ATOM     31  C   UNL A   1      35.640  34.309  28.865  1.00  0.00     0.014 A 
ATOM     32  C   UNL A   1      34.297  32.523  29.779  1.00  0.00     0.014 A 
ATOM     33  C   UNL A   1      36.797  33.678  29.334  1.00  0.00     0.010 A 
ATOM     34  C   UNL A   1      35.440  31.942  30.324  1.00  0.00     0.010 A 
ATOM     35  C   UNL A   1      36.702  32.516  30.115  1.00  0.00    -0.014 A 
BRANCH  35  36
ATOM     36  C   UNL A   1      37.895  31.897  30.746  1.00  0.00     0.031 A 
ATOM     37  C   UNL A   1      38.668  30.824  30.029  1.00  0.00     0.074 A 
ATOM     38  C   UNL A   1      38.224  32.228  32.009  1.00  0.00     0.049 A 
ATOM     39  N   UNL A   1      39.650  30.078  30.467  1.00  0.00    -0.248 NA
ATOM     40  C   UNL A   1      38.260  30.531  28.646  1.00  0.00     0.031 C 
ATOM     41  C   UNL A   1      37.532  33.223  32.831  1.00  0.00     0.029 A 
ATOM     42  N   UNL A   1      39.216  31.751  32.830  1.00  0.00    -0.354 N 
ATOM     43  C   UNL A   1      39.959  29.212  29.427  1.00  0.00     0.074 A 
ATOM     44  C   UNL A   1      39.032  29.495  28.353  1.00  0.00     0.031 C 
ATOM     45  C   UNL A   1      38.136  33.302  34.027  1.00  0.00     0.029 A 
ATOM     46  C   UNL A   1      39.225  32.333  34.075  1.00  0.00     0.049 A 
ATOM     47  H   UNL A   1      39.858  31.059  32.553  1.00  0.00     0.167 HD
ATOM     48  C   UNL A   1      40.939  28.276  29.365  1.00  0.00     0.037 A 
ATOM     49  C   UNL A   1      40.013  32.102  35.140  1.00  0.00     0.037 A 
ATOM     50  C   UNL A   1      41.881  28.018  30.421  1.00  0.00     0.049 A 
ATOM     51  C   UNL A   1      41.077  31.047  35.057  1.00  0.00     0.074 A 
ATOM     52  C   UNL A   1      42.962  27.153  30.423  1.00  0.00     0.029 A 
ATOM     53  N   UNL A   1      41.851  28.622  31.670  1.00  0.00    -0.354 N 
ATOM     54  N   UNL A   1      41.396  30.275  34.047  1.00  0.00    -0.248 NA
ATOM     55  C   UNL A   1      41.884  30.824  36.266  1.00  0.00     0.031 C 
ATOM     56  C   UNL A   1      43.563  27.204  31.686  1.00  0.00     0.029 A 
ATOM     57  C   UNL A   1      42.877  28.128  32.460  1.00  0.00     0.049 A 
ATOM     58  H   UNL A   1      41.198  29.301  31.953  1.00  0.00     0.167 HD
ATOM     59  C   UNL A   1      42.450  29.487  34.490  1.00  0.00     0.074 A 
ATOM     60  C   UNL A   1      42.724  29.882  35.857  1.00  0.00     0.031 C 
ATOM     61  C   UNL A   1      43.130  28.523  33.822  1.00  0.00     0.037 A 
BRANCH  48  62
ATOM     62  C   UNL A   1      41.031  27.464  28.106  1.00  0.00     0.057 A 
ATOM     63  C   UNL A   1      41.804  27.879  27.013  1.00  0.00     0.134 A 
ATOM     64  C   UNL A   1      40.344  26.249  27.988  1.00  0.00     0.134 A 
ATOM     65  F   UNL A   1      42.476  29.039  27.058  1.00  0.00    -0.206 F 
ATOM     66  C   UNL A   1      41.859  27.135  25.834  1.00  0.00     0.040 A 
ATOM     67  C   UNL A   1      40.413  25.483  26.823  1.00  0.00     0.040 A 
ATOM     68  F   UNL A   1      39.592  25.789  28.998  1.00  0.00    -0.206 F 
ATOM     69  C   UNL A   1      41.165  25.931  25.738  1.00  0.00     0.006 A 
ENDBRANCH  48  62
BRANCH  49  70
ATOM     70  C   UNL A   1      39.839  32.912  36.371  1.00  0.00     0.057 A 
ATOM     71  C   UNL A   1      38.913  32.532  37.348  1.00  0.00     0.134 A 
ATOM     72  C   UNL A   1      40.606  34.057  36.613  1.00  0.00     0.134 A 
ATOM     73  F   UNL A   1      38.138  31.454  37.160  1.00  0.00    -0.206 F 
ATOM     74  C   UNL A   1      38.752  33.264  38.525  1.00  0.00     0.040 A 
ATOM     75  C   UNL A   1      40.470  34.787  37.795  1.00  0.00     0.040 A 
ATOM     76  F   UNL A   1      41.514  34.467  35.716  1.00  0.00    -0.206 F 
ATOM     77  C   UNL A   1      39.539  34.392  38.754  1.00  0.00     0.006 A 
ENDBRANCH  49  70
BRANCH  61  78
ATOM     78  C   UNL A   1      44.242  27.839  34.558  1.00  0.00     0.057 A 
ATOM     79  C   UNL A   1      44.032  26.642  35.254  1.00  0.00     0.134 A 
ATOM     80  C   UNL A   1      45.540  28.362  34.540  1.00  0.00     0.134 A 
ATOM     81  F   UNL A   1      42.808  26.100  35.321  1.00  0.00    -0.206 F 
ATOM     82  C   UNL A   1      45.076  25.996  35.919  1.00  0.00     0.040 A 
ATOM     83  C   UNL A   1      46.596  27.713  35.183  1.00  0.00     0.040 A 
ATOM     84  F   UNL A   1      45.806  29.503  33.887  1.00  0.00    -0.206 F 
ATOM     85  C   UNL A   1      46.363  26.528  35.879  1.00  0.00     0.006 A 
ENDBRANCH  61  78
ENDBRANCH  35  36
ENDBRANCH  27  30
ENDBRANCH  25  26
ENDBRANCH  24  25
ENDBRANCH   1  24
TORSDOF 14
ENDMDL
MODEL 2
REMARK VINA RESULT:     -11.6      1.755      2.362
REMARK SMILES CCOC(=O)c1ccc(-c2cc(F)cc(C(=O)NCCCNC(=O)c3ccc(-c4c5nc(c(-c6c(F)cccc6F)c6ccc([nH]6)c(-c6c(F)cccc6F)c6nc(c(-c7c(F)cccc7F)c7ccc4[nH]7)C=C6)C=C5)cc3)c2)cc1
REMARK SMILES IDX 19 1 18 2 16 3 17 4 15 6 10 7 11 8 79 9 12 10 13 11 14 12
REMARK SMILES IDX 9 13 6 14 7 15 81 16 8 17 80 18 4 19 5 20 3 21 2 22 1 23
REMARK SMILES IDX 20 24 21 25 22 26 23 27 24 29 25 30 26 31 78 32 27 33 77 34
REMARK SMILES IDX 28 35 29 36 30 37 71 38 31 39 76 40 70 41 72 42 32 43 75 44
REMARK SMILES IDX 69 45 68 46 33 48 59 49 42 50 58 51 43 52 46 53 57 54 73 55
REMARK SMILES IDX 44 56 45 57 56 59 74 60 47 61 34 62 35 63 40 64 36 65 37 66
REMARK SMILES IDX 39 67 41 68 38 69 60 70 61 71 66 72 62 73 63 74 65 75 67 76
REMARK SMILES IDX 64 77 48 78 49 79 54 80 50 81 51 82 53 83 55 84 52 85
REMARK H PARENT 18 5 22 28 72 47 46 58
REMARK Flexibility Score: inf
ROOT
ATOM      1  C   UNL A   1      31.446  30.499  26.253  1.00  0.00     0.118 C 
ENDROOT
BRANCH   1   2
ATOM      2  N   UNL A   1      32.288  30.056  25.147  1.00  0.00    -0.352 N 
ATOM      3  C   UNL A   1      32.220  29.031  24.231  1.00  0.00     0.251 C 
ATOM      4  O   UNL A   1      33.145  28.941  23.421  1.00  0.00    -0.269 OA
ATOM      5  H   UNL A   1      33.087  30.618  25.030  1.00  0.00     0.163 HD
BRANCH   3   6
ATOM      6  C   UNL A   1      31.144  28.003  24.196  1.00  0.00     0.043 A 
ATOM      7  C   UNL A   1      30.371  25.685  24.344  1.00  0.00    -0.015 A 
ATOM      8  C   UNL A   1      29.133  26.084  23.826  1.00  0.00     0.048 A 
ATOM      9  C   UNL A   1      31.313  26.690  24.635  1.00  0.00     0.022 A 
ATOM     10  C   UNL A   1      28.901  27.422  23.527  1.00  0.00     0.124 A 
ATOM     11  F   UNL A   1      27.712  27.784  23.027  1.00  0.00    -0.207 F 
ATOM     12  C   UNL A   1      29.902  28.374  23.671  1.00  0.00     0.053 A 
BRANCH   7  13
ATOM     13  C   UNL A   1      30.791  24.267  24.391  1.00  0.00    -0.018 A 
ATOM     14  C   UNL A   1      32.078  21.757  24.556  1.00  0.00     0.060 A 
ATOM     15  C   UNL A   1      32.085  22.468  23.357  1.00  0.00     0.016 A 
ATOM     16  C   UNL A   1      31.389  22.265  25.662  1.00  0.00     0.016 A 
ATOM     17  C   UNL A   1      31.441  23.704  23.275  1.00  0.00     0.009 A 
ATOM     18  C   UNL A   1      30.749  23.509  25.574  1.00  0.00     0.009 A 
BRANCH  14  19
ATOM     19  C   UNL A   1      32.888  20.522  24.638  1.00  0.00     0.338 C 
ATOM     20  O   UNL A   1      34.106  20.517  24.556  1.00  0.00    -0.246 OA
BRANCH  19  21
ATOM     21  O   UNL A   1      32.082  19.444  24.779  1.00  0.00    -0.462 OA
BRANCH  21  22
ATOM     22  C   UNL A   1      32.570  18.231  24.187  1.00  0.00     0.230 C 
ATOM     23  C   UNL A   1      32.370  18.227  22.681  1.00  0.00     0.049 C 
ENDBRANCH  21  22
ENDBRANCH  19  21
ENDBRANCH  14  19
ENDBRANCH   7  13
ENDBRANCH   3   6
ENDBRANCH   1   2
BRANCH   1  24
ATOM     24  C   UNL A   1      31.449  32.005  26.476  1.00  0.00     0.042 C 
BRANCH  24  25
ATOM     25  C   UNL A   1      32.649  32.537  27.245  1.00  0.00     0.118 C 
BRANCH  25  26
ATOM     26  N   UNL A   1      32.509  33.937  27.627  1.00  0.00    -0.352 N 
ATOM     27  C   UNL A   1      33.164  34.704  28.560  1.00  0.00     0.251 C 
ATOM     28  H   UNL A   1      31.816  34.423  27.123  1.00  0.00     0.163 HD
ATOM     29  O   UNL A   1      32.724  35.821  28.826  1.00  0.00    -0.269 OA
BRANCH  27  30
ATOM     30  C   UNL A   1      34.364  34.210  29.274  1.00  0.00     0.039 A 
ATOM     31  C   UNL A   1      34.191  33.466  30.448  1.00  0.00     0.014 A 
ATOM     32  C   UNL A   1      35.655  34.508  28.835  1.00  0.00     0.014 A 
ATOM     33  C   UNL A   1      35.302  32.946  31.120  1.00  0.00     0.010 A 
ATOM     34  C   UNL A   1      36.755  33.915  29.451  1.00  0.00     0.010 A 
ATOM     35  C   UNL A   1      36.591  33.122  30.596  1.00  0.00    -0.014 A 
BRANCH  35  36
ATOM     36  C   UNL A   1      37.779  32.469  31.202  1.00  0.00     0.031 A 
ATOM     37  C   UNL A   1      38.491  31.358  30.482  1.00  0.00     0.074 A 
ATOM     38  C   UNL A   1      38.157  32.808  32.450  1.00  0.00     0.049 A 
ATOM     39  N   UNL A   1      39.458  30.583  30.904  1.00  0.00    -0.248 NA
ATOM     40  C   UNL A   1      38.032  31.058  29.116  1.00  0.00     0.031 C 
ATOM     41  C   UNL A   1      37.526  33.841  33.275  1.00  0.00     0.029 A 
ATOM     42  N   UNL A   1      39.155  32.308  33.250  1.00  0.00    -0.354 N 
ATOM     43  C   UNL A   1      39.704  29.690  29.870  1.00  0.00     0.074 A 
ATOM     44  C   UNL A   1      38.757  29.990  28.819  1.00  0.00     0.031 C 
ATOM     45  C   UNL A   1      38.168  33.916  34.451  1.00  0.00     0.029 A 
ATOM     46  C   UNL A   1      39.222  32.909  34.484  1.00  0.00     0.049 A 
ATOM     47  H   UNL A   1      39.764  31.589  32.966  1.00  0.00     0.167 HD
ATOM     48  C   UNL A   1      40.647  28.718  29.795  1.00  0.00     0.037 A 
ATOM     49  C   UNL A   1      40.033  32.666  35.530  1.00  0.00     0.037 A 
ATOM     50  C   UNL A   1      41.610  28.442  30.828  1.00  0.00     0.049 A 
ATOM     51  C   UNL A   1      41.055  31.571  35.433  1.00  0.00     0.074 A 
ATOM     52  C   UNL A   1      42.659  27.538  30.812  1.00  0.00     0.029 A 
ATOM     53  N   UNL A   1      41.639  29.066  32.066  1.00  0.00    -0.354 N 
ATOM     54  N   UNL A   1      41.315  30.772  34.428  1.00  0.00    -0.248 NA
ATOM     55  C   UNL A   1      41.888  31.338  36.621  1.00  0.00     0.031 C 
ATOM     56  C   UNL A   1      43.298  27.587  32.057  1.00  0.00     0.029 A 
ATOM     57  C   UNL A   1      42.669  28.547  32.835  1.00  0.00     0.049 A 
ATOM     58  H   UNL A   1      41.020  29.773  32.357  1.00  0.00     0.167 HD
ATOM     59  C   UNL A   1      42.353  29.953  34.853  1.00  0.00     0.074 A 
ATOM     60  C   UNL A   1      42.681  30.359  36.205  1.00  0.00     0.031 C 
ATOM     61  C   UNL A   1      42.977  28.954  34.182  1.00  0.00     0.037 A 
BRANCH  48  62
ATOM     62  C   UNL A   1      40.672  27.883  28.548  1.00  0.00     0.057 A 
ATOM     63  C   UNL A   1      39.966  26.677  28.452  1.00  0.00     0.134 A 
ATOM     64  C   UNL A   1      41.406  28.293  27.428  1.00  0.00     0.134 A 
ATOM     65  F   UNL A   1      39.253  26.222  29.494  1.00  0.00    -0.206 F 
ATOM     66  C   UNL A   1      40.019  25.889  27.301  1.00  0.00     0.040 A 
ATOM     67  C   UNL A   1      41.446  27.527  26.262  1.00  0.00     0.040 A 
ATOM     68  F   UNL A   1      42.099  29.441  27.449  1.00  0.00    -0.206 F 
ATOM     69  C   UNL A   1      40.758  26.317  26.200  1.00  0.00     0.006 A 
ENDBRANCH  48  62
BRANCH  49  70
ATOM     70  C   UNL A   1      39.924  33.501  36.751  1.00  0.00     0.057 A 
ATOM     71  C   UNL A   1      40.718  34.641  36.906  1.00  0.00     0.134 A 
ATOM     72  C   UNL A   1      39.012  33.201  37.769  1.00  0.00     0.134 A 
ATOM     73  F   UNL A   1      41.622  34.967  35.970  1.00  0.00    -0.206 F 
ATOM     74  C   UNL A   1      40.613  35.456  38.034  1.00  0.00     0.040 A 
ATOM     75  C   UNL A   1      38.881  34.018  38.893  1.00  0.00     0.040 A 
ATOM     76  F   UNL A   1      38.220  32.123  37.674  1.00  0.00    -0.206 F 
ATOM     77  C   UNL A   1      39.685  35.148  39.028  1.00  0.00     0.006 A 
ENDBRANCH  49  70
BRANCH  61  78
ATOM     78  C   UNL A   1      44.085  28.242  34.896  1.00  0.00     0.057 A 
ATOM     79  C   UNL A   1      43.852  27.065  35.620  1.00  0.00     0.134 A 
ATOM     80  C   UNL A   1      45.400  28.715  34.831  1.00  0.00     0.134 A 
ATOM     81  F   UNL A   1      42.611  26.571  35.733  1.00  0.00    -0.206 F 
ATOM     82  C   UNL A   1      44.891  26.392  36.266  1.00  0.00     0.040 A 
ATOM     83  C   UNL A   1      46.450  28.038  35.454  1.00  0.00     0.040 A 
ATOM     84  F   UNL A   1      45.688  29.834  34.150  1.00  0.00    -0.206 F 
ATOM     85  C   UNL A   1      46.195  26.875  36.178  1.00  0.00     0.006 A 
ENDBRANCH  61  78
ENDBRANCH  35  36
ENDBRANCH  27  30
ENDBRANCH  25  26
ENDBRANCH  24  25
ENDBRANCH   1  24
TORSDOF 14
ENDMDL
MODEL 3
REMARK VINA RESULT:     -11.6      4.483      9.578
REMARK SMILES CCOC(=O)c1ccc(-c2cc(F)cc(C(=O)NCCCNC(=O)c3ccc(-c4c5nc(c(-c6c(F)cccc6F)c6ccc([nH]6)c(-c6c(F)cccc6F)c6nc(c(-c7c(F)cccc7F)c7ccc4[nH]7)C=C6)C=C5)cc3)c2)cc1
REMARK SMILES IDX 19 1 18 2 16 3 17 4 15 6 10 7 11 8 79 9 12 10 13 11 14 12
REMARK SMILES IDX 9 13 6 14 7 15 81 16 8 17 80 18 4 19 5 20 3 21 2 22 1 23
REMARK SMILES IDX 20 24 21 25 22 26 23 27 24 29 25 30 26 31 78 32 27 33 77 34
REMARK SMILES IDX 28 35 29 36 30 37 71 38 31 39 76 40 70 41 72 42 32 43 75 44
REMARK SMILES IDX 69 45 68 46 33 48 59 49 42 50 58 51 43 52 46 53 57 54 73 55
REMARK SMILES IDX 44 56 45 57 56 59 74 60 47 61 34 62 35 63 40 64 36 65 37 66
REMARK SMILES IDX 39 67 41 68 38 69 60 70 61 71 66 72 62 73 63 74 65 75 67 76
REMARK SMILES IDX 64 77 48 78 49 79 54 80 50 81 51 82 53 83 55 84 52 85
REMARK H PARENT 18 5 22 28 72 47 46 58
REMARK Flexibility Score: inf
ROOT
ATOM      1  C   UNL A   1      42.278  20.820  26.676  1.00  0.00     0.118 C 
ENDROOT
BRANCH   1   2
ATOM      2  N   UNL A   1      43.086  20.853  25.461  1.00  0.00    -0.352 N 
ATOM      3  C   UNL A   1      44.054  21.697  24.967  1.00  0.00     0.251 C 
ATOM      4  O   UNL A   1      44.527  21.422  23.863  1.00  0.00    -0.269 OA
ATOM      5  H   UNL A   1      42.894  20.101  24.857  1.00  0.00     0.163 HD
BRANCH   3   6
ATOM      6  C   UNL A   1      44.517  22.937  25.647  1.00  0.00     0.043 A 
ATOM      7  C   UNL A   1      44.908  24.274  27.660  1.00  0.00    -0.015 A 
ATOM      8  C   UNL A   1      45.122  25.397  26.851  1.00  0.00     0.048 A 
ATOM      9  C   UNL A   1      44.732  23.032  27.022  1.00  0.00     0.022 A 
ATOM     10  C   UNL A   1      45.060  25.280  25.467  1.00  0.00     0.124 A 
ATOM     11  F   UNL A   1      45.261  26.366  24.709  1.00  0.00    -0.207 F 
ATOM     12  C   UNL A   1      44.724  24.076  24.861  1.00  0.00     0.053 A 
BRANCH   7  13
ATOM     13  C   UNL A   1      44.653  24.382  29.113  1.00  0.00    -0.018 A 
ATOM     14  C   UNL A   1      44.529  24.205  31.931  1.00  0.00     0.060 A 
ATOM     15  C   UNL A   1      43.817  23.301  31.142  1.00  0.00     0.016 A 
ATOM     16  C   UNL A   1      45.262  25.230  31.325  1.00  0.00     0.016 A 
ATOM     17  C   UNL A   1      43.873  23.396  29.750  1.00  0.00     0.009 A 
ATOM     18  C   UNL A   1      45.318  25.316  29.927  1.00  0.00     0.009 A 
BRANCH  14  19
ATOM     19  C   UNL A   1      44.553  23.982  33.393  1.00  0.00     0.338 C 
ATOM     20  O   UNL A   1      45.583  23.795  34.022  1.00  0.00    -0.246 OA
BRANCH  19  21
ATOM     21  O   UNL A   1      43.293  23.988  33.887  1.00  0.00    -0.462 OA
BRANCH  21  22
ATOM     22  C   UNL A   1      43.132  24.646  35.152  1.00  0.00     0.230 C 
ATOM     23  C   UNL A   1      41.731  24.450  35.706  1.00  0.00     0.049 C 
ENDBRANCH  21  22
ENDBRANCH  19  21
ENDBRANCH  14  19
ENDBRANCH   7  13
ENDBRANCH   3   6
ENDBRANCH   1   2
BRANCH   1  24
ATOM     24  C   UNL A   1      40.954  21.564  26.567  1.00  0.00     0.042 C 
BRANCH  24  25
ATOM     25  C   UNL A   1      40.980  22.996  27.080  1.00  0.00     0.118 C 
BRANCH  25  26
ATOM     26  N   UNL A   1      41.353  23.964  26.056  1.00  0.00    -0.352 N 
ATOM     27  C   UNL A   1      41.403  25.337  26.065  1.00  0.00     0.251 C 
ATOM     28  H   UNL A   1      41.616  23.559  25.198  1.00  0.00     0.163 HD
ATOM     29  O   UNL A   1      41.567  25.933  25.002  1.00  0.00    -0.269 OA
BRANCH  27  30
ATOM     30  C   UNL A   1      41.235  26.116  27.313  1.00  0.00     0.039 A 
ATOM     31  C   UNL A   1      42.168  27.116  27.613  1.00  0.00     0.014 A 
ATOM     32  C   UNL A   1      40.205  25.847  28.214  1.00  0.00     0.014 A 
ATOM     33  C   UNL A   1      42.012  27.900  28.761  1.00  0.00     0.010 A 
ATOM     34  C   UNL A   1      39.998  26.685  29.307  1.00  0.00     0.010 A 
ATOM     35  C   UNL A   1      40.894  27.726  29.590  1.00  0.00    -0.014 A 
BRANCH  35  36
ATOM     36  C   UNL A   1      40.620  28.628  30.737  1.00  0.00     0.031 A 
ATOM     37  C   UNL A   1      39.546  29.676  30.644  1.00  0.00     0.074 A 
ATOM     38  C   UNL A   1      41.409  28.572  31.827  1.00  0.00     0.049 A 
ATOM     39  N   UNL A   1      39.250  30.635  31.484  1.00  0.00    -0.248 NA
ATOM     40  C   UNL A   1      38.714  29.661  29.430  1.00  0.00     0.031 C 
ATOM     41  C   UNL A   1      42.512  27.631  32.027  1.00  0.00     0.029 A 
ATOM     42  N   UNL A   1      41.413  29.336  32.969  1.00  0.00    -0.354 N 
ATOM     43  C   UNL A   1      38.219  31.352  30.891  1.00  0.00     0.074 A 
ATOM     44  C   UNL A   1      37.971  30.745  29.602  1.00  0.00     0.031 C 
ATOM     45  C   UNL A   1      43.068  27.854  33.228  1.00  0.00     0.029 A 
ATOM     46  C   UNL A   1      42.395  28.981  33.862  1.00  0.00     0.049 A 
ATOM     47  H   UNL A   1      40.774  30.067  33.131  1.00  0.00     0.167 HD
ATOM     48  C   UNL A   1      37.530  32.411  31.383  1.00  0.00     0.037 A 
ATOM     49  C   UNL A   1      42.724  29.514  35.053  1.00  0.00     0.037 A 
ATOM     50  C   UNL A   1      37.755  32.993  32.680  1.00  0.00     0.049 A 
ATOM     51  C   UNL A   1      41.962  30.698  35.569  1.00  0.00     0.074 A 
ATOM     52  C   UNL A   1      37.053  34.010  33.304  1.00  0.00     0.029 A 
ATOM     53  N   UNL A   1      38.765  32.611  33.550  1.00  0.00    -0.354 N 
ATOM     54  N   UNL A   1      40.952  31.331  35.023  1.00  0.00    -0.248 NA
ATOM     55  C   UNL A   1      42.392  31.250  36.862  1.00  0.00     0.031 C 
ATOM     56  C   UNL A   1      37.663  34.271  34.537  1.00  0.00     0.029 A 
ATOM     57  C   UNL A   1      38.724  33.392  34.695  1.00  0.00     0.049 A 
ATOM     58  H   UNL A   1      39.415  31.893  33.382  1.00  0.00     0.167 HD
ATOM     59  C   UNL A   1      40.614  32.343  35.911  1.00  0.00     0.074 A 
ATOM     60  C   UNL A   1      41.519  32.234  37.037  1.00  0.00     0.031 C 
ATOM     61  C   UNL A   1      39.638  33.278  35.802  1.00  0.00     0.037 A 
BRANCH  48  62
ATOM     62  C   UNL A   1      36.467  33.004  30.505  1.00  0.00     0.057 A 
ATOM     63  C   UNL A   1      35.105  32.754  30.722  1.00  0.00     0.134 A 
ATOM     64  C   UNL A   1      36.808  33.838  29.434  1.00  0.00     0.134 A 
ATOM     65  F   UNL A   1      34.712  31.953  31.723  1.00  0.00    -0.206 F 
ATOM     66  C   UNL A   1      34.123  33.282  29.882  1.00  0.00     0.040 A 
ATOM     67  C   UNL A   1      35.834  34.394  28.603  1.00  0.00     0.040 A 
ATOM     68  F   UNL A   1      38.093  34.125  29.174  1.00  0.00    -0.206 F 
ATOM     69  C   UNL A   1      34.487  34.109  28.820  1.00  0.00     0.006 A 
ENDBRANCH  48  62
BRANCH  49  70
ATOM     70  C   UNL A   1      43.817  28.905  35.851  1.00  0.00     0.057 A 
ATOM     71  C   UNL A   1      43.545  27.888  36.771  1.00  0.00     0.134 A 
ATOM     72  C   UNL A   1      45.150  29.299  35.694  1.00  0.00     0.134 A 
ATOM     73  F   UNL A   1      42.283  27.483  36.976  1.00  0.00    -0.206 F 
ATOM     74  C   UNL A   1      44.561  27.282  37.511  1.00  0.00     0.040 A 
ATOM     75  C   UNL A   1      46.179  28.689  36.413  1.00  0.00     0.040 A 
ATOM     76  F   UNL A   1      45.474  30.266  34.822  1.00  0.00    -0.206 F 
ATOM     77  C   UNL A   1      45.885  27.678  37.327  1.00  0.00     0.006 A 
ENDBRANCH  49  70
BRANCH  61  78
ATOM     78  C   UNL A   1      39.495  34.248  36.936  1.00  0.00     0.057 A 
ATOM     79  C   UNL A   1      38.816  33.906  38.111  1.00  0.00     0.134 A 
ATOM     80  C   UNL A   1      40.071  35.522  36.866  1.00  0.00     0.134 A 
ATOM     81  F   UNL A   1      38.228  32.706  38.232  1.00  0.00    -0.206 F 
ATOM     82  C   UNL A   1      38.704  34.804  39.175  1.00  0.00     0.040 A 
ATOM     83  C   UNL A   1      39.985  36.420  37.930  1.00  0.00     0.040 A 
ATOM     84  F   UNL A   1      40.739  35.908  35.768  1.00  0.00    -0.206 F 
ATOM     85  C   UNL A   1      39.295  36.063  39.088  1.00  0.00     0.006 A 
ENDBRANCH  61  78
ENDBRANCH  35  36
ENDBRANCH  27  30
ENDBRANCH  25  26
ENDBRANCH  24  25
ENDBRANCH   1  24
TORSDOF 14
ENDMDL
