MODEL 1
REMARK VINA RESULT:     -11.8      0.000      0.000
REMARK SMILES CC(=O)c1cccc(-c2ccc(C(=O)NCCCNC(=O)c3ccc(-c4c5nc(c(-c6c(F)cccc6F)c6ccc([nH]6)c(-c6c(F)cccc6F)c6nc(c(-c7c(F)cccc7F)c7ccc4[nH]7)C=C6)C=C5)cc3)cc2F)c1
REMARK SMILES IDX 17 1 16 2 15 3 13 4 14 5 12 7 9 8 10 9 77 10 11 11 76 12
REMARK SMILES IDX 78 13 8 14 4 15 5 16 79 17 6 18 7 19 2 20 1 21 3 22 18 23
REMARK SMILES IDX 19 24 20 25 21 27 22 28 23 29 75 30 24 31 74 32 25 33 26 34
REMARK SMILES IDX 27 35 68 36 28 37 73 38 67 39 69 40 29 41 72 42 66 43 65 44
REMARK SMILES IDX 30 46 56 47 39 48 55 49 40 50 43 51 54 52 70 53 41 54 42 55
REMARK SMILES IDX 53 57 71 58 44 59 31 60 32 61 37 62 33 63 34 64 36 65 38 66
REMARK SMILES IDX 35 67 57 68 58 69 63 70 59 71 60 72 62 73 64 74 61 75 45 76
REMARK SMILES IDX 46 77 51 78 47 79 48 80 50 81 52 82 49 83
REMARK H PARENT 15 6 19 26 69 45 43 56
REMARK Flexibility Score: inf
ROOT
ATOM      1  C   UNL A   1      42.794  18.455  26.705  1.00  0.00     0.042 C 
ENDROOT
BRANCH   1   2
ATOM      2  C   UNL A   1      41.834  19.209  27.623  1.00  0.00     0.118 C 
BRANCH   2   3
ATOM      3  N   UNL A   1      42.373  20.507  27.994  1.00  0.00    -0.352 N 
ATOM      4  C   UNL A   1      41.898  21.784  27.838  1.00  0.00     0.251 C 
ATOM      5  O   UNL A   1      42.555  22.705  28.324  1.00  0.00    -0.269 OA
ATOM      6  H   UNL A   1      43.246  20.460  28.445  1.00  0.00     0.163 HD
BRANCH   4   7
ATOM      7  C   UNL A   1      40.615  22.101  27.156  1.00  0.00     0.042 A 
ATOM      8  C   UNL A   1      38.157  22.842  25.962  1.00  0.00     0.018 A 
ATOM      9  C   UNL A   1      38.857  23.750  26.765  1.00  0.00     0.012 A 
ATOM     10  C   UNL A   1      38.735  21.585  25.739  1.00  0.00     0.131 A 
ATOM     11  C   UNL A   1      40.071  23.380  27.359  1.00  0.00     0.014 A 
ATOM     12  C   UNL A   1      39.956  21.223  26.300  1.00  0.00     0.053 A 
ATOM     13  F   UNL A   1      38.111  20.687  24.961  1.00  0.00    -0.206 F 
BRANCH   8  14
ATOM     14  C   UNL A   1      36.869  23.179  25.351  1.00  0.00    -0.015 A 
ATOM     15  C   UNL A   1      34.482  23.610  25.571  1.00  0.00     0.018 A 
ATOM     16  C   UNL A   1      34.349  23.590  24.179  1.00  0.00     0.012 A 
ATOM     17  C   UNL A   1      35.738  23.408  26.154  1.00  0.00     0.020 A 
ATOM     18  C   UNL A   1      35.470  23.401  23.373  1.00  0.00     0.001 A 
ATOM     19  C   UNL A   1      36.723  23.201  23.956  1.00  0.00     0.009 A 
BRANCH  15  20
ATOM     20  C   UNL A   1      33.261  23.815  26.396  1.00  0.00     0.159 C 
ATOM     21  C   UNL A   1      32.373  24.991  26.086  1.00  0.00     0.093 C 
ATOM     22  O   UNL A   1      32.982  23.008  27.279  1.00  0.00    -0.295 OA
ENDBRANCH  15  20
ENDBRANCH   8  14
ENDBRANCH   4   7
ENDBRANCH   2   3
ENDBRANCH   1   2
BRANCH   1  23
ATOM     23  C   UNL A   1      42.917  19.077  25.316  1.00  0.00     0.118 C 
BRANCH  23  24
ATOM     24  N   UNL A   1      44.188  18.754  24.683  1.00  0.00    -0.352 N 
ATOM     25  C   UNL A   1      45.208  19.581  24.282  1.00  0.00     0.251 C 
ATOM     26  H   UNL A   1      44.340  17.795  24.518  1.00  0.00     0.163 HD
ATOM     27  O   UNL A   1      46.097  19.142  23.559  1.00  0.00    -0.269 OA
BRANCH  25  28
ATOM     28  C   UNL A   1      45.236  20.998  24.704  1.00  0.00     0.039 A 
ATOM     29  C   UNL A   1      45.521  21.298  26.040  1.00  0.00     0.014 A 
ATOM     30  C   UNL A   1      44.945  22.024  23.802  1.00  0.00     0.014 A 
ATOM     31  C   UNL A   1      45.581  22.631  26.455  1.00  0.00     0.010 A 
ATOM     32  C   UNL A   1      45.066  23.353  24.201  1.00  0.00     0.010 A 
ATOM     33  C   UNL A   1      45.389  23.669  25.530  1.00  0.00    -0.014 A 
BRANCH  33  34
ATOM     34  C   UNL A   1      45.547  25.092  25.923  1.00  0.00     0.031 A 
ATOM     35  C   UNL A   1      46.902  25.740  25.903  1.00  0.00     0.074 A 
ATOM     36  C   UNL A   1      44.478  25.775  26.375  1.00  0.00     0.049 A 
ATOM     37  N   UNL A   1      47.253  26.935  26.308  1.00  0.00    -0.248 NA
ATOM     38  C   UNL A   1      48.014  24.930  25.384  1.00  0.00     0.031 C 
ATOM     39  C   UNL A   1      43.117  25.243  26.479  1.00  0.00     0.029 A 
ATOM     40  N   UNL A   1      44.371  27.058  26.850  1.00  0.00    -0.354 N 
ATOM     41  C   UNL A   1      48.625  27.015  26.105  1.00  0.00     0.074 A 
ATOM     42  C   UNL A   1      49.049  25.733  25.584  1.00  0.00     0.031 C 
ATOM     43  C   UNL A   1      42.310  26.195  26.974  1.00  0.00     0.029 A 
ATOM     44  C   UNL A   1      43.101  27.388  27.260  1.00  0.00     0.049 A 
ATOM     45  H   UNL A   1      45.130  27.682  26.892  1.00  0.00     0.167 HD
ATOM     46  C   UNL A   1      49.451  28.066  26.319  1.00  0.00     0.037 A 
ATOM     47  C   UNL A   1      42.631  28.518  27.820  1.00  0.00     0.037 A 
ATOM     48  C   UNL A   1      49.020  29.346  26.819  1.00  0.00     0.049 A 
ATOM     49  C   UNL A   1      43.572  29.663  28.064  1.00  0.00     0.074 A 
ATOM     50  C   UNL A   1      49.770  30.494  27.011  1.00  0.00     0.029 A 
ATOM     51  N   UNL A   1      47.725  29.645  27.214  1.00  0.00    -0.354 N 
ATOM     52  N   UNL A   1      44.855  29.748  27.809  1.00  0.00    -0.248 NA
ATOM     53  C   UNL A   1      42.999  30.872  28.673  1.00  0.00     0.031 C 
ATOM     54  C   UNL A   1      48.938  31.474  27.562  1.00  0.00     0.029 A 
ATOM     55  C   UNL A   1      47.659  30.952  27.672  1.00  0.00     0.049 A 
ATOM     56  H   UNL A   1      46.964  29.022  27.173  1.00  0.00     0.167 HD
ATOM     57  C   UNL A   1      45.239  31.021  28.205  1.00  0.00     0.074 A 
ATOM     58  C   UNL A   1      44.048  31.681  28.701  1.00  0.00     0.031 C 
ATOM     59  C   UNL A   1      46.466  31.594  28.162  1.00  0.00     0.037 A 
BRANCH  46  60
ATOM     60  C   UNL A   1      50.908  27.878  26.012  1.00  0.00     0.057 A 
ATOM     61  C   UNL A   1      51.834  27.539  27.007  1.00  0.00     0.134 A 
ATOM     62  C   UNL A   1      51.385  28.001  24.700  1.00  0.00     0.134 A 
ATOM     63  F   UNL A   1      51.445  27.417  28.285  1.00  0.00    -0.206 F 
ATOM     64  C   UNL A   1      53.187  27.354  26.713  1.00  0.00     0.040 A 
ATOM     65  C   UNL A   1      52.730  27.792  24.390  1.00  0.00     0.040 A 
ATOM     66  F   UNL A   1      50.551  28.316  23.698  1.00  0.00    -0.206 F 
ATOM     67  C   UNL A   1      53.637  27.474  25.399  1.00  0.00     0.006 A 
ENDBRANCH  46  60
BRANCH  47  68
ATOM     68  C   UNL A   1      41.195  28.625  28.182  1.00  0.00     0.057 A 
ATOM     69  C   UNL A   1      40.239  28.998  27.230  1.00  0.00     0.134 A 
ATOM     70  C   UNL A   1      40.745  28.363  29.481  1.00  0.00     0.134 A 
ATOM     71  F   UNL A   1      40.612  29.280  25.974  1.00  0.00    -0.206 F 
ATOM     72  C   UNL A   1      38.889  29.124  27.561  1.00  0.00     0.040 A 
ATOM     73  C   UNL A   1      39.395  28.460  29.820  1.00  0.00     0.040 A 
ATOM     74  F   UNL A   1      41.611  27.994  30.436  1.00  0.00    -0.206 F 
ATOM     75  C   UNL A   1      38.463  28.849  28.859  1.00  0.00     0.006 A 
ENDBRANCH  47  68
BRANCH  59  76
ATOM     76  C   UNL A   1      46.578  33.011  28.644  1.00  0.00     0.057 A 
ATOM     77  C   UNL A   1      46.895  33.314  29.974  1.00  0.00     0.134 A 
ATOM     78  C   UNL A   1      46.402  34.080  27.758  1.00  0.00     0.134 A 
ATOM     79  F   UNL A   1      47.062  32.334  30.874  1.00  0.00    -0.206 F 
ATOM     80  C   UNL A   1      47.012  34.634  30.411  1.00  0.00     0.040 A 
ATOM     81  C   UNL A   1      46.541  35.404  28.178  1.00  0.00     0.040 A 
ATOM     82  F   UNL A   1      46.104  33.858  26.470  1.00  0.00    -0.206 F 
ATOM     83  C   UNL A   1      46.842  35.685  29.509  1.00  0.00     0.006 A 
ENDBRANCH  59  76
ENDBRANCH  33  34
ENDBRANCH  25  28
ENDBRANCH  23  24
ENDBRANCH   1  23
TORSDOF 12
ENDMDL
MODEL 2
REMARK VINA RESULT:     -11.8      7.303     12.734
REMARK SMILES CC(=O)c1cccc(-c2ccc(C(=O)NCCCNC(=O)c3ccc(-c4c5nc(c(-c6c(F)cccc6F)c6ccc([nH]6)c(-c6c(F)cccc6F)c6nc(c(-c7c(F)cccc7F)c7ccc4[nH]7)C=C6)C=C5)cc3)cc2F)c1
REMARK SMILES IDX 17 1 16 2 15 3 13 4 14 5 12 7 9 8 10 9 77 10 11 11 76 12
REMARK SMILES IDX 78 13 8 14 4 15 5 16 79 17 6 18 7 19 2 20 1 21 3 22 18 23
REMARK SMILES IDX 19 24 20 25 21 27 22 28 23 29 75 30 24 31 74 32 25 33 26 34
REMARK SMILES IDX 27 35 68 36 28 37 73 38 67 39 69 40 29 41 72 42 66 43 65 44
REMARK SMILES IDX 30 46 56 47 39 48 55 49 40 50 43 51 54 52 70 53 41 54 42 55
REMARK SMILES IDX 53 57 71 58 44 59 31 60 32 61 37 62 33 63 34 64 36 65 38 66
REMARK SMILES IDX 35 67 57 68 58 69 63 70 59 71 60 72 62 73 64 74 61 75 45 76
REMARK SMILES IDX 46 77 51 78 47 79 48 80 50 81 52 82 49 83
REMARK H PARENT 15 6 19 26 69 45 43 56
REMARK Flexibility Score: inf
ROOT
ATOM      1  C   UNL A   1      33.701  35.944  28.776  1.00  0.00     0.042 C 
ENDROOT
BRANCH   1   2
ATOM      2  C   UNL A   1      34.406  35.079  27.732  1.00  0.00     0.118 C 
BRANCH   2   3
ATOM      3  N   UNL A   1      35.683  34.592  28.228  1.00  0.00    -0.352 N 
ATOM      4  C   UNL A   1      36.202  33.330  28.363  1.00  0.00     0.251 C 
ATOM      5  O   UNL A   1      37.363  33.226  28.758  1.00  0.00    -0.269 OA
ATOM      6  H   UNL A   1      36.292  35.307  28.523  1.00  0.00     0.163 HD
BRANCH   4   7
ATOM      7  C   UNL A   1      35.451  32.096  28.011  1.00  0.00     0.042 A 
ATOM      8  C   UNL A   1      34.172  29.667  27.320  1.00  0.00     0.018 A 
ATOM      9  C   UNL A   1      35.532  29.683  27.650  1.00  0.00     0.012 A 
ATOM     10  C   UNL A   1      33.468  30.876  27.388  1.00  0.00     0.131 A 
ATOM     11  C   UNL A   1      36.165  30.887  27.988  1.00  0.00     0.014 A 
ATOM     12  C   UNL A   1      34.083  32.070  27.754  1.00  0.00     0.053 A 
ATOM     13  F   UNL A   1      32.157  30.908  27.100  1.00  0.00    -0.206 F 
BRANCH   8  14
ATOM     14  C   UNL A   1      33.483  28.434  26.931  1.00  0.00    -0.015 A 
ATOM     15  C   UNL A   1      33.368  26.433  25.547  1.00  0.00     0.018 A 
ATOM     16  C   UNL A   1      32.066  26.194  25.999  1.00  0.00     0.012 A 
ATOM     17  C   UNL A   1      34.074  27.547  26.014  1.00  0.00     0.020 A 
ATOM     18  C   UNL A   1      31.485  27.046  26.936  1.00  0.00     0.001 A 
ATOM     19  C   UNL A   1      32.191  28.157  27.402  1.00  0.00     0.009 A 
BRANCH  15  20
ATOM     20  C   UNL A   1      33.952  25.500  24.547  1.00  0.00     0.159 C 
ATOM     21  C   UNL A   1      34.887  24.422  25.029  1.00  0.00     0.093 C 
ATOM     22  O   UNL A   1      33.635  25.600  23.364  1.00  0.00    -0.295 OA
ENDBRANCH  15  20
ENDBRANCH   8  14
ENDBRANCH   4   7
ENDBRANCH   2   3
ENDBRANCH   1   2
BRANCH   1  23
ATOM     23  C   UNL A   1      32.899  35.134  29.791  1.00  0.00     0.118 C 
BRANCH  23  24
ATOM     24  N   UNL A   1      32.420  35.958  30.892  1.00  0.00    -0.352 N 
ATOM     25  C   UNL A   1      32.775  35.949  32.219  1.00  0.00     0.251 C 
ATOM     26  H   UNL A   1      31.738  36.624  30.648  1.00  0.00     0.163 HD
ATOM     27  O   UNL A   1      32.093  36.562  33.034  1.00  0.00    -0.269 OA
BRANCH  25  28
ATOM     28  C   UNL A   1      33.965  35.197  32.672  1.00  0.00     0.039 A 
ATOM     29  C   UNL A   1      33.785  33.945  33.268  1.00  0.00     0.014 A 
ATOM     30  C   UNL A   1      35.248  35.737  32.548  1.00  0.00     0.014 A 
ATOM     31  C   UNL A   1      34.897  33.204  33.676  1.00  0.00     0.010 A 
ATOM     32  C   UNL A   1      36.358  34.973  32.898  1.00  0.00     0.010 A 
ATOM     33  C   UNL A   1      36.194  33.697  33.462  1.00  0.00    -0.014 A 
BRANCH  33  34
ATOM     34  C   UNL A   1      37.393  32.888  33.795  1.00  0.00     0.031 A 
ATOM     35  C   UNL A   1      38.188  33.182  35.036  1.00  0.00     0.074 A 
ATOM     36  C   UNL A   1      37.810  31.940  32.934  1.00  0.00     0.049 A 
ATOM     37  N   UNL A   1      39.316  32.654  35.439  1.00  0.00    -0.248 NA
ATOM     38  C   UNL A   1      37.657  34.223  35.929  1.00  0.00     0.031 C 
ATOM     39  C   UNL A   1      37.146  31.589  31.677  1.00  0.00     0.029 A 
ATOM     40  N   UNL A   1      38.903  31.112  32.976  1.00  0.00    -0.354 N 
ATOM     41  C   UNL A   1      39.638  33.307  36.621  1.00  0.00     0.074 A 
ATOM     42  C   UNL A   1      38.609  34.300  36.848  1.00  0.00     0.031 C 
ATOM     43  C   UNL A   1      37.838  30.609  31.073  1.00  0.00     0.029 A 
ATOM     44  C   UNL A   1      39.014  30.292  31.878  1.00  0.00     0.049 A 
ATOM     45  H   UNL A   1      39.545  31.104  33.721  1.00  0.00     0.167 HD
ATOM     46  C   UNL A   1      40.685  33.088  37.451  1.00  0.00     0.037 A 
ATOM     47  C   UNL A   1      39.965  29.399  31.548  1.00  0.00     0.037 A 
ATOM     48  C   UNL A   1      41.696  32.086  37.231  1.00  0.00     0.049 A 
ATOM     49  C   UNL A   1      41.128  29.188  32.476  1.00  0.00     0.074 A 
ATOM     50  C   UNL A   1      42.763  31.744  38.045  1.00  0.00     0.029 A 
ATOM     51  N   UNL A   1      41.769  31.269  36.113  1.00  0.00    -0.354 N 
ATOM     52  N   UNL A   1      41.386  29.767  33.623  1.00  0.00    -0.248 NA
ATOM     53  C   UNL A   1      42.131  28.196  32.065  1.00  0.00     0.031 C 
ATOM     54  C   UNL A   1      43.506  30.750  37.399  1.00  0.00     0.029 A 
ATOM     55  C   UNL A   1      42.876  30.440  36.203  1.00  0.00     0.049 A 
ATOM     56  H   UNL A   1      41.128  31.275  35.366  1.00  0.00     0.167 HD
ATOM     57  C   UNL A   1      42.566  29.198  34.080  1.00  0.00     0.074 A 
ATOM     58  C   UNL A   1      42.964  28.213  33.095  1.00  0.00     0.031 C 
ATOM     59  C   UNL A   1      43.259  29.466  35.214  1.00  0.00     0.037 A 
BRANCH  46  60
ATOM     60  C   UNL A   1      40.793  33.949  38.676  1.00  0.00     0.057 A 
ATOM     61  C   UNL A   1      41.534  35.138  38.679  1.00  0.00     0.134 A 
ATOM     62  C   UNL A   1      40.120  33.604  39.855  1.00  0.00     0.134 A 
ATOM     63  F   UNL A   1      42.213  35.520  37.587  1.00  0.00    -0.206 F 
ATOM     64  C   UNL A   1      41.622  35.940  39.819  1.00  0.00     0.040 A 
ATOM     65  C   UNL A   1      40.178  34.412  40.992  1.00  0.00     0.040 A 
ATOM     66  F   UNL A   1      39.387  32.483  39.918  1.00  0.00    -0.206 F 
ATOM     67  C   UNL A   1      40.937  35.581  40.978  1.00  0.00     0.006 A 
ENDBRANCH  46  60
BRANCH  47  68
ATOM     68  C   UNL A   1      39.854  28.630  30.283  1.00  0.00     0.057 A 
ATOM     69  C   UNL A   1      39.150  27.421  30.235  1.00  0.00     0.134 A 
ATOM     70  C   UNL A   1      40.449  29.079  29.098  1.00  0.00     0.134 A 
ATOM     71  F   UNL A   1      38.576  26.930  31.342  1.00  0.00    -0.206 F 
ATOM     72  C   UNL A   1      39.057  26.677  29.058  1.00  0.00     0.040 A 
ATOM     73  C   UNL A   1      40.341  28.358  27.908  1.00  0.00     0.040 A 
ATOM     74  F   UNL A   1      41.130  30.234  29.077  1.00  0.00    -0.206 F 
ATOM     75  C   UNL A   1      39.649  27.148  27.888  1.00  0.00     0.006 A 
ENDBRANCH  47  68
BRANCH  59  76
ATOM     76  C   UNL A   1      44.505  28.667  35.459  1.00  0.00     0.057 A 
ATOM     77  C   UNL A   1      45.761  29.108  35.024  1.00  0.00     0.134 A 
ATOM     78  C   UNL A   1      44.451  27.462  36.170  1.00  0.00     0.134 A 
ATOM     79  F   UNL A   1      45.878  30.247  34.325  1.00  0.00    -0.206 F 
ATOM     80  C   UNL A   1      46.918  28.367  35.269  1.00  0.00     0.040 A 
ATOM     81  C   UNL A   1      45.604  26.725  36.443  1.00  0.00     0.040 A 
ATOM     82  F   UNL A   1      43.281  26.988  36.621  1.00  0.00    -0.206 F 
ATOM     83  C   UNL A   1      46.842  27.174  35.987  1.00  0.00     0.006 A 
ENDBRANCH  59  76
ENDBRANCH  33  34
ENDBRANCH  25  28
ENDBRANCH  23  24
ENDBRANCH   1  23
TORSDOF 12
ENDMDL
MODEL 3
REMARK VINA RESULT:     -11.8      4.448     10.411
REMARK SMILES CC(=O)c1cccc(-c2ccc(C(=O)NCCCNC(=O)c3ccc(-c4c5nc(c(-c6c(F)cccc6F)c6ccc([nH]6)c(-c6c(F)cccc6F)c6nc(c(-c7c(F)cccc7F)c7ccc4[nH]7)C=C6)C=C5)cc3)cc2F)c1
REMARK SMILES IDX 17 1 16 2 15 3 13 4 14 5 12 7 9 8 10 9 77 10 11 11 76 12
REMARK SMILES IDX 78 13 8 14 4 15 5 16 79 17 6 18 7 19 2 20 1 21 3 22 18 23
REMARK SMILES IDX 19 24 20 25 21 27 22 28 23 29 75 30 24 31 74 32 25 33 26 34
REMARK SMILES IDX 27 35 68 36 28 37 73 38 67 39 69 40 29 41 72 42 66 43 65 44
REMARK SMILES IDX 30 46 56 47 39 48 55 49 40 50 43 51 54 52 70 53 41 54 42 55
REMARK SMILES IDX 53 57 71 58 44 59 31 60 32 61 37 62 33 63 34 64 36 65 38 66
REMARK SMILES IDX 35 67 57 68 58 69 63 70 59 71 60 72 62 73 64 74 61 75 45 76
REMARK SMILES IDX 46 77 51 78 47 79 48 80 50 81 52 82 49 83
REMARK H PARENT 15 6 19 26 69 45 43 56
REMARK Flexibility Score: inf
ROOT
ATOM      1  C   UNL A   1      36.008  33.397  29.094  1.00  0.00     0.042 C 
ENDROOT
BRANCH   1   2
ATOM      2  C   UNL A   1      37.233  33.698  29.956  1.00  0.00     0.118 C 
BRANCH   2   3
ATOM      3  N   UNL A   1      36.862  34.414  31.166  1.00  0.00    -0.352 N 
ATOM      4  C   UNL A   1      37.198  34.238  32.483  1.00  0.00     0.251 C 
ATOM      5  O   UNL A   1      36.776  35.059  33.298  1.00  0.00    -0.269 OA
ATOM      6  H   UNL A   1      36.253  35.170  31.008  1.00  0.00     0.163 HD
BRANCH   4   7
ATOM      7  C   UNL A   1      38.079  33.140  32.962  1.00  0.00     0.042 A 
ATOM      8  C   UNL A   1      39.889  31.162  33.872  1.00  0.00     0.018 A 
ATOM      9  C   UNL A   1      40.242  32.516  33.909  1.00  0.00     0.012 A 
ATOM     10  C   UNL A   1      38.606  30.832  33.415  1.00  0.00     0.131 A 
ATOM     11  C   UNL A   1      39.346  33.494  33.454  1.00  0.00     0.014 A 
ATOM     12  C   UNL A   1      37.700  31.801  32.992  1.00  0.00     0.053 A 
ATOM     13  F   UNL A   1      38.215  29.549  33.379  1.00  0.00    -0.206 F 
BRANCH   8  14
ATOM     14  C   UNL A   1      40.809  30.109  34.307  1.00  0.00    -0.015 A 
ATOM     15  C   UNL A   1      42.387  28.334  33.765  1.00  0.00     0.018 A 
ATOM     16  C   UNL A   1      42.394  27.930  35.104  1.00  0.00     0.012 A 
ATOM     17  C   UNL A   1      41.599  29.421  33.370  1.00  0.00     0.020 A 
ATOM     18  C   UNL A   1      41.644  28.629  36.048  1.00  0.00     0.001 A 
ATOM     19  C   UNL A   1      40.859  29.713  35.652  1.00  0.00     0.009 A 
BRANCH  15  20
ATOM     20  C   UNL A   1      43.201  27.563  32.789  1.00  0.00     0.159 C 
ATOM     21  C   UNL A   1      44.520  26.994  33.243  1.00  0.00     0.093 C 
ATOM     22  O   UNL A   1      42.771  27.372  31.654  1.00  0.00    -0.295 OA
ENDBRANCH  15  20
ENDBRANCH   8  14
ENDBRANCH   4   7
ENDBRANCH   2   3
ENDBRANCH   1   2
BRANCH   1  23
ATOM     23  C   UNL A   1      34.898  32.674  29.855  1.00  0.00     0.118 C 
BRANCH  23  24
ATOM     24  N   UNL A   1      34.172  31.741  29.004  1.00  0.00    -0.352 N 
ATOM     25  C   UNL A   1      34.632  30.669  28.279  1.00  0.00     0.251 C 
ATOM     26  H   UNL A   1      33.203  31.903  28.939  1.00  0.00     0.163 HD
ATOM     27  O   UNL A   1      33.904  30.146  27.441  1.00  0.00    -0.269 OA
BRANCH  25  28
ATOM     28  C   UNL A   1      36.000  30.151  28.491  1.00  0.00     0.039 A 
ATOM     29  C   UNL A   1      36.907  30.184  27.427  1.00  0.00     0.014 A 
ATOM     30  C   UNL A   1      36.378  29.599  29.718  1.00  0.00     0.014 A 
ATOM     31  C   UNL A   1      38.214  29.726  27.615  1.00  0.00     0.010 A 
ATOM     32  C   UNL A   1      37.697  29.201  29.922  1.00  0.00     0.010 A 
ATOM     33  C   UNL A   1      38.629  29.265  28.874  1.00  0.00    -0.014 A 
BRANCH  33  34
ATOM     34  C   UNL A   1      40.037  28.868  29.125  1.00  0.00     0.031 A 
ATOM     35  C   UNL A   1      41.005  29.843  29.731  1.00  0.00     0.074 A 
ATOM     36  C   UNL A   1      40.461  27.652  28.731  1.00  0.00     0.049 A 
ATOM     37  N   UNL A   1      42.293  29.715  29.930  1.00  0.00    -0.248 NA
ATOM     38  C   UNL A   1      40.459  31.145  30.145  1.00  0.00     0.031 C 
ATOM     39  C   UNL A   1      39.626  26.631  28.094  1.00  0.00     0.029 A 
ATOM     40  N   UNL A   1      41.704  27.075  28.789  1.00  0.00    -0.354 N 
ATOM     41  C   UNL A   1      42.713  30.920  30.478  1.00  0.00     0.074 A 
ATOM     42  C   UNL A   1      41.552  31.783  30.540  1.00  0.00     0.031 C 
ATOM     43  C   UNL A   1      40.377  25.549  27.833  1.00  0.00     0.029 A 
ATOM     44  C   UNL A   1      41.753  25.814  28.244  1.00  0.00     0.049 A 
ATOM     45  H   UNL A   1      42.487  27.521  29.185  1.00  0.00     0.167 HD
ATOM     46  C   UNL A   1      43.949  31.269  30.907  1.00  0.00     0.037 A 
ATOM     47  C   UNL A   1      42.791  24.974  28.078  1.00  0.00     0.037 A 
ATOM     48  C   UNL A   1      45.097  30.400  30.862  1.00  0.00     0.049 A 
ATOM     49  C   UNL A   1      44.157  25.393  28.544  1.00  0.00     0.074 A 
ATOM     50  C   UNL A   1      46.378  30.639  31.329  1.00  0.00     0.029 A 
ATOM     51  N   UNL A   1      45.103  29.127  30.312  1.00  0.00    -0.354 N 
ATOM     52  N   UNL A   1      44.527  26.511  29.119  1.00  0.00    -0.248 NA
ATOM     53  C   UNL A   1      45.248  24.431  28.340  1.00  0.00     0.031 C 
ATOM     54  C   UNL A   1      47.171  29.528  31.022  1.00  0.00     0.029 A 
ATOM     55  C   UNL A   1      46.372  28.578  30.405  1.00  0.00     0.049 A 
ATOM     56  H   UNL A   1      44.322  28.679  29.915  1.00  0.00     0.167 HD
ATOM     57  C   UNL A   1      45.886  26.380  29.364  1.00  0.00     0.074 A 
ATOM     58  C   UNL A   1      46.272  25.066  28.892  1.00  0.00     0.031 C 
ATOM     59  C   UNL A   1      46.740  27.269  29.930  1.00  0.00     0.037 A 
BRANCH  46  60
ATOM     60  C   UNL A   1      44.126  32.652  31.462  1.00  0.00     0.057 A 
ATOM     61  C   UNL A   1      43.965  32.925  32.827  1.00  0.00     0.134 A 
ATOM     62  C   UNL A   1      44.497  33.716  30.630  1.00  0.00     0.134 A 
ATOM     63  F   UNL A   1      43.600  31.954  33.677  1.00  0.00    -0.206 F 
ATOM     64  C   UNL A   1      44.142  34.212  33.340  1.00  0.00     0.040 A 
ATOM     65  C   UNL A   1      44.703  35.001  31.136  1.00  0.00     0.040 A 
ATOM     66  F   UNL A   1      44.675  33.523  29.315  1.00  0.00    -0.206 F 
ATOM     67  C   UNL A   1      44.519  35.253  32.494  1.00  0.00     0.006 A 
ENDBRANCH  46  60
BRANCH  47  68
ATOM     68  C   UNL A   1      42.578  23.647  27.447  1.00  0.00     0.057 A 
ATOM     69  C   UNL A   1      42.310  22.515  28.224  1.00  0.00     0.134 A 
ATOM     70  C   UNL A   1      42.639  23.478  26.058  1.00  0.00     0.134 A 
ATOM     71  F   UNL A   1      42.258  22.611  29.560  1.00  0.00    -0.206 F 
ATOM     72  C   UNL A   1      42.130  21.258  27.646  1.00  0.00     0.040 A 
ATOM     73  C   UNL A   1      42.435  22.231  25.465  1.00  0.00     0.040 A 
ATOM     74  F   UNL A   1      42.884  24.526  25.258  1.00  0.00    -0.206 F 
ATOM     75  C   UNL A   1      42.187  21.115  26.261  1.00  0.00     0.006 A 
ENDBRANCH  47  68
BRANCH  59  76
ATOM     76  C   UNL A   1      48.169  26.839  30.089  1.00  0.00     0.057 A 
ATOM     77  C   UNL A   1      48.593  26.083  31.189  1.00  0.00     0.134 A 
ATOM     78  C   UNL A   1      49.121  27.154  29.112  1.00  0.00     0.134 A 
ATOM     79  F   UNL A   1      47.733  25.761  32.166  1.00  0.00    -0.206 F 
ATOM     80  C   UNL A   1      49.921  25.674  31.322  1.00  0.00     0.040 A 
ATOM     81  C   UNL A   1      50.446  26.729  29.222  1.00  0.00     0.040 A 
ATOM     82  F   UNL A   1      48.777  27.868  28.030  1.00  0.00    -0.206 F 
ATOM     83  C   UNL A   1      50.851  25.992  30.332  1.00  0.00     0.006 A 
ENDBRANCH  59  76
ENDBRANCH  33  34
ENDBRANCH  25  28
ENDBRANCH  23  24
ENDBRANCH   1  23
TORSDOF 12
ENDMDL
