MODEL 1
REMARK VINA RESULT:     -11.8      0.000      0.000
REMARK SMILES Cc1ccc(/C=C/C(=O)N2CCC[C@@H](C(=O)NCCCNC(=O)c3ccc(-c4c5nc(c(-c6c(F)cccc6F)c6ccc([nH]6)c(-c6c(F)cccc6F)c6nc(c(-c7c(F)cccc7F)c7ccc4[nH]7)C=C6)C=C5)cc3)C2)s1
REMARK SMILES IDX 18 1 17 2 15 3 16 4 14 6 10 7 11 8 78 9 12 10 13 11 8 12
REMARK SMILES IDX 9 13 7 14 6 15 5 16 1 17 2 18 3 19 79 20 4 21 19 22 20 23
REMARK SMILES IDX 21 24 22 25 23 27 24 28 25 29 77 30 26 31 76 32 27 33 28 34
REMARK SMILES IDX 29 35 70 36 30 37 75 38 69 39 71 40 31 41 74 42 68 43 67 44
REMARK SMILES IDX 32 46 58 47 41 48 57 49 42 50 45 51 56 52 72 53 43 54 44 55
REMARK SMILES IDX 55 57 73 58 46 59 33 60 34 61 39 62 35 63 36 64 38 65 40 66
REMARK SMILES IDX 37 67 59 68 60 69 65 70 61 71 62 72 64 73 66 74 63 75 47 76
REMARK SMILES IDX 48 77 53 78 49 79 50 80 52 81 54 82 51 83
REMARK H PARENT 17 5 21 26 71 45 45 56
REMARK Flexibility Score: inf
ROOT
ATOM      1  C   UNL A   1      36.444  20.620  25.175  1.00  0.00     0.117 C 
ENDROOT
BRANCH   1   2
ATOM      2  N   UNL A   1      35.293  19.767  24.924  1.00  0.00    -0.356 N 
ATOM      3  C   UNL A   1      33.968  20.056  24.802  1.00  0.00     0.224 C 
ATOM      4  O   UNL A   1      33.197  19.115  24.603  1.00  0.00    -0.275 OA
ATOM      5  H   UNL A   1      35.510  18.811  24.825  1.00  0.00     0.163 HD
BRANCH   3   6
ATOM      6  C   UNL A   1      33.445  21.478  24.907  1.00  0.00     0.098 C 
ATOM      7  N   UNL A   1      33.040  23.515  23.513  1.00  0.00    -0.338 N 
ATOM      8  C   UNL A   1      31.606  23.411  23.752  1.00  0.00     0.120 C 
ATOM      9  C   UNL A   1      33.807  22.279  23.646  1.00  0.00     0.133 C 
ATOM     10  C   UNL A   1      31.327  22.872  25.144  1.00  0.00     0.022 C 
ATOM     11  C   UNL A   1      31.968  21.504  25.335  1.00  0.00     0.017 C 
BRANCH   7  12
ATOM     12  C   UNL A   1      33.557  24.756  23.191  1.00  0.00     0.246 C 
ATOM     13  O   UNL A   1      34.008  25.024  22.079  1.00  0.00    -0.270 OA
BRANCH  12  14
ATOM     14  C   UNL A   1      33.636  25.814  24.231  1.00  0.00     0.073 C 
ATOM     15  C   UNL A   1      33.303  27.087  23.961  1.00  0.00     0.024 C 
BRANCH  15  16
ATOM     16  C   UNL A   1      33.112  28.095  24.955  1.00  0.00     0.027 A 
ATOM     17  C   UNL A   1      31.712  31.344  26.699  1.00  0.00     0.056 C 
ATOM     18  C   UNL A   1      32.415  30.111  26.245  1.00  0.00     0.002 A 
ATOM     19  C   UNL A   1      33.552  29.531  26.761  1.00  0.00     0.016 A 
ATOM     20  S   UNL A   1      31.818  29.233  24.909  1.00  0.00    -0.141 S 
ATOM     21  C   UNL A   1      33.950  28.380  26.021  1.00  0.00     0.020 A 
ENDBRANCH  15  16
ENDBRANCH  12  14
ENDBRANCH   7  12
ENDBRANCH   3   6
ENDBRANCH   1   2
BRANCH   1  22
ATOM     22  C   UNL A   1      37.757  19.925  24.846  1.00  0.00     0.042 C 
BRANCH  22  23
ATOM     23  C   UNL A   1      38.901  20.293  25.780  1.00  0.00     0.118 C 
BRANCH  23  24
ATOM     24  N   UNL A   1      39.914  19.249  25.867  1.00  0.00    -0.352 N 
ATOM     25  C   UNL A   1      41.265  19.341  26.084  1.00  0.00     0.251 C 
ATOM     26  H   UNL A   1      39.573  18.332  25.752  1.00  0.00     0.163 HD
ATOM     27  O   UNL A   1      41.974  18.347  25.928  1.00  0.00    -0.269 OA
BRANCH  25  28
ATOM     28  C   UNL A   1      41.878  20.626  26.477  1.00  0.00     0.039 A 
ATOM     29  C   UNL A   1      42.293  21.511  25.480  1.00  0.00     0.014 A 
ATOM     30  C   UNL A   1      42.054  20.959  27.823  1.00  0.00     0.014 A 
ATOM     31  C   UNL A   1      42.812  22.759  25.831  1.00  0.00     0.010 A 
ATOM     32  C   UNL A   1      42.478  22.236  28.170  1.00  0.00     0.010 A 
ATOM     33  C   UNL A   1      42.865  23.149  27.179  1.00  0.00    -0.014 A 
BRANCH  33  34
ATOM     34  C   UNL A   1      43.315  24.509  27.573  1.00  0.00     0.031 A 
ATOM     35  C   UNL A   1      42.311  25.567  27.937  1.00  0.00     0.074 A 
ATOM     36  C   UNL A   1      44.627  24.812  27.528  1.00  0.00     0.049 A 
ATOM     37  N   UNL A   1      42.508  26.826  28.236  1.00  0.00    -0.248 NA
ATOM     38  C   UNL A   1      40.896  25.164  27.933  1.00  0.00     0.031 C 
ATOM     39  C   UNL A   1      45.695  23.892  27.132  1.00  0.00     0.029 A 
ATOM     40  N   UNL A   1      45.284  25.985  27.802  1.00  0.00    -0.354 N 
ATOM     41  C   UNL A   1      41.246  27.366  28.444  1.00  0.00     0.074 A 
ATOM     42  C   UNL A   1      40.289  26.316  28.170  1.00  0.00     0.031 C 
ATOM     43  C   UNL A   1      46.873  24.528  27.208  1.00  0.00     0.029 A 
ATOM     44  C   UNL A   1      46.643  25.910  27.619  1.00  0.00     0.049 A 
ATOM     45  H   UNL A   1      44.825  26.802  28.103  1.00  0.00     0.167 HD
ATOM     46  C   UNL A   1      40.913  28.613  28.852  1.00  0.00     0.037 A 
ATOM     47  C   UNL A   1      47.596  26.850  27.753  1.00  0.00     0.037 A 
ATOM     48  C   UNL A   1      41.870  29.652  29.131  1.00  0.00     0.049 A 
ATOM     49  C   UNL A   1      47.208  28.231  28.197  1.00  0.00     0.074 A 
ATOM     50  C   UNL A   1      41.641  30.932  29.605  1.00  0.00     0.029 A 
ATOM     51  N   UNL A   1      43.241  29.532  28.953  1.00  0.00    -0.354 N 
ATOM     52  N   UNL A   1      46.016  28.708  28.464  1.00  0.00    -0.248 NA
ATOM     53  C   UNL A   1      48.297  29.202  28.368  1.00  0.00     0.031 C 
ATOM     54  C   UNL A   1      42.867  31.604  29.662  1.00  0.00     0.029 A 
ATOM     55  C   UNL A   1      43.868  30.724  29.279  1.00  0.00     0.049 A 
ATOM     56  H   UNL A   1      43.700  28.719  28.640  1.00  0.00     0.167 HD
ATOM     57  C   UNL A   1      46.211  30.027  28.851  1.00  0.00     0.074 A 
ATOM     58  C   UNL A   1      47.639  30.268  28.802  1.00  0.00     0.031 C 
ATOM     59  C   UNL A   1      45.290  30.954  29.216  1.00  0.00     0.037 A 
BRANCH  46  60
ATOM     60  C   UNL A   1      39.449  28.915  29.014  1.00  0.00     0.057 A 
ATOM     61  C   UNL A   1      38.791  28.753  30.243  1.00  0.00     0.134 A 
ATOM     62  C   UNL A   1      38.686  29.371  27.933  1.00  0.00     0.134 A 
ATOM     63  F   UNL A   1      39.459  28.308  31.319  1.00  0.00    -0.206 F 
ATOM     64  C   UNL A   1      37.423  28.992  30.377  1.00  0.00     0.040 A 
ATOM     65  C   UNL A   1      37.324  29.646  28.064  1.00  0.00     0.040 A 
ATOM     66  F   UNL A   1      39.251  29.556  26.730  1.00  0.00    -0.206 F 
ATOM     67  C   UNL A   1      36.685  29.445  29.286  1.00  0.00     0.006 A 
ENDBRANCH  46  60
BRANCH  47  68
ATOM     68  C   UNL A   1      49.013  26.501  27.478  1.00  0.00     0.057 A 
ATOM     69  C   UNL A   1      49.847  26.013  28.489  1.00  0.00     0.134 A 
ATOM     70  C   UNL A   1      49.557  26.619  26.193  1.00  0.00     0.134 A 
ATOM     71  F   UNL A   1      49.389  25.893  29.743  1.00  0.00    -0.206 F 
ATOM     72  C   UNL A   1      51.176  25.665  28.236  1.00  0.00     0.040 A 
ATOM     73  C   UNL A   1      50.875  26.250  25.920  1.00  0.00     0.040 A 
ATOM     74  F   UNL A   1      48.804  27.069  25.178  1.00  0.00    -0.206 F 
ATOM     75  C   UNL A   1      51.691  25.777  26.946  1.00  0.00     0.006 A 
ENDBRANCH  47  68
BRANCH  59  76
ATOM     76  C   UNL A   1      45.800  32.311  29.608  1.00  0.00     0.057 A 
ATOM     77  C   UNL A   1      46.186  32.605  30.923  1.00  0.00     0.134 A 
ATOM     78  C   UNL A   1      45.942  33.324  28.652  1.00  0.00     0.134 A 
ATOM     79  F   UNL A   1      46.062  31.683  31.890  1.00  0.00    -0.206 F 
ATOM     80  C   UNL A   1      46.672  33.865  31.275  1.00  0.00     0.040 A 
ATOM     81  C   UNL A   1      46.454  34.578  28.986  1.00  0.00     0.040 A 
ATOM     82  F   UNL A   1      45.599  33.106  27.373  1.00  0.00    -0.206 F 
ATOM     83  C   UNL A   1      46.815  34.854  30.303  1.00  0.00     0.006 A 
ENDBRANCH  59  76
ENDBRANCH  33  34
ENDBRANCH  25  28
ENDBRANCH  23  24
ENDBRANCH  22  23
ENDBRANCH   1  22
TORSDOF 13
ENDMDL
MODEL 2
REMARK VINA RESULT:     -11.8      5.457     10.307
REMARK SMILES Cc1ccc(/C=C/C(=O)N2CCC[C@@H](C(=O)NCCCNC(=O)c3ccc(-c4c5nc(c(-c6c(F)cccc6F)c6ccc([nH]6)c(-c6c(F)cccc6F)c6nc(c(-c7c(F)cccc7F)c7ccc4[nH]7)C=C6)C=C5)cc3)C2)s1
REMARK SMILES IDX 18 1 17 2 15 3 16 4 14 6 10 7 11 8 78 9 12 10 13 11 8 12
REMARK SMILES IDX 9 13 7 14 6 15 5 16 1 17 2 18 3 19 79 20 4 21 19 22 20 23
REMARK SMILES IDX 21 24 22 25 23 27 24 28 25 29 77 30 26 31 76 32 27 33 28 34
REMARK SMILES IDX 29 35 70 36 30 37 75 38 69 39 71 40 31 41 74 42 68 43 67 44
REMARK SMILES IDX 32 46 58 47 41 48 57 49 42 50 45 51 56 52 72 53 43 54 44 55
REMARK SMILES IDX 55 57 73 58 46 59 33 60 34 61 39 62 35 63 36 64 38 65 40 66
REMARK SMILES IDX 37 67 59 68 60 69 65 70 61 71 62 72 64 73 66 74 63 75 47 76
REMARK SMILES IDX 48 77 53 78 49 79 50 80 52 81 54 82 51 83
REMARK H PARENT 17 5 21 26 71 45 45 56
REMARK Flexibility Score: inf
ROOT
ATOM      1  C   UNL A   1      31.771  30.596  26.592  1.00  0.00     0.117 C 
ENDROOT
BRANCH   1   2
ATOM      2  N   UNL A   1      33.152  30.223  26.852  1.00  0.00    -0.356 N 
ATOM      3  C   UNL A   1      33.860  29.107  26.525  1.00  0.00     0.224 C 
ATOM      4  O   UNL A   1      35.035  29.051  26.896  1.00  0.00    -0.275 OA
ATOM      5  H   UNL A   1      33.667  30.898  27.353  1.00  0.00     0.163 HD
BRANCH   3   6
ATOM      6  C   UNL A   1      33.240  27.966  25.738  1.00  0.00     0.098 C 
ATOM      7  N   UNL A   1      33.497  26.715  23.587  1.00  0.00    -0.338 N 
ATOM      8  C   UNL A   1      33.806  25.493  24.319  1.00  0.00     0.120 C 
ATOM      9  C   UNL A   1      33.756  27.970  24.290  1.00  0.00     0.133 C 
ATOM     10  C   UNL A   1      33.029  25.431  25.621  1.00  0.00     0.022 C 
ATOM     11  C   UNL A   1      33.345  26.634  26.499  1.00  0.00     0.017 C 
BRANCH   7  12
ATOM     12  C   UNL A   1      32.985  26.597  22.308  1.00  0.00     0.246 C 
ATOM     13  O   UNL A   1      33.563  25.987  21.410  1.00  0.00    -0.270 OA
BRANCH  12  14
ATOM     14  C   UNL A   1      31.708  27.273  21.961  1.00  0.00     0.073 C 
ATOM     15  C   UNL A   1      30.774  27.525  22.892  1.00  0.00     0.024 C 
BRANCH  15  16
ATOM     16  C   UNL A   1      29.650  28.383  22.690  1.00  0.00     0.027 A 
ATOM     17  C   UNL A   1      27.596  31.662  21.923  1.00  0.00     0.056 C 
ATOM     18  C   UNL A   1      28.133  30.319  22.282  1.00  0.00     0.002 A 
ATOM     19  C   UNL A   1      27.477  29.259  22.865  1.00  0.00     0.016 A 
ATOM     20  S   UNL A   1      29.773  29.949  21.982  1.00  0.00    -0.141 S 
ATOM     21  C   UNL A   1      28.346  28.154  23.099  1.00  0.00     0.020 A 
ENDBRANCH  15  16
ENDBRANCH  12  14
ENDBRANCH   7  12
ENDBRANCH   3   6
ENDBRANCH   1   2
BRANCH   1  22
ATOM     22  C   UNL A   1      31.531  32.086  26.782  1.00  0.00     0.042 C 
BRANCH  22  23
ATOM     23  C   UNL A   1      32.775  32.864  27.186  1.00  0.00     0.118 C 
BRANCH  23  24
ATOM     24  N   UNL A   1      32.475  34.230  27.596  1.00  0.00    -0.352 N 
ATOM     25  C   UNL A   1      33.007  34.988  28.608  1.00  0.00     0.251 C 
ATOM     26  H   UNL A   1      31.780  34.679  27.062  1.00  0.00     0.163 HD
ATOM     27  O   UNL A   1      32.475  36.056  28.911  1.00  0.00    -0.269 OA
BRANCH  25  28
ATOM     28  C   UNL A   1      34.194  34.521  29.354  1.00  0.00     0.039 A 
ATOM     29  C   UNL A   1      34.018  33.943  30.613  1.00  0.00     0.014 A 
ATOM     30  C   UNL A   1      35.479  34.659  28.821  1.00  0.00     0.014 A 
ATOM     31  C   UNL A   1      35.122  33.434  31.303  1.00  0.00     0.010 A 
ATOM     32  C   UNL A   1      36.560  34.066  29.462  1.00  0.00     0.010 A 
ATOM     33  C   UNL A   1      36.395  33.451  30.711  1.00  0.00    -0.014 A 
BRANCH  33  34
ATOM     34  C   UNL A   1      37.564  32.824  31.379  1.00  0.00     0.031 A 
ATOM     35  C   UNL A   1      38.225  31.614  30.779  1.00  0.00     0.074 A 
ATOM     36  C   UNL A   1      37.983  33.301  32.567  1.00  0.00     0.049 A 
ATOM     37  N   UNL A   1      39.207  30.889  31.250  1.00  0.00    -0.248 NA
ATOM     38  C   UNL A   1      37.688  31.138  29.494  1.00  0.00     0.031 C 
ATOM     39  C   UNL A   1      37.388  34.430  33.284  1.00  0.00     0.029 A 
ATOM     40  N   UNL A   1      38.999  32.883  33.390  1.00  0.00    -0.354 N 
ATOM     41  C   UNL A   1      39.398  29.869  30.328  1.00  0.00     0.074 A 
ATOM     42  C   UNL A   1      38.386  30.029  29.306  1.00  0.00     0.031 C 
ATOM     43  C   UNL A   1      38.061  34.628  34.427  1.00  0.00     0.029 A 
ATOM     44  C   UNL A   1      39.108  33.618  34.546  1.00  0.00     0.049 A 
ATOM     45  H   UNL A   1      39.594  32.130  33.172  1.00  0.00     0.167 HD
ATOM     46  C   UNL A   1      40.345  28.901  30.316  1.00  0.00     0.037 A 
ATOM     47  C   UNL A   1      39.946  33.485  35.590  1.00  0.00     0.037 A 
ATOM     48  C   UNL A   1      41.356  28.751  31.331  1.00  0.00     0.049 A 
ATOM     49  C   UNL A   1      40.985  32.401  35.565  1.00  0.00     0.074 A 
ATOM     50  C   UNL A   1      42.397  27.840  31.384  1.00  0.00     0.029 A 
ATOM     51  N   UNL A   1      41.446  29.528  32.477  1.00  0.00    -0.354 N 
ATOM     52  N   UNL A   1      41.203  31.488  34.649  1.00  0.00    -0.248 NA
ATOM     53  C   UNL A   1      41.900  32.333  36.712  1.00  0.00     0.031 C 
ATOM     54  C   UNL A   1      43.084  28.031  32.588  1.00  0.00     0.029 A 
ATOM     55  C   UNL A   1      42.507  29.098  33.258  1.00  0.00     0.049 A 
ATOM     56  H   UNL A   1      40.844  30.274  32.702  1.00  0.00     0.167 HD
ATOM     57  C   UNL A   1      42.290  30.749  35.099  1.00  0.00     0.074 A 
ATOM     58  C   UNL A   1      42.697  31.334  36.360  1.00  0.00     0.031 C 
ATOM     59  C   UNL A   1      42.896  29.684  34.518  1.00  0.00     0.037 A 
BRANCH  46  60
ATOM     60  C   UNL A   1      40.323  27.932  29.168  1.00  0.00     0.057 A 
ATOM     61  C   UNL A   1      41.064  28.153  27.997  1.00  0.00     0.134 A 
ATOM     62  C   UNL A   1      39.553  26.764  29.229  1.00  0.00     0.134 A 
ATOM     63  F   UNL A   1      41.815  29.258  27.866  1.00  0.00    -0.206 F 
ATOM     64  C   UNL A   1      41.005  27.272  26.916  1.00  0.00     0.040 A 
ATOM     65  C   UNL A   1      39.513  25.858  28.167  1.00  0.00     0.040 A 
ATOM     66  F   UNL A   1      38.826  26.484  30.321  1.00  0.00    -0.206 F 
ATOM     67  C   UNL A   1      40.230  26.117  27.001  1.00  0.00     0.006 A 
ENDBRANCH  46  60
BRANCH  47  68
ATOM     68  C   UNL A   1      39.841  34.423  36.736  1.00  0.00     0.057 A 
ATOM     69  C   UNL A   1      39.113  34.088  37.882  1.00  0.00     0.134 A 
ATOM     70  C   UNL A   1      40.491  35.664  36.723  1.00  0.00     0.134 A 
ATOM     71  F   UNL A   1      38.457  32.920  37.947  1.00  0.00    -0.206 F 
ATOM     72  C   UNL A   1      39.024  34.956  38.972  1.00  0.00     0.040 A 
ATOM     73  C   UNL A   1      40.432  36.531  37.816  1.00  0.00     0.040 A 
ATOM     74  F   UNL A   1      41.214  36.039  35.658  1.00  0.00    -0.206 F 
ATOM     75  C   UNL A   1      39.691  36.179  38.943  1.00  0.00     0.006 A 
ENDBRANCH  47  68
BRANCH  59  76
ATOM     76  C   UNL A   1      44.076  29.092  35.233  1.00  0.00     0.057 A 
ATOM     77  C   UNL A   1      45.387  29.513  34.974  1.00  0.00     0.134 A 
ATOM     78  C   UNL A   1      43.896  28.113  36.219  1.00  0.00     0.134 A 
ATOM     79  F   UNL A   1      45.630  30.437  34.032  1.00  0.00    -0.206 F 
ATOM     80  C   UNL A   1      46.476  28.967  35.654  1.00  0.00     0.040 A 
ATOM     81  C   UNL A   1      44.974  27.581  36.927  1.00  0.00     0.040 A 
ATOM     82  F   UNL A   1      42.665  27.670  36.523  1.00  0.00    -0.206 F 
ATOM     83  C   UNL A   1      46.271  28.002  36.640  1.00  0.00     0.006 A 
ENDBRANCH  59  76
ENDBRANCH  33  34
ENDBRANCH  25  28
ENDBRANCH  23  24
ENDBRANCH  22  23
ENDBRANCH   1  22
TORSDOF 13
ENDMDL
MODEL 3
REMARK VINA RESULT:     -11.7      2.100      3.857
REMARK SMILES Cc1ccc(/C=C/C(=O)N2CCC[C@@H](C(=O)NCCCNC(=O)c3ccc(-c4c5nc(c(-c6c(F)cccc6F)c6ccc([nH]6)c(-c6c(F)cccc6F)c6nc(c(-c7c(F)cccc7F)c7ccc4[nH]7)C=C6)C=C5)cc3)C2)s1
REMARK SMILES IDX 18 1 17 2 15 3 16 4 14 6 10 7 11 8 78 9 12 10 13 11 8 12
REMARK SMILES IDX 9 13 7 14 6 15 5 16 1 17 2 18 3 19 79 20 4 21 19 22 20 23
REMARK SMILES IDX 21 24 22 25 23 27 24 28 25 29 77 30 26 31 76 32 27 33 28 34
REMARK SMILES IDX 29 35 70 36 30 37 75 38 69 39 71 40 31 41 74 42 68 43 67 44
REMARK SMILES IDX 32 46 58 47 41 48 57 49 42 50 45 51 56 52 72 53 43 54 44 55
REMARK SMILES IDX 55 57 73 58 46 59 33 60 34 61 39 62 35 63 36 64 38 65 40 66
REMARK SMILES IDX 37 67 59 68 60 69 65 70 61 71 62 72 64 73 66 74 63 75 47 76
REMARK SMILES IDX 48 77 53 78 49 79 50 80 52 81 54 82 51 83
REMARK H PARENT 17 5 21 26 71 45 45 56
REMARK Flexibility Score: inf
ROOT
ATOM      1  C   UNL A   1      36.992  20.927  24.977  1.00  0.00     0.117 C 
ENDROOT
BRANCH   1   2
ATOM      2  N   UNL A   1      37.410  22.140  25.663  1.00  0.00    -0.356 N 
ATOM      3  C   UNL A   1      36.754  23.307  25.907  1.00  0.00     0.224 C 
ATOM      4  O   UNL A   1      37.370  24.190  26.508  1.00  0.00    -0.275 OA
ATOM      5  H   UNL A   1      38.331  22.112  26.011  1.00  0.00     0.163 HD
BRANCH   3   6
ATOM      6  C   UNL A   1      35.319  23.529  25.462  1.00  0.00     0.098 C 
ATOM      7  N   UNL A   1      32.993  23.671  26.372  1.00  0.00    -0.338 N 
ATOM      8  C   UNL A   1      32.901  25.065  25.956  1.00  0.00     0.120 C 
ATOM      9  C   UNL A   1      34.342  23.151  26.586  1.00  0.00     0.133 C 
ATOM     10  C   UNL A   1      33.668  25.296  24.667  1.00  0.00     0.022 C 
ATOM     11  C   UNL A   1      35.133  24.919  24.831  1.00  0.00     0.017 C 
BRANCH   7  12
ATOM     12  C   UNL A   1      31.819  22.958  26.523  1.00  0.00     0.246 C 
ATOM     13  O   UNL A   1      30.898  23.333  27.247  1.00  0.00    -0.270 OA
BRANCH  12  14
ATOM     14  C   UNL A   1      31.658  21.650  25.837  1.00  0.00     0.073 C 
ATOM     15  C   UNL A   1      32.447  21.298  24.809  1.00  0.00     0.024 C 
BRANCH  15  16
ATOM     16  C   UNL A   1      32.522  19.977  24.270  1.00  0.00     0.027 A 
ATOM     17  C   UNL A   1      33.605  16.205  23.874  1.00  0.00     0.056 C 
ATOM     18  C   UNL A   1      33.082  17.597  23.781  1.00  0.00     0.002 A 
ATOM     19  C   UNL A   1      32.474  18.218  22.714  1.00  0.00     0.016 A 
ATOM     20  S   UNL A   1      33.216  18.648  25.120  1.00  0.00    -0.141 S 
ATOM     21  C   UNL A   1      32.156  19.578  22.994  1.00  0.00     0.020 A 
ENDBRANCH  15  16
ENDBRANCH  12  14
ENDBRANCH   7  12
ENDBRANCH   3   6
ENDBRANCH   1   2
BRANCH   1  22
ATOM     22  C   UNL A   1      38.064  19.848  25.013  1.00  0.00     0.042 C 
BRANCH  22  23
ATOM     23  C   UNL A   1      39.194  20.132  25.993  1.00  0.00     0.118 C 
BRANCH  23  24
ATOM     24  N   UNL A   1      40.229  19.106  25.970  1.00  0.00    -0.352 N 
ATOM     25  C   UNL A   1      41.593  19.223  26.051  1.00  0.00     0.251 C 
ATOM     26  H   UNL A   1      39.895  18.184  25.882  1.00  0.00     0.163 HD
ATOM     27  O   UNL A   1      42.301  18.243  25.817  1.00  0.00    -0.269 OA
BRANCH  25  28
ATOM     28  C   UNL A   1      42.219  20.517  26.391  1.00  0.00     0.039 A 
ATOM     29  C   UNL A   1      42.711  21.322  25.361  1.00  0.00     0.014 A 
ATOM     30  C   UNL A   1      42.331  20.936  27.720  1.00  0.00     0.014 A 
ATOM     31  C   UNL A   1      43.244  22.579  25.658  1.00  0.00     0.010 A 
ATOM     32  C   UNL A   1      42.770  22.224  28.004  1.00  0.00     0.010 A 
ATOM     33  C   UNL A   1      43.235  23.058  26.977  1.00  0.00    -0.014 A 
BRANCH  33  34
ATOM     34  C   UNL A   1      43.700  24.430  27.304  1.00  0.00     0.031 A 
ATOM     35  C   UNL A   1      42.718  25.485  27.731  1.00  0.00     0.074 A 
ATOM     36  C   UNL A   1      44.999  24.746  27.141  1.00  0.00     0.049 A 
ATOM     37  N   UNL A   1      42.924  26.752  27.987  1.00  0.00    -0.248 NA
ATOM     38  C   UNL A   1      41.313  25.067  27.856  1.00  0.00     0.031 C 
ATOM     39  C   UNL A   1      46.041  23.830  26.673  1.00  0.00     0.029 A 
ATOM     40  N   UNL A   1      45.662  25.932  27.334  1.00  0.00    -0.354 N 
ATOM     41  C   UNL A   1      41.677  27.282  28.292  1.00  0.00     0.074 A 
ATOM     42  C   UNL A   1      40.713  26.217  28.122  1.00  0.00     0.031 C 
ATOM     43  C   UNL A   1      47.214  24.480  26.635  1.00  0.00     0.029 A 
ATOM     44  C   UNL A   1      47.002  25.868  27.037  1.00  0.00     0.049 A 
ATOM     45  H   UNL A   1      45.221  26.750  27.658  1.00  0.00     0.167 HD
ATOM     46  C   UNL A   1      41.365  28.535  28.702  1.00  0.00     0.037 A 
ATOM     47  C   UNL A   1      47.951  26.821  27.070  1.00  0.00     0.037 A 
ATOM     48  C   UNL A   1      42.329  29.590  28.878  1.00  0.00     0.049 A 
ATOM     49  C   UNL A   1      47.586  28.207  27.519  1.00  0.00     0.074 A 
ATOM     50  C   UNL A   1      42.125  30.877  29.344  1.00  0.00     0.029 A 
ATOM     51  N   UNL A   1      43.681  29.480  28.585  1.00  0.00    -0.354 N 
ATOM     52  N   UNL A   1      46.415  28.676  27.877  1.00  0.00    -0.248 NA
ATOM     53  C   UNL A   1      48.672  29.193  27.576  1.00  0.00     0.031 C 
ATOM     54  C   UNL A   1      43.344  31.562  29.282  1.00  0.00     0.029 A 
ATOM     55  C   UNL A   1      44.318  30.685  28.832  1.00  0.00     0.049 A 
ATOM     56  H   UNL A   1      44.122  28.666  28.250  1.00  0.00     0.167 HD
ATOM     57  C   UNL A   1      46.626  30.005  28.220  1.00  0.00     0.074 A 
ATOM     58  C   UNL A   1      48.041  30.260  28.044  1.00  0.00     0.031 C 
ATOM     59  C   UNL A   1      45.728  30.929  28.644  1.00  0.00     0.037 A 
BRANCH  46  60
ATOM     60  C   UNL A   1      39.917  28.824  28.983  1.00  0.00     0.057 A 
ATOM     61  C   UNL A   1      39.375  28.708  30.272  1.00  0.00     0.134 A 
ATOM     62  C   UNL A   1      39.052  29.222  27.956  1.00  0.00     0.134 A 
ATOM     63  F   UNL A   1      40.144  28.320  31.301  1.00  0.00    -0.206 F 
ATOM     64  C   UNL A   1      38.019  28.935  30.519  1.00  0.00     0.040 A 
ATOM     65  C   UNL A   1      37.702  29.484  28.198  1.00  0.00     0.040 A 
ATOM     66  F   UNL A   1      39.503  29.361  26.701  1.00  0.00    -0.206 F 
ATOM     67  C   UNL A   1      37.179  29.329  29.480  1.00  0.00     0.006 A 
ENDBRANCH  46  60
BRANCH  47  68
ATOM     68  C   UNL A   1      49.344  26.481  26.682  1.00  0.00     0.057 A 
ATOM     69  C   UNL A   1      50.239  25.934  27.607  1.00  0.00     0.134 A 
ATOM     70  C   UNL A   1      49.802  26.669  25.372  1.00  0.00     0.134 A 
ATOM     71  F   UNL A   1      49.864  25.745  28.880  1.00  0.00    -0.206 F 
ATOM     72  C   UNL A   1      51.546  25.595  27.246  1.00  0.00     0.040 A 
ATOM     73  C   UNL A   1      51.096  26.310  24.991  1.00  0.00     0.040 A 
ATOM     74  F   UNL A   1      48.987  27.179  24.437  1.00  0.00    -0.206 F 
ATOM     75  C   UNL A   1      51.974  25.776  25.933  1.00  0.00     0.006 A 
ENDBRANCH  47  68
BRANCH  59  76
ATOM     76  C   UNL A   1      46.252  32.299  28.964  1.00  0.00     0.057 A 
ATOM     77  C   UNL A   1      46.286  33.322  28.007  1.00  0.00     0.134 A 
ATOM     78  C   UNL A   1      46.696  32.609  30.256  1.00  0.00     0.134 A 
ATOM     79  F   UNL A   1      45.889  33.087  26.747  1.00  0.00    -0.206 F 
ATOM     80  C   UNL A   1      46.762  34.596  28.319  1.00  0.00     0.040 A 
ATOM     81  C   UNL A   1      47.147  33.888  30.587  1.00  0.00     0.040 A 
ATOM     82  F   UNL A   1      46.683  31.678  31.223  1.00  0.00    -0.206 F 
ATOM     83  C   UNL A   1      47.187  34.885  29.614  1.00  0.00     0.006 A 
ENDBRANCH  59  76
ENDBRANCH  33  34
ENDBRANCH  25  28
ENDBRANCH  23  24
ENDBRANCH  22  23
ENDBRANCH   1  22
TORSDOF 13
ENDMDL
