MODEL 1
REMARK VINA RESULT:     -11.2      0.000      0.000
REMARK SMILES O=C(NCCCNC(=O)c1ccc(N2C(=O)/C(=C/C3=c4ccccc4=NC3)SC2=S)cc1O)c1ccc(-c2c3nc(c(-c4c(F)cccc4F)c4ccc([nH]4)c(-c4c(F)cccc4F)c4nc(c(-c5c(F)cccc5F)c5ccc2[nH]5)C=C4)C=C3)cc1
REMARK SMILES IDX 5 1 4 2 3 3 1 4 2 5 34 7 35 8 87 9 36 10 86 11 37 12 38 13
REMARK SMILES IDX 39 14 80 15 40 16 85 17 79 18 81 19 41 20 84 21 78 22 77 23
REMARK SMILES IDX 42 25 68 26 51 27 67 28 52 29 55 30 66 31 82 32 53 33 54 34
REMARK SMILES IDX 65 36 83 37 56 38 43 39 44 40 49 41 45 42 46 43 48 44 50 45
REMARK SMILES IDX 47 46 69 47 70 48 75 49 71 50 72 51 74 52 76 53 73 54 57 55
REMARK SMILES IDX 58 56 63 57 59 58 60 59 62 60 64 61 61 62 6 63 7 64 8 65
REMARK SMILES IDX 9 67 10 68 11 69 32 70 12 71 31 72 13 73 33 74 14 76 15 77
REMARK SMILES IDX 29 78 16 79 17 80 28 81 30 82 18 83 19 84 20 85 27 86 21 87
REMARK SMILES IDX 25 88 26 89 22 90 24 91 23 92
REMARK H PARENT 3 6 81 24 55 35 7 66 33 75
REMARK Flexibility Score: inf
ROOT
ATOM      1  C   UNL A   1      35.004  34.457  29.173  1.00  0.00     0.042 C 
ENDROOT
BRANCH   1   2
ATOM      2  C   UNL A   1      35.527  33.274  28.374  1.00  0.00     0.118 C 
BRANCH   2   3
ATOM      3  N   UNL A   1      34.533  32.222  28.227  1.00  0.00    -0.352 N 
ATOM      4  O   UNL A   1      33.721  30.193  27.712  1.00  0.00    -0.269 OA
ATOM      5  C   UNL A   1      34.689  30.874  28.042  1.00  0.00     0.251 C 
ATOM      6  H   UNL A   1      33.599  32.529  28.266  1.00  0.00     0.163 HD
BRANCH   5   7
ATOM      7  C   UNL A   1      36.004  30.224  28.239  1.00  0.00     0.039 A 
ATOM      8  C   UNL A   1      36.292  29.650  29.482  1.00  0.00     0.014 A 
ATOM      9  C   UNL A   1      36.987  30.256  27.247  1.00  0.00     0.014 A 
ATOM     10  C   UNL A   1      37.557  29.107  29.725  1.00  0.00     0.010 A 
ATOM     11  C   UNL A   1      38.213  29.635  27.457  1.00  0.00     0.010 A 
ATOM     12  C   UNL A   1      38.527  29.096  28.714  1.00  0.00    -0.014 A 
BRANCH  12  13
ATOM     13  C   UNL A   1      39.923  28.661  28.973  1.00  0.00     0.031 A 
ATOM     14  C   UNL A   1      40.884  29.643  29.594  1.00  0.00     0.074 A 
ATOM     15  C   UNL A   1      40.342  27.432  28.619  1.00  0.00     0.049 A 
ATOM     16  N   UNL A   1      42.176  29.544  29.768  1.00  0.00    -0.248 NA
ATOM     17  C   UNL A   1      40.315  30.922  30.056  1.00  0.00     0.031 C 
ATOM     18  C   UNL A   1      39.511  26.388  28.019  1.00  0.00     0.029 A 
ATOM     19  N   UNL A   1      41.588  26.861  28.697  1.00  0.00    -0.354 N 
ATOM     20  C   UNL A   1      42.576  30.754  30.322  1.00  0.00     0.074 A 
ATOM     21  C   UNL A   1      41.399  31.588  30.420  1.00  0.00     0.031 C 
ATOM     22  C   UNL A   1      40.269  25.303  27.787  1.00  0.00     0.029 A 
ATOM     23  C   UNL A   1      41.647  25.592  28.173  1.00  0.00     0.049 A 
ATOM     24  H   UNL A   1      42.366  27.318  29.092  1.00  0.00     0.167 HD
ATOM     25  C   UNL A   1      43.810  31.132  30.728  1.00  0.00     0.037 A 
ATOM     26  C   UNL A   1      42.702  24.772  27.996  1.00  0.00     0.037 A 
ATOM     27  C   UNL A   1      44.968  30.283  30.673  1.00  0.00     0.049 A 
ATOM     28  C   UNL A   1      44.074  25.240  28.415  1.00  0.00     0.074 A 
ATOM     29  C   UNL A   1      46.251  30.548  31.121  1.00  0.00     0.029 A 
ATOM     30  N   UNL A   1      44.984  29.006  30.137  1.00  0.00    -0.354 N 
ATOM     31  N   UNL A   1      44.429  26.367  28.984  1.00  0.00    -0.248 NA
ATOM     32  C   UNL A   1      45.194  24.321  28.161  1.00  0.00     0.031 C 
ATOM     33  C   UNL A   1      47.057  29.453  30.802  1.00  0.00     0.029 A 
ATOM     34  C   UNL A   1      46.263  28.482  30.213  1.00  0.00     0.049 A 
ATOM     35  H   UNL A   1      44.203  28.541  29.760  1.00  0.00     0.167 HD
ATOM     36  C   UNL A   1      45.801  26.273  29.192  1.00  0.00     0.074 A 
ATOM     37  C   UNL A   1      46.212  24.977  28.697  1.00  0.00     0.031 C 
ATOM     38  C   UNL A   1      46.646  27.177  29.744  1.00  0.00     0.037 A 
BRANCH  25  39
ATOM     39  C   UNL A   1      43.980  32.527  31.256  1.00  0.00     0.057 A 
ATOM     40  C   UNL A   1      44.017  32.759  32.638  1.00  0.00     0.134 A 
ATOM     41  C   UNL A   1      44.051  33.641  30.412  1.00  0.00     0.134 A 
ATOM     42  F   UNL A   1      43.948  31.737  33.503  1.00  0.00    -0.206 F 
ATOM     43  C   UNL A   1      44.109  34.050  33.158  1.00  0.00     0.040 A 
ATOM     44  C   UNL A   1      44.172  34.935  30.919  1.00  0.00     0.040 A 
ATOM     45  F   UNL A   1      44.033  33.486  29.078  1.00  0.00    -0.206 F 
ATOM     46  C   UNL A   1      44.192  35.144  32.297  1.00  0.00     0.006 A 
ENDBRANCH  25  39
BRANCH  26  47
ATOM     47  C   UNL A   1      42.534  23.435  27.370  1.00  0.00     0.057 A 
ATOM     48  C   UNL A   1      42.725  23.242  25.997  1.00  0.00     0.134 A 
ATOM     49  C   UNL A   1      42.256  22.303  28.146  1.00  0.00     0.134 A 
ATOM     50  F   UNL A   1      42.989  24.283  25.194  1.00  0.00    -0.206 F 
ATOM     51  C   UNL A   1      42.661  21.971  25.420  1.00  0.00     0.040 A 
ATOM     52  C   UNL A   1      42.221  21.023  27.587  1.00  0.00     0.040 A 
ATOM     53  F   UNL A   1      42.083  22.418  29.471  1.00  0.00    -0.206 F 
ATOM     54  C   UNL A   1      42.424  20.856  26.219  1.00  0.00     0.006 A 
ENDBRANCH  26  47
BRANCH  38  55
ATOM     55  C   UNL A   1      48.083  26.776  29.904  1.00  0.00     0.057 A 
ATOM     56  C   UNL A   1      49.027  27.126  28.929  1.00  0.00     0.134 A 
ATOM     57  C   UNL A   1      48.523  25.996  30.980  1.00  0.00     0.134 A 
ATOM     58  F   UNL A   1      48.668  27.864  27.866  1.00  0.00    -0.206 F 
ATOM     59  C   UNL A   1      50.354  26.705  29.013  1.00  0.00     0.040 A 
ATOM     60  C   UNL A   1      49.856  25.595  31.090  1.00  0.00     0.040 A 
ATOM     61  F   UNL A   1      47.672  25.638  31.953  1.00  0.00    -0.206 F 
ATOM     62  C   UNL A   1      50.773  25.941  30.100  1.00  0.00     0.006 A 
ENDBRANCH  38  55
ENDBRANCH  12  13
ENDBRANCH   5   7
ENDBRANCH   2   3
ENDBRANCH   1   2
BRANCH   1  63
ATOM     63  C   UNL A   1      34.420  34.080  30.524  1.00  0.00     0.118 C 
BRANCH  63  64
ATOM     64  N   UNL A   1      34.349  35.211  31.433  1.00  0.00    -0.352 N 
ATOM     65  C   UNL A   1      35.065  35.431  32.582  1.00  0.00     0.255 C 
ATOM     66  H   UNL A   1      33.701  35.911  31.193  1.00  0.00     0.163 HD
ATOM     67  O   UNL A   1      34.804  36.397  33.294  1.00  0.00    -0.269 OA
BRANCH  65  68
ATOM     68  C   UNL A   1      36.106  34.474  33.003  1.00  0.00     0.081 A 
ATOM     69  C   UNL A   1      37.313  34.480  32.295  1.00  0.00     0.020 A 
ATOM     70  C   UNL A   1      35.921  33.573  34.054  1.00  0.00     0.130 A 
ATOM     71  C   UNL A   1      38.344  33.609  32.660  1.00  0.00     0.028 A 
ATOM     72  C   UNL A   1      36.949  32.705  34.417  1.00  0.00     0.073 A 
ATOM     73  C   UNL A   1      38.162  32.698  33.710  1.00  0.00     0.054 A 
BRANCH  70  74
ATOM     74  O   UNL A   1      34.743  33.537  34.747  1.00  0.00    -0.507 OA
ATOM     75  H   UNL A   1      34.204  32.772  34.716  1.00  0.00     0.293 HD
ENDBRANCH  70  74
BRANCH  73  76
ATOM     76  N   UNL A   1      39.192  31.783  34.074  1.00  0.00    -0.261 N 
ATOM     77  C   UNL A   1      39.228  30.512  33.500  1.00  0.00     0.270 C 
ATOM     78  C   UNL A   1      40.211  32.088  34.968  1.00  0.00     0.152 C 
ATOM     79  O   UNL A   1      38.433  30.025  32.710  1.00  0.00    -0.268 OA
ATOM     80  C   UNL A   1      40.459  29.795  33.939  1.00  0.00     0.081 C 
ATOM     81  S   UNL A   1      41.372  30.771  35.014  1.00  0.00    -0.054 SA
ATOM     82  S   UNL A   1      40.391  33.406  35.984  1.00  0.00    -0.051 S 
ATOM     83  C   UNL A   1      40.795  28.586  33.469  1.00  0.00     0.027 C 
BRANCH  83  84
ATOM     84  C   UNL A   1      41.988  27.852  33.814  1.00  0.00    -0.016 C 
ATOM     85  C   UNL A   1      42.060  26.772  34.588  1.00  0.00     0.005 A 
ATOM     86  C   UNL A   1      43.353  28.227  33.304  1.00  0.00     0.179 C 
ATOM     87  C   UNL A   1      41.128  25.982  35.327  1.00  0.00     0.011 A 
ATOM     88  C   UNL A   1      43.494  26.435  34.543  1.00  0.00     0.065 A 
ATOM     89  N   UNL A   1      44.280  27.208  33.856  1.00  0.00    -0.280 NA
ATOM     90  C   UNL A   1      41.578  24.903  35.988  1.00  0.00     0.001 A 
ATOM     91  C   UNL A   1      43.911  25.227  35.286  1.00  0.00     0.028 A 
ATOM     92  C   UNL A   1      42.983  24.524  35.957  1.00  0.00     0.002 A 
ENDBRANCH  83  84
ENDBRANCH  73  76
ENDBRANCH  65  68
ENDBRANCH  63  64
ENDBRANCH   1  63
TORSDOF 13
ENDMDL
MODEL 2
REMARK VINA RESULT:     -11.2      5.259     11.329
REMARK SMILES O=C(NCCCNC(=O)c1ccc(N2C(=O)/C(=C/C3=c4ccccc4=NC3)SC2=S)cc1O)c1ccc(-c2c3nc(c(-c4c(F)cccc4F)c4ccc([nH]4)c(-c4c(F)cccc4F)c4nc(c(-c5c(F)cccc5F)c5ccc2[nH]5)C=C4)C=C3)cc1
REMARK SMILES IDX 5 1 4 2 3 3 1 4 2 5 34 7 35 8 87 9 36 10 86 11 37 12 38 13
REMARK SMILES IDX 39 14 80 15 40 16 85 17 79 18 81 19 41 20 84 21 78 22 77 23
REMARK SMILES IDX 42 25 68 26 51 27 67 28 52 29 55 30 66 31 82 32 53 33 54 34
REMARK SMILES IDX 65 36 83 37 56 38 43 39 44 40 49 41 45 42 46 43 48 44 50 45
REMARK SMILES IDX 47 46 69 47 70 48 75 49 71 50 72 51 74 52 76 53 73 54 57 55
REMARK SMILES IDX 58 56 63 57 59 58 60 59 62 60 64 61 61 62 6 63 7 64 8 65
REMARK SMILES IDX 9 67 10 68 11 69 32 70 12 71 31 72 13 73 33 74 14 76 15 77
REMARK SMILES IDX 29 78 16 79 17 80 28 81 30 82 18 83 19 84 20 85 27 86 21 87
REMARK SMILES IDX 25 88 26 89 22 90 24 91 23 92
REMARK H PARENT 3 6 81 24 55 35 7 66 33 75
REMARK Flexibility Score: inf
ROOT
ATOM      1  C   UNL A   1      38.126  19.708  24.741  1.00  0.00     0.042 C 
ENDROOT
BRANCH   1   2
ATOM      2  C   UNL A   1      39.106  20.086  25.841  1.00  0.00     0.118 C 
BRANCH   2   3
ATOM      3  N   UNL A   1      40.255  19.195  25.889  1.00  0.00    -0.352 N 
ATOM      4  O   UNL A   1      42.419  18.598  25.859  1.00  0.00    -0.269 OA
ATOM      5  C   UNL A   1      41.583  19.470  26.082  1.00  0.00     0.251 C 
ATOM      6  H   UNL A   1      40.044  18.242  25.764  1.00  0.00     0.163 HD
BRANCH   5   7
ATOM      7  C   UNL A   1      42.025  20.800  26.559  1.00  0.00     0.039 A 
ATOM      8  C   UNL A   1      41.983  21.071  27.932  1.00  0.00     0.014 A 
ATOM      9  C   UNL A   1      42.390  21.808  25.665  1.00  0.00     0.014 A 
ATOM     10  C   UNL A   1      42.311  22.345  28.403  1.00  0.00     0.010 A 
ATOM     11  C   UNL A   1      42.805  23.048  26.141  1.00  0.00     0.010 A 
ATOM     12  C   UNL A   1      42.725  23.343  27.511  1.00  0.00    -0.014 A 
BRANCH  12  13
ATOM     13  C   UNL A   1      42.943  24.744  27.950  1.00  0.00     0.031 A 
ATOM     14  C   UNL A   1      44.339  25.176  28.324  1.00  0.00     0.074 A 
ATOM     15  C   UNL A   1      41.914  25.603  28.063  1.00  0.00     0.049 A 
ATOM     16  N   UNL A   1      44.744  26.289  28.879  1.00  0.00    -0.248 NA
ATOM     17  C   UNL A   1      45.422  24.212  28.062  1.00  0.00     0.031 C 
ATOM     18  C   UNL A   1      40.520  25.313  27.727  1.00  0.00     0.029 A 
ATOM     19  N   UNL A   1      41.883  26.900  28.515  1.00  0.00    -0.354 N 
ATOM     20  C   UNL A   1      46.114  26.142  29.063  1.00  0.00     0.074 A 
ATOM     21  C   UNL A   1      46.467  24.820  28.599  1.00  0.00     0.031 C 
ATOM     22  C   UNL A   1      39.771  26.399  27.979  1.00  0.00     0.029 A 
ATOM     23  C   UNL A   1      40.621  27.443  28.544  1.00  0.00     0.049 A 
ATOM     24  H   UNL A   1      42.689  27.393  28.792  1.00  0.00     0.167 HD
ATOM     25  C   UNL A   1      47.000  27.034  29.561  1.00  0.00     0.037 A 
ATOM     26  C   UNL A   1      40.200  28.637  29.005  1.00  0.00     0.037 A 
ATOM     27  C   UNL A   1      46.654  28.366  29.977  1.00  0.00     0.049 A 
ATOM     28  C   UNL A   1      41.205  29.593  29.599  1.00  0.00     0.074 A 
ATOM     29  C   UNL A   1      47.489  29.370  30.432  1.00  0.00     0.029 A 
ATOM     30  N   UNL A   1      45.366  28.877  29.988  1.00  0.00    -0.354 N 
ATOM     31  N   UNL A   1      42.504  29.461  29.720  1.00  0.00    -0.248 NA
ATOM     32  C   UNL A   1      40.683  30.863  30.123  1.00  0.00     0.031 C 
ATOM     33  C   UNL A   1      46.699  30.470  30.776  1.00  0.00     0.029 A 
ATOM     34  C   UNL A   1      45.380  30.172  30.476  1.00  0.00     0.049 A 
ATOM     35  H   UNL A   1      44.562  28.391  29.694  1.00  0.00     0.167 HD
ATOM     36  C   UNL A   1      42.955  30.645  30.295  1.00  0.00     0.074 A 
ATOM     37  C   UNL A   1      41.794  31.485  30.489  1.00  0.00     0.031 C 
ATOM     38  C   UNL A   1      44.217  31.004  30.631  1.00  0.00     0.037 A 
BRANCH  25  39
ATOM     39  C   UNL A   1      48.432  26.602  29.696  1.00  0.00     0.057 A 
ATOM     40  C   UNL A   1      48.868  25.957  30.861  1.00  0.00     0.134 A 
ATOM     41  C   UNL A   1      49.388  26.870  28.709  1.00  0.00     0.134 A 
ATOM     42  F   UNL A   1      48.005  25.676  31.848  1.00  0.00    -0.206 F 
ATOM     43  C   UNL A   1      50.205  25.603  31.042  1.00  0.00     0.040 A 
ATOM     44  C   UNL A   1      50.723  26.495  28.866  1.00  0.00     0.040 A 
ATOM     45  F   UNL A   1      49.034  27.474  27.564  1.00  0.00    -0.206 F 
ATOM     46  C   UNL A   1      51.137  25.867  30.040  1.00  0.00     0.006 A 
ENDBRANCH  25  39
BRANCH  26  47
ATOM     47  C   UNL A   1      38.760  29.007  28.965  1.00  0.00     0.057 A 
ATOM     48  C   UNL A   1      37.945  28.898  30.098  1.00  0.00     0.134 A 
ATOM     49  C   UNL A   1      38.187  29.554  27.811  1.00  0.00     0.134 A 
ATOM     50  F   UNL A   1      38.428  28.377  31.235  1.00  0.00    -0.206 F 
ATOM     51  C   UNL A   1      36.618  29.332  30.089  1.00  0.00     0.040 A 
ATOM     52  C   UNL A   1      36.871  30.022  27.798  1.00  0.00     0.040 A 
ATOM     53  F   UNL A   1      38.920  29.705  26.698  1.00  0.00    -0.206 F 
ATOM     54  C   UNL A   1      36.083  29.911  28.941  1.00  0.00     0.006 A 
ENDBRANCH  26  47
BRANCH  38  55
ATOM     55  C   UNL A   1      44.422  32.386  31.181  1.00  0.00     0.057 A 
ATOM     56  C   UNL A   1      44.685  33.458  30.318  1.00  0.00     0.134 A 
ATOM     57  C   UNL A   1      44.422  32.647  32.556  1.00  0.00     0.134 A 
ATOM     58  F   UNL A   1      44.710  33.272  28.989  1.00  0.00    -0.206 F 
ATOM     59  C   UNL A   1      44.953  34.737  30.804  1.00  0.00     0.040 A 
ATOM     60  C   UNL A   1      44.658  33.930  33.053  1.00  0.00     0.040 A 
ATOM     61  F   UNL A   1      44.164  31.667  33.436  1.00  0.00    -0.206 F 
ATOM     62  C   UNL A   1      44.934  34.977  32.176  1.00  0.00     0.006 A 
ENDBRANCH  38  55
ENDBRANCH  12  13
ENDBRANCH   5   7
ENDBRANCH   2   3
ENDBRANCH   1   2
BRANCH   1  63
ATOM     63  C   UNL A   1      36.727  20.267  24.942  1.00  0.00     0.118 C 
BRANCH  63  64
ATOM     64  N   UNL A   1      35.701  19.244  24.839  1.00  0.00    -0.352 N 
ATOM     65  C   UNL A   1      34.340  19.387  24.923  1.00  0.00     0.255 C 
ATOM     66  H   UNL A   1      36.025  18.327  24.689  1.00  0.00     0.163 HD
ATOM     67  O   UNL A   1      33.615  18.396  24.919  1.00  0.00    -0.269 OA
BRANCH  65  68
ATOM     68  C   UNL A   1      33.742  20.726  25.087  1.00  0.00     0.081 A 
ATOM     69  C   UNL A   1      32.992  21.233  24.019  1.00  0.00     0.020 A 
ATOM     70  C   UNL A   1      33.913  21.492  26.242  1.00  0.00     0.130 A 
ATOM     71  C   UNL A   1      32.385  22.489  24.123  1.00  0.00     0.028 A 
ATOM     72  C   UNL A   1      33.308  22.744  26.344  1.00  0.00     0.073 A 
ATOM     73  C   UNL A   1      32.558  23.264  25.278  1.00  0.00     0.054 A 
BRANCH  70  74
ATOM     74  O   UNL A   1      34.658  21.025  27.289  1.00  0.00    -0.507 OA
ATOM     75  H   UNL A   1      34.298  20.387  27.872  1.00  0.00     0.293 HD
ENDBRANCH  70  74
BRANCH  73  76
ATOM     76  N   UNL A   1      31.972  24.558  25.386  1.00  0.00    -0.261 N 
ATOM     77  C   UNL A   1      32.649  25.673  24.890  1.00  0.00     0.270 C 
ATOM     78  C   UNL A   1      30.721  24.793  25.944  1.00  0.00     0.152 C 
ATOM     79  O   UNL A   1      33.759  25.707  24.378  1.00  0.00    -0.268 OA
ATOM     80  C   UNL A   1      31.784  26.882  25.004  1.00  0.00     0.081 C 
ATOM     81  S   UNL A   1      30.284  26.479  25.731  1.00  0.00    -0.054 SA
ATOM     82  S   UNL A   1      29.716  23.763  26.802  1.00  0.00    -0.051 S 
ATOM     83  C   UNL A   1      32.149  28.077  24.520  1.00  0.00     0.027 C 
BRANCH  83  84
ATOM     84  C   UNL A   1      31.349  29.277  24.556  1.00  0.00    -0.016 C 
ATOM     85  C   UNL A   1      30.304  29.558  23.782  1.00  0.00     0.005 A 
ATOM     86  C   UNL A   1      31.603  30.398  25.527  1.00  0.00     0.179 C 
ATOM     87  C   UNL A   1      29.617  28.901  22.717  1.00  0.00     0.011 A 
ATOM     88  C   UNL A   1      29.865  30.869  24.293  1.00  0.00     0.065 A 
ATOM     89  N   UNL A   1      30.548  31.407  25.259  1.00  0.00    -0.280 NA
ATOM     90  C   UNL A   1      28.541  29.498  22.179  1.00  0.00     0.001 A 
ATOM     91  C   UNL A   1      28.666  31.456  23.657  1.00  0.00     0.028 A 
ATOM     92  C   UNL A   1      28.063  30.783  22.663  1.00  0.00     0.002 A 
ENDBRANCH  83  84
ENDBRANCH  73  76
ENDBRANCH  65  68
ENDBRANCH  63  64
ENDBRANCH   1  63
TORSDOF 13
ENDMDL
MODEL 3
REMARK VINA RESULT:     -11.2      5.470     10.561
REMARK SMILES O=C(NCCCNC(=O)c1ccc(N2C(=O)/C(=C/C3=c4ccccc4=NC3)SC2=S)cc1O)c1ccc(-c2c3nc(c(-c4c(F)cccc4F)c4ccc([nH]4)c(-c4c(F)cccc4F)c4nc(c(-c5c(F)cccc5F)c5ccc2[nH]5)C=C4)C=C3)cc1
REMARK SMILES IDX 5 1 4 2 3 3 1 4 2 5 34 7 35 8 87 9 36 10 86 11 37 12 38 13
REMARK SMILES IDX 39 14 80 15 40 16 85 17 79 18 81 19 41 20 84 21 78 22 77 23
REMARK SMILES IDX 42 25 68 26 51 27 67 28 52 29 55 30 66 31 82 32 53 33 54 34
REMARK SMILES IDX 65 36 83 37 56 38 43 39 44 40 49 41 45 42 46 43 48 44 50 45
REMARK SMILES IDX 47 46 69 47 70 48 75 49 71 50 72 51 74 52 76 53 73 54 57 55
REMARK SMILES IDX 58 56 63 57 59 58 60 59 62 60 64 61 61 62 6 63 7 64 8 65
REMARK SMILES IDX 9 67 10 68 11 69 32 70 12 71 31 72 13 73 33 74 14 76 15 77
REMARK SMILES IDX 29 78 16 79 17 80 28 81 30 82 18 83 19 84 20 85 27 86 21 87
REMARK SMILES IDX 25 88 26 89 22 90 24 91 23 92
REMARK H PARENT 3 6 81 24 55 35 7 66 33 75
REMARK Flexibility Score: inf
ROOT
ATOM      1  C   UNL A   1      30.897  32.284  26.224  1.00  0.00     0.042 C 
ENDROOT
BRANCH   1   2
ATOM      2  C   UNL A   1      32.246  32.619  26.840  1.00  0.00     0.118 C 
BRANCH   2   3
ATOM      3  N   UNL A   1      32.287  33.966  27.387  1.00  0.00    -0.352 N 
ATOM      4  O   UNL A   1      32.786  35.599  28.845  1.00  0.00    -0.269 OA
ATOM      5  C   UNL A   1      33.069  34.498  28.377  1.00  0.00     0.251 C 
ATOM      6  H   UNL A   1      31.650  34.596  26.980  1.00  0.00     0.163 HD
BRANCH   5   7
ATOM      7  C   UNL A   1      34.253  33.771  28.888  1.00  0.00     0.039 A 
ATOM      8  C   UNL A   1      34.058  32.689  29.753  1.00  0.00     0.014 A 
ATOM      9  C   UNL A   1      35.550  34.202  28.599  1.00  0.00     0.014 A 
ATOM     10  C   UNL A   1      35.158  32.039  30.319  1.00  0.00     0.010 A 
ATOM     11  C   UNL A   1      36.645  33.498  29.089  1.00  0.00     0.010 A 
ATOM     12  C   UNL A   1      36.460  32.440  29.991  1.00  0.00    -0.014 A 
BRANCH  12  13
ATOM     13  C   UNL A   1      37.649  31.873  30.677  1.00  0.00     0.031 A 
ATOM     14  C   UNL A   1      38.470  30.830  29.961  1.00  0.00     0.074 A 
ATOM     15  C   UNL A   1      37.966  32.243  31.932  1.00  0.00     0.049 A 
ATOM     16  N   UNL A   1      39.447  30.088  30.412  1.00  0.00    -0.248 NA
ATOM     17  C   UNL A   1      38.124  30.571  28.552  1.00  0.00     0.031 C 
ATOM     18  C   UNL A   1      37.259  33.244  32.730  1.00  0.00     0.029 A 
ATOM     19  N   UNL A   1      38.961  31.796  32.765  1.00  0.00    -0.354 N 
ATOM     20  C   UNL A   1      39.804  29.254  29.360  1.00  0.00     0.074 A 
ATOM     21  C   UNL A   1      38.916  29.551  28.259  1.00  0.00     0.031 C 
ATOM     22  C   UNL A   1      37.845  33.339  33.935  1.00  0.00     0.029 A 
ATOM     23  C   UNL A   1      38.934  32.370  34.014  1.00  0.00     0.049 A 
ATOM     24  H   UNL A   1      39.631  31.127  32.494  1.00  0.00     0.167 HD
ATOM     25  C   UNL A   1      40.793  28.333  29.309  1.00  0.00     0.037 A 
ATOM     26  C   UNL A   1      39.684  32.116  35.104  1.00  0.00     0.037 A 
ATOM     27  C   UNL A   1      41.706  28.073  30.388  1.00  0.00     0.049 A 
ATOM     28  C   UNL A   1      40.748  31.049  35.032  1.00  0.00     0.074 A 
ATOM     29  C   UNL A   1      42.785  27.207  30.414  1.00  0.00     0.029 A 
ATOM     30  N   UNL A   1      41.645  28.677  31.634  1.00  0.00    -0.354 N 
ATOM     31  N   UNL A   1      41.108  30.304  34.015  1.00  0.00    -0.248 NA
ATOM     32  C   UNL A   1      41.508  30.786  36.263  1.00  0.00     0.031 C 
ATOM     33  C   UNL A   1      43.341  27.243  31.695  1.00  0.00     0.029 A 
ATOM     34  C   UNL A   1      42.647  28.177  32.447  1.00  0.00     0.049 A 
ATOM     35  H   UNL A   1      40.987  29.359  31.900  1.00  0.00     0.167 HD
ATOM     36  C   UNL A   1      42.160  29.517  34.473  1.00  0.00     0.074 A 
ATOM     37  C   UNL A   1      42.386  29.881  35.854  1.00  0.00     0.031 C 
ATOM     38  C   UNL A   1      42.875  28.577  33.810  1.00  0.00     0.037 A 
BRANCH  25  39
ATOM     39  C   UNL A   1      40.939  27.525  28.051  1.00  0.00     0.057 A 
ATOM     40  C   UNL A   1      40.281  26.295  27.922  1.00  0.00     0.134 A 
ATOM     41  C   UNL A   1      41.765  27.930  26.997  1.00  0.00     0.134 A 
ATOM     42  F   UNL A   1      39.479  25.845  28.898  1.00  0.00    -0.206 F 
ATOM     43  C   UNL A   1      40.449  25.493  26.793  1.00  0.00     0.040 A 
ATOM     44  C   UNL A   1      41.919  27.151  25.849  1.00  0.00     0.040 A 
ATOM     45  F   UNL A   1      42.414  29.105  27.052  1.00  0.00    -0.206 F 
ATOM     46  C   UNL A   1      41.267  25.923  25.749  1.00  0.00     0.006 A 
ENDBRANCH  25  39
BRANCH  26  47
ATOM     47  C   UNL A   1      39.454  32.848  36.377  1.00  0.00     0.057 A 
ATOM     48  C   UNL A   1      40.134  34.036  36.670  1.00  0.00     0.134 A 
ATOM     49  C   UNL A   1      38.488  32.418  37.295  1.00  0.00     0.134 A 
ATOM     50  F   UNL A   1      41.077  34.503  35.838  1.00  0.00    -0.206 F 
ATOM     51  C   UNL A   1      39.853  34.777  37.820  1.00  0.00     0.040 A 
ATOM     52  C   UNL A   1      38.174  33.165  38.432  1.00  0.00     0.040 A 
ATOM     53  F   UNL A   1      37.787  31.299  37.062  1.00  0.00    -0.206 F 
ATOM     54  C   UNL A   1      38.858  34.350  38.696  1.00  0.00     0.006 A 
ENDBRANCH  26  47
BRANCH  38  55
ATOM     55  C   UNL A   1      44.010  27.923  34.543  1.00  0.00     0.057 A 
ATOM     56  C   UNL A   1      45.293  28.487  34.506  1.00  0.00     0.134 A 
ATOM     57  C   UNL A   1      43.856  26.713  35.228  1.00  0.00     0.134 A 
ATOM     58  F   UNL A   1      45.511  29.642  33.857  1.00  0.00    -0.206 F 
ATOM     59  C   UNL A   1      46.382  27.865  35.115  1.00  0.00     0.040 A 
ATOM     60  C   UNL A   1      44.932  26.096  35.868  1.00  0.00     0.040 A 
ATOM     61  F   UNL A   1      42.651  26.127  35.312  1.00  0.00    -0.206 F 
ATOM     62  C   UNL A   1      46.201  26.667  35.804  1.00  0.00     0.006 A 
ENDBRANCH  38  55
ENDBRANCH  12  13
ENDBRANCH   5   7
ENDBRANCH   2   3
ENDBRANCH   1   2
BRANCH   1  63
ATOM     63  C   UNL A   1      30.903  31.025  25.373  1.00  0.00     0.118 C 
BRANCH  63  64
ATOM     64  N   UNL A   1      29.896  31.058  24.327  1.00  0.00    -0.352 N 
ATOM     65  C   UNL A   1      29.608  30.103  23.386  1.00  0.00     0.255 C 
ATOM     66  H   UNL A   1      29.348  31.875  24.288  1.00  0.00     0.163 HD
ATOM     67  O   UNL A   1      28.789  30.337  22.501  1.00  0.00    -0.269 OA
BRANCH  65  68
ATOM     68  C   UNL A   1      30.328  28.815  23.391  1.00  0.00     0.081 A 
ATOM     69  C   UNL A   1      31.725  28.856  23.319  1.00  0.00     0.020 A 
ATOM     70  C   UNL A   1      29.671  27.584  23.447  1.00  0.00     0.130 A 
ATOM     71  C   UNL A   1      32.463  27.669  23.338  1.00  0.00     0.028 A 
ATOM     72  C   UNL A   1      30.408  26.401  23.466  1.00  0.00     0.073 A 
ATOM     73  C   UNL A   1      31.809  26.431  23.389  1.00  0.00     0.054 A 
BRANCH  70  74
ATOM     74  O   UNL A   1      28.306  27.520  23.498  1.00  0.00    -0.507 OA
ATOM     75  H   UNL A   1      27.794  28.278  23.300  1.00  0.00     0.293 HD
ENDBRANCH  70  74
BRANCH  73  76
ATOM     76  N   UNL A   1      32.546  25.211  23.379  1.00  0.00    -0.261 N 
ATOM     77  C   UNL A   1      32.893  24.597  24.582  1.00  0.00     0.270 C 
ATOM     78  C   UNL A   1      32.933  24.556  22.216  1.00  0.00     0.152 C 
ATOM     79  O   UNL A   1      32.676  24.997  25.716  1.00  0.00    -0.268 OA
ATOM     80  C   UNL A   1      33.542  23.282  24.310  1.00  0.00     0.081 C 
ATOM     81  S   UNL A   1      33.660  23.010  22.621  1.00  0.00    -0.054 SA
ATOM     82  S   UNL A   1      32.874  25.068  20.623  1.00  0.00    -0.051 S 
ATOM     83  C   UNL A   1      33.896  22.438  25.288  1.00  0.00     0.027 C 
BRANCH  83  84
ATOM     84  C   UNL A   1      34.488  21.135  25.099  1.00  0.00    -0.016 C 
ATOM     85  C   UNL A   1      33.867  20.034  24.682  1.00  0.00     0.005 A 
ATOM     86  C   UNL A   1      35.945  20.857  25.347  1.00  0.00     0.179 C 
ATOM     87  C   UNL A   1      32.532  19.696  24.304  1.00  0.00     0.011 A 
ATOM     88  C   UNL A   1      34.959  19.045  24.633  1.00  0.00     0.065 A 
ATOM     89  N   UNL A   1      36.145  19.427  25.001  1.00  0.00    -0.280 NA
ATOM     90  C   UNL A   1      32.278  18.444  23.888  1.00  0.00     0.001 A 
ATOM     91  C   UNL A   1      34.602  17.693  24.154  1.00  0.00     0.028 A 
ATOM     92  C   UNL A   1      33.328  17.441  23.808  1.00  0.00     0.002 A 
ENDBRANCH  83  84
ENDBRANCH  73  76
ENDBRANCH  65  68
ENDBRANCH  63  64
ENDBRANCH   1  63
TORSDOF 13
ENDMDL
