MODEL 1
REMARK VINA RESULT:     -12.0      0.000      0.000
REMARK SMILES CC(=O)c1cc(C(=O)NC[C@H]2CC[C@H](C(=O)NCCCNC(=O)c3ccc(-c4c5nc(c(-c6c(F)cccc6F)c6ccc([nH]6)c(-c6c(F)cccc6F)c6nc(c(-c7c(F)cccc7F)c7ccc4[nH]7)C=C6)C=C5)cc3)O2)n(C)c1
REMARK SMILES IDX 18 1 17 2 15 3 16 4 14 6 11 7 12 8 78 9 13 10 10 11 9 12
REMARK SMILES IDX 7 13 8 14 6 16 4 17 5 18 81 19 79 20 80 21 2 22 1 23 3 24
REMARK SMILES IDX 19 25 20 26 21 27 22 28 23 30 24 31 25 32 77 33 26 34 76 35
REMARK SMILES IDX 27 36 28 37 29 38 70 39 30 40 75 41 69 42 71 43 31 44 74 45
REMARK SMILES IDX 68 46 67 47 32 49 58 50 41 51 57 52 42 53 45 54 56 55 72 56
REMARK SMILES IDX 43 57 44 58 55 60 73 61 46 62 33 63 34 64 39 65 35 66 36 67
REMARK SMILES IDX 38 68 40 69 37 70 59 71 60 72 65 73 61 74 62 75 64 76 66 77
REMARK SMILES IDX 63 78 47 79 48 80 53 81 49 82 50 83 52 84 54 85 51 86
REMARK H PARENT 17 5 9 15 21 29 71 48 45 59
REMARK Flexibility Score: inf
ROOT
ATOM      1  C   UNL A   1      31.559  30.746  26.263  1.00  0.00     0.117 C 
ENDROOT
BRANCH   1   2
ATOM      2  N   UNL A   1      32.730  30.211  26.935  1.00  0.00    -0.354 N 
ATOM      3  C   UNL A   1      33.286  28.967  26.888  1.00  0.00     0.249 C 
ATOM      4  O   UNL A   1      34.270  28.756  27.604  1.00  0.00    -0.272 OA
ATOM      5  H   UNL A   1      33.197  30.850  27.519  1.00  0.00     0.163 HD
BRANCH   3   6
ATOM      6  C   UNL A   1      32.700  27.842  26.016  1.00  0.00     0.207 C 
ATOM      7  C   UNL A   1      31.948  25.663  26.471  1.00  0.00     0.138 C 
ATOM      8  C   UNL A   1      33.383  25.529  26.008  1.00  0.00     0.037 C 
ATOM      9  O   UNL A   1      31.688  27.067  26.638  1.00  0.00    -0.363 OA
ATOM     10  C   UNL A   1      33.751  26.890  25.466  1.00  0.00     0.045 C 
BRANCH   7  11
ATOM     11  C   UNL A   1      30.867  25.176  25.514  1.00  0.00     0.148 C 
BRANCH  11  12
ATOM     12  N   UNL A   1      31.238  25.052  24.134  1.00  0.00    -0.348 N 
ATOM     13  C   UNL A   1      31.188  25.926  23.080  1.00  0.00     0.268 C 
ATOM     14  O   UNL A   1      31.600  25.435  22.022  1.00  0.00    -0.268 OA
ATOM     15  H   UNL A   1      31.599  24.166  23.899  1.00  0.00     0.163 HD
BRANCH  13  16
ATOM     16  C   UNL A   1      30.653  27.292  23.104  1.00  0.00     0.107 A 
ATOM     17  C   UNL A   1      28.979  28.898  23.179  1.00  0.00     0.036 A 
ATOM     18  C   UNL A   1      29.272  27.513  23.228  1.00  0.00     0.045 A 
ATOM     19  C   UNL A   1      30.203  29.514  23.073  1.00  0.00     0.097 A 
ATOM     20  N   UNL A   1      31.189  28.561  22.933  1.00  0.00    -0.346 N 
ATOM     21  C   UNL A   1      32.509  28.988  22.520  1.00  0.00     0.150 C 
BRANCH  17  22
ATOM     22  C   UNL A   1      27.699  29.603  23.203  1.00  0.00     0.161 C 
ATOM     23  C   UNL A   1      27.707  31.108  23.205  1.00  0.00     0.093 C 
ATOM     24  O   UNL A   1      26.630  28.990  23.195  1.00  0.00    -0.294 OA
ENDBRANCH  17  22
ENDBRANCH  13  16
ENDBRANCH  11  12
ENDBRANCH   7  11
ENDBRANCH   3   6
ENDBRANCH   1   2
BRANCH   1  25
ATOM     25  C   UNL A   1      31.398  32.237  26.528  1.00  0.00     0.042 C 
BRANCH  25  26
ATOM     26  C   UNL A   1      32.599  32.824  27.257  1.00  0.00     0.118 C 
BRANCH  26  27
ATOM     27  N   UNL A   1      32.395  34.229  27.592  1.00  0.00    -0.352 N 
ATOM     28  C   UNL A   1      32.979  35.008  28.557  1.00  0.00     0.251 C 
ATOM     29  H   UNL A   1      31.729  34.693  27.033  1.00  0.00     0.163 HD
ATOM     30  O   UNL A   1      32.494  36.101  28.829  1.00  0.00    -0.269 OA
BRANCH  28  31
ATOM     31  C   UNL A   1      34.176  34.531  29.279  1.00  0.00     0.039 A 
ATOM     32  C   UNL A   1      34.016  33.970  30.549  1.00  0.00     0.014 A 
ATOM     33  C   UNL A   1      35.450  34.656  28.721  1.00  0.00     0.014 A 
ATOM     34  C   UNL A   1      35.127  33.464  31.226  1.00  0.00     0.010 A 
ATOM     35  C   UNL A   1      36.543  34.079  29.358  1.00  0.00     0.010 A 
ATOM     36  C   UNL A   1      36.391  33.473  30.614  1.00  0.00    -0.014 A 
BRANCH  36  37
ATOM     37  C   UNL A   1      37.559  32.822  31.252  1.00  0.00     0.031 A 
ATOM     38  C   UNL A   1      38.205  31.626  30.614  1.00  0.00     0.074 A 
ATOM     39  C   UNL A   1      37.980  33.264  32.453  1.00  0.00     0.049 A 
ATOM     40  N   UNL A   1      39.173  30.872  31.067  1.00  0.00    -0.248 NA
ATOM     41  C   UNL A   1      37.677  31.207  29.306  1.00  0.00     0.031 C 
ATOM     42  C   UNL A   1      37.399  34.387  33.192  1.00  0.00     0.029 A 
ATOM     43  N   UNL A   1      38.984  32.814  33.272  1.00  0.00    -0.354 N 
ATOM     44  C   UNL A   1      39.363  29.885  30.109  1.00  0.00     0.074 A 
ATOM     45  C   UNL A   1      38.377  30.106  29.073  1.00  0.00     0.031 C 
ATOM     46  C   UNL A   1      38.068  34.550  34.344  1.00  0.00     0.029 A 
ATOM     47  C   UNL A   1      39.093  33.516  34.447  1.00  0.00     0.049 A 
ATOM     48  H   UNL A   1      39.570  32.058  33.040  1.00  0.00     0.167 HD
ATOM     49  C   UNL A   1      40.290  28.898  30.087  1.00  0.00     0.037 A 
ATOM     50  C   UNL A   1      39.914  33.338  35.498  1.00  0.00     0.037 A 
ATOM     51  C   UNL A   1      41.278  28.698  31.113  1.00  0.00     0.049 A 
ATOM     52  C   UNL A   1      40.912  32.215  35.461  1.00  0.00     0.074 A 
ATOM     53  C   UNL A   1      42.309  27.774  31.148  1.00  0.00     0.029 A 
ATOM     54  N   UNL A   1      41.354  29.427  32.291  1.00  0.00    -0.354 N 
ATOM     55  N   UNL A   1      41.133  31.337  34.513  1.00  0.00    -0.248 NA
ATOM     56  C   UNL A   1      41.772  32.055  36.643  1.00  0.00     0.031 C 
ATOM     57  C   UNL A   1      42.976  27.910  32.371  1.00  0.00     0.029 A 
ATOM     58  C   UNL A   1      42.390  28.949  33.077  1.00  0.00     0.049 A 
ATOM     59  H   UNL A   1      40.760  30.173  32.532  1.00  0.00     0.167 HD
ATOM     60  C   UNL A   1      42.163  30.530  34.975  1.00  0.00     0.074 A 
ATOM     61  C   UNL A   1      42.539  31.037  36.279  1.00  0.00     0.031 C 
ATOM     62  C   UNL A   1      42.742  29.460  34.377  1.00  0.00     0.037 A 
BRANCH  49  63
ATOM     63  C   UNL A   1      40.278  27.961  28.915  1.00  0.00     0.057 A 
ATOM     64  C   UNL A   1      40.999  28.231  27.744  1.00  0.00     0.134 A 
ATOM     65  C   UNL A   1      39.573  26.751  28.972  1.00  0.00     0.134 A 
ATOM     66  F   UNL A   1      41.688  29.377  27.619  1.00  0.00    -0.206 F 
ATOM     67  C   UNL A   1      40.999  27.347  26.664  1.00  0.00     0.040 A 
ATOM     68  C   UNL A   1      39.587  25.846  27.910  1.00  0.00     0.040 A 
ATOM     69  F   UNL A   1      38.866  26.426  30.066  1.00  0.00    -0.206 F 
ATOM     70  C   UNL A   1      40.297  26.147  26.749  1.00  0.00     0.006 A 
ENDBRANCH  49  63
BRANCH  50  71
ATOM     71  C   UNL A   1      39.828  34.244  36.671  1.00  0.00     0.057 A 
ATOM     72  C   UNL A   1      39.047  33.912  37.783  1.00  0.00     0.134 A 
ATOM     73  C   UNL A   1      40.522  35.459  36.709  1.00  0.00     0.134 A 
ATOM     74  F   UNL A   1      38.344  32.769  37.797  1.00  0.00    -0.206 F 
ATOM     75  C   UNL A   1      38.947  34.761  38.886  1.00  0.00     0.040 A 
ATOM     76  C   UNL A   1      40.452  36.306  37.816  1.00  0.00     0.040 A 
ATOM     77  F   UNL A   1      41.295  35.832  35.679  1.00  0.00    -0.206 F 
ATOM     78  C   UNL A   1      39.656  35.961  38.907  1.00  0.00     0.006 A 
ENDBRANCH  50  71
BRANCH  62  79
ATOM     79  C   UNL A   1      43.842  28.770  35.127  1.00  0.00     0.057 A 
ATOM     80  C   UNL A   1      43.580  27.694  35.984  1.00  0.00     0.134 A 
ATOM     81  C   UNL A   1      45.177  29.155  34.956  1.00  0.00     0.134 A 
ATOM     82  F   UNL A   1      42.321  27.287  36.200  1.00  0.00    -0.206 F 
ATOM     83  C   UNL A   1      44.609  27.033  36.658  1.00  0.00     0.040 A 
ATOM     84  C   UNL A   1      46.217  28.486  35.605  1.00  0.00     0.040 A 
ATOM     85  F   UNL A   1      45.496  30.173  34.144  1.00  0.00    -0.206 F 
ATOM     86  C   UNL A   1      45.933  27.425  36.462  1.00  0.00     0.006 A 
ENDBRANCH  62  79
ENDBRANCH  36  37
ENDBRANCH  28  31
ENDBRANCH  26  27
ENDBRANCH  25  26
ENDBRANCH   1  25
TORSDOF 14
ENDMDL
MODEL 2
REMARK VINA RESULT:     -11.9      5.376     10.112
REMARK SMILES CC(=O)c1cc(C(=O)NC[C@H]2CC[C@H](C(=O)NCCCNC(=O)c3ccc(-c4c5nc(c(-c6c(F)cccc6F)c6ccc([nH]6)c(-c6c(F)cccc6F)c6nc(c(-c7c(F)cccc7F)c7ccc4[nH]7)C=C6)C=C5)cc3)O2)n(C)c1
REMARK SMILES IDX 18 1 17 2 15 3 16 4 14 6 11 7 12 8 78 9 13 10 10 11 9 12
REMARK SMILES IDX 7 13 8 14 6 16 4 17 5 18 81 19 79 20 80 21 2 22 1 23 3 24
REMARK SMILES IDX 19 25 20 26 21 27 22 28 23 30 24 31 25 32 77 33 26 34 76 35
REMARK SMILES IDX 27 36 28 37 29 38 70 39 30 40 75 41 69 42 71 43 31 44 74 45
REMARK SMILES IDX 68 46 67 47 32 49 58 50 41 51 57 52 42 53 45 54 56 55 72 56
REMARK SMILES IDX 43 57 44 58 55 60 73 61 46 62 33 63 34 64 39 65 35 66 36 67
REMARK SMILES IDX 38 68 40 69 37 70 59 71 60 72 65 73 61 74 62 75 64 76 66 77
REMARK SMILES IDX 63 78 47 79 48 80 53 81 49 82 50 83 52 84 54 85 51 86
REMARK H PARENT 17 5 9 15 21 29 71 48 45 59
REMARK Flexibility Score: inf
ROOT
ATOM      1  C   UNL A   1      36.652  20.743  25.056  1.00  0.00     0.117 C 
ENDROOT
BRANCH   1   2
ATOM      2  N   UNL A   1      35.365  20.075  24.993  1.00  0.00    -0.354 N 
ATOM      3  C   UNL A   1      34.132  20.557  24.666  1.00  0.00     0.249 C 
ATOM      4  O   UNL A   1      33.178  19.776  24.738  1.00  0.00    -0.272 OA
ATOM      5  H   UNL A   1      35.386  19.119  25.224  1.00  0.00     0.163 HD
BRANCH   3   6
ATOM      6  C   UNL A   1      33.910  22.026  24.262  1.00  0.00     0.207 C 
ATOM      7  C   UNL A   1      32.400  23.687  24.957  1.00  0.00     0.138 C 
ATOM      8  C   UNL A   1      31.801  23.060  23.716  1.00  0.00     0.037 C 
ATOM      9  O   UNL A   1      33.537  22.889  25.325  1.00  0.00    -0.363 OA
ATOM     10  C   UNL A   1      32.901  22.200  23.139  1.00  0.00     0.045 C 
BRANCH   7  11
ATOM     11  C   UNL A   1      32.943  25.104  24.820  1.00  0.00     0.148 C 
BRANCH  11  12
ATOM     12  N   UNL A   1      33.308  25.528  23.499  1.00  0.00    -0.348 N 
ATOM     13  C   UNL A   1      32.905  26.581  22.720  1.00  0.00     0.268 C 
ATOM     14  O   UNL A   1      33.456  26.605  21.614  1.00  0.00    -0.268 OA
ATOM     15  H   UNL A   1      33.980  24.950  23.069  1.00  0.00     0.163 HD
BRANCH  13  16
ATOM     16  C   UNL A   1      31.884  27.577  23.062  1.00  0.00     0.107 A 
ATOM     17  C   UNL A   1      29.873  28.708  22.801  1.00  0.00     0.036 A 
ATOM     18  C   UNL A   1      30.685  27.646  22.333  1.00  0.00     0.045 A 
ATOM     19  C   UNL A   1      30.572  29.249  23.854  1.00  0.00     0.097 A 
ATOM     20  N   UNL A   1      31.806  28.641  23.949  1.00  0.00    -0.346 N 
ATOM     21  C   UNL A   1      32.810  29.247  24.798  1.00  0.00     0.150 C 
BRANCH  17  22
ATOM     22  C   UNL A   1      28.585  29.205  22.323  1.00  0.00     0.161 C 
ATOM     23  C   UNL A   1      27.345  28.860  23.104  1.00  0.00     0.093 C 
ATOM     24  O   UNL A   1      28.506  29.914  21.319  1.00  0.00    -0.294 OA
ENDBRANCH  17  22
ENDBRANCH  13  16
ENDBRANCH  11  12
ENDBRANCH   7  11
ENDBRANCH   3   6
ENDBRANCH   1   2
BRANCH   1  25
ATOM     25  C   UNL A   1      37.801  19.745  25.004  1.00  0.00     0.042 C 
BRANCH  25  26
ATOM     26  C   UNL A   1      39.021  20.234  25.773  1.00  0.00     0.118 C 
BRANCH  26  27
ATOM     27  N   UNL A   1      40.031  19.190  25.906  1.00  0.00    -0.352 N 
ATOM     28  C   UNL A   1      41.382  19.280  26.120  1.00  0.00     0.251 C 
ATOM     29  H   UNL A   1      39.686  18.271  25.828  1.00  0.00     0.163 HD
ATOM     30  O   UNL A   1      42.089  18.291  25.961  1.00  0.00    -0.269 OA
BRANCH  28  31
ATOM     31  C   UNL A   1      41.991  20.564  26.525  1.00  0.00     0.039 A 
ATOM     32  C   UNL A   1      42.469  21.424  25.533  1.00  0.00     0.014 A 
ATOM     33  C   UNL A   1      42.111  20.910  27.873  1.00  0.00     0.014 A 
ATOM     34  C   UNL A   1      42.998  22.665  25.891  1.00  0.00     0.010 A 
ATOM     35  C   UNL A   1      42.562  22.177  28.223  1.00  0.00     0.010 A 
ATOM     36  C   UNL A   1      43.004  23.068  27.236  1.00  0.00    -0.014 A 
BRANCH  36  37
ATOM     37  C   UNL A   1      43.434  24.432  27.627  1.00  0.00     0.031 A 
ATOM     38  C   UNL A   1      42.418  25.467  28.014  1.00  0.00     0.074 A 
ATOM     39  C   UNL A   1      44.740  24.754  27.550  1.00  0.00     0.049 A 
ATOM     40  N   UNL A   1      42.596  26.732  28.297  1.00  0.00    -0.248 NA
ATOM     41  C   UNL A   1      41.014  25.031  28.066  1.00  0.00     0.031 C 
ATOM     42  C   UNL A   1      45.813  23.845  27.140  1.00  0.00     0.029 A 
ATOM     43  N   UNL A   1      45.387  25.938  27.797  1.00  0.00    -0.354 N 
ATOM     44  C   UNL A   1      41.330  27.244  28.549  1.00  0.00     0.074 A 
ATOM     45  C   UNL A   1      40.388  26.167  28.337  1.00  0.00     0.031 C 
ATOM     46  C   UNL A   1      46.984  24.498  27.182  1.00  0.00     0.029 A 
ATOM     47  C   UNL A   1      46.741  25.882  27.577  1.00  0.00     0.049 A 
ATOM     48  H   UNL A   1      44.924  26.751  28.102  1.00  0.00     0.167 HD
ATOM     49  C   UNL A   1      40.989  28.495  28.942  1.00  0.00     0.037 A 
ATOM     50  C   UNL A   1      47.680  26.841  27.666  1.00  0.00     0.037 A 
ATOM     51  C   UNL A   1      41.936  29.554  29.169  1.00  0.00     0.049 A 
ATOM     52  C   UNL A   1      47.270  28.229  28.073  1.00  0.00     0.074 A 
ATOM     53  C   UNL A   1      41.700  30.834  29.640  1.00  0.00     0.029 A 
ATOM     54  N   UNL A   1      43.299  29.460  28.931  1.00  0.00    -0.354 N 
ATOM     55  N   UNL A   1      46.080  28.679  28.385  1.00  0.00    -0.248 NA
ATOM     56  C   UNL A   1      48.333  29.241  28.137  1.00  0.00     0.031 C 
ATOM     57  C   UNL A   1      42.913  31.531  29.638  1.00  0.00     0.029 A 
ATOM     58  C   UNL A   1      43.912  30.671  29.209  1.00  0.00     0.049 A 
ATOM     59  H   UNL A   1      43.762  28.653  28.612  1.00  0.00     0.167 HD
ATOM     60  C   UNL A   1      46.250  30.022  28.694  1.00  0.00     0.074 A 
ATOM     61  C   UNL A   1      47.663  30.306  28.554  1.00  0.00     0.031 C 
ATOM     62  C   UNL A   1      45.319  30.938  29.054  1.00  0.00     0.037 A 
BRANCH  49  63
ATOM     63  C   UNL A   1      39.531  28.782  29.153  1.00  0.00     0.057 A 
ATOM     64  C   UNL A   1      38.922  28.635  30.407  1.00  0.00     0.134 A 
ATOM     65  C   UNL A   1      38.736  29.254  28.101  1.00  0.00     0.134 A 
ATOM     66  F   UNL A   1      39.625  28.178  31.454  1.00  0.00    -0.206 F 
ATOM     67  C   UNL A   1      37.570  28.923  30.601  1.00  0.00     0.040 A 
ATOM     68  C   UNL A   1      37.389  29.571  28.288  1.00  0.00     0.040 A 
ATOM     69  F   UNL A   1      39.256  29.424  26.875  1.00  0.00    -0.206 F 
ATOM     70  C   UNL A   1      36.802  29.399  29.540  1.00  0.00     0.006 A 
ENDBRANCH  49  63
BRANCH  50  71
ATOM     71  C   UNL A   1      49.099  26.523  27.365  1.00  0.00     0.057 A 
ATOM     72  C   UNL A   1      49.969  26.089  28.371  1.00  0.00     0.134 A 
ATOM     73  C   UNL A   1      49.618  26.642  26.071  1.00  0.00     0.134 A 
ATOM     74  F   UNL A   1      49.535  25.972  29.635  1.00  0.00    -0.206 F 
ATOM     75  C   UNL A   1      51.308  25.799  28.105  1.00  0.00     0.040 A 
ATOM     76  C   UNL A   1      50.948  26.332  25.784  1.00  0.00     0.040 A 
ATOM     77  F   UNL A   1      48.833  27.045  25.060  1.00  0.00    -0.206 F 
ATOM     78  C   UNL A   1      51.800  25.915  26.806  1.00  0.00     0.006 A 
ENDBRANCH  50  71
BRANCH  62  79
ATOM     79  C   UNL A   1      45.802  32.333  29.324  1.00  0.00     0.057 A 
ATOM     80  C   UNL A   1      45.779  33.320  28.331  1.00  0.00     0.134 A 
ATOM     81  C   UNL A   1      46.249  32.703  30.598  1.00  0.00     0.134 A 
ATOM     82  F   UNL A   1      45.376  33.024  27.086  1.00  0.00    -0.206 F 
ATOM     83  C   UNL A   1      46.201  34.625  28.592  1.00  0.00     0.040 A 
ATOM     84  C   UNL A   1      46.649  34.011  30.878  1.00  0.00     0.040 A 
ATOM     85  F   UNL A   1      46.287  31.807  31.595  1.00  0.00    -0.206 F 
ATOM     86  C   UNL A   1      46.630  34.975  29.872  1.00  0.00     0.006 A 
ENDBRANCH  62  79
ENDBRANCH  36  37
ENDBRANCH  28  31
ENDBRANCH  26  27
ENDBRANCH  25  26
ENDBRANCH   1  25
TORSDOF 14
ENDMDL
MODEL 3
REMARK VINA RESULT:     -11.8      1.904      3.599
REMARK SMILES CC(=O)c1cc(C(=O)NC[C@H]2CC[C@H](C(=O)NCCCNC(=O)c3ccc(-c4c5nc(c(-c6c(F)cccc6F)c6ccc([nH]6)c(-c6c(F)cccc6F)c6nc(c(-c7c(F)cccc7F)c7ccc4[nH]7)C=C6)C=C5)cc3)O2)n(C)c1
REMARK SMILES IDX 18 1 17 2 15 3 16 4 14 6 11 7 12 8 78 9 13 10 10 11 9 12
REMARK SMILES IDX 7 13 8 14 6 16 4 17 5 18 81 19 79 20 80 21 2 22 1 23 3 24
REMARK SMILES IDX 19 25 20 26 21 27 22 28 23 30 24 31 25 32 77 33 26 34 76 35
REMARK SMILES IDX 27 36 28 37 29 38 70 39 30 40 75 41 69 42 71 43 31 44 74 45
REMARK SMILES IDX 68 46 67 47 32 49 58 50 41 51 57 52 42 53 45 54 56 55 72 56
REMARK SMILES IDX 43 57 44 58 55 60 73 61 46 62 33 63 34 64 39 65 35 66 36 67
REMARK SMILES IDX 38 68 40 69 37 70 59 71 60 72 65 73 61 74 62 75 64 76 66 77
REMARK SMILES IDX 63 78 47 79 48 80 53 81 49 82 50 83 52 84 54 85 51 86
REMARK H PARENT 17 5 9 15 21 29 71 48 45 59
REMARK Flexibility Score: inf
ROOT
ATOM      1  C   UNL A   1      31.692  30.640  25.971  1.00  0.00     0.117 C 
ENDROOT
BRANCH   1   2
ATOM      2  N   UNL A   1      30.990  30.410  24.722  1.00  0.00    -0.354 N 
ATOM      3  C   UNL A   1      30.966  29.317  23.908  1.00  0.00     0.249 C 
ATOM      4  O   UNL A   1      30.314  29.399  22.862  1.00  0.00    -0.272 OA
ATOM      5  H   UNL A   1      30.444  31.167  24.411  1.00  0.00     0.163 HD
BRANCH   3   6
ATOM      6  C   UNL A   1      31.748  28.033  24.241  1.00  0.00     0.207 C 
ATOM      7  C   UNL A   1      32.530  27.084  26.243  1.00  0.00     0.138 C 
ATOM      8  C   UNL A   1      33.690  27.863  25.660  1.00  0.00     0.037 C 
ATOM      9  O   UNL A   1      31.372  27.399  25.453  1.00  0.00    -0.363 OA
ATOM     10  C   UNL A   1      33.255  28.228  24.260  1.00  0.00     0.045 C 
BRANCH   7  11
ATOM     11  C   UNL A   1      32.631  25.565  26.202  1.00  0.00     0.148 C 
BRANCH  11  12
ATOM     12  N   UNL A   1      31.522  24.831  26.741  1.00  0.00    -0.348 N 
ATOM     13  C   UNL A   1      31.244  23.491  26.810  1.00  0.00     0.268 C 
ATOM     14  O   UNL A   1      30.161  23.247  27.354  1.00  0.00    -0.268 OA
ATOM     15  H   UNL A   1      30.825  25.402  27.140  1.00  0.00     0.163 HD
BRANCH  13  16
ATOM     16  C   UNL A   1      32.058  22.403  26.259  1.00  0.00     0.107 A 
ATOM     17  C   UNL A   1      32.495  20.592  24.873  1.00  0.00     0.036 A 
ATOM     18  C   UNL A   1      31.567  21.607  25.210  1.00  0.00     0.045 A 
ATOM     19  C   UNL A   1      33.574  20.813  25.695  1.00  0.00     0.097 A 
ATOM     20  N   UNL A   1      33.278  21.826  26.582  1.00  0.00    -0.346 N 
ATOM     21  C   UNL A   1      34.154  22.028  27.717  1.00  0.00     0.150 C 
BRANCH  17  22
ATOM     22  C   UNL A   1      32.405  19.501  23.904  1.00  0.00     0.161 C 
ATOM     23  C   UNL A   1      32.637  18.093  24.383  1.00  0.00     0.093 C 
ATOM     24  O   UNL A   1      32.120  19.715  22.725  1.00  0.00    -0.294 OA
ENDBRANCH  17  22
ENDBRANCH  13  16
ENDBRANCH  11  12
ENDBRANCH   7  11
ENDBRANCH   3   6
ENDBRANCH   1   2
BRANCH   1  25
ATOM     25  C   UNL A   1      31.371  32.013  26.547  1.00  0.00     0.042 C 
BRANCH  25  26
ATOM     26  C   UNL A   1      32.559  32.620  27.281  1.00  0.00     0.118 C 
BRANCH  26  27
ATOM     27  N   UNL A   1      32.354  34.037  27.561  1.00  0.00    -0.352 N 
ATOM     28  C   UNL A   1      32.941  34.854  28.493  1.00  0.00     0.251 C 
ATOM     29  H   UNL A   1      31.685  34.478  26.988  1.00  0.00     0.163 HD
ATOM     30  O   UNL A   1      32.456  35.956  28.725  1.00  0.00    -0.269 OA
BRANCH  28  31
ATOM     31  C   UNL A   1      34.141  34.407  29.228  1.00  0.00     0.039 A 
ATOM     32  C   UNL A   1      33.983  33.855  30.502  1.00  0.00     0.014 A 
ATOM     33  C   UNL A   1      35.417  34.551  28.678  1.00  0.00     0.014 A 
ATOM     34  C   UNL A   1      35.099  33.377  31.191  1.00  0.00     0.010 A 
ATOM     35  C   UNL A   1      36.516  34.002  29.328  1.00  0.00     0.010 A 
ATOM     36  C   UNL A   1      36.367  33.405  30.588  1.00  0.00    -0.014 A 
BRANCH  36  37
ATOM     37  C   UNL A   1      37.542  32.782  31.241  1.00  0.00     0.031 A 
ATOM     38  C   UNL A   1      38.197  31.574  30.635  1.00  0.00     0.074 A 
ATOM     39  C   UNL A   1      37.963  33.262  32.427  1.00  0.00     0.049 A 
ATOM     40  N   UNL A   1      39.173  30.841  31.106  1.00  0.00    -0.248 NA
ATOM     41  C   UNL A   1      37.669  31.113  29.341  1.00  0.00     0.031 C 
ATOM     42  C   UNL A   1      37.374  34.400  33.136  1.00  0.00     0.029 A 
ATOM     43  N   UNL A   1      38.974  32.843  33.256  1.00  0.00    -0.354 N 
ATOM     44  C   UNL A   1      39.369  29.830  30.176  1.00  0.00     0.074 A 
ATOM     45  C   UNL A   1      38.378  30.012  29.137  1.00  0.00     0.031 C 
ATOM     46  C   UNL A   1      38.045  34.601  34.282  1.00  0.00     0.029 A 
ATOM     47  C   UNL A   1      39.079  33.580  34.410  1.00  0.00     0.049 A 
ATOM     48  H   UNL A   1      39.566  32.087  33.043  1.00  0.00     0.167 HD
ATOM     49  C   UNL A   1      40.305  28.851  30.178  1.00  0.00     0.037 A 
ATOM     50  C   UNL A   1      39.905  33.439  35.463  1.00  0.00     0.037 A 
ATOM     51  C   UNL A   1      41.298  28.688  31.207  1.00  0.00     0.049 A 
ATOM     52  C   UNL A   1      40.914  32.324  35.455  1.00  0.00     0.074 A 
ATOM     53  C   UNL A   1      42.337  27.776  31.265  1.00  0.00     0.029 A 
ATOM     54  N   UNL A   1      41.371  29.452  32.363  1.00  0.00    -0.354 N 
ATOM     55  N   UNL A   1      41.140  31.422  34.531  1.00  0.00    -0.248 NA
ATOM     56  C   UNL A   1      41.778  32.205  36.638  1.00  0.00     0.031 C 
ATOM     57  C   UNL A   1      43.006  27.952  32.481  1.00  0.00     0.029 A 
ATOM     58  C   UNL A   1      42.413  29.006  33.159  1.00  0.00     0.049 A 
ATOM     59  H   UNL A   1      40.771  30.199  32.585  1.00  0.00     0.167 HD
ATOM     60  C   UNL A   1      42.178  30.637  35.013  1.00  0.00     0.074 A 
ATOM     61  C   UNL A   1      42.553  31.184  36.301  1.00  0.00     0.031 C 
ATOM     62  C   UNL A   1      42.764  29.556  34.443  1.00  0.00     0.037 A 
BRANCH  49  63
ATOM     63  C   UNL A   1      40.298  27.881  29.033  1.00  0.00     0.057 A 
ATOM     64  C   UNL A   1      39.535  26.706  29.063  1.00  0.00     0.134 A 
ATOM     65  C   UNL A   1      41.029  28.145  27.867  1.00  0.00     0.134 A 
ATOM     66  F   UNL A   1      38.820  26.388  30.154  1.00  0.00    -0.206 F 
ATOM     67  C   UNL A   1      39.518  25.817  27.987  1.00  0.00     0.040 A 
ATOM     68  C   UNL A   1      40.999  27.278  26.774  1.00  0.00     0.040 A 
ATOM     69  F   UNL A   1      41.776  29.255  27.768  1.00  0.00    -0.206 F 
ATOM     70  C   UNL A   1      40.247  26.106  26.835  1.00  0.00     0.006 A 
ENDBRANCH  49  63
BRANCH  50  71
ATOM     71  C   UNL A   1      39.815  34.377  36.610  1.00  0.00     0.057 A 
ATOM     72  C   UNL A   1      39.062  34.058  37.744  1.00  0.00     0.134 A 
ATOM     73  C   UNL A   1      40.478  35.610  36.601  1.00  0.00     0.134 A 
ATOM     74  F   UNL A   1      38.389  32.899  37.804  1.00  0.00    -0.206 F 
ATOM     75  C   UNL A   1      38.957  34.937  38.824  1.00  0.00     0.040 A 
ATOM     76  C   UNL A   1      40.403  36.488  37.683  1.00  0.00     0.040 A 
ATOM     77  F   UNL A   1      41.223  35.972  35.546  1.00  0.00    -0.206 F 
ATOM     78  C   UNL A   1      39.634  36.154  38.797  1.00  0.00     0.006 A 
ENDBRANCH  50  71
BRANCH  62  79
ATOM     79  C   UNL A   1      43.873  28.897  35.209  1.00  0.00     0.057 A 
ATOM     80  C   UNL A   1      43.617  27.883  36.140  1.00  0.00     0.134 A 
ATOM     81  C   UNL A   1      45.209  29.246  34.980  1.00  0.00     0.134 A 
ATOM     82  F   UNL A   1      42.357  27.514  36.415  1.00  0.00    -0.206 F 
ATOM     83  C   UNL A   1      44.653  27.251  36.830  1.00  0.00     0.040 A 
ATOM     84  C   UNL A   1      46.255  28.603  35.644  1.00  0.00     0.040 A 
ATOM     85  F   UNL A   1      45.522  30.204  34.094  1.00  0.00    -0.206 F 
ATOM     86  C   UNL A   1      45.977  27.605  36.576  1.00  0.00     0.006 A 
ENDBRANCH  62  79
ENDBRANCH  36  37
ENDBRANCH  28  31
ENDBRANCH  26  27
ENDBRANCH  25  26
ENDBRANCH   1  25
TORSDOF 14
ENDMDL
