MODEL 1
REMARK VINA RESULT:     -13.3      0.000      0.000
REMARK SMILES NS(=O)(=O)c1ccc(-n2nc(C(=O)NCCCNC(=O)c3ccc(-c4c5nc(c(-c6c(F)cccc6F)c6ccc([nH]6)c(-c6c(F)cccc6F)c6nc(c(-c7c(F)cccc7F)c7ccc4[nH]7)C=C6)C=C5)cc3)c(Cl)c2-c2ccc(Cl)cc2)cc1
REMARK SMILES IDX 15 1 14 2 12 3 13 4 11 6 9 7 10 8 77 9 75 10 76 11 8 12 5 13
REMARK SMILES IDX 6 14 86 15 7 16 85 17 2 18 3 19 4 20 1 21 78 24 79 25 84 26
REMARK SMILES IDX 80 27 83 28 81 29 82 30 16 31 17 32 18 33 19 34 20 36 21 37
REMARK SMILES IDX 22 38 74 39 23 40 73 41 24 42 25 43 26 44 67 45 27 46 72 47
REMARK SMILES IDX 66 48 68 49 28 50 71 51 65 52 64 53 29 55 55 56 38 57 54 58
REMARK SMILES IDX 39 59 42 60 53 61 69 62 40 63 41 64 52 66 70 67 43 68 30 69
REMARK SMILES IDX 31 70 36 71 32 72 33 73 35 74 37 75 34 76 56 77 57 78 62 79
REMARK SMILES IDX 58 80 59 81 61 82 63 83 60 84 44 85 45 86 50 87 46 88 47 89
REMARK SMILES IDX 49 90 51 91 48 92
REMARK H PARENT 14 5 1 22 1 23 18 35 68 54 42 65
REMARK Flexibility Score: inf
ROOT
ATOM      1  C   UNL A   1      31.783  28.189  26.446  1.00  0.00     0.118 C 
ENDROOT
BRANCH   1   2
ATOM      2  N   UNL A   1      30.840  28.058  25.339  1.00  0.00    -0.351 N 
ATOM      3  C   UNL A   1      30.702  27.080  24.367  1.00  0.00     0.273 C 
ATOM      4  O   UNL A   1      29.735  27.186  23.610  1.00  0.00    -0.267 OA
ATOM      5  H   UNL A   1      30.188  28.792  25.271  1.00  0.00     0.163 HD
BRANCH   3   6
ATOM      6  C   UNL A   1      31.626  25.935  24.313  1.00  0.00     0.169 A 
ATOM      7  N   UNL A   1      32.284  23.896  24.480  1.00  0.00    -0.231 N 
ATOM      8  N   UNL A   1      31.170  24.666  24.415  1.00  0.00    -0.160 NA
ATOM      9  C   UNL A   1      33.432  24.661  24.550  1.00  0.00     0.094 A 
ATOM     10  C   UNL A   1      33.014  25.887  24.077  1.00  0.00     0.100 A 
ATOM     11  Cl  UNL A   1      34.042  27.003  23.320  1.00  0.00    -0.079 Cl
BRANCH   7  12
ATOM     12  C   UNL A   1      32.237  22.499  24.271  1.00  0.00     0.065 A 
ATOM     13  C   UNL A   1      32.520  19.783  23.769  1.00  0.00     0.082 A 
ATOM     14  C   UNL A   1      32.230  20.650  22.711  1.00  0.00     0.024 A 
ATOM     15  C   UNL A   1      32.655  20.265  25.076  1.00  0.00     0.024 A 
ATOM     16  C   UNL A   1      32.062  22.015  22.966  1.00  0.00     0.030 A 
ATOM     17  C   UNL A   1      32.527  21.629  25.327  1.00  0.00     0.030 A 
BRANCH  13  18
ATOM     18  S   UNL A   1      32.765  18.054  23.491  1.00  0.00     0.238 S 
ATOM     19  O   UNL A   1      34.128  17.725  23.868  1.00  0.00    -0.207 OA
ATOM     20  O   UNL A   1      32.203  17.703  22.217  1.00  0.00    -0.207 OA
BRANCH  18  21
ATOM     21  N   UNL A   1      31.778  17.304  24.626  1.00  0.00    -0.225 NA
ATOM     22  H   UNL A   1      31.470  16.401  24.265  1.00  0.00     0.137 HD
ATOM     23  H   UNL A   1      30.966  17.892  24.812  1.00  0.00     0.137 HD
ENDBRANCH  18  21
ENDBRANCH  13  18
ENDBRANCH   7  12
BRANCH   9  24
ATOM     24  C   UNL A   1      34.814  24.227  24.680  1.00  0.00     0.002 A 
ATOM     25  C   UNL A   1      35.389  23.500  23.628  1.00  0.00     0.012 A 
ATOM     26  C   UNL A   1      35.456  24.287  25.921  1.00  0.00     0.012 A 
ATOM     27  C   UNL A   1      36.574  22.793  23.834  1.00  0.00     0.021 A 
ATOM     28  C   UNL A   1      36.637  23.574  26.126  1.00  0.00     0.021 A 
ATOM     29  C   UNL A   1      37.180  22.816  25.089  1.00  0.00     0.041 A 
ATOM     30  Cl  UNL A   1      38.578  21.858  25.376  1.00  0.00    -0.084 Cl
ENDBRANCH   9  24
ENDBRANCH   3   6
ENDBRANCH   1   2
BRANCH   1  31
ATOM     31  C   UNL A   1      32.136  29.654  26.730  1.00  0.00     0.042 C 
BRANCH  31  32
ATOM     32  C   UNL A   1      33.534  29.863  27.251  1.00  0.00     0.118 C 
BRANCH  32  33
ATOM     33  N   UNL A   1      33.817  31.218  27.744  1.00  0.00    -0.352 N 
ATOM     34  C   UNL A   1      34.900  31.631  28.524  1.00  0.00     0.251 C 
ATOM     35  H   UNL A   1      33.168  31.915  27.497  1.00  0.00     0.163 HD
ATOM     36  O   UNL A   1      34.878  32.693  29.131  1.00  0.00    -0.269 OA
BRANCH  34  37
ATOM     37  C   UNL A   1      36.080  30.746  28.599  1.00  0.00     0.039 A 
ATOM     38  C   UNL A   1      36.323  29.627  27.797  1.00  0.00     0.014 A 
ATOM     39  C   UNL A   1      37.054  31.164  29.473  1.00  0.00     0.014 A 
ATOM     40  C   UNL A   1      37.564  28.994  27.925  1.00  0.00     0.010 A 
ATOM     41  C   UNL A   1      38.328  30.938  29.093  1.00  0.00     0.010 A 
ATOM     42  C   UNL A   1      38.561  29.667  28.634  1.00  0.00    -0.014 A 
BRANCH  42  43
ATOM     43  C   UNL A   1      39.876  29.162  28.985  1.00  0.00     0.031 A 
ATOM     44  C   UNL A   1      40.099  28.957  30.431  1.00  0.00     0.074 A 
ATOM     45  C   UNL A   1      40.666  28.576  28.049  1.00  0.00     0.049 A 
ATOM     46  N   UNL A   1      40.908  29.599  31.203  1.00  0.00    -0.248 NA
ATOM     47  C   UNL A   1      39.209  28.022  31.136  1.00  0.00     0.031 C 
ATOM     48  C   UNL A   1      40.402  28.325  26.620  1.00  0.00     0.029 A 
ATOM     49  N   UNL A   1      41.860  27.953  28.231  1.00  0.00    -0.354 N 
ATOM     50  C   UNL A   1      40.773  29.016  32.460  1.00  0.00     0.074 A 
ATOM     51  C   UNL A   1      39.576  28.220  32.403  1.00  0.00     0.031 C 
ATOM     52  C   UNL A   1      41.284  27.420  26.140  1.00  0.00     0.029 A 
ATOM     53  C   UNL A   1      42.272  27.158  27.165  1.00  0.00     0.049 A 
ATOM     54  H   UNL A   1      42.393  28.057  29.052  1.00  0.00     0.167 HD
ATOM     55  C   UNL A   1      41.783  29.056  33.373  1.00  0.00     0.037 A 
ATOM     56  C   UNL A   1      43.327  26.306  27.184  1.00  0.00     0.037 A 
ATOM     57  C   UNL A   1      42.809  29.986  32.960  1.00  0.00     0.049 A 
ATOM     58  C   UNL A   1      44.197  26.728  28.320  1.00  0.00     0.074 A 
ATOM     59  C   UNL A   1      42.832  31.343  32.697  1.00  0.00     0.029 A 
ATOM     60  N   UNL A   1      43.930  29.473  32.348  1.00  0.00    -0.354 N 
ATOM     61  N   UNL A   1      44.821  27.877  28.361  1.00  0.00    -0.248 NA
ATOM     62  C   UNL A   1      43.939  26.116  29.617  1.00  0.00     0.031 C 
ATOM     63  C   UNL A   1      43.645  31.473  31.532  1.00  0.00     0.029 A 
ATOM     64  C   UNL A   1      44.137  30.207  31.206  1.00  0.00     0.049 A 
ATOM     65  H   UNL A   1      44.480  28.721  32.669  1.00  0.00     0.167 HD
ATOM     66  C   UNL A   1      44.674  28.325  29.668  1.00  0.00     0.074 A 
ATOM     67  C   UNL A   1      44.167  27.169  30.408  1.00  0.00     0.031 C 
ATOM     68  C   UNL A   1      44.677  29.658  29.980  1.00  0.00     0.037 A 
BRANCH  55  69
ATOM     69  C   UNL A   1      42.029  28.031  34.452  1.00  0.00     0.057 A 
ATOM     70  C   UNL A   1      42.561  26.780  34.091  1.00  0.00     0.134 A 
ATOM     71  C   UNL A   1      41.532  28.108  35.768  1.00  0.00     0.134 A 
ATOM     72  F   UNL A   1      43.070  26.574  32.866  1.00  0.00    -0.206 F 
ATOM     73  C   UNL A   1      42.522  25.670  34.943  1.00  0.00     0.040 A 
ATOM     74  C   UNL A   1      41.539  27.021  36.647  1.00  0.00     0.040 A 
ATOM     75  F   UNL A   1      40.925  29.198  36.251  1.00  0.00    -0.206 F 
ATOM     76  C   UNL A   1      42.001  25.786  36.224  1.00  0.00     0.006 A 
ENDBRANCH  55  69
BRANCH  56  77
ATOM     77  C   UNL A   1      43.400  24.969  26.545  1.00  0.00     0.057 A 
ATOM     78  C   UNL A   1      42.523  23.934  26.894  1.00  0.00     0.134 A 
ATOM     79  C   UNL A   1      44.179  24.750  25.391  1.00  0.00     0.134 A 
ATOM     80  F   UNL A   1      41.706  24.064  27.949  1.00  0.00    -0.206 F 
ATOM     81  C   UNL A   1      42.422  22.754  26.139  1.00  0.00     0.040 A 
ATOM     82  C   UNL A   1      44.093  23.577  24.633  1.00  0.00     0.040 A 
ATOM     83  F   UNL A   1      44.993  25.703  24.913  1.00  0.00    -0.206 F 
ATOM     84  C   UNL A   1      43.203  22.577  25.000  1.00  0.00     0.006 A 
ENDBRANCH  56  77
BRANCH  68  85
ATOM     85  C   UNL A   1      45.020  30.654  28.899  1.00  0.00     0.057 A 
ATOM     86  C   UNL A   1      44.070  31.270  28.068  1.00  0.00     0.134 A 
ATOM     87  C   UNL A   1      46.322  31.161  28.834  1.00  0.00     0.134 A 
ATOM     88  F   UNL A   1      42.778  30.934  28.125  1.00  0.00    -0.206 F 
ATOM     89  C   UNL A   1      44.402  32.312  27.196  1.00  0.00     0.040 A 
ATOM     90  C   UNL A   1      46.663  32.223  27.990  1.00  0.00     0.040 A 
ATOM     91  F   UNL A   1      47.277  30.673  29.641  1.00  0.00    -0.206 F 
ATOM     92  C   UNL A   1      45.704  32.799  27.161  1.00  0.00     0.006 A 
ENDBRANCH  68  85
ENDBRANCH  42  43
ENDBRANCH  34  37
ENDBRANCH  32  33
ENDBRANCH  31  32
ENDBRANCH   1  31
TORSDOF 14
ENDMDL
MODEL 2
REMARK VINA RESULT:     -12.3      5.930     10.231
REMARK SMILES NS(=O)(=O)c1ccc(-n2nc(C(=O)NCCCNC(=O)c3ccc(-c4c5nc(c(-c6c(F)cccc6F)c6ccc([nH]6)c(-c6c(F)cccc6F)c6nc(c(-c7c(F)cccc7F)c7ccc4[nH]7)C=C6)C=C5)cc3)c(Cl)c2-c2ccc(Cl)cc2)cc1
REMARK SMILES IDX 15 1 14 2 12 3 13 4 11 6 9 7 10 8 77 9 75 10 76 11 8 12 5 13
REMARK SMILES IDX 6 14 86 15 7 16 85 17 2 18 3 19 4 20 1 21 78 24 79 25 84 26
REMARK SMILES IDX 80 27 83 28 81 29 82 30 16 31 17 32 18 33 19 34 20 36 21 37
REMARK SMILES IDX 22 38 74 39 23 40 73 41 24 42 25 43 26 44 67 45 27 46 72 47
REMARK SMILES IDX 66 48 68 49 28 50 71 51 65 52 64 53 29 55 55 56 38 57 54 58
REMARK SMILES IDX 39 59 42 60 53 61 69 62 40 63 41 64 52 66 70 67 43 68 30 69
REMARK SMILES IDX 31 70 36 71 32 72 33 73 35 74 37 75 34 76 56 77 57 78 62 79
REMARK SMILES IDX 58 80 59 81 61 82 63 83 60 84 44 85 45 86 50 87 46 88 47 89
REMARK SMILES IDX 49 90 51 91 48 92
REMARK H PARENT 14 5 1 22 1 23 18 35 68 54 42 65
REMARK Flexibility Score: inf
ROOT
ATOM      1  C   UNL A   1      44.551  31.400  27.043  1.00  0.00     0.118 C 
ENDROOT
BRANCH   1   2
ATOM      2  N   UNL A   1      45.408  31.064  28.177  1.00  0.00    -0.351 N 
ATOM      3  C   UNL A   1      45.655  29.857  28.810  1.00  0.00     0.273 C 
ATOM      4  O   UNL A   1      46.518  29.860  29.690  1.00  0.00    -0.267 OA
ATOM      5  H   UNL A   1      45.897  31.829  28.558  1.00  0.00     0.163 HD
BRANCH   3   6
ATOM      6  C   UNL A   1      44.971  28.626  28.379  1.00  0.00     0.169 A 
ATOM      7  N   UNL A   1      44.613  26.840  27.239  1.00  0.00    -0.231 N 
ATOM      8  N   UNL A   1      45.569  27.756  27.533  1.00  0.00    -0.160 NA
ATOM      9  C   UNL A   1      43.389  27.184  27.778  1.00  0.00     0.094 A 
ATOM     10  C   UNL A   1      43.731  28.082  28.767  1.00  0.00     0.100 A 
ATOM     11  Cl  UNL A   1      42.801  28.345  30.160  1.00  0.00    -0.079 Cl
BRANCH   7  12
ATOM     12  C   UNL A   1      44.931  25.597  26.646  1.00  0.00     0.065 A 
ATOM     13  C   UNL A   1      45.202  23.042  25.592  1.00  0.00     0.082 A 
ATOM     14  C   UNL A   1      45.521  23.269  26.935  1.00  0.00     0.024 A 
ATOM     15  C   UNL A   1      44.763  24.089  24.772  1.00  0.00     0.024 A 
ATOM     16  C   UNL A   1      45.410  24.560  27.461  1.00  0.00     0.030 A 
ATOM     17  C   UNL A   1      44.613  25.367  25.304  1.00  0.00     0.030 A 
BRANCH  13  18
ATOM     18  S   UNL A   1      45.305  21.423  24.890  1.00  0.00     0.238 S 
ATOM     19  O   UNL A   1      44.334  20.578  25.561  1.00  0.00    -0.207 OA
ATOM     20  O   UNL A   1      46.688  21.062  24.752  1.00  0.00    -0.207 OA
BRANCH  18  21
ATOM     21  N   UNL A   1      44.744  21.613  23.317  1.00  0.00    -0.225 NA
ATOM     22  H   UNL A   1      45.418  22.156  22.779  1.00  0.00     0.137 HD
ATOM     23  H   UNL A   1      43.848  22.100  23.332  1.00  0.00     0.137 HD
ENDBRANCH  18  21
ENDBRANCH  13  18
ENDBRANCH   7  12
BRANCH   9  24
ATOM     24  C   UNL A   1      42.110  26.503  27.655  1.00  0.00     0.002 A 
ATOM     25  C   UNL A   1      41.879  25.366  28.442  1.00  0.00     0.012 A 
ATOM     26  C   UNL A   1      41.255  26.801  26.590  1.00  0.00     0.012 A 
ATOM     27  C   UNL A   1      40.827  24.503  28.131  1.00  0.00     0.021 A 
ATOM     28  C   UNL A   1      40.208  25.934  26.277  1.00  0.00     0.021 A 
ATOM     29  C   UNL A   1      40.011  24.781  27.036  1.00  0.00     0.041 A 
ATOM     30  Cl  UNL A   1      38.784  23.664  26.585  1.00  0.00    -0.084 Cl
ENDBRANCH   9  24
ENDBRANCH   3   6
ENDBRANCH   1   2
BRANCH   1  31
ATOM     31  C   UNL A   1      45.220  32.398  26.092  1.00  0.00     0.042 C 
BRANCH  31  32
ATOM     32  C   UNL A   1      44.689  33.803  26.195  1.00  0.00     0.118 C 
BRANCH  32  33
ATOM     33  N   UNL A   1      45.610  34.773  26.803  1.00  0.00    -0.352 N 
ATOM     34  C   UNL A   1      45.337  35.678  27.832  1.00  0.00     0.251 C 
ATOM     35  H   UNL A   1      46.525  34.788  26.443  1.00  0.00     0.163 HD
ATOM     36  O   UNL A   1      46.066  36.636  28.046  1.00  0.00    -0.269 OA
BRANCH  34  37
ATOM     37  C   UNL A   1      44.136  35.447  28.660  1.00  0.00     0.039 A 
ATOM     38  C   UNL A   1      42.961  36.204  28.636  1.00  0.00     0.014 A 
ATOM     39  C   UNL A   1      44.180  34.308  29.426  1.00  0.00     0.014 A 
ATOM     40  C   UNL A   1      41.879  35.747  29.397  1.00  0.00     0.010 A 
ATOM     41  C   UNL A   1      43.013  33.647  29.573  1.00  0.00     0.010 A 
ATOM     42  C   UNL A   1      41.951  34.448  29.905  1.00  0.00    -0.014 A 
BRANCH  42  43
ATOM     43  C   UNL A   1      41.007  33.808  30.803  1.00  0.00     0.031 A 
ATOM     44  C   UNL A   1      41.455  33.704  32.207  1.00  0.00     0.074 A 
ATOM     45  C   UNL A   1      39.701  33.676  30.457  1.00  0.00     0.049 A 
ATOM     46  N   UNL A   1      41.739  32.634  32.867  1.00  0.00    -0.248 NA
ATOM     47  C   UNL A   1      41.765  34.952  32.921  1.00  0.00     0.031 C 
ATOM     48  C   UNL A   1      39.004  34.118  29.235  1.00  0.00     0.029 A 
ATOM     49  N   UNL A   1      38.674  33.213  31.217  1.00  0.00    -0.354 N 
ATOM     50  C   UNL A   1      42.078  33.060  34.149  1.00  0.00     0.074 A 
ATOM     51  C   UNL A   1      42.286  34.480  34.054  1.00  0.00     0.031 C 
ATOM     52  C   UNL A   1      37.667  34.111  29.438  1.00  0.00     0.029 A 
ATOM     53  C   UNL A   1      37.405  33.509  30.728  1.00  0.00     0.049 A 
ATOM     54  H   UNL A   1      38.817  32.707  32.050  1.00  0.00     0.167 HD
ATOM     55  C   UNL A   1      41.935  32.242  35.229  1.00  0.00     0.037 A 
ATOM     56  C   UNL A   1      36.241  33.312  31.396  1.00  0.00     0.037 A 
ATOM     57  C   UNL A   1      41.683  30.883  34.811  1.00  0.00     0.049 A 
ATOM     58  C   UNL A   1      36.531  32.326  32.477  1.00  0.00     0.074 A 
ATOM     59  C   UNL A   1      42.382  29.961  34.056  1.00  0.00     0.029 A 
ATOM     60  N   UNL A   1      40.379  30.442  34.818  1.00  0.00    -0.354 N 
ATOM     61  N   UNL A   1      36.883  31.087  32.248  1.00  0.00    -0.248 NA
ATOM     62  C   UNL A   1      36.946  32.859  33.769  1.00  0.00     0.031 C 
ATOM     63  C   UNL A   1      41.393  29.340  33.236  1.00  0.00     0.029 A 
ATOM     64  C   UNL A   1      40.147  29.855  33.598  1.00  0.00     0.049 A 
ATOM     65  H   UNL A   1      39.734  30.531  35.557  1.00  0.00     0.167 HD
ATOM     66  C   UNL A   1      37.895  30.820  33.163  1.00  0.00     0.074 A 
ATOM     67  C   UNL A   1      37.849  31.936  34.110  1.00  0.00     0.031 C 
ATOM     68  C   UNL A   1      38.873  29.898  32.911  1.00  0.00     0.037 A 
BRANCH  55  69
ATOM     69  C   UNL A   1      41.679  32.699  36.644  1.00  0.00     0.057 A 
ATOM     70  C   UNL A   1      42.537  32.254  37.666  1.00  0.00     0.134 A 
ATOM     71  C   UNL A   1      40.500  33.329  37.089  1.00  0.00     0.134 A 
ATOM     72  F   UNL A   1      43.695  31.641  37.377  1.00  0.00    -0.206 F 
ATOM     73  C   UNL A   1      42.205  32.350  39.023  1.00  0.00     0.040 A 
ATOM     74  C   UNL A   1      40.185  33.479  38.443  1.00  0.00     0.040 A 
ATOM     75  F   UNL A   1      39.541  33.745  36.254  1.00  0.00    -0.206 F 
ATOM     76  C   UNL A   1      41.020  32.956  39.416  1.00  0.00     0.006 A 
ENDBRANCH  55  69
BRANCH  56  77
ATOM     77  C   UNL A   1      35.053  34.199  31.389  1.00  0.00     0.057 A 
ATOM     78  C   UNL A   1      34.907  35.248  32.306  1.00  0.00     0.134 A 
ATOM     79  C   UNL A   1      34.141  34.194  30.315  1.00  0.00     0.134 A 
ATOM     80  F   UNL A   1      35.755  35.368  33.339  1.00  0.00    -0.206 F 
ATOM     81  C   UNL A   1      33.918  36.234  32.162  1.00  0.00     0.040 A 
ATOM     82  C   UNL A   1      33.147  35.167  30.162  1.00  0.00     0.040 A 
ATOM     83  F   UNL A   1      34.235  33.288  29.330  1.00  0.00    -0.206 F 
ATOM     84  C   UNL A   1      33.040  36.199  31.083  1.00  0.00     0.006 A 
ENDBRANCH  56  77
BRANCH  68  85
ATOM     85  C   UNL A   1      38.750  29.030  31.682  1.00  0.00     0.057 A 
ATOM     86  C   UNL A   1      39.089  29.451  30.386  1.00  0.00     0.134 A 
ATOM     87  C   UNL A   1      38.481  27.666  31.840  1.00  0.00     0.134 A 
ATOM     88  F   UNL A   1      39.464  30.709  30.142  1.00  0.00    -0.206 F 
ATOM     89  C   UNL A   1      39.126  28.571  29.299  1.00  0.00     0.040 A 
ATOM     90  C   UNL A   1      38.544  26.768  30.769  1.00  0.00     0.040 A 
ATOM     91  F   UNL A   1      38.212  27.169  33.057  1.00  0.00    -0.206 F 
ATOM     92  C   UNL A   1      38.861  27.220  29.491  1.00  0.00     0.006 A 
ENDBRANCH  68  85
ENDBRANCH  42  43
ENDBRANCH  34  37
ENDBRANCH  32  33
ENDBRANCH  31  32
ENDBRANCH   1  31
TORSDOF 14
ENDMDL
MODEL 3
REMARK VINA RESULT:     -12.1      5.913     10.154
REMARK SMILES NS(=O)(=O)c1ccc(-n2nc(C(=O)NCCCNC(=O)c3ccc(-c4c5nc(c(-c6c(F)cccc6F)c6ccc([nH]6)c(-c6c(F)cccc6F)c6nc(c(-c7c(F)cccc7F)c7ccc4[nH]7)C=C6)C=C5)cc3)c(Cl)c2-c2ccc(Cl)cc2)cc1
REMARK SMILES IDX 15 1 14 2 12 3 13 4 11 6 9 7 10 8 77 9 75 10 76 11 8 12 5 13
REMARK SMILES IDX 6 14 86 15 7 16 85 17 2 18 3 19 4 20 1 21 78 24 79 25 84 26
REMARK SMILES IDX 80 27 83 28 81 29 82 30 16 31 17 32 18 33 19 34 20 36 21 37
REMARK SMILES IDX 22 38 74 39 23 40 73 41 24 42 25 43 26 44 67 45 27 46 72 47
REMARK SMILES IDX 66 48 68 49 28 50 71 51 65 52 64 53 29 55 55 56 38 57 54 58
REMARK SMILES IDX 39 59 42 60 53 61 69 62 40 63 41 64 52 66 70 67 43 68 30 69
REMARK SMILES IDX 31 70 36 71 32 72 33 73 35 74 37 75 34 76 56 77 57 78 62 79
REMARK SMILES IDX 58 80 59 81 61 82 63 83 60 84 44 85 45 86 50 87 46 88 47 89
REMARK SMILES IDX 49 90 51 91 48 92
REMARK H PARENT 14 5 1 22 1 23 18 35 68 54 42 65
REMARK Flexibility Score: inf
ROOT
ATOM      1  C   UNL A   1      48.764  27.441  27.189  1.00  0.00     0.118 C 
ENDROOT
BRANCH   1   2
ATOM      2  N   UNL A   1      48.165  28.317  26.185  1.00  0.00    -0.351 N 
ATOM      3  C   UNL A   1      46.987  28.209  25.464  1.00  0.00     0.273 C 
ATOM      4  O   UNL A   1      46.686  29.167  24.749  1.00  0.00    -0.267 OA
ATOM      5  H   UNL A   1      48.690  29.125  25.984  1.00  0.00     0.163 HD
BRANCH   3   6
ATOM      6  C   UNL A   1      46.109  27.037  25.626  1.00  0.00     0.169 A 
ATOM      7  N   UNL A   1      45.302  25.083  25.238  1.00  0.00    -0.231 N 
ATOM      8  N   UNL A   1      46.376  25.874  24.989  1.00  0.00    -0.160 NA
ATOM      9  C   UNL A   1      44.308  25.766  25.910  1.00  0.00     0.094 A 
ATOM     10  C   UNL A   1      44.983  26.842  26.448  1.00  0.00     0.100 A 
ATOM     11  Cl  UNL A   1      44.497  27.645  27.860  1.00  0.00    -0.079 Cl
BRANCH   7  12
ATOM     12  C   UNL A   1      45.339  23.688  25.019  1.00  0.00     0.065 A 
ATOM     13  C   UNL A   1      45.068  20.936  24.768  1.00  0.00     0.082 A 
ATOM     14  C   UNL A   1      45.630  21.467  25.933  1.00  0.00     0.024 A 
ATOM     15  C   UNL A   1      44.654  21.772  23.725  1.00  0.00     0.024 A 
ATOM     16  C   UNL A   1      45.791  22.851  26.050  1.00  0.00     0.030 A 
ATOM     17  C   UNL A   1      44.777  23.154  23.855  1.00  0.00     0.030 A 
BRANCH  13  18
ATOM     18  S   UNL A   1      44.822  19.194  24.584  1.00  0.00     0.238 S 
ATOM     19  O   UNL A   1      45.631  18.740  23.468  1.00  0.00    -0.207 OA
ATOM     20  O   UNL A   1      43.419  18.908  24.697  1.00  0.00    -0.207 OA
BRANCH  18  21
ATOM     21  N   UNL A   1      45.517  18.526  25.961  1.00  0.00    -0.225 NA
ATOM     22  H   UNL A   1      44.842  18.543  26.725  1.00  0.00     0.137 HD
ATOM     23  H   UNL A   1      46.341  19.067  26.223  1.00  0.00     0.137 HD
ENDBRANCH  18  21
ENDBRANCH  13  18
ENDBRANCH   7  12
BRANCH   9  24
ATOM     24  C   UNL A   1      42.991  25.300  26.317  1.00  0.00     0.002 A 
ATOM     25  C   UNL A   1      41.875  25.725  25.583  1.00  0.00     0.012 A 
ATOM     26  C   UNL A   1      42.817  24.684  27.560  1.00  0.00     0.012 A 
ATOM     27  C   UNL A   1      40.593  25.580  26.114  1.00  0.00     0.021 A 
ATOM     28  C   UNL A   1      41.535  24.546  28.092  1.00  0.00     0.021 A 
ATOM     29  C   UNL A   1      40.432  25.011  27.377  1.00  0.00     0.041 A 
ATOM     30  Cl  UNL A   1      38.866  24.932  28.080  1.00  0.00    -0.084 Cl
ENDBRANCH   9  24
ENDBRANCH   3   6
ENDBRANCH   1   2
BRANCH   1  31
ATOM     31  C   UNL A   1      48.173  27.678  28.584  1.00  0.00     0.042 C 
BRANCH  31  32
ATOM     32  C   UNL A   1      47.359  26.528  29.114  1.00  0.00     0.118 C 
BRANCH  32  33
ATOM     33  N   UNL A   1      47.636  26.162  30.510  1.00  0.00    -0.352 N 
ATOM     34  C   UNL A   1      47.023  26.665  31.660  1.00  0.00     0.251 C 
ATOM     35  H   UNL A   1      48.334  25.483  30.652  1.00  0.00     0.163 HD
ATOM     36  O   UNL A   1      47.531  26.528  32.764  1.00  0.00    -0.269 OA
BRANCH  34  37
ATOM     37  C   UNL A   1      45.736  27.374  31.508  1.00  0.00     0.039 A 
ATOM     38  C   UNL A   1      44.479  26.778  31.363  1.00  0.00     0.014 A 
ATOM     39  C   UNL A   1      45.815  28.739  31.640  1.00  0.00     0.014 A 
ATOM     40  C   UNL A   1      43.359  27.616  31.370  1.00  0.00     0.010 A 
ATOM     41  C   UNL A   1      44.771  29.337  32.249  1.00  0.00     0.010 A 
ATOM     42  C   UNL A   1      43.544  28.937  31.784  1.00  0.00    -0.014 A 
BRANCH  42  43
ATOM     43  C   UNL A   1      42.561  30.004  31.768  1.00  0.00     0.031 A 
ATOM     44  C   UNL A   1      41.858  30.224  33.048  1.00  0.00     0.074 A 
ATOM     45  C   UNL A   1      42.575  30.945  30.788  1.00  0.00     0.049 A 
ATOM     46  N   UNL A   1      40.611  30.025  33.307  1.00  0.00    -0.248 NA
ATOM     47  C   UNL A   1      42.670  30.569  34.225  1.00  0.00     0.031 C 
ATOM     48  C   UNL A   1      43.498  31.100  29.649  1.00  0.00     0.029 A 
ATOM     49  N   UNL A   1      41.809  32.063  30.688  1.00  0.00    -0.354 N 
ATOM     50  C   UNL A   1      40.436  30.408  34.635  1.00  0.00     0.074 A 
ATOM     51  C   UNL A   1      41.756  30.518  35.194  1.00  0.00     0.031 C 
ATOM     52  C   UNL A   1      43.383  32.343  29.128  1.00  0.00     0.029 A 
ATOM     53  C   UNL A   1      42.271  33.007  29.775  1.00  0.00     0.049 A 
ATOM     54  H   UNL A   1      40.991  32.195  31.221  1.00  0.00     0.167 HD
ATOM     55  C   UNL A   1      39.225  30.825  35.099  1.00  0.00     0.037 A 
ATOM     56  C   UNL A   1      41.783  34.265  29.633  1.00  0.00     0.037 A 
ATOM     57  C   UNL A   1      38.183  30.537  34.140  1.00  0.00     0.049 A 
ATOM     58  C   UNL A   1      40.427  34.269  30.254  1.00  0.00     0.074 A 
ATOM     59  C   UNL A   1      37.697  29.379  33.563  1.00  0.00     0.029 A 
ATOM     60  N   UNL A   1      37.764  31.561  33.322  1.00  0.00    -0.354 N 
ATOM     61  N   UNL A   1      39.420  33.573  29.793  1.00  0.00    -0.248 NA
ATOM     62  C   UNL A   1      40.345  34.616  31.668  1.00  0.00     0.031 C 
ATOM     63  C   UNL A   1      37.484  29.718  32.194  1.00  0.00     0.029 A 
ATOM     64  C   UNL A   1      37.769  31.076  32.037  1.00  0.00     0.049 A 
ATOM     65  H   UNL A   1      37.510  32.470  33.604  1.00  0.00     0.167 HD
ATOM     66  C   UNL A   1      38.794  33.049  30.918  1.00  0.00     0.074 A 
ATOM     67  C   UNL A   1      39.379  33.774  32.047  1.00  0.00     0.031 C 
ATOM     68  C   UNL A   1      38.091  31.876  30.873  1.00  0.00     0.037 A 
BRANCH  55  69
ATOM     69  C   UNL A   1      39.010  31.787  36.240  1.00  0.00     0.057 A 
ATOM     70  C   UNL A   1      38.061  31.467  37.229  1.00  0.00     0.134 A 
ATOM     71  C   UNL A   1      39.485  33.113  36.280  1.00  0.00     0.134 A 
ATOM     72  F   UNL A   1      37.532  30.236  37.304  1.00  0.00    -0.206 F 
ATOM     73  C   UNL A   1      37.561  32.415  38.129  1.00  0.00     0.040 A 
ATOM     74  C   UNL A   1      39.033  34.054  37.210  1.00  0.00     0.040 A 
ATOM     75  F   UNL A   1      40.332  33.607  35.370  1.00  0.00    -0.206 F 
ATOM     76  C   UNL A   1      38.041  33.718  38.116  1.00  0.00     0.006 A 
ENDBRANCH  55  69
BRANCH  56  77
ATOM     77  C   UNL A   1      42.565  35.494  29.356  1.00  0.00     0.057 A 
ATOM     78  C   UNL A   1      42.287  36.316  28.257  1.00  0.00     0.134 A 
ATOM     79  C   UNL A   1      43.453  36.028  30.312  1.00  0.00     0.134 A 
ATOM     80  F   UNL A   1      41.419  35.918  27.315  1.00  0.00    -0.206 F 
ATOM     81  C   UNL A   1      42.853  37.593  28.117  1.00  0.00     0.040 A 
ATOM     82  C   UNL A   1      44.029  37.297  30.182  1.00  0.00     0.040 A 
ATOM     83  F   UNL A   1      43.730  35.368  31.446  1.00  0.00    -0.206 F 
ATOM     84  C   UNL A   1      43.721  38.090  29.086  1.00  0.00     0.006 A 
ENDBRANCH  56  77
BRANCH  68  85
ATOM     85  C   UNL A   1      37.849  31.227  29.532  1.00  0.00     0.057 A 
ATOM     86  C   UNL A   1      38.678  30.240  28.975  1.00  0.00     0.134 A 
ATOM     87  C   UNL A   1      36.632  31.455  28.879  1.00  0.00     0.134 A 
ATOM     88  F   UNL A   1      39.814  29.871  29.575  1.00  0.00    -0.206 F 
ATOM     89  C   UNL A   1      38.333  29.540  27.815  1.00  0.00     0.040 A 
ATOM     90  C   UNL A   1      36.260  30.740  27.736  1.00  0.00     0.040 A 
ATOM     91  F   UNL A   1      35.753  32.335  29.381  1.00  0.00    -0.206 F 
ATOM     92  C   UNL A   1      37.114  29.784  27.195  1.00  0.00     0.006 A 
ENDBRANCH  68  85
ENDBRANCH  42  43
ENDBRANCH  34  37
ENDBRANCH  32  33
ENDBRANCH  31  32
ENDBRANCH   1  31
TORSDOF 14
ENDMDL
