MODEL 1
REMARK VINA RESULT:     -13.2      0.000      0.000
REMARK SMILES O=C(NCCCNC(=O)c1ccn(-c2cc(-c3ccncc3)nc(-c3ccccc3F)n2)n1)c1ccc(-c2c3nc(c(-c4c(F)cccc4F)c4ccc([nH]4)c(-c4c(F)cccc4F)c4nc(c(-c5c(F)cccc5F)c5ccc2[nH]5)C=C4)C=C3)cc1
REMARK SMILES IDX 5 1 4 2 3 3 1 4 2 5 34 7 35 8 87 9 36 10 86 11 37 12 38 13
REMARK SMILES IDX 39 14 80 15 40 16 85 17 79 18 81 19 41 20 84 21 78 22 77 23
REMARK SMILES IDX 42 25 68 26 51 27 67 28 52 29 55 30 66 31 82 32 53 33 54 34
REMARK SMILES IDX 65 36 83 37 56 38 43 39 44 40 49 41 45 42 46 43 48 44 50 45
REMARK SMILES IDX 47 46 69 47 70 48 75 49 71 50 72 51 74 52 76 53 73 54 57 55
REMARK SMILES IDX 58 56 63 57 59 58 60 59 62 60 64 61 61 62 6 63 7 64 8 65
REMARK SMILES IDX 9 67 10 68 11 69 33 70 12 71 13 72 14 73 15 74 32 75 16 76
REMARK SMILES IDX 24 77 23 78 17 79 18 80 22 81 19 82 21 83 20 84 25 85 26 86
REMARK SMILES IDX 30 87 27 88 29 89 31 90 28 91
REMARK H PARENT 3 6 81 24 55 35 7 66
REMARK Flexibility Score: inf
ROOT
ATOM      1  C   UNL A   1      33.718  28.904  25.947  1.00  0.00     0.042 C 
ENDROOT
BRANCH   1   2
ATOM      2  C   UNL A   1      34.811  28.524  26.945  1.00  0.00     0.118 C 
BRANCH   2   3
ATOM      3  N   UNL A   1      34.936  29.400  28.093  1.00  0.00    -0.352 N 
ATOM      4  O   UNL A   1      35.686  30.835  29.595  1.00  0.00    -0.269 OA
ATOM      5  C   UNL A   1      35.981  29.975  28.760  1.00  0.00     0.251 C 
ATOM      6  H   UNL A   1      34.064  29.635  28.486  1.00  0.00     0.163 HD
BRANCH   5   7
ATOM      7  C   UNL A   1      37.409  29.588  28.614  1.00  0.00     0.039 A 
ATOM      8  C   UNL A   1      38.214  29.820  27.498  1.00  0.00     0.014 A 
ATOM      9  C   UNL A   1      37.966  28.912  29.717  1.00  0.00     0.014 A 
ATOM     10  C   UNL A   1      39.513  29.312  27.451  1.00  0.00     0.010 A 
ATOM     11  C   UNL A   1      39.262  28.412  29.680  1.00  0.00     0.010 A 
ATOM     12  C   UNL A   1      40.027  28.588  28.531  1.00  0.00    -0.014 A 
BRANCH  12  13
ATOM     13  C   UNL A   1      41.442  28.219  28.522  1.00  0.00     0.031 A 
ATOM     14  C   UNL A   1      41.724  26.934  27.819  1.00  0.00     0.074 A 
ATOM     15  C   UNL A   1      42.441  29.030  28.928  1.00  0.00     0.049 A 
ATOM     16  N   UNL A   1      42.265  25.860  28.296  1.00  0.00    -0.248 NA
ATOM     17  C   UNL A   1      41.243  26.793  26.432  1.00  0.00     0.031 C 
ATOM     18  C   UNL A   1      42.338  30.431  29.342  1.00  0.00     0.029 A 
ATOM     19  N   UNL A   1      43.789  28.803  28.957  1.00  0.00    -0.354 N 
ATOM     20  C   UNL A   1      42.374  24.979  27.221  1.00  0.00     0.074 A 
ATOM     21  C   UNL A   1      41.590  25.537  26.153  1.00  0.00     0.031 C 
ATOM     22  C   UNL A   1      43.573  30.984  29.365  1.00  0.00     0.029 A 
ATOM     23  C   UNL A   1      44.562  29.953  29.093  1.00  0.00     0.049 A 
ATOM     24  H   UNL A   1      44.180  27.902  28.886  1.00  0.00     0.167 HD
ATOM     25  C   UNL A   1      43.303  23.985  27.210  1.00  0.00     0.037 A 
ATOM     26  C   UNL A   1      45.908  30.059  28.935  1.00  0.00     0.037 A 
ATOM     27  C   UNL A   1      43.772  23.689  28.538  1.00  0.00     0.049 A 
ATOM     28  C   UNL A   1      46.480  28.699  29.053  1.00  0.00     0.074 A 
ATOM     29  C   UNL A   1      43.186  23.265  29.714  1.00  0.00     0.029 A 
ATOM     30  N   UNL A   1      45.014  24.152  28.885  1.00  0.00    -0.354 N 
ATOM     31  N   UNL A   1      46.527  28.011  30.157  1.00  0.00    -0.248 NA
ATOM     32  C   UNL A   1      46.671  27.936  27.830  1.00  0.00     0.031 C 
ATOM     33  C   UNL A   1      43.908  23.931  30.748  1.00  0.00     0.029 A 
ATOM     34  C   UNL A   1      44.924  24.675  30.146  1.00  0.00     0.049 A 
ATOM     35  H   UNL A   1      45.825  24.115  28.328  1.00  0.00     0.167 HD
ATOM     36  C   UNL A   1      46.298  26.705  29.758  1.00  0.00     0.074 A 
ATOM     37  C   UNL A   1      46.514  26.703  28.314  1.00  0.00     0.031 C 
ATOM     38  C   UNL A   1      45.679  25.821  30.593  1.00  0.00     0.037 A 
BRANCH  25  39
ATOM     39  C   UNL A   1      44.079  23.572  25.978  1.00  0.00     0.057 A 
ATOM     40  C   UNL A   1      45.001  24.403  25.307  1.00  0.00     0.134 A 
ATOM     41  C   UNL A   1      44.150  22.209  25.634  1.00  0.00     0.134 A 
ATOM     42  F   UNL A   1      45.128  25.706  25.579  1.00  0.00    -0.206 F 
ATOM     43  C   UNL A   1      45.931  23.915  24.384  1.00  0.00     0.040 A 
ATOM     44  C   UNL A   1      45.114  21.703  24.753  1.00  0.00     0.040 A 
ATOM     45  F   UNL A   1      43.344  21.309  26.217  1.00  0.00    -0.206 F 
ATOM     46  C   UNL A   1      46.013  22.558  24.129  1.00  0.00     0.006 A 
ENDBRANCH  25  39
BRANCH  26  47
ATOM     47  C   UNL A   1      46.720  31.182  28.401  1.00  0.00     0.057 A 
ATOM     48  C   UNL A   1      47.425  32.051  29.249  1.00  0.00     0.134 A 
ATOM     49  C   UNL A   1      46.568  31.615  27.072  1.00  0.00     0.134 A 
ATOM     50  F   UNL A   1      47.582  31.775  30.551  1.00  0.00    -0.206 F 
ATOM     51  C   UNL A   1      47.912  33.291  28.815  1.00  0.00     0.040 A 
ATOM     52  C   UNL A   1      47.042  32.856  26.628  1.00  0.00     0.040 A 
ATOM     53  F   UNL A   1      45.883  30.873  26.187  1.00  0.00    -0.206 F 
ATOM     54  C   UNL A   1      47.703  33.707  27.507  1.00  0.00     0.006 A 
ENDBRANCH  26  47
BRANCH  38  55
ATOM     55  C   UNL A   1      45.557  26.185  32.045  1.00  0.00     0.057 A 
ATOM     56  C   UNL A   1      46.562  25.755  32.920  1.00  0.00     0.134 A 
ATOM     57  C   UNL A   1      44.433  26.798  32.621  1.00  0.00     0.134 A 
ATOM     58  F   UNL A   1      47.644  25.118  32.445  1.00  0.00    -0.206 F 
ATOM     59  C   UNL A   1      46.458  25.919  34.302  1.00  0.00     0.040 A 
ATOM     60  C   UNL A   1      44.334  27.002  34.001  1.00  0.00     0.040 A 
ATOM     61  F   UNL A   1      43.379  27.161  31.878  1.00  0.00    -0.206 F 
ATOM     62  C   UNL A   1      45.345  26.552  34.847  1.00  0.00     0.006 A 
ENDBRANCH  38  55
ENDBRANCH  12  13
ENDBRANCH   5   7
ENDBRANCH   2   3
ENDBRANCH   1   2
BRANCH   1  63
ATOM     63  C   UNL A   1      33.163  27.736  25.133  1.00  0.00     0.118 C 
BRANCH  63  64
ATOM     64  N   UNL A   1      33.339  27.934  23.707  1.00  0.00    -0.351 N 
ATOM     65  C   UNL A   1      33.515  27.001  22.713  1.00  0.00     0.271 C 
ATOM     66  H   UNL A   1      33.333  28.872  23.409  1.00  0.00     0.163 HD
ATOM     67  O   UNL A   1      33.849  27.393  21.598  1.00  0.00    -0.267 OA
BRANCH  65  68
ATOM     68  C   UNL A   1      33.240  25.588  23.001  1.00  0.00     0.150 A 
ATOM     69  C   UNL A   1      32.209  24.791  22.442  1.00  0.00     0.056 A 
ATOM     70  N   UNL A   1      34.031  24.857  23.808  1.00  0.00    -0.161 NA
ATOM     71  C   UNL A   1      32.505  23.506  22.822  1.00  0.00     0.118 A 
ATOM     72  N   UNL A   1      33.641  23.574  23.596  1.00  0.00    -0.222 N 
BRANCH  72  73
ATOM     73  C   UNL A   1      34.366  22.465  24.114  1.00  0.00     0.158 A 
ATOM     74  C   UNL A   1      33.724  21.250  24.230  1.00  0.00     0.078 A 
ATOM     75  N   UNL A   1      35.661  22.655  24.457  1.00  0.00    -0.209 NA
ATOM     76  C   UNL A   1      34.498  20.199  24.675  1.00  0.00     0.077 A 
ATOM     77  C   UNL A   1      36.299  21.590  24.968  1.00  0.00     0.165 A 
ATOM     78  N   UNL A   1      35.772  20.359  25.087  1.00  0.00    -0.228 NA
BRANCH  76  79
ATOM     79  C   UNL A   1      34.003  18.820  24.664  1.00  0.00     0.003 A 
ATOM     80  C   UNL A   1      32.681  18.533  25.031  1.00  0.00     0.030 A 
ATOM     81  C   UNL A   1      34.819  17.758  24.267  1.00  0.00     0.030 A 
ATOM     82  C   UNL A   1      32.247  17.218  25.001  1.00  0.00     0.111 A 
ATOM     83  C   UNL A   1      34.296  16.475  24.280  1.00  0.00     0.111 A 
ATOM     84  N   UNL A   1      33.030  16.181  24.643  1.00  0.00    -0.265 NA
ENDBRANCH  76  79
BRANCH  77  85
ATOM     85  C   UNL A   1      37.622  21.815  25.536  1.00  0.00     0.055 A 
ATOM     86  C   UNL A   1      37.944  23.041  26.148  1.00  0.00     0.015 A 
ATOM     87  C   UNL A   1      38.605  20.825  25.498  1.00  0.00     0.134 A 
ATOM     88  C   UNL A   1      39.207  23.255  26.711  1.00  0.00     0.001 A 
ATOM     89  C   UNL A   1      39.870  21.033  26.051  1.00  0.00     0.040 A 
ATOM     90  F   UNL A   1      38.359  19.647  24.904  1.00  0.00    -0.206 F 
ATOM     91  C   UNL A   1      40.170  22.249  26.661  1.00  0.00     0.003 A 
ENDBRANCH  77  85
ENDBRANCH  72  73
ENDBRANCH  65  68
ENDBRANCH  63  64
ENDBRANCH   1  63
TORSDOF 13
ENDMDL
MODEL 2
REMARK VINA RESULT:     -13.1      3.604      8.035
REMARK SMILES O=C(NCCCNC(=O)c1ccn(-c2cc(-c3ccncc3)nc(-c3ccccc3F)n2)n1)c1ccc(-c2c3nc(c(-c4c(F)cccc4F)c4ccc([nH]4)c(-c4c(F)cccc4F)c4nc(c(-c5c(F)cccc5F)c5ccc2[nH]5)C=C4)C=C3)cc1
REMARK SMILES IDX 5 1 4 2 3 3 1 4 2 5 34 7 35 8 87 9 36 10 86 11 37 12 38 13
REMARK SMILES IDX 39 14 80 15 40 16 85 17 79 18 81 19 41 20 84 21 78 22 77 23
REMARK SMILES IDX 42 25 68 26 51 27 67 28 52 29 55 30 66 31 82 32 53 33 54 34
REMARK SMILES IDX 65 36 83 37 56 38 43 39 44 40 49 41 45 42 46 43 48 44 50 45
REMARK SMILES IDX 47 46 69 47 70 48 75 49 71 50 72 51 74 52 76 53 73 54 57 55
REMARK SMILES IDX 58 56 63 57 59 58 60 59 62 60 64 61 61 62 6 63 7 64 8 65
REMARK SMILES IDX 9 67 10 68 11 69 33 70 12 71 13 72 14 73 15 74 32 75 16 76
REMARK SMILES IDX 24 77 23 78 17 79 18 80 22 81 19 82 21 83 20 84 25 85 26 86
REMARK SMILES IDX 30 87 27 88 29 89 31 90 28 91
REMARK H PARENT 3 6 81 24 55 35 7 66
REMARK Flexibility Score: inf
ROOT
ATOM      1  C   UNL A   1      36.000  22.264  25.209  1.00  0.00     0.042 C 
ENDROOT
BRANCH   1   2
ATOM      2  C   UNL A   1      37.370  22.890  24.951  1.00  0.00     0.118 C 
BRANCH   2   3
ATOM      3  N   UNL A   1      38.500  22.158  25.489  1.00  0.00    -0.352 N 
ATOM      4  O   UNL A   1      40.135  21.433  26.784  1.00  0.00    -0.269 OA
ATOM      5  C   UNL A   1      39.422  22.390  26.470  1.00  0.00     0.251 C 
ATOM      6  H   UNL A   1      38.634  21.290  25.043  1.00  0.00     0.163 HD
BRANCH   5   7
ATOM      7  C   UNL A   1      39.680  23.707  27.112  1.00  0.00     0.039 A 
ATOM      8  C   UNL A   1      38.841  24.821  27.066  1.00  0.00     0.014 A 
ATOM      9  C   UNL A   1      40.899  23.809  27.810  1.00  0.00     0.014 A 
ATOM     10  C   UNL A   1      39.251  26.031  27.627  1.00  0.00     0.010 A 
ATOM     11  C   UNL A   1      41.308  25.009  28.379  1.00  0.00     0.010 A 
ATOM     12  C   UNL A   1      40.493  26.130  28.261  1.00  0.00    -0.014 A 
BRANCH  12  13
ATOM     13  C   UNL A   1      40.818  27.359  28.985  1.00  0.00     0.031 A 
ATOM     14  C   UNL A   1      42.057  28.034  28.501  1.00  0.00     0.074 A 
ATOM     15  C   UNL A   1      39.998  27.954  29.877  1.00  0.00     0.049 A 
ATOM     16  N   UNL A   1      43.136  28.302  29.161  1.00  0.00    -0.248 NA
ATOM     17  C   UNL A   1      42.142  28.358  27.064  1.00  0.00     0.031 C 
ATOM     18  C   UNL A   1      38.624  27.576  30.213  1.00  0.00     0.029 A 
ATOM     19  N   UNL A   1      40.185  29.098  30.603  1.00  0.00    -0.354 N 
ATOM     20  C   UNL A   1      43.958  29.003  28.279  1.00  0.00     0.074 A 
ATOM     21  C   UNL A   1      43.370  28.865  26.974  1.00  0.00     0.031 C 
ATOM     22  C   UNL A   1      38.035  28.586  30.896  1.00  0.00     0.029 A 
ATOM     23  C   UNL A   1      39.020  29.623  31.155  1.00  0.00     0.049 A 
ATOM     24  H   UNL A   1      41.069  29.515  30.723  1.00  0.00     0.167 HD
ATOM     25  C   UNL A   1      44.921  29.852  28.730  1.00  0.00     0.037 A 
ATOM     26  C   UNL A   1      38.865  30.845  31.730  1.00  0.00     0.037 A 
ATOM     27  C   UNL A   1      45.269  29.572  30.098  1.00  0.00     0.049 A 
ATOM     28  C   UNL A   1      40.211  31.343  32.093  1.00  0.00     0.074 A 
ATOM     29  C   UNL A   1      45.770  28.481  30.780  1.00  0.00     0.029 A 
ATOM     30  N   UNL A   1      44.787  30.423  31.058  1.00  0.00    -0.354 N 
ATOM     31  N   UNL A   1      40.953  30.842  33.038  1.00  0.00    -0.248 NA
ATOM     32  C   UNL A   1      40.905  32.184  31.131  1.00  0.00     0.031 C 
ATOM     33  C   UNL A   1      45.135  28.520  32.056  1.00  0.00     0.029 A 
ATOM     34  C   UNL A   1      44.332  29.659  32.098  1.00  0.00     0.049 A 
ATOM     35  H   UNL A   1      44.770  31.406  31.009  1.00  0.00     0.167 HD
ATOM     36  C   UNL A   1      42.243  30.924  32.544  1.00  0.00     0.074 A 
ATOM     37  C   UNL A   1      42.165  31.863  31.428  1.00  0.00     0.031 C 
ATOM     38  C   UNL A   1      43.187  30.008  32.905  1.00  0.00     0.037 A 
BRANCH  25  39
ATOM     39  C   UNL A   1      45.246  31.178  28.077  1.00  0.00     0.057 A 
ATOM     40  C   UNL A   1      46.430  31.436  27.355  1.00  0.00     0.134 A 
ATOM     41  C   UNL A   1      44.220  32.123  27.892  1.00  0.00     0.134 A 
ATOM     42  F   UNL A   1      47.469  30.594  27.348  1.00  0.00    -0.206 F 
ATOM     43  C   UNL A   1      46.575  32.534  26.501  1.00  0.00     0.040 A 
ATOM     44  C   UNL A   1      44.335  33.195  26.996  1.00  0.00     0.040 A 
ATOM     45  F   UNL A   1      43.034  31.981  28.503  1.00  0.00    -0.206 F 
ATOM     46  C   UNL A   1      45.515  33.400  26.294  1.00  0.00     0.006 A 
ENDBRANCH  25  39
BRANCH  26  47
ATOM     47  C   UNL A   1      37.692  31.756  31.732  1.00  0.00     0.057 A 
ATOM     48  C   UNL A   1      36.797  31.804  32.813  1.00  0.00     0.134 A 
ATOM     49  C   UNL A   1      37.250  32.367  30.545  1.00  0.00     0.134 A 
ATOM     50  F   UNL A   1      37.081  31.204  33.976  1.00  0.00    -0.206 F 
ATOM     51  C   UNL A   1      35.527  32.385  32.709  1.00  0.00     0.040 A 
ATOM     52  C   UNL A   1      35.979  32.944  30.426  1.00  0.00     0.040 A 
ATOM     53  F   UNL A   1      38.017  32.351  29.443  1.00  0.00    -0.206 F 
ATOM     54  C   UNL A   1      35.105  32.939  31.507  1.00  0.00     0.006 A 
ENDBRANCH  26  47
BRANCH  38  55
ATOM     55  C   UNL A   1      42.901  29.125  34.087  1.00  0.00     0.057 A 
ATOM     56  C   UNL A   1      43.530  29.425  35.301  1.00  0.00     0.134 A 
ATOM     57  C   UNL A   1      42.166  27.931  34.030  1.00  0.00     0.134 A 
ATOM     58  F   UNL A   1      44.289  30.526  35.415  1.00  0.00    -0.206 F 
ATOM     59  C   UNL A   1      43.439  28.579  36.408  1.00  0.00     0.040 A 
ATOM     60  C   UNL A   1      42.037  27.094  35.143  1.00  0.00     0.040 A 
ATOM     61  F   UNL A   1      41.604  27.512  32.888  1.00  0.00    -0.206 F 
ATOM     62  C   UNL A   1      42.684  27.413  36.334  1.00  0.00     0.006 A 
ENDBRANCH  38  55
ENDBRANCH  12  13
ENDBRANCH   5   7
ENDBRANCH   2   3
ENDBRANCH   1   2
BRANCH   1  63
ATOM     63  C   UNL A   1      34.816  23.097  24.719  1.00  0.00     0.118 C 
BRANCH  63  64
ATOM     64  N   UNL A   1      34.171  22.498  23.565  1.00  0.00    -0.351 N 
ATOM     65  C   UNL A   1      32.862  22.586  23.156  1.00  0.00     0.271 C 
ATOM     66  H   UNL A   1      34.756  21.950  22.994  1.00  0.00     0.163 HD
ATOM     67  O   UNL A   1      32.479  21.836  22.262  1.00  0.00    -0.267 OA
BRANCH  65  68
ATOM     68  C   UNL A   1      31.992  23.606  23.754  1.00  0.00     0.150 A 
ATOM     69  C   UNL A   1      31.024  23.408  24.772  1.00  0.00     0.056 A 
ATOM     70  N   UNL A   1      32.093  24.908  23.431  1.00  0.00    -0.161 NA
ATOM     71  C   UNL A   1      30.654  24.671  25.162  1.00  0.00     0.118 A 
ATOM     72  N   UNL A   1      31.359  25.552  24.375  1.00  0.00    -0.222 N 
BRANCH  72  73
ATOM     73  C   UNL A   1      31.368  26.968  24.509  1.00  0.00     0.158 A 
ATOM     74  C   UNL A   1      30.546  27.715  23.694  1.00  0.00     0.078 A 
ATOM     75  N   UNL A   1      32.179  27.513  25.445  1.00  0.00    -0.209 NA
ATOM     76  C   UNL A   1      30.551  29.076  23.917  1.00  0.00     0.077 A 
ATOM     77  C   UNL A   1      32.178  28.854  25.519  1.00  0.00     0.165 A 
ATOM     78  N   UNL A   1      31.388  29.665  24.794  1.00  0.00    -0.228 NA
BRANCH  76  79
ATOM     79  C   UNL A   1      29.590  29.968  23.260  1.00  0.00     0.003 A 
ATOM     80  C   UNL A   1      29.064  29.647  22.002  1.00  0.00     0.030 A 
ATOM     81  C   UNL A   1      29.153  31.144  23.874  1.00  0.00     0.030 A 
ATOM     82  C   UNL A   1      28.152  30.510  21.415  1.00  0.00     0.111 A 
ATOM     83  C   UNL A   1      28.246  31.949  23.203  1.00  0.00     0.111 A 
ATOM     84  N   UNL A   1      27.740  31.660  21.985  1.00  0.00    -0.265 NA
ENDBRANCH  76  79
BRANCH  77  85
ATOM     85  C   UNL A   1      33.186  29.475  26.367  1.00  0.00     0.055 A 
ATOM     86  C   UNL A   1      34.425  28.847  26.593  1.00  0.00     0.015 A 
ATOM     87  C   UNL A   1      32.961  30.712  26.974  1.00  0.00     0.134 A 
ATOM     88  C   UNL A   1      35.403  29.448  27.391  1.00  0.00     0.001 A 
ATOM     89  C   UNL A   1      33.928  31.316  27.779  1.00  0.00     0.040 A 
ATOM     90  F   UNL A   1      31.787  31.343  26.813  1.00  0.00    -0.206 F 
ATOM     91  C   UNL A   1      35.154  30.684  27.985  1.00  0.00     0.003 A 
ENDBRANCH  77  85
ENDBRANCH  72  73
ENDBRANCH  65  68
ENDBRANCH  63  64
ENDBRANCH   1  63
TORSDOF 13
ENDMDL
MODEL 3
REMARK VINA RESULT:     -13.0      1.836      5.948
REMARK SMILES O=C(NCCCNC(=O)c1ccn(-c2cc(-c3ccncc3)nc(-c3ccccc3F)n2)n1)c1ccc(-c2c3nc(c(-c4c(F)cccc4F)c4ccc([nH]4)c(-c4c(F)cccc4F)c4nc(c(-c5c(F)cccc5F)c5ccc2[nH]5)C=C4)C=C3)cc1
REMARK SMILES IDX 5 1 4 2 3 3 1 4 2 5 34 7 35 8 87 9 36 10 86 11 37 12 38 13
REMARK SMILES IDX 39 14 80 15 40 16 85 17 79 18 81 19 41 20 84 21 78 22 77 23
REMARK SMILES IDX 42 25 68 26 51 27 67 28 52 29 55 30 66 31 82 32 53 33 54 34
REMARK SMILES IDX 65 36 83 37 56 38 43 39 44 40 49 41 45 42 46 43 48 44 50 45
REMARK SMILES IDX 47 46 69 47 70 48 75 49 71 50 72 51 74 52 76 53 73 54 57 55
REMARK SMILES IDX 58 56 63 57 59 58 60 59 62 60 64 61 61 62 6 63 7 64 8 65
REMARK SMILES IDX 9 67 10 68 11 69 33 70 12 71 13 72 14 73 15 74 32 75 16 76
REMARK SMILES IDX 24 77 23 78 17 79 18 80 22 81 19 82 21 83 20 84 25 85 26 86
REMARK SMILES IDX 30 87 27 88 29 89 31 90 28 91
REMARK H PARENT 3 6 81 24 55 35 7 66
REMARK Flexibility Score: inf
ROOT
ATOM      1  C   UNL A   1      32.097  28.391  26.530  1.00  0.00     0.042 C 
ENDROOT
BRANCH   1   2
ATOM      2  C   UNL A   1      33.527  28.844  26.824  1.00  0.00     0.118 C 
BRANCH   2   3
ATOM      3  N   UNL A   1      33.646  30.024  27.658  1.00  0.00    -0.352 N 
ATOM      4  O   UNL A   1      34.417  31.790  28.736  1.00  0.00    -0.269 OA
ATOM      5  C   UNL A   1      34.684  30.689  28.247  1.00  0.00     0.251 C 
ATOM      6  H   UNL A   1      32.775  30.445  27.844  1.00  0.00     0.163 HD
BRANCH   5   7
ATOM      7  C   UNL A   1      36.062  30.154  28.413  1.00  0.00     0.039 A 
ATOM      8  C   UNL A   1      37.062  30.144  27.439  1.00  0.00     0.014 A 
ATOM      9  C   UNL A   1      36.347  29.601  29.677  1.00  0.00     0.014 A 
ATOM     10  C   UNL A   1      38.282  29.517  27.693  1.00  0.00     0.010 A 
ATOM     11  C   UNL A   1      37.564  28.985  29.939  1.00  0.00     0.010 A 
ATOM     12  C   UNL A   1      38.523  28.918  28.933  1.00  0.00    -0.014 A 
BRANCH  12  13
ATOM     13  C   UNL A   1      39.868  28.423  29.227  1.00  0.00     0.031 A 
ATOM     14  C   UNL A   1      40.247  28.526  30.666  1.00  0.00     0.074 A 
ATOM     15  C   UNL A   1      40.641  27.756  28.344  1.00  0.00     0.049 A 
ATOM     16  N   UNL A   1      41.232  29.177  31.192  1.00  0.00    -0.248 NA
ATOM     17  C   UNL A   1      39.345  27.907  31.656  1.00  0.00     0.031 C 
ATOM     18  C   UNL A   1      40.273  27.308  26.999  1.00  0.00     0.029 A 
ATOM     19  N   UNL A   1      41.898  27.241  28.503  1.00  0.00    -0.354 N 
ATOM     20  C   UNL A   1      41.193  28.890  32.556  1.00  0.00     0.074 A 
ATOM     21  C   UNL A   1      39.931  28.246  32.803  1.00  0.00     0.031 C 
ATOM     22  C   UNL A   1      41.188  26.412  26.560  1.00  0.00     0.029 A 
ATOM     23  C   UNL A   1      42.266  26.317  27.530  1.00  0.00     0.049 A 
ATOM     24  H   UNL A   1      42.492  27.502  29.244  1.00  0.00     0.167 HD
ATOM     25  C   UNL A   1      42.307  28.979  33.332  1.00  0.00     0.037 A 
ATOM     26  C   UNL A   1      43.347  25.492  27.550  1.00  0.00     0.037 A 
ATOM     27  C   UNL A   1      43.311  29.807  32.717  1.00  0.00     0.049 A 
ATOM     28  C   UNL A   1      44.313  26.045  28.526  1.00  0.00     0.074 A 
ATOM     29  C   UNL A   1      43.378  31.119  32.295  1.00  0.00     0.029 A 
ATOM     30  N   UNL A   1      44.382  29.174  32.141  1.00  0.00    -0.354 N 
ATOM     31  N   UNL A   1      44.985  27.147  28.356  1.00  0.00    -0.248 NA
ATOM     32  C   UNL A   1      44.252  25.553  29.893  1.00  0.00     0.031 C 
ATOM     33  C   UNL A   1      44.192  31.091  31.125  1.00  0.00     0.029 A 
ATOM     34  C   UNL A   1      44.619  29.777  30.935  1.00  0.00     0.049 A 
ATOM     35  H   UNL A   1      44.890  28.423  32.524  1.00  0.00     0.167 HD
ATOM     36  C   UNL A   1      45.040  27.716  29.617  1.00  0.00     0.074 A 
ATOM     37  C   UNL A   1      44.681  26.640  30.537  1.00  0.00     0.031 C 
ATOM     38  C   UNL A   1      45.091  29.070  29.768  1.00  0.00     0.037 A 
BRANCH  25  39
ATOM     39  C   UNL A   1      42.645  27.999  34.435  1.00  0.00     0.057 A 
ATOM     40  C   UNL A   1      43.070  26.672  34.214  1.00  0.00     0.134 A 
ATOM     41  C   UNL A   1      42.857  28.480  35.741  1.00  0.00     0.134 A 
ATOM     42  F   UNL A   1      43.023  26.091  33.010  1.00  0.00    -0.206 F 
ATOM     43  C   UNL A   1      43.677  25.894  35.204  1.00  0.00     0.040 A 
ATOM     44  C   UNL A   1      43.514  27.727  36.724  1.00  0.00     0.040 A 
ATOM     45  F   UNL A   1      42.520  29.734  36.077  1.00  0.00    -0.206 F 
ATOM     46  C   UNL A   1      43.931  26.430  36.454  1.00  0.00     0.006 A 
ENDBRANCH  25  39
BRANCH  26  47
ATOM     47  C   UNL A   1      43.504  24.113  27.025  1.00  0.00     0.057 A 
ATOM     48  C   UNL A   1      43.964  23.867  25.721  1.00  0.00     0.134 A 
ATOM     49  C   UNL A   1      42.909  23.019  27.678  1.00  0.00     0.134 A 
ATOM     50  F   UNL A   1      44.494  24.848  24.977  1.00  0.00    -0.206 F 
ATOM     51  C   UNL A   1      43.807  22.627  25.090  1.00  0.00     0.040 A 
ATOM     52  C   UNL A   1      42.737  21.775  27.056  1.00  0.00     0.040 A 
ATOM     53  F   UNL A   1      42.407  23.154  28.916  1.00  0.00    -0.206 F 
ATOM     54  C   UNL A   1      43.172  21.581  25.749  1.00  0.00     0.006 A 
ENDBRANCH  26  47
BRANCH  38  55
ATOM     55  C   UNL A   1      45.422  29.906  28.563  1.00  0.00     0.057 A 
ATOM     56  C   UNL A   1      46.749  30.316  28.389  1.00  0.00     0.134 A 
ATOM     57  C   UNL A   1      44.473  30.432  27.674  1.00  0.00     0.134 A 
ATOM     58  F   UNL A   1      47.703  29.890  29.232  1.00  0.00    -0.206 F 
ATOM     59  C   UNL A   1      47.119  31.211  27.385  1.00  0.00     0.040 A 
ATOM     60  C   UNL A   1      44.837  31.301  26.640  1.00  0.00     0.040 A 
ATOM     61  F   UNL A   1      43.166  30.172  27.814  1.00  0.00    -0.206 F 
ATOM     62  C   UNL A   1      46.163  31.701  26.500  1.00  0.00     0.006 A 
ENDBRANCH  38  55
ENDBRANCH  12  13
ENDBRANCH   5   7
ENDBRANCH   2   3
ENDBRANCH   1   2
BRANCH   1  63
ATOM     63  C   UNL A   1      31.987  27.028  25.848  1.00  0.00     0.118 C 
BRANCH  63  64
ATOM     64  N   UNL A   1      30.656  26.789  25.323  1.00  0.00    -0.351 N 
ATOM     65  C   UNL A   1      30.267  26.014  24.257  1.00  0.00     0.271 C 
ATOM     66  H   UNL A   1      29.928  27.248  25.799  1.00  0.00     0.163 HD
ATOM     67  O   UNL A   1      29.109  26.111  23.858  1.00  0.00    -0.267 OA
BRANCH  65  68
ATOM     68  C   UNL A   1      31.222  25.062  23.677  1.00  0.00     0.150 A 
ATOM     69  C   UNL A   1      31.849  25.152  22.408  1.00  0.00     0.056 A 
ATOM     70  N   UNL A   1      31.676  23.998  24.366  1.00  0.00    -0.161 NA
ATOM     71  C   UNL A   1      32.821  24.183  22.421  1.00  0.00     0.118 A 
ATOM     72  N   UNL A   1      32.729  23.545  23.637  1.00  0.00    -0.222 N 
BRANCH  72  73
ATOM     73  C   UNL A   1      33.615  22.544  24.124  1.00  0.00     0.158 A 
ATOM     74  C   UNL A   1      33.152  21.251  24.242  1.00  0.00     0.078 A 
ATOM     75  N   UNL A   1      34.879  22.911  24.437  1.00  0.00    -0.209 NA
ATOM     76  C   UNL A   1      34.076  20.315  24.657  1.00  0.00     0.077 A 
ATOM     77  C   UNL A   1      35.673  21.942  24.919  1.00  0.00     0.165 A 
ATOM     78  N   UNL A   1      35.326  20.649  25.038  1.00  0.00    -0.228 NA
BRANCH  76  79
ATOM     79  C   UNL A   1      33.779  18.880  24.643  1.00  0.00     0.003 A 
ATOM     80  C   UNL A   1      34.754  17.953  24.251  1.00  0.00     0.030 A 
ATOM     81  C   UNL A   1      32.531  18.393  25.039  1.00  0.00     0.030 A 
ATOM     82  C   UNL A   1      34.439  16.604  24.258  1.00  0.00     0.111 A 
ATOM     83  C   UNL A   1      32.307  17.026  25.002  1.00  0.00     0.111 A 
ATOM     84  N   UNL A   1      33.232  16.122  24.615  1.00  0.00    -0.265 NA
ENDBRANCH  76  79
BRANCH  77  85
ATOM     85  C   UNL A   1      36.966  22.345  25.456  1.00  0.00     0.055 A 
ATOM     86  C   UNL A   1      37.164  23.646  25.957  1.00  0.00     0.015 A 
ATOM     87  C   UNL A   1      38.043  21.458  25.498  1.00  0.00     0.134 A 
ATOM     88  C   UNL A   1      38.398  24.031  26.491  1.00  0.00     0.001 A 
ATOM     89  C   UNL A   1      39.280  21.837  26.021  1.00  0.00     0.040 A 
ATOM     90  F   UNL A   1      37.916  20.214  25.009  1.00  0.00    -0.206 F 
ATOM     91  C   UNL A   1      39.457  23.125  26.522  1.00  0.00     0.003 A 
ENDBRANCH  77  85
ENDBRANCH  72  73
ENDBRANCH  65  68
ENDBRANCH  63  64
ENDBRANCH   1  63
TORSDOF 13
ENDMDL
