MODEL 1
REMARK VINA RESULT:     -11.4      0.000      0.000
REMARK SMILES O=C(NCCCNC(=O)[C@@H](CO)NC(=O)[C@H]1CCCc2ccccc21)c1ccc(-c2c3nc(c(-c4c(F)cccc4F)c4ccc([nH]4)c(-c4c(F)cccc4F)c4nc(c(-c5c(F)cccc5F)c5ccc2[nH]5)C=C4)C=C3)cc1
REMARK SMILES IDX 5 1 4 2 3 3 1 4 2 5 26 7 27 8 79 9 28 10 78 11 29 12 30 13
REMARK SMILES IDX 31 14 72 15 32 16 77 17 71 18 73 19 33 20 76 21 70 22 69 23
REMARK SMILES IDX 34 25 60 26 43 27 59 28 44 29 47 30 58 31 74 32 45 33 46 34
REMARK SMILES IDX 57 36 75 37 48 38 35 39 36 40 41 41 37 42 38 43 40 44 42 45
REMARK SMILES IDX 39 46 61 47 62 48 67 49 63 50 64 51 66 52 68 53 65 54 49 55
REMARK SMILES IDX 50 56 55 57 51 58 52 59 54 60 56 61 53 62 6 63 7 64 8 65
REMARK SMILES IDX 9 67 10 68 11 69 12 70 13 72 14 73 15 75 16 76 17 77 25 78
REMARK SMILES IDX 18 79 20 80 24 81 19 82 21 83 23 84 22 85
REMARK H PARENT 3 6 73 24 47 35 7 66 12 71 13 74
REMARK Flexibility Score: inf
ROOT
ATOM      1  C   UNL A   1      34.447  32.487  28.041  1.00  0.00     0.042 C 
ENDROOT
BRANCH   1   2
ATOM      2  C   UNL A   1      35.488  31.435  28.395  1.00  0.00     0.118 C 
BRANCH   2   3
ATOM      3  N   UNL A   1      35.389  30.981  29.775  1.00  0.00    -0.352 N 
ATOM      4  O   UNL A   1      35.919  29.839  31.641  1.00  0.00    -0.269 OA
ATOM      5  C   UNL A   1      36.278  30.271  30.548  1.00  0.00     0.251 C 
ATOM      6  H   UNL A   1      34.549  31.220  30.228  1.00  0.00     0.163 HD
BRANCH   5   7
ATOM      7  C   UNL A   1      37.651  29.995  30.070  1.00  0.00     0.039 A 
ATOM      8  C   UNL A   1      37.986  30.117  28.722  1.00  0.00     0.014 A 
ATOM      9  C   UNL A   1      38.637  29.633  30.995  1.00  0.00     0.014 A 
ATOM     10  C   UNL A   1      39.234  29.696  28.276  1.00  0.00     0.010 A 
ATOM     11  C   UNL A   1      39.930  29.321  30.558  1.00  0.00     0.010 A 
ATOM     12  C   UNL A   1      40.228  29.306  29.188  1.00  0.00    -0.014 A 
BRANCH  12  13
ATOM     13  C   UNL A   1      41.573  28.930  28.674  1.00  0.00     0.031 A 
ATOM     14  C   UNL A   1      42.708  29.919  28.657  1.00  0.00     0.074 A 
ATOM     15  C   UNL A   1      41.781  27.664  28.263  1.00  0.00     0.049 A 
ATOM     16  N   UNL A   1      43.953  29.736  28.292  1.00  0.00    -0.248 NA
ATOM     17  C   UNL A   1      42.411  31.291  29.094  1.00  0.00     0.031 C 
ATOM     18  C   UNL A   1      40.758  26.616  28.212  1.00  0.00     0.029 A 
ATOM     19  N   UNL A   1      42.922  27.031  27.842  1.00  0.00    -0.354 N 
ATOM     20  C   UNL A   1      44.577  30.971  28.426  1.00  0.00     0.074 A 
ATOM     21  C   UNL A   1      43.569  31.902  28.886  1.00  0.00     0.031 C 
ATOM     22  C   UNL A   1      41.330  25.458  27.854  1.00  0.00     0.029 A 
ATOM     23  C   UNL A   1      42.744  25.692  27.587  1.00  0.00     0.049 A 
ATOM     24  H   UNL A   1      43.786  27.490  27.734  1.00  0.00     0.167 HD
ATOM     25  C   UNL A   1      45.871  31.297  28.190  1.00  0.00     0.037 A 
ATOM     26  C   UNL A   1      43.618  24.755  27.179  1.00  0.00     0.037 A 
ATOM     27  C   UNL A   1      46.881  30.362  27.763  1.00  0.00     0.049 A 
ATOM     28  C   UNL A   1      45.048  25.142  26.939  1.00  0.00     0.074 A 
ATOM     29  C   UNL A   1      48.229  30.591  27.543  1.00  0.00     0.029 A 
ATOM     30  N   UNL A   1      46.655  29.021  27.492  1.00  0.00    -0.354 N 
ATOM     31  N   UNL A   1      45.626  26.306  27.101  1.00  0.00    -0.248 NA
ATOM     32  C   UNL A   1      45.944  24.085  26.452  1.00  0.00     0.031 C 
ATOM     33  C   UNL A   1      48.810  29.396  27.103  1.00  0.00     0.029 A 
ATOM     34  C   UNL A   1      47.833  28.414  27.091  1.00  0.00     0.049 A 
ATOM     35  H   UNL A   1      45.785  28.568  27.573  1.00  0.00     0.167 HD
ATOM     36  C   UNL A   1      46.956  26.119  26.756  1.00  0.00     0.074 A 
ATOM     37  C   UNL A   1      47.103  24.725  26.393  1.00  0.00     0.031 C 
ATOM     38  C   UNL A   1      47.965  27.024  26.738  1.00  0.00     0.037 A 
BRANCH  25  39
ATOM     39  C   UNL A   1      46.271  32.733  28.374  1.00  0.00     0.057 A 
ATOM     40  C   UNL A   1      46.192  33.666  27.332  1.00  0.00     0.134 A 
ATOM     41  C   UNL A   1      46.701  33.195  29.624  1.00  0.00     0.134 A 
ATOM     42  F   UNL A   1      45.799  33.285  26.107  1.00  0.00    -0.206 F 
ATOM     43  C   UNL A   1      46.545  35.003  27.523  1.00  0.00     0.040 A 
ATOM     44  C   UNL A   1      47.035  34.535  29.833  1.00  0.00     0.040 A 
ATOM     45  F   UNL A   1      46.792  32.356  30.668  1.00  0.00    -0.206 F 
ATOM     46  C   UNL A   1      46.963  35.442  28.779  1.00  0.00     0.006 A 
ENDBRANCH  25  39
BRANCH  26  47
ATOM     47  C   UNL A   1      43.164  23.355  26.986  1.00  0.00     0.057 A 
ATOM     48  C   UNL A   1      42.979  22.500  28.077  1.00  0.00     0.134 A 
ATOM     49  C   UNL A   1      42.893  22.846  25.711  1.00  0.00     0.134 A 
ATOM     50  F   UNL A   1      43.238  22.927  29.322  1.00  0.00    -0.206 F 
ATOM     51  C   UNL A   1      42.553  21.182  27.906  1.00  0.00     0.040 A 
ATOM     52  C   UNL A   1      42.442  21.539  25.527  1.00  0.00     0.040 A 
ATOM     53  F   UNL A   1      43.044  23.620  24.626  1.00  0.00    -0.206 F 
ATOM     54  C   UNL A   1      42.276  20.701  26.628  1.00  0.00     0.006 A 
ENDBRANCH  26  47
BRANCH  38  55
ATOM     55  C   UNL A   1      49.321  26.518  26.343  1.00  0.00     0.057 A 
ATOM     56  C   UNL A   1      50.149  25.843  27.248  1.00  0.00     0.134 A 
ATOM     57  C   UNL A   1      49.796  26.699  25.038  1.00  0.00     0.134 A 
ATOM     58  F   UNL A   1      49.758  25.653  28.518  1.00  0.00    -0.206 F 
ATOM     59  C   UNL A   1      51.416  25.389  26.877  1.00  0.00     0.040 A 
ATOM     60  C   UNL A   1      51.049  26.228  24.649  1.00  0.00     0.040 A 
ATOM     61  F   UNL A   1      49.047  27.331  24.123  1.00  0.00    -0.206 F 
ATOM     62  C   UNL A   1      51.866  25.578  25.572  1.00  0.00     0.006 A 
ENDBRANCH  38  55
ENDBRANCH  12  13
ENDBRANCH   5   7
ENDBRANCH   2   3
ENDBRANCH   1   2
BRANCH   1  63
ATOM     63  C   UNL A   1      34.997  33.909  27.999  1.00  0.00     0.117 C 
BRANCH  63  64
ATOM     64  N   UNL A   1      33.938  34.907  28.029  1.00  0.00    -0.354 N 
ATOM     65  C   UNL A   1      33.344  35.586  29.048  1.00  0.00     0.244 C 
ATOM     66  H   UNL A   1      33.581  35.134  27.140  1.00  0.00     0.163 HD
ATOM     67  O   UNL A   1      32.290  36.172  28.771  1.00  0.00    -0.273 OA
BRANCH  65  68
ATOM     68  C   UNL A   1      33.834  35.557  30.508  1.00  0.00     0.197 C 
BRANCH  68  69
ATOM     69  C   UNL A   1      33.274  36.731  31.318  1.00  0.00     0.191 C 
BRANCH  69  70
ATOM     70  O   UNL A   1      33.278  37.953  30.588  1.00  0.00    -0.394 OA
ATOM     71  H   UNL A   1      33.651  37.801  29.706  1.00  0.00     0.210 HD
ENDBRANCH  69  70
ENDBRANCH  68  69
BRANCH  68  72
ATOM     72  N   UNL A   1      33.653  34.263  31.167  1.00  0.00    -0.342 N 
ATOM     73  C   UNL A   1      34.527  33.525  31.911  1.00  0.00     0.228 C 
ATOM     74  H   UNL A   1      32.760  33.862  31.057  1.00  0.00     0.164 HD
ATOM     75  O   UNL A   1      34.204  32.366  32.173  1.00  0.00    -0.274 OA
BRANCH  73  76
ATOM     76  C   UNL A   1      35.781  34.197  32.480  1.00  0.00     0.109 C 
ATOM     77  C   UNL A   1      35.782  33.874  33.987  1.00  0.00     0.018 C 
ATOM     78  C   UNL A   1      37.078  33.814  31.776  1.00  0.00    -0.032 A 
ATOM     79  C   UNL A   1      37.114  34.203  34.636  1.00  0.00     0.006 C 
ATOM     80  C   UNL A   1      38.232  33.464  32.505  1.00  0.00    -0.044 A 
ATOM     81  C   UNL A   1      37.165  33.913  30.377  1.00  0.00     0.005 A 
ATOM     82  C   UNL A   1      38.218  33.362  34.009  1.00  0.00     0.036 C 
ATOM     83  C   UNL A   1      39.421  33.162  31.821  1.00  0.00     0.004 A 
ATOM     84  C   UNL A   1      38.357  33.628  29.709  1.00  0.00     0.000 A 
ATOM     85  C   UNL A   1      39.482  33.247  30.431  1.00  0.00     0.000 A 
ENDBRANCH  73  76
ENDBRANCH  68  72
ENDBRANCH  65  68
ENDBRANCH  63  64
ENDBRANCH   1  63
TORSDOF 14
ENDMDL
MODEL 2
REMARK VINA RESULT:     -11.4      5.330     12.925
REMARK SMILES O=C(NCCCNC(=O)[C@@H](CO)NC(=O)[C@H]1CCCc2ccccc21)c1ccc(-c2c3nc(c(-c4c(F)cccc4F)c4ccc([nH]4)c(-c4c(F)cccc4F)c4nc(c(-c5c(F)cccc5F)c5ccc2[nH]5)C=C4)C=C3)cc1
REMARK SMILES IDX 5 1 4 2 3 3 1 4 2 5 26 7 27 8 79 9 28 10 78 11 29 12 30 13
REMARK SMILES IDX 31 14 72 15 32 16 77 17 71 18 73 19 33 20 76 21 70 22 69 23
REMARK SMILES IDX 34 25 60 26 43 27 59 28 44 29 47 30 58 31 74 32 45 33 46 34
REMARK SMILES IDX 57 36 75 37 48 38 35 39 36 40 41 41 37 42 38 43 40 44 42 45
REMARK SMILES IDX 39 46 61 47 62 48 67 49 63 50 64 51 66 52 68 53 65 54 49 55
REMARK SMILES IDX 50 56 55 57 51 58 52 59 54 60 56 61 53 62 6 63 7 64 8 65
REMARK SMILES IDX 9 67 10 68 11 69 12 70 13 72 14 73 15 75 16 76 17 77 25 78
REMARK SMILES IDX 18 79 20 80 24 81 19 82 21 83 23 84 22 85
REMARK H PARENT 3 6 73 24 47 35 7 66 12 71 13 74
REMARK Flexibility Score: inf
ROOT
ATOM      1  C   UNL A   1      40.196  21.442  26.871  1.00  0.00     0.042 C 
ENDROOT
BRANCH   1   2
ATOM      2  C   UNL A   1      40.167  22.936  27.155  1.00  0.00     0.118 C 
BRANCH   2   3
ATOM      3  N   UNL A   1      40.785  23.728  26.100  1.00  0.00    -0.352 N 
ATOM      4  O   UNL A   1      41.460  25.566  24.991  1.00  0.00    -0.269 OA
ATOM      5  C   UNL A   1      41.099  25.065  26.054  1.00  0.00     0.251 C 
ATOM      6  H   UNL A   1      41.016  23.222  25.288  1.00  0.00     0.163 HD
BRANCH   5   7
ATOM      7  C   UNL A   1      40.981  25.918  27.258  1.00  0.00     0.039 A 
ATOM      8  C   UNL A   1      39.976  25.703  28.200  1.00  0.00     0.014 A 
ATOM      9  C   UNL A   1      41.914  26.939  27.467  1.00  0.00     0.014 A 
ATOM     10  C   UNL A   1      39.786  26.613  29.234  1.00  0.00     0.010 A 
ATOM     11  C   UNL A   1      41.791  27.787  28.575  1.00  0.00     0.010 A 
ATOM     12  C   UNL A   1      40.699  27.660  29.444  1.00  0.00    -0.014 A 
BRANCH  12  13
ATOM     13  C   UNL A   1      40.499  28.570  30.604  1.00  0.00     0.031 A 
ATOM     14  C   UNL A   1      41.393  28.504  31.814  1.00  0.00     0.074 A 
ATOM     15  C   UNL A   1      39.528  29.502  30.539  1.00  0.00     0.049 A 
ATOM     16  N   UNL A   1      41.387  29.260  32.884  1.00  0.00    -0.248 NA
ATOM     17  C   UNL A   1      42.418  27.450  31.835  1.00  0.00     0.031 C 
ATOM     18  C   UNL A   1      38.582  29.657  29.430  1.00  0.00     0.029 A 
ATOM     19  N   UNL A   1      39.191  30.512  31.403  1.00  0.00    -0.354 N 
ATOM     20  C   UNL A   1      42.380  28.756  33.715  1.00  0.00     0.074 A 
ATOM     21  C   UNL A   1      42.957  27.616  33.035  1.00  0.00     0.031 C 
ATOM     22  C   UNL A   1      37.822  30.740  29.646  1.00  0.00     0.029 A 
ATOM     23  C   UNL A   1      38.180  31.318  30.936  1.00  0.00     0.049 A 
ATOM     24  H   UNL A   1      39.631  30.648  32.273  1.00  0.00     0.167 HD
ATOM     25  C   UNL A   1      42.777  29.205  34.930  1.00  0.00     0.037 A 
ATOM     26  C   UNL A   1      37.599  32.400  31.485  1.00  0.00     0.037 A 
ATOM     27  C   UNL A   1      42.225  30.360  35.592  1.00  0.00     0.049 A 
ATOM     28  C   UNL A   1      38.068  32.882  32.826  1.00  0.00     0.074 A 
ATOM     29  C   UNL A   1      42.594  30.918  36.804  1.00  0.00     0.029 A 
ATOM     30  N   UNL A   1      41.186  31.133  35.098  1.00  0.00    -0.354 N 
ATOM     31  N   UNL A   1      39.030  32.413  33.581  1.00  0.00    -0.248 NA
ATOM     32  C   UNL A   1      37.366  34.041  33.392  1.00  0.00     0.031 C 
ATOM     33  C   UNL A   1      41.753  32.007  37.060  1.00  0.00     0.029 A 
ATOM     34  C   UNL A   1      40.890  32.153  35.987  1.00  0.00     0.049 A 
ATOM     35  H   UNL A   1      40.726  30.980  34.240  1.00  0.00     0.167 HD
ATOM     36  C   UNL A   1      39.062  33.228  34.702  1.00  0.00     0.074 A 
ATOM     37  C   UNL A   1      38.035  34.233  34.519  1.00  0.00     0.031 C 
ATOM     38  C   UNL A   1      39.868  33.149  35.789  1.00  0.00     0.037 A 
BRANCH  25  39
ATOM     39  C   UNL A   1      43.857  28.436  35.637  1.00  0.00     0.057 A 
ATOM     40  C   UNL A   1      45.216  28.721  35.452  1.00  0.00     0.134 A 
ATOM     41  C   UNL A   1      43.527  27.424  36.548  1.00  0.00     0.134 A 
ATOM     42  F   UNL A   1      45.599  29.670  34.585  1.00  0.00    -0.206 F 
ATOM     43  C   UNL A   1      46.208  28.013  36.133  1.00  0.00     0.040 A 
ATOM     44  C   UNL A   1      44.510  26.725  37.251  1.00  0.00     0.040 A 
ATOM     45  F   UNL A   1      42.244  27.105  36.778  1.00  0.00    -0.206 F 
ATOM     46  C   UNL A   1      45.856  27.015  37.040  1.00  0.00     0.006 A 
ENDBRANCH  25  39
BRANCH  26  47
ATOM     47  C   UNL A   1      36.517  33.107  30.755  1.00  0.00     0.057 A 
ATOM     48  C   UNL A   1      35.180  32.972  31.141  1.00  0.00     0.134 A 
ATOM     49  C   UNL A   1      36.796  33.940  29.666  1.00  0.00     0.134 A 
ATOM     50  F   UNL A   1      34.849  32.174  32.168  1.00  0.00    -0.206 F 
ATOM     51  C   UNL A   1      34.155  33.631  30.461  1.00  0.00     0.040 A 
ATOM     52  C   UNL A   1      35.784  34.625  28.993  1.00  0.00     0.040 A 
ATOM     53  F   UNL A   1      38.060  34.116  29.253  1.00  0.00    -0.206 F 
ATOM     54  C   UNL A   1      34.457  34.467  29.387  1.00  0.00     0.006 A 
ENDBRANCH  26  47
BRANCH  38  55
ATOM     55  C   UNL A   1      39.689  34.200  36.843  1.00  0.00     0.057 A 
ATOM     56  C   UNL A   1      38.936  33.966  38.000  1.00  0.00     0.134 A 
ATOM     57  C   UNL A   1      40.289  35.458  36.703  1.00  0.00     0.134 A 
ATOM     58  F   UNL A   1      38.323  32.786  38.185  1.00  0.00    -0.206 F 
ATOM     59  C   UNL A   1      38.763  34.955  38.969  1.00  0.00     0.040 A 
ATOM     60  C   UNL A   1      40.143  36.447  37.675  1.00  0.00     0.040 A 
ATOM     61  F   UNL A   1      41.029  35.743  35.621  1.00  0.00    -0.206 F 
ATOM     62  C   UNL A   1      39.372  36.198  38.809  1.00  0.00     0.006 A 
ENDBRANCH  38  55
ENDBRANCH  12  13
ENDBRANCH   5   7
ENDBRANCH   2   3
ENDBRANCH   1   2
BRANCH   1  63
ATOM     63  C   UNL A   1      41.248  20.682  27.672  1.00  0.00     0.117 C 
BRANCH  63  64
ATOM     64  N   UNL A   1      41.532  19.373  27.101  1.00  0.00    -0.354 N 
ATOM     65  C   UNL A   1      42.514  18.927  26.272  1.00  0.00     0.244 C 
ATOM     66  H   UNL A   1      40.889  18.677  27.365  1.00  0.00     0.163 HD
ATOM     67  O   UNL A   1      42.327  17.818  25.754  1.00  0.00    -0.273 OA
BRANCH  65  68
ATOM     68  C   UNL A   1      43.743  19.758  25.859  1.00  0.00     0.197 C 
BRANCH  68  69
ATOM     69  C   UNL A   1      44.862  18.875  25.296  1.00  0.00     0.191 C 
BRANCH  69  70
ATOM     70  O   UNL A   1      45.171  17.774  26.142  1.00  0.00    -0.394 OA
ATOM     71  H   UNL A   1      46.048  17.429  25.917  1.00  0.00     0.210 HD
ENDBRANCH  69  70
ENDBRANCH  68  69
BRANCH  68  72
ATOM     72  N   UNL A   1      43.424  20.901  25.003  1.00  0.00    -0.342 N 
ATOM     73  C   UNL A   1      43.777  22.214  25.122  1.00  0.00     0.228 C 
ATOM     74  H   UNL A   1      42.868  20.690  24.218  1.00  0.00     0.164 HD
ATOM     75  O   UNL A   1      43.199  23.021  24.392  1.00  0.00    -0.274 OA
BRANCH  73  76
ATOM     76  C   UNL A   1      44.938  22.598  26.046  1.00  0.00     0.109 C 
ATOM     77  C   UNL A   1      45.935  23.374  25.163  1.00  0.00     0.018 C 
ATOM     78  C   UNL A   1      44.521  23.355  27.302  1.00  0.00    -0.032 A 
ATOM     79  C   UNL A   1      46.987  24.090  25.992  1.00  0.00     0.006 C 
ATOM     80  C   UNL A   1      45.206  24.513  27.721  1.00  0.00    -0.044 A 
ATOM     81  C   UNL A   1      43.506  22.836  28.122  1.00  0.00     0.005 A 
ATOM     82  C   UNL A   1      46.321  25.113  26.902  1.00  0.00     0.036 C 
ATOM     83  C   UNL A   1      44.822  25.156  28.908  1.00  0.00     0.004 A 
ATOM     84  C   UNL A   1      43.145  23.473  29.310  1.00  0.00     0.000 A 
ATOM     85  C   UNL A   1      43.799  24.636  29.699  1.00  0.00     0.000 A 
ENDBRANCH  73  76
ENDBRANCH  68  72
ENDBRANCH  65  68
ENDBRANCH  63  64
ENDBRANCH   1  63
TORSDOF 14
ENDMDL
MODEL 3
REMARK VINA RESULT:     -11.2      5.288     12.766
REMARK SMILES O=C(NCCCNC(=O)[C@@H](CO)NC(=O)[C@H]1CCCc2ccccc21)c1ccc(-c2c3nc(c(-c4c(F)cccc4F)c4ccc([nH]4)c(-c4c(F)cccc4F)c4nc(c(-c5c(F)cccc5F)c5ccc2[nH]5)C=C4)C=C3)cc1
REMARK SMILES IDX 5 1 4 2 3 3 1 4 2 5 26 7 27 8 79 9 28 10 78 11 29 12 30 13
REMARK SMILES IDX 31 14 72 15 32 16 77 17 71 18 73 19 33 20 76 21 70 22 69 23
REMARK SMILES IDX 34 25 60 26 43 27 59 28 44 29 47 30 58 31 74 32 45 33 46 34
REMARK SMILES IDX 57 36 75 37 48 38 35 39 36 40 41 41 37 42 38 43 40 44 42 45
REMARK SMILES IDX 39 46 61 47 62 48 67 49 63 50 64 51 66 52 68 53 65 54 49 55
REMARK SMILES IDX 50 56 55 57 51 58 52 59 54 60 56 61 53 62 6 63 7 64 8 65
REMARK SMILES IDX 9 67 10 68 11 69 12 70 13 72 14 73 15 75 16 76 17 77 25 78
REMARK SMILES IDX 18 79 20 80 24 81 19 82 21 83 23 84 22 85
REMARK H PARENT 3 6 73 24 47 35 7 66 12 71 13 74
REMARK Flexibility Score: inf
ROOT
ATOM      1  C   UNL A   1      40.244  21.567  26.923  1.00  0.00     0.042 C 
ENDROOT
BRANCH   1   2
ATOM      2  C   UNL A   1      40.282  23.069  27.160  1.00  0.00     0.118 C 
BRANCH   2   3
ATOM      3  N   UNL A   1      40.897  23.803  26.063  1.00  0.00    -0.352 N 
ATOM      4  O   UNL A   1      41.582  25.579  24.862  1.00  0.00    -0.269 OA
ATOM      5  C   UNL A   1      41.227  25.133  25.951  1.00  0.00     0.251 C 
ATOM      6  H   UNL A   1      41.111  23.258  25.272  1.00  0.00     0.163 HD
BRANCH   5   7
ATOM      7  C   UNL A   1      41.134  26.041  27.116  1.00  0.00     0.039 A 
ATOM      8  C   UNL A   1      40.196  25.829  28.125  1.00  0.00     0.014 A 
ATOM      9  C   UNL A   1      42.026  27.116  27.218  1.00  0.00     0.014 A 
ATOM     10  C   UNL A   1      40.019  26.783  29.121  1.00  0.00     0.010 A 
ATOM     11  C   UNL A   1      41.923  28.014  28.288  1.00  0.00     0.010 A 
ATOM     12  C   UNL A   1      40.889  27.881  29.225  1.00  0.00    -0.014 A 
BRANCH  12  13
ATOM     13  C   UNL A   1      40.709  28.842  30.348  1.00  0.00     0.031 A 
ATOM     14  C   UNL A   1      39.606  29.865  30.333  1.00  0.00     0.074 A 
ATOM     15  C   UNL A   1      41.526  28.752  31.416  1.00  0.00     0.049 A 
ATOM     16  N   UNL A   1      39.280  30.737  31.255  1.00  0.00    -0.248 NA
ATOM     17  C   UNL A   1      38.765  29.928  29.129  1.00  0.00     0.031 C 
ATOM     18  C   UNL A   1      42.646  27.815  31.544  1.00  0.00     0.029 A 
ATOM     19  N   UNL A   1      41.525  29.429  32.608  1.00  0.00    -0.354 N 
ATOM     20  C   UNL A   1      38.222  31.471  30.732  1.00  0.00     0.074 A 
ATOM     21  C   UNL A   1      37.972  30.956  29.402  1.00  0.00     0.031 C 
ATOM     22  C   UNL A   1      43.177  27.927  32.769  1.00  0.00     0.029 A 
ATOM     23  C   UNL A   1      42.481  28.987  33.491  1.00  0.00     0.049 A 
ATOM     24  H   UNL A   1      40.901  30.162  32.812  1.00  0.00     0.167 HD
ATOM     25  C   UNL A   1      37.522  32.478  31.308  1.00  0.00     0.037 A 
ATOM     26  C   UNL A   1      42.771  29.388  34.741  1.00  0.00     0.037 A 
ATOM     27  C   UNL A   1      37.751  32.968  32.643  1.00  0.00     0.049 A 
ATOM     28  C   UNL A   1      41.970  30.496  35.358  1.00  0.00     0.074 A 
ATOM     29  C   UNL A   1      37.061  33.954  33.329  1.00  0.00     0.029 A 
ATOM     30  N   UNL A   1      38.743  32.510  33.495  1.00  0.00    -0.354 N 
ATOM     31  N   UNL A   1      40.953  31.155  34.861  1.00  0.00    -0.248 NA
ATOM     32  C   UNL A   1      42.363  30.920  36.708  1.00  0.00     0.031 C 
ATOM     33  C   UNL A   1      37.662  34.118  34.583  1.00  0.00     0.029 A 
ATOM     34  C   UNL A   1      38.697  33.204  34.693  1.00  0.00     0.049 A 
ATOM     35  H   UNL A   1      39.387  31.797  33.280  1.00  0.00     0.167 HD
ATOM     36  C   UNL A   1      40.571  32.058  35.842  1.00  0.00     0.074 A 
ATOM     37  C   UNL A   1      41.455  31.849  36.971  1.00  0.00     0.031 C 
ATOM     38  C   UNL A   1      39.580  32.981  35.810  1.00  0.00     0.037 A 
BRANCH  25  39
ATOM     39  C   UNL A   1      36.445  33.133  30.490  1.00  0.00     0.057 A 
ATOM     40  C   UNL A   1      36.740  34.032  29.457  1.00  0.00     0.134 A 
ATOM     41  C   UNL A   1      35.097  32.825  30.714  1.00  0.00     0.134 A 
ATOM     42  F   UNL A   1      38.010  34.379  29.199  1.00  0.00    -0.206 F 
ATOM     43  C   UNL A   1      35.730  34.617  28.690  1.00  0.00     0.040 A 
ATOM     44  C   UNL A   1      34.080  33.385  29.938  1.00  0.00     0.040 A 
ATOM     45  F   UNL A   1      34.746  31.964  31.682  1.00  0.00    -0.206 F 
ATOM     46  C   UNL A   1      34.396  34.289  28.926  1.00  0.00     0.006 A 
ENDBRANCH  25  39
BRANCH  26  47
ATOM     47  C   UNL A   1      43.864  28.725  35.495  1.00  0.00     0.057 A 
ATOM     48  C   UNL A   1      45.191  29.147  35.363  1.00  0.00     0.134 A 
ATOM     49  C   UNL A   1      43.607  27.664  36.371  1.00  0.00     0.134 A 
ATOM     50  F   UNL A   1      45.502  30.148  34.525  1.00  0.00    -0.206 F 
ATOM     51  C   UNL A   1      46.226  28.529  36.065  1.00  0.00     0.040 A 
ATOM     52  C   UNL A   1      44.628  27.055  37.100  1.00  0.00     0.040 A 
ATOM     53  F   UNL A   1      42.353  27.220  36.547  1.00  0.00    -0.206 F 
ATOM     54  C   UNL A   1      45.944  27.484  36.943  1.00  0.00     0.006 A 
ENDBRANCH  26  47
BRANCH  38  55
ATOM     55  C   UNL A   1      39.381  33.806  37.046  1.00  0.00     0.057 A 
ATOM     56  C   UNL A   1      38.641  33.335  38.138  1.00  0.00     0.134 A 
ATOM     57  C   UNL A   1      39.949  35.082  37.148  1.00  0.00     0.134 A 
ATOM     58  F   UNL A   1      38.058  32.127  38.094  1.00  0.00    -0.206 F 
ATOM     59  C   UNL A   1      38.449  34.116  39.278  1.00  0.00     0.040 A 
ATOM     60  C   UNL A   1      39.785  35.862  38.293  1.00  0.00     0.040 A 
ATOM     61  F   UNL A   1      40.675  35.587  36.140  1.00  0.00    -0.206 F 
ATOM     62  C   UNL A   1      39.026  35.382  39.359  1.00  0.00     0.006 A 
ENDBRANCH  38  55
ENDBRANCH  12  13
ENDBRANCH   5   7
ENDBRANCH   2   3
ENDBRANCH   1   2
BRANCH   1  63
ATOM     63  C   UNL A   1      41.292  20.791  27.713  1.00  0.00     0.117 C 
BRANCH  63  64
ATOM     64  N   UNL A   1      41.561  19.484  27.129  1.00  0.00    -0.354 N 
ATOM     65  C   UNL A   1      42.525  19.039  26.279  1.00  0.00     0.244 C 
ATOM     66  H   UNL A   1      40.921  18.788  27.403  1.00  0.00     0.163 HD
ATOM     67  O   UNL A   1      42.325  17.933  25.760  1.00  0.00    -0.273 OA
BRANCH  65  68
ATOM     68  C   UNL A   1      43.748  19.869  25.846  1.00  0.00     0.197 C 
BRANCH  68  69
ATOM     69  C   UNL A   1      44.888  18.978  25.341  1.00  0.00     0.191 C 
BRANCH  69  70
ATOM     70  O   UNL A   1      45.067  17.811  26.136  1.00  0.00    -0.394 OA
ATOM     71  H   UNL A   1      44.544  17.084  25.765  1.00  0.00     0.210 HD
ENDBRANCH  69  70
ENDBRANCH  68  69
BRANCH  68  72
ATOM     72  N   UNL A   1      43.425  20.967  24.934  1.00  0.00    -0.342 N 
ATOM     73  C   UNL A   1      43.803  22.277  24.968  1.00  0.00     0.228 C 
ATOM     74  H   UNL A   1      42.846  20.721  24.177  1.00  0.00     0.164 HD
ATOM     75  O   UNL A   1      43.220  23.051  24.207  1.00  0.00    -0.274 OA
BRANCH  73  76
ATOM     76  C   UNL A   1      44.994  22.693  25.838  1.00  0.00     0.109 C 
ATOM     77  C   UNL A   1      45.960  23.437  24.897  1.00  0.00     0.018 C 
ATOM     78  C   UNL A   1      44.620  23.492  27.081  1.00  0.00    -0.032 A 
ATOM     79  C   UNL A   1      47.039  24.181  25.664  1.00  0.00     0.006 C 
ATOM     80  C   UNL A   1      45.318  24.664  27.437  1.00  0.00    -0.044 A 
ATOM     81  C   UNL A   1      43.633  23.001  27.953  1.00  0.00     0.005 A 
ATOM     82  C   UNL A   1      46.404  25.235  26.561  1.00  0.00     0.036 C 
ATOM     83  C   UNL A   1      44.973  25.347  28.614  1.00  0.00     0.004 A 
ATOM     84  C   UNL A   1      43.312  23.679  29.129  1.00  0.00     0.000 A 
ATOM     85  C   UNL A   1      43.978  24.855  29.456  1.00  0.00     0.000 A 
ENDBRANCH  73  76
ENDBRANCH  68  72
ENDBRANCH  65  68
ENDBRANCH  63  64
ENDBRANCH   1  63
TORSDOF 14
ENDMDL
