MODEL 1
REMARK VINA RESULT:     -12.2      0.000      0.000
REMARK SMILES COc1cc(/C=C2\SC(=S)N(CC(=O)NCCCNC(=O)c3ccc(-c4c5nc(c(-c6c(F)cccc6F)c6ccc([nH]6)c(-c6c(F)cccc6F)c6nc(c(-c7c(F)cccc7F)c7ccc4[nH]7)C=C6)C=C5)cc3)C2=O)cc2c1OCO2
REMARK SMILES IDX 16 1 15 2 13 3 14 4 12 6 11 7 6 8 7 9 8 10 76 11 9 12 77 13
REMARK SMILES IDX 10 14 5 15 3 16 4 17 80 18 79 19 81 20 78 21 83 22 82 23
REMARK SMILES IDX 2 24 1 25 17 26 18 27 19 28 20 29 21 31 22 32 23 33 75 34
REMARK SMILES IDX 24 35 74 36 25 37 26 38 27 39 68 40 28 41 73 42 67 43 69 44
REMARK SMILES IDX 29 45 72 46 66 47 65 48 30 50 56 51 39 52 55 53 40 54 43 55
REMARK SMILES IDX 54 56 70 57 41 58 42 59 53 61 71 62 44 63 31 64 32 65 37 66
REMARK SMILES IDX 33 67 34 68 36 69 38 70 35 71 57 72 58 73 63 74 59 75 60 76
REMARK SMILES IDX 62 77 64 78 61 79 45 80 46 81 51 82 47 83 48 84 50 85 52 86
REMARK SMILES IDX 49 87
REMARK H PARENT 15 5 19 30 69 49 43 60
REMARK Flexibility Score: inf
ROOT
ATOM      1  C   UNL A   1      31.491  30.829  25.738  1.00  0.00     0.117 C 
ENDROOT
BRANCH   1   2
ATOM      2  N   UNL A   1      32.562  29.939  26.135  1.00  0.00    -0.354 N 
ATOM      3  C   UNL A   1      32.743  28.611  25.886  1.00  0.00     0.240 C 
ATOM      4  O   UNL A   1      33.877  28.160  26.075  1.00  0.00    -0.273 OA
ATOM      5  H   UNL A   1      33.273  30.360  26.671  1.00  0.00     0.163 HD
BRANCH   3   6
ATOM      6  C   UNL A   1      31.657  27.746  25.235  1.00  0.00     0.227 C 
BRANCH   6   7
ATOM      7  N   UNL A   1      32.099  26.415  24.823  1.00  0.00    -0.283 N 
ATOM      8  C   UNL A   1      32.545  22.989  25.902  1.00  0.00     0.029 C 
ATOM      9  C   UNL A   1      32.541  24.128  25.194  1.00  0.00     0.081 C 
ATOM     10  S   UNL A   1      33.098  24.389  23.592  1.00  0.00    -0.054 SA
ATOM     11  C   UNL A   1      31.992  25.392  25.751  1.00  0.00     0.266 C 
ATOM     12  C   UNL A   1      32.775  26.115  23.660  1.00  0.00     0.148 C 
ATOM     13  O   UNL A   1      31.529  25.489  26.876  1.00  0.00    -0.268 OA
ATOM     14  S   UNL A   1      33.279  27.146  22.450  1.00  0.00    -0.052 S 
BRANCH   8  15
ATOM     15  C   UNL A   1      33.031  21.684  25.438  1.00  0.00    -0.017 A 
ATOM     16  C   UNL A   1      34.943  20.226  24.973  1.00  0.00     0.165 A 
ATOM     17  C   UNL A   1      34.422  21.453  25.401  1.00  0.00     0.058 A 
ATOM     18  C   UNL A   1      34.049  19.230  24.627  1.00  0.00     0.207 A 
ATOM     19  C   UNL A   1      32.691  19.461  24.648  1.00  0.00     0.170 A 
ATOM     20  O   UNL A   1      34.332  17.947  24.265  1.00  0.00    -0.450 OA
ATOM     21  C   UNL A   1      32.154  20.676  25.020  1.00  0.00     0.059 A 
ATOM     22  O   UNL A   1      31.964  18.369  24.287  1.00  0.00    -0.453 OA
ATOM     23  C   UNL A   1      33.011  17.394  24.122  1.00  0.00     0.468 C 
BRANCH  16  24
ATOM     24  O   UNL A   1      36.302  20.112  25.003  1.00  0.00    -0.493 OA
ATOM     25  C   UNL A   1      36.982  21.341  25.241  1.00  0.00     0.278 C 
ENDBRANCH  16  24
ENDBRANCH   8  15
ENDBRANCH   6   7
ENDBRANCH   3   6
ENDBRANCH   1   2
BRANCH   1  26
ATOM     26  C   UNL A   1      31.262  31.958  26.736  1.00  0.00     0.042 C 
BRANCH  26  27
ATOM     27  C   UNL A   1      32.543  32.632  27.224  1.00  0.00     0.118 C 
BRANCH  27  28
ATOM     28  N   UNL A   1      32.346  34.031  27.580  1.00  0.00    -0.352 N 
ATOM     29  C   UNL A   1      32.974  34.813  28.519  1.00  0.00     0.251 C 
ATOM     30  H   UNL A   1      31.647  34.492  27.063  1.00  0.00     0.163 HD
ATOM     31  O   UNL A   1      32.528  35.931  28.764  1.00  0.00    -0.269 OA
BRANCH  29  32
ATOM     32  C   UNL A   1      34.161  34.324  29.253  1.00  0.00     0.039 A 
ATOM     33  C   UNL A   1      33.971  33.700  30.490  1.00  0.00     0.014 A 
ATOM     34  C   UNL A   1      35.454  34.504  28.756  1.00  0.00     0.014 A 
ATOM     35  C   UNL A   1      35.067  33.187  31.190  1.00  0.00     0.010 A 
ATOM     36  C   UNL A   1      36.541  33.936  29.421  1.00  0.00     0.010 A 
ATOM     37  C   UNL A   1      36.357  33.261  30.638  1.00  0.00    -0.014 A 
BRANCH  37  38
ATOM     38  C   UNL A   1      37.512  32.601  31.298  1.00  0.00     0.031 A 
ATOM     39  C   UNL A   1      38.211  31.442  30.645  1.00  0.00     0.074 A 
ATOM     40  C   UNL A   1      37.883  33.002  32.529  1.00  0.00     0.049 A 
ATOM     41  N   UNL A   1      39.180  30.694  31.109  1.00  0.00    -0.248 NA
ATOM     42  C   UNL A   1      37.747  31.059  29.302  1.00  0.00     0.031 C 
ATOM     43  C   UNL A   1      37.254  34.083  33.291  1.00  0.00     0.029 A 
ATOM     44  N   UNL A   1      38.867  32.535  33.366  1.00  0.00    -0.354 N 
ATOM     45  C   UNL A   1      39.432  29.747  30.125  1.00  0.00     0.074 A 
ATOM     46  C   UNL A   1      38.487  29.987  29.056  1.00  0.00     0.031 C 
ATOM     47  C   UNL A   1      37.875  34.206  34.475  1.00  0.00     0.029 A 
ATOM     48  C   UNL A   1      38.917  33.189  34.573  1.00  0.00     0.049 A 
ATOM     49  H   UNL A   1      39.478  31.803  33.123  1.00  0.00     0.167 HD
ATOM     50  C   UNL A   1      40.378  28.775  30.109  1.00  0.00     0.037 A 
ATOM     51  C   UNL A   1      39.704  32.985  35.646  1.00  0.00     0.037 A 
ATOM     52  C   UNL A   1      41.329  28.548  31.166  1.00  0.00     0.049 A 
ATOM     53  C   UNL A   1      40.735  31.894  35.606  1.00  0.00     0.074 A 
ATOM     54  C   UNL A   1      42.365  27.632  31.210  1.00  0.00     0.029 A 
ATOM     55  N   UNL A   1      41.357  29.240  32.367  1.00  0.00    -0.354 N 
ATOM     56  N   UNL A   1      41.007  31.049  34.641  1.00  0.00    -0.248 NA
ATOM     57  C   UNL A   1      41.570  31.729  36.804  1.00  0.00     0.031 C 
ATOM     58  C   UNL A   1      42.993  27.739  32.457  1.00  0.00     0.029 A 
ATOM     59  C   UNL A   1      42.377  28.753  33.170  1.00  0.00     0.049 A 
ATOM     60  H   UNL A   1      40.744  29.970  32.613  1.00  0.00     0.167 HD
ATOM     61  C   UNL A   1      42.056  30.267  35.106  1.00  0.00     0.074 A 
ATOM     62  C   UNL A   1      42.382  30.749  36.432  1.00  0.00     0.031 C 
ATOM     63  C   UNL A   1      42.690  29.240  34.490  1.00  0.00     0.037 A 
BRANCH  50  64
ATOM     64  C   UNL A   1      40.431  27.880  28.905  1.00  0.00     0.057 A 
ATOM     65  C   UNL A   1      41.237  28.178  27.799  1.00  0.00     0.134 A 
ATOM     66  C   UNL A   1      39.701  26.685  28.869  1.00  0.00     0.134 A 
ATOM     67  F   UNL A   1      41.954  29.312  27.766  1.00  0.00    -0.206 F 
ATOM     68  C   UNL A   1      41.300  27.331  26.692  1.00  0.00     0.040 A 
ATOM     69  C   UNL A   1      39.776  25.817  27.779  1.00  0.00     0.040 A 
ATOM     70  F   UNL A   1      38.915  26.334  29.898  1.00  0.00    -0.206 F 
ATOM     71  C   UNL A   1      40.572  26.142  26.682  1.00  0.00     0.006 A 
ENDBRANCH  50  64
BRANCH  51  72
ATOM     72  C   UNL A   1      39.553  33.842  36.847  1.00  0.00     0.057 A 
ATOM     73  C   UNL A   1      40.214  35.073  36.943  1.00  0.00     0.134 A 
ATOM     74  C   UNL A   1      38.752  33.454  37.927  1.00  0.00     0.134 A 
ATOM     75  F   UNL A   1      41.012  35.489  35.949  1.00  0.00    -0.206 F 
ATOM     76  C   UNL A   1      40.094  35.880  38.074  1.00  0.00     0.040 A 
ATOM     77  C   UNL A   1      38.602  34.263  39.054  1.00  0.00     0.040 A 
ATOM     78  F   UNL A   1      38.092  32.287  37.894  1.00  0.00    -0.206 F 
ATOM     79  C   UNL A   1      39.281  35.477  39.132  1.00  0.00     0.006 A 
ENDBRANCH  51  72
BRANCH  63  80
ATOM     80  C   UNL A   1      43.815  28.584  35.235  1.00  0.00     0.057 A 
ATOM     81  C   UNL A   1      43.595  27.504  36.100  1.00  0.00     0.134 A 
ATOM     82  C   UNL A   1      45.135  29.019  35.064  1.00  0.00     0.134 A 
ATOM     83  F   UNL A   1      42.352  27.049  36.318  1.00  0.00    -0.206 F 
ATOM     84  C   UNL A   1      44.647  26.895  36.785  1.00  0.00     0.040 A 
ATOM     85  C   UNL A   1      46.197  28.402  35.724  1.00  0.00     0.040 A 
ATOM     86  F   UNL A   1      45.413  30.045  34.245  1.00  0.00    -0.206 F 
ATOM     87  C   UNL A   1      45.954  27.340  36.592  1.00  0.00     0.006 A 
ENDBRANCH  63  80
ENDBRANCH  37  38
ENDBRANCH  29  32
ENDBRANCH  27  28
ENDBRANCH  26  27
ENDBRANCH   1  26
TORSDOF 13
ENDMDL
MODEL 2
REMARK VINA RESULT:     -12.2      5.133     10.569
REMARK SMILES COc1cc(/C=C2\SC(=S)N(CC(=O)NCCCNC(=O)c3ccc(-c4c5nc(c(-c6c(F)cccc6F)c6ccc([nH]6)c(-c6c(F)cccc6F)c6nc(c(-c7c(F)cccc7F)c7ccc4[nH]7)C=C6)C=C5)cc3)C2=O)cc2c1OCO2
REMARK SMILES IDX 16 1 15 2 13 3 14 4 12 6 11 7 6 8 7 9 8 10 76 11 9 12 77 13
REMARK SMILES IDX 10 14 5 15 3 16 4 17 80 18 79 19 81 20 78 21 83 22 82 23
REMARK SMILES IDX 2 24 1 25 17 26 18 27 19 28 20 29 21 31 22 32 23 33 75 34
REMARK SMILES IDX 24 35 74 36 25 37 26 38 27 39 68 40 28 41 73 42 67 43 69 44
REMARK SMILES IDX 29 45 72 46 66 47 65 48 30 50 56 51 39 52 55 53 40 54 43 55
REMARK SMILES IDX 54 56 70 57 41 58 42 59 53 61 71 62 44 63 31 64 32 65 37 66
REMARK SMILES IDX 33 67 34 68 36 69 38 70 35 71 57 72 58 73 63 74 59 75 60 76
REMARK SMILES IDX 62 77 64 78 61 79 45 80 46 81 51 82 47 83 48 84 50 85 52 86
REMARK SMILES IDX 49 87
REMARK H PARENT 15 5 19 30 69 49 43 60
REMARK Flexibility Score: inf
ROOT
ATOM      1  C   UNL A   1      36.518  20.382  25.035  1.00  0.00     0.117 C 
ENDROOT
BRANCH   1   2
ATOM      2  N   UNL A   1      36.509  21.753  25.501  1.00  0.00    -0.354 N 
ATOM      3  C   UNL A   1      35.553  22.717  25.388  1.00  0.00     0.240 C 
ATOM      4  O   UNL A   1      35.664  23.699  26.127  1.00  0.00    -0.273 OA
ATOM      5  H   UNL A   1      37.326  22.034  25.974  1.00  0.00     0.163 HD
BRANCH   3   6
ATOM      6  C   UNL A   1      34.300  22.527  24.524  1.00  0.00     0.227 C 
BRANCH   6   7
ATOM      7  N   UNL A   1      33.346  23.634  24.576  1.00  0.00    -0.283 N 
ATOM      8  C   UNL A   1      32.458  26.832  23.133  1.00  0.00     0.029 C 
ATOM      9  C   UNL A   1      32.505  25.730  23.895  1.00  0.00     0.081 C 
ATOM     10  S   UNL A   1      31.485  25.294  25.204  1.00  0.00    -0.054 SA
ATOM     11  C   UNL A   1      33.515  24.663  23.664  1.00  0.00     0.266 C 
ATOM     12  C   UNL A   1      32.403  23.838  25.559  1.00  0.00     0.148 C 
ATOM     13  O   UNL A   1      34.366  24.718  22.792  1.00  0.00    -0.268 OA
ATOM     14  S   UNL A   1      32.105  22.930  26.926  1.00  0.00    -0.052 S 
BRANCH   8  15
ATOM     15  C   UNL A   1      31.487  27.927  23.255  1.00  0.00    -0.017 A 
ATOM     16  C   UNL A   1      30.772  29.945  24.443  1.00  0.00     0.165 A 
ATOM     17  C   UNL A   1      31.663  28.877  24.282  1.00  0.00     0.058 A 
ATOM     18  C   UNL A   1      29.736  30.064  23.535  1.00  0.00     0.207 A 
ATOM     19  C   UNL A   1      29.555  29.128  22.542  1.00  0.00     0.170 A 
ATOM     20  O   UNL A   1      28.811  31.062  23.456  1.00  0.00    -0.450 OA
ATOM     21  C   UNL A   1      30.391  28.040  22.392  1.00  0.00     0.059 A 
ATOM     22  O   UNL A   1      28.495  29.409  21.737  1.00  0.00    -0.453 OA
ATOM     23  C   UNL A   1      28.078  30.676  22.278  1.00  0.00     0.468 C 
BRANCH  16  24
ATOM     24  O   UNL A   1      31.058  30.813  25.456  1.00  0.00    -0.493 OA
ATOM     25  C   UNL A   1      32.121  30.386  26.302  1.00  0.00     0.278 C 
ENDBRANCH  16  24
ENDBRANCH   8  15
ENDBRANCH   6   7
ENDBRANCH   3   6
ENDBRANCH   1   2
BRANCH   1  26
ATOM     26  C   UNL A   1      37.919  19.877  24.712  1.00  0.00     0.042 C 
BRANCH  26  27
ATOM     27  C   UNL A   1      38.959  20.183  25.790  1.00  0.00     0.118 C 
BRANCH  27  28
ATOM     28  N   UNL A   1      40.011  19.178  25.863  1.00  0.00    -0.352 N 
ATOM     29  C   UNL A   1      41.354  19.303  26.123  1.00  0.00     0.251 C 
ATOM     30  H   UNL A   1      39.709  18.255  25.699  1.00  0.00     0.163 HD
ATOM     31  O   UNL A   1      42.089  18.332  25.970  1.00  0.00    -0.269 OA
BRANCH  29  32
ATOM     32  C   UNL A   1      41.931  20.592  26.564  1.00  0.00     0.039 A 
ATOM     33  C   UNL A   1      42.459  21.453  25.595  1.00  0.00     0.014 A 
ATOM     34  C   UNL A   1      41.989  20.945  27.913  1.00  0.00     0.014 A 
ATOM     35  C   UNL A   1      42.972  22.697  25.972  1.00  0.00     0.010 A 
ATOM     36  C   UNL A   1      42.441  22.212  28.283  1.00  0.00     0.010 A 
ATOM     37  C   UNL A   1      42.925  23.105  27.314  1.00  0.00    -0.014 A 
BRANCH  37  38
ATOM     38  C   UNL A   1      43.336  24.476  27.714  1.00  0.00     0.031 A 
ATOM     39  C   UNL A   1      42.309  25.516  28.059  1.00  0.00     0.074 A 
ATOM     40  C   UNL A   1      44.643  24.803  27.690  1.00  0.00     0.049 A 
ATOM     41  N   UNL A   1      42.480  26.782  28.348  1.00  0.00    -0.248 NA
ATOM     42  C   UNL A   1      40.902  25.085  28.059  1.00  0.00     0.031 C 
ATOM     43  C   UNL A   1      45.735  23.898  27.326  1.00  0.00     0.029 A 
ATOM     44  N   UNL A   1      45.274  25.992  27.961  1.00  0.00    -0.354 N 
ATOM     45  C   UNL A   1      41.207  27.300  28.551  1.00  0.00     0.074 A 
ATOM     46  C   UNL A   1      40.271  26.223  28.310  1.00  0.00     0.031 C 
ATOM     47  C   UNL A   1      46.900  24.558  27.409  1.00  0.00     0.029 A 
ATOM     48  C   UNL A   1      46.636  25.941  27.792  1.00  0.00     0.049 A 
ATOM     49  H   UNL A   1      44.796  26.802  28.249  1.00  0.00     0.167 HD
ATOM     50  C   UNL A   1      40.854  28.556  28.920  1.00  0.00     0.037 A 
ATOM     51  C   UNL A   1      47.570  26.904  27.918  1.00  0.00     0.037 A 
ATOM     52  C   UNL A   1      41.788  29.621  29.176  1.00  0.00     0.049 A 
ATOM     53  C   UNL A   1      47.150  28.289  28.316  1.00  0.00     0.074 A 
ATOM     54  C   UNL A   1      41.528  30.907  29.618  1.00  0.00     0.029 A 
ATOM     55  N   UNL A   1      43.161  29.527  29.007  1.00  0.00    -0.354 N 
ATOM     56  N   UNL A   1      45.948  28.748  28.570  1.00  0.00    -0.248 NA
ATOM     57  C   UNL A   1      48.217  29.292  28.446  1.00  0.00     0.031 C 
ATOM     58  C   UNL A   1      42.741  31.605  29.674  1.00  0.00     0.029 A 
ATOM     59  C   UNL A   1      43.760  30.740  29.312  1.00  0.00     0.049 A 
ATOM     60  H   UNL A   1      43.641  28.719  28.715  1.00  0.00     0.167 HD
ATOM     61  C   UNL A   1      46.115  30.083  28.909  1.00  0.00     0.074 A 
ATOM     62  C   UNL A   1      47.536  30.357  28.846  1.00  0.00     0.031 C 
ATOM     63  C   UNL A   1      45.175  31.001  29.242  1.00  0.00     0.037 A 
BRANCH  50  64
ATOM     64  C   UNL A   1      39.389  28.847  29.071  1.00  0.00     0.057 A 
ATOM     65  C   UNL A   1      38.730  28.700  30.297  1.00  0.00     0.134 A 
ATOM     66  C   UNL A   1      38.640  29.323  27.987  1.00  0.00     0.134 A 
ATOM     67  F   UNL A   1      39.388  28.239  31.372  1.00  0.00    -0.206 F 
ATOM     68  C   UNL A   1      37.373  28.994  30.437  1.00  0.00     0.040 A 
ATOM     69  C   UNL A   1      37.288  29.646  28.120  1.00  0.00     0.040 A 
ATOM     70  F   UNL A   1      39.210  29.495  26.785  1.00  0.00    -0.206 F 
ATOM     71  C   UNL A   1      36.649  29.475  29.347  1.00  0.00     0.006 A 
ENDBRANCH  50  64
BRANCH  51  72
ATOM     72  C   UNL A   1      48.998  26.585  27.673  1.00  0.00     0.057 A 
ATOM     73  C   UNL A   1      49.569  26.759  26.407  1.00  0.00     0.134 A 
ATOM     74  C   UNL A   1      49.824  26.098  28.692  1.00  0.00     0.134 A 
ATOM     75  F   UNL A   1      48.822  27.203  25.386  1.00  0.00    -0.206 F 
ATOM     76  C   UNL A   1      50.906  26.447  26.159  1.00  0.00     0.040 A 
ATOM     77  C   UNL A   1      51.170  25.806  28.466  1.00  0.00     0.040 A 
ATOM     78  F   UNL A   1      49.335  25.911  29.928  1.00  0.00    -0.206 F 
ATOM     79  C   UNL A   1      51.712  25.973  27.193  1.00  0.00     0.006 A 
ENDBRANCH  51  72
BRANCH  63  80
ATOM     80  C   UNL A   1      45.656  32.380  29.584  1.00  0.00     0.057 A 
ATOM     81  C   UNL A   1      46.028  32.729  30.889  1.00  0.00     0.134 A 
ATOM     82  C   UNL A   1      45.776  33.361  28.592  1.00  0.00     0.134 A 
ATOM     83  F   UNL A   1      45.924  31.838  31.887  1.00  0.00    -0.206 F 
ATOM     84  C   UNL A   1      46.481  34.012  31.199  1.00  0.00     0.040 A 
ATOM     85  C   UNL A   1      46.251  34.639  28.885  1.00  0.00     0.040 A 
ATOM     86  F   UNL A   1      45.441  33.090  27.322  1.00  0.00    -0.206 F 
ATOM     87  C   UNL A   1      46.600  34.970  30.193  1.00  0.00     0.006 A 
ENDBRANCH  63  80
ENDBRANCH  37  38
ENDBRANCH  29  32
ENDBRANCH  27  28
ENDBRANCH  26  27
ENDBRANCH   1  26
TORSDOF 13
ENDMDL
MODEL 3
REMARK VINA RESULT:     -12.2      4.392      9.632
REMARK SMILES COc1cc(/C=C2\SC(=S)N(CC(=O)NCCCNC(=O)c3ccc(-c4c5nc(c(-c6c(F)cccc6F)c6ccc([nH]6)c(-c6c(F)cccc6F)c6nc(c(-c7c(F)cccc7F)c7ccc4[nH]7)C=C6)C=C5)cc3)C2=O)cc2c1OCO2
REMARK SMILES IDX 16 1 15 2 13 3 14 4 12 6 11 7 6 8 7 9 8 10 76 11 9 12 77 13
REMARK SMILES IDX 10 14 5 15 3 16 4 17 80 18 79 19 81 20 78 21 83 22 82 23
REMARK SMILES IDX 2 24 1 25 17 26 18 27 19 28 20 29 21 31 22 32 23 33 75 34
REMARK SMILES IDX 24 35 74 36 25 37 26 38 27 39 68 40 28 41 73 42 67 43 69 44
REMARK SMILES IDX 29 45 72 46 66 47 65 48 30 50 56 51 39 52 55 53 40 54 43 55
REMARK SMILES IDX 54 56 70 57 41 58 42 59 53 61 71 62 44 63 31 64 32 65 37 66
REMARK SMILES IDX 33 67 34 68 36 69 38 70 35 71 57 72 58 73 63 74 59 75 60 76
REMARK SMILES IDX 62 77 64 78 61 79 45 80 46 81 51 82 47 83 48 84 50 85 52 86
REMARK SMILES IDX 49 87
REMARK H PARENT 15 5 19 30 69 49 43 60
REMARK Flexibility Score: inf
ROOT
ATOM      1  C   UNL A   1      36.435  20.754  24.843  1.00  0.00     0.117 C 
ENDROOT
BRANCH   1   2
ATOM      2  N   UNL A   1      35.845  21.107  26.117  1.00  0.00    -0.354 N 
ATOM      3  C   UNL A   1      34.583  21.523  26.419  1.00  0.00     0.240 C 
ATOM      4  O   UNL A   1      34.248  21.468  27.606  1.00  0.00    -0.273 OA
ATOM      5  H   UNL A   1      36.453  21.037  26.888  1.00  0.00     0.163 HD
BRANCH   3   6
ATOM      6  C   UNL A   1      33.556  21.873  25.335  1.00  0.00     0.227 C 
BRANCH   6   7
ATOM      7  N   UNL A   1      32.975  23.210  25.449  1.00  0.00    -0.283 N 
ATOM      8  C   UNL A   1      33.687  26.756  25.325  1.00  0.00     0.029 C 
ATOM      9  C   UNL A   1      33.086  25.566  25.465  1.00  0.00     0.081 C 
ATOM     10  S   UNL A   1      31.451  25.238  25.871  1.00  0.00    -0.054 SA
ATOM     11  C   UNL A   1      33.819  24.290  25.250  1.00  0.00     0.266 C 
ATOM     12  C   UNL A   1      31.709  23.500  25.910  1.00  0.00     0.148 C 
ATOM     13  O   UNL A   1      35.000  24.233  24.952  1.00  0.00    -0.268 OA
ATOM     14  S   UNL A   1      30.534  22.456  26.464  1.00  0.00    -0.052 S 
BRANCH   8  15
ATOM     15  C   UNL A   1      33.051  28.070  25.482  1.00  0.00    -0.017 A 
ATOM     16  C   UNL A   1      31.292  29.623  24.781  1.00  0.00     0.165 A 
ATOM     17  C   UNL A   1      31.942  28.387  24.672  1.00  0.00     0.058 A 
ATOM     18  C   UNL A   1      31.747  30.509  25.740  1.00  0.00     0.207 A 
ATOM     19  C   UNL A   1      32.841  30.206  26.519  1.00  0.00     0.170 A 
ATOM     20  O   UNL A   1      31.217  31.720  26.071  1.00  0.00    -0.450 OA
ATOM     21  C   UNL A   1      33.528  29.015  26.398  1.00  0.00     0.059 A 
ATOM     22  O   UNL A   1      33.141  31.187  27.413  1.00  0.00    -0.453 OA
ATOM     23  C   UNL A   1      32.060  32.107  27.172  1.00  0.00     0.468 C 
BRANCH  16  24
ATOM     24  O   UNL A   1      30.216  29.805  23.963  1.00  0.00    -0.493 OA
ATOM     25  C   UNL A   1      30.105  28.836  22.925  1.00  0.00     0.278 C 
ENDBRANCH  16  24
ENDBRANCH   8  15
ENDBRANCH   6   7
ENDBRANCH   3   6
ENDBRANCH   1   2
BRANCH   1  26
ATOM     26  C   UNL A   1      37.591  19.771  24.981  1.00  0.00     0.042 C 
BRANCH  26  27
ATOM     27  C   UNL A   1      38.799  20.325  25.735  1.00  0.00     0.118 C 
BRANCH  27  28
ATOM     28  N   UNL A   1      39.915  19.390  25.782  1.00  0.00    -0.352 N 
ATOM     29  C   UNL A   1      41.240  19.591  26.085  1.00  0.00     0.251 C 
ATOM     30  H   UNL A   1      39.681  18.461  25.560  1.00  0.00     0.163 HD
ATOM     31  O   UNL A   1      42.043  18.681  25.899  1.00  0.00    -0.269 OA
BRANCH  29  32
ATOM     32  C   UNL A   1      41.717  20.889  26.611  1.00  0.00     0.039 A 
ATOM     33  C   UNL A   1      42.237  21.823  25.709  1.00  0.00     0.014 A 
ATOM     34  C   UNL A   1      41.691  21.180  27.976  1.00  0.00     0.014 A 
ATOM     35  C   UNL A   1      42.656  23.076  26.165  1.00  0.00     0.010 A 
ATOM     36  C   UNL A   1      42.047  22.452  28.423  1.00  0.00     0.010 A 
ATOM     37  C   UNL A   1      42.522  23.417  27.521  1.00  0.00    -0.014 A 
BRANCH  37  38
ATOM     38  C   UNL A   1      42.830  24.788  28.002  1.00  0.00     0.031 A 
ATOM     39  C   UNL A   1      44.232  25.173  28.380  1.00  0.00     0.074 A 
ATOM     40  C   UNL A   1      41.824  25.668  28.169  1.00  0.00     0.049 A 
ATOM     41  N   UNL A   1      44.670  26.294  28.895  1.00  0.00    -0.248 NA
ATOM     42  C   UNL A   1      45.277  24.158  28.174  1.00  0.00     0.031 C 
ATOM     43  C   UNL A   1      40.412  25.401  27.883  1.00  0.00     0.029 A 
ATOM     44  N   UNL A   1      41.829  26.958  28.637  1.00  0.00    -0.354 N 
ATOM     45  C   UNL A   1      46.035  26.116  29.086  1.00  0.00     0.074 A 
ATOM     46  C   UNL A   1      46.345  24.764  28.672  1.00  0.00     0.031 C 
ATOM     47  C   UNL A   1      39.691  26.497  28.169  1.00  0.00     0.029 A 
ATOM     48  C   UNL A   1      40.581  27.528  28.694  1.00  0.00     0.049 A 
ATOM     49  H   UNL A   1      42.650  27.431  28.905  1.00  0.00     0.167 HD
ATOM     50  C   UNL A   1      46.947  27.005  29.550  1.00  0.00     0.037 A 
ATOM     51  C   UNL A   1      40.191  28.739  29.132  1.00  0.00     0.037 A 
ATOM     52  C   UNL A   1      46.639  28.355  29.946  1.00  0.00     0.049 A 
ATOM     53  C   UNL A   1      41.221  29.701  29.652  1.00  0.00     0.074 A 
ATOM     54  C   UNL A   1      47.507  29.348  30.365  1.00  0.00     0.029 A 
ATOM     55  N   UNL A   1      45.365  28.899  29.976  1.00  0.00    -0.354 N 
ATOM     56  N   UNL A   1      42.517  29.542  29.765  1.00  0.00    -0.248 NA
ATOM     57  C   UNL A   1      40.733  31.011  30.107  1.00  0.00     0.031 C 
ATOM     58  C   UNL A   1      46.751  30.480  30.693  1.00  0.00     0.029 A 
ATOM     59  C   UNL A   1      45.419  30.207  30.433  1.00  0.00     0.049 A 
ATOM     60  H   UNL A   1      44.542  28.427  29.712  1.00  0.00     0.167 HD
ATOM     61  C   UNL A   1      43.003  30.735  30.281  1.00  0.00     0.074 A 
ATOM     62  C   UNL A   1      41.864  31.615  30.444  1.00  0.00     0.031 C 
ATOM     63  C   UNL A   1      44.278  31.072  30.593  1.00  0.00     0.037 A 
BRANCH  50  64
ATOM     64  C   UNL A   1      48.372  26.544  29.655  1.00  0.00     0.057 A 
ATOM     65  C   UNL A   1      49.297  26.764  28.626  1.00  0.00     0.134 A 
ATOM     66  C   UNL A   1      48.836  25.913  30.817  1.00  0.00     0.134 A 
ATOM     67  F   UNL A   1      48.914  27.354  27.484  1.00  0.00    -0.206 F 
ATOM     68  C   UNL A   1      50.626  26.354  28.738  1.00  0.00     0.040 A 
ATOM     69  C   UNL A   1      50.169  25.521  30.951  1.00  0.00     0.040 A 
ATOM     70  F   UNL A   1      48.006  25.678  31.844  1.00  0.00    -0.206 F 
ATOM     71  C   UNL A   1      51.068  25.735  29.906  1.00  0.00     0.006 A 
ENDBRANCH  50  64
BRANCH  51  72
ATOM     72  C   UNL A   1      38.756  29.116  29.089  1.00  0.00     0.057 A 
ATOM     73  C   UNL A   1      38.170  29.589  27.909  1.00  0.00     0.134 A 
ATOM     74  C   UNL A   1      37.939  29.015  30.220  1.00  0.00     0.134 A 
ATOM     75  F   UNL A   1      38.909  29.727  26.798  1.00  0.00    -0.206 F 
ATOM     76  C   UNL A   1      36.827  29.962  27.859  1.00  0.00     0.040 A 
ATOM     77  C   UNL A   1      36.587  29.360  30.179  1.00  0.00     0.040 A 
ATOM     78  F   UNL A   1      38.442  28.566  31.380  1.00  0.00    -0.206 F 
ATOM     79  C   UNL A   1      36.030  29.843  28.996  1.00  0.00     0.006 A 
ENDBRANCH  51  72
BRANCH  63  80
ATOM     80  C   UNL A   1      44.510  32.456  31.122  1.00  0.00     0.057 A 
ATOM     81  C   UNL A   1      44.500  32.732  32.495  1.00  0.00     0.134 A 
ATOM     82  C   UNL A   1      44.776  33.519  30.250  1.00  0.00     0.134 A 
ATOM     83  F   UNL A   1      44.238  31.760  33.383  1.00  0.00    -0.206 F 
ATOM     84  C   UNL A   1      44.724  34.021  32.981  1.00  0.00     0.040 A 
ATOM     85  C   UNL A   1      45.025  34.806  30.725  1.00  0.00     0.040 A 
ATOM     86  F   UNL A   1      44.805  33.321  28.923  1.00  0.00    -0.206 F 
ATOM     87  C   UNL A   1      44.994  35.062  32.094  1.00  0.00     0.006 A 
ENDBRANCH  63  80
ENDBRANCH  37  38
ENDBRANCH  29  32
ENDBRANCH  27  28
ENDBRANCH  26  27
ENDBRANCH   1  26
TORSDOF 13
ENDMDL
