MODEL 1
REMARK VINA RESULT:     -12.2      0.000      0.000
REMARK SMILES N#Cc1ccc(C[N@H+]2CCCC[C@H]2C(=O)NCCCNC(=O)c2ccc(-c3c4nc(c(-c5c(F)cccc5F)c5ccc([nH]5)c(-c5c(F)cccc5F)c5nc(c(-c6c(F)cccc6F)c6ccc3[nH]6)C=C5)C=C4)cc2)c(F)c1
REMARK SMILES IDX 17 1 16 2 14 3 15 4 13 6 8 7 9 8 10 10 12 11 11 12 7 13 6 14
REMARK SMILES IDX 3 15 4 16 79 17 5 18 77 19 78 20 2 21 1 22 18 23 19 24 20 25
REMARK SMILES IDX 21 26 22 28 23 29 24 30 76 31 25 32 75 33 26 34 27 35 28 36
REMARK SMILES IDX 69 37 29 38 74 39 68 40 70 41 30 42 73 43 67 44 66 45 31 47
REMARK SMILES IDX 57 48 40 49 56 50 41 51 44 52 55 53 71 54 42 55 43 56 54 58
REMARK SMILES IDX 72 59 45 60 32 61 33 62 38 63 34 64 35 65 37 66 39 67 36 68
REMARK SMILES IDX 58 69 59 70 64 71 60 72 61 73 63 74 65 75 62 76 46 77 47 78
REMARK SMILES IDX 52 79 48 80 49 81 51 82 53 83 50 84
REMARK H PARENT 16 5 8 9 20 27 70 46 44 57
REMARK Flexibility Score: inf
ROOT
ATOM      1  C   UNL A   1      36.565  21.048  24.679  1.00  0.00     0.118 C 
ENDROOT
BRANCH   1   2
ATOM      2  N   UNL A   1      35.677  20.865  25.804  1.00  0.00    -0.351 N 
ATOM      3  C   UNL A   1      34.649  21.656  26.222  1.00  0.00     0.278 C 
ATOM      4  O   UNL A   1      34.361  21.574  27.417  1.00  0.00    -0.268 OA
ATOM      5  H   UNL A   1      35.836  20.057  26.344  1.00  0.00     0.163 HD
BRANCH   3   6
ATOM      6  C   UNL A   1      33.911  22.554  25.192  1.00  0.00     0.274 C 
ATOM      7  N   UNL A   1      32.701  21.927  24.603  1.00  0.00    -0.321 N 
ATOM      8  C   UNL A   1      31.636  21.663  25.570  1.00  0.00     0.263 C 
ATOM      9  H   UNL A   1      32.318  22.663  24.009  1.00  0.00     0.349 HD
ATOM     10  C   UNL A   1      31.269  22.914  26.385  1.00  0.00     0.062 C 
ATOM     11  C   UNL A   1      33.516  23.883  25.845  1.00  0.00     0.076 C 
ATOM     12  C   UNL A   1      32.474  23.670  26.935  1.00  0.00     0.012 C 
BRANCH   7  13
ATOM     13  C   UNL A   1      32.942  20.859  23.615  1.00  0.00     0.302 C 
BRANCH  13  14
ATOM     14  C   UNL A   1      32.741  19.432  24.067  1.00  0.00     0.042 A 
ATOM     15  C   UNL A   1      32.822  16.734  24.850  1.00  0.00     0.055 A 
ATOM     16  C   UNL A   1      32.789  17.747  25.816  1.00  0.00     0.020 A 
ATOM     17  C   UNL A   1      32.703  17.062  23.501  1.00  0.00     0.059 A 
ATOM     18  C   UNL A   1      32.756  19.090  25.426  1.00  0.00     0.014 A 
ATOM     19  C   UNL A   1      32.629  18.400  23.126  1.00  0.00     0.133 A 
ATOM     20  F   UNL A   1      32.560  18.693  21.819  1.00  0.00    -0.206 F 
BRANCH  15  21
ATOM     21  C   UNL A   1      33.035  15.371  25.239  1.00  0.00     0.099 C 
ATOM     22  N   UNL A   1      33.222  14.264  25.526  1.00  0.00    -0.192 NA
ENDBRANCH  15  21
ENDBRANCH  13  14
ENDBRANCH   7  13
ENDBRANCH   3   6
ENDBRANCH   1   2
BRANCH   1  23
ATOM     23  C   UNL A   1      37.682  20.009  24.739  1.00  0.00     0.042 C 
BRANCH  23  24
ATOM     24  C   UNL A   1      38.759  20.330  25.775  1.00  0.00     0.118 C 
BRANCH  24  25
ATOM     25  N   UNL A   1      39.846  19.364  25.766  1.00  0.00    -0.352 N 
ATOM     26  C   UNL A   1      41.180  19.550  26.025  1.00  0.00     0.251 C 
ATOM     27  H   UNL A   1      39.587  18.442  25.541  1.00  0.00     0.163 HD
ATOM     28  O   UNL A   1      41.981  18.656  25.766  1.00  0.00    -0.269 OA
BRANCH  26  29
ATOM     29  C   UNL A   1      41.655  20.830  26.588  1.00  0.00     0.039 A 
ATOM     30  C   UNL A   1      42.138  21.804  25.714  1.00  0.00     0.014 A 
ATOM     31  C   UNL A   1      41.631  21.071  27.966  1.00  0.00     0.014 A 
ATOM     32  C   UNL A   1      42.539  23.042  26.214  1.00  0.00     0.010 A 
ATOM     33  C   UNL A   1      41.952  22.335  28.454  1.00  0.00     0.010 A 
ATOM     34  C   UNL A   1      42.409  23.336  27.583  1.00  0.00    -0.014 A 
BRANCH  34  35
ATOM     35  C   UNL A   1      42.722  24.695  28.097  1.00  0.00     0.031 A 
ATOM     36  C   UNL A   1      44.132  25.075  28.457  1.00  0.00     0.074 A 
ATOM     37  C   UNL A   1      41.720  25.581  28.264  1.00  0.00     0.049 A 
ATOM     38  N   UNL A   1      44.584  26.210  28.931  1.00  0.00    -0.248 NA
ATOM     39  C   UNL A   1      45.169  24.046  28.280  1.00  0.00     0.031 C 
ATOM     40  C   UNL A   1      40.304  25.319  27.995  1.00  0.00     0.029 A 
ATOM     41  N   UNL A   1      41.736  26.884  28.699  1.00  0.00    -0.354 N 
ATOM     42  C   UNL A   1      45.951  26.033  29.100  1.00  0.00     0.074 A 
ATOM     43  C   UNL A   1      46.247  24.664  28.740  1.00  0.00     0.031 C 
ATOM     44  C   UNL A   1      39.595  26.432  28.237  1.00  0.00     0.029 A 
ATOM     45  C   UNL A   1      40.493  27.470  28.729  1.00  0.00     0.049 A 
ATOM     46  H   UNL A   1      42.560  27.352  28.964  1.00  0.00     0.167 HD
ATOM     47  C   UNL A   1      46.879  26.939  29.491  1.00  0.00     0.037 A 
ATOM     48  C   UNL A   1      40.117  28.702  29.122  1.00  0.00     0.037 A 
ATOM     49  C   UNL A   1      46.583  28.302  29.847  1.00  0.00     0.049 A 
ATOM     50  C   UNL A   1      41.167  29.669  29.599  1.00  0.00     0.074 A 
ATOM     51  C   UNL A   1      47.461  29.303  30.227  1.00  0.00     0.029 A 
ATOM     52  N   UNL A   1      45.312  28.856  29.876  1.00  0.00    -0.354 N 
ATOM     53  N   UNL A   1      42.465  29.508  29.686  1.00  0.00    -0.248 NA
ATOM     54  C   UNL A   1      40.700  30.994  30.028  1.00  0.00     0.031 C 
ATOM     55  C   UNL A   1      46.717  30.443  30.544  1.00  0.00     0.029 A 
ATOM     56  C   UNL A   1      45.381  30.176  30.294  1.00  0.00     0.049 A 
ATOM     57  H   UNL A   1      44.483  28.382  29.636  1.00  0.00     0.167 HD
ATOM     58  C   UNL A   1      42.969  30.718  30.144  1.00  0.00     0.074 A 
ATOM     59  C   UNL A   1      41.841  31.612  30.290  1.00  0.00     0.031 C 
ATOM     60  C   UNL A   1      44.252  31.060  30.424  1.00  0.00     0.037 A 
BRANCH  47  61
ATOM     61  C   UNL A   1      48.313  26.494  29.545  1.00  0.00     0.057 A 
ATOM     62  C   UNL A   1      49.187  26.693  28.467  1.00  0.00     0.134 A 
ATOM     63  C   UNL A   1      48.847  25.931  30.711  1.00  0.00     0.134 A 
ATOM     64  F   UNL A   1      48.740  27.219  27.317  1.00  0.00    -0.206 F 
ATOM     65  C   UNL A   1      50.534  26.334  28.542  1.00  0.00     0.040 A 
ATOM     66  C   UNL A   1      50.199  25.597  30.809  1.00  0.00     0.040 A 
ATOM     67  F   UNL A   1      48.069  25.720  31.783  1.00  0.00    -0.206 F 
ATOM     68  C   UNL A   1      51.046  25.796  29.720  1.00  0.00     0.006 A 
ENDBRANCH  47  61
BRANCH  48  69
ATOM     69  C   UNL A   1      38.683  29.099  29.100  1.00  0.00     0.057 A 
ATOM     70  C   UNL A   1      38.083  29.602  27.939  1.00  0.00     0.134 A 
ATOM     71  C   UNL A   1      37.895  29.042  30.256  1.00  0.00     0.134 A 
ATOM     72  F   UNL A   1      38.788  29.699  26.803  1.00  0.00    -0.206 F 
ATOM     73  C   UNL A   1      36.770  30.076  27.940  1.00  0.00     0.040 A 
ATOM     74  C   UNL A   1      36.568  29.476  30.261  1.00  0.00     0.040 A 
ATOM     75  F   UNL A   1      38.401  28.560  31.401  1.00  0.00    -0.206 F 
ATOM     76  C   UNL A   1      36.008  30.012  29.104  1.00  0.00     0.006 A 
ENDBRANCH  48  69
BRANCH  60  77
ATOM     77  C   UNL A   1      44.505  32.472  30.873  1.00  0.00     0.057 A 
ATOM     78  C   UNL A   1      44.519  32.834  32.227  1.00  0.00     0.134 A 
ATOM     79  C   UNL A   1      44.754  33.482  29.934  1.00  0.00     0.134 A 
ATOM     80  F   UNL A   1      44.278  31.920  33.178  1.00  0.00    -0.206 F 
ATOM     81  C   UNL A   1      44.731  34.154  32.628  1.00  0.00     0.040 A 
ATOM     82  C   UNL A   1      45.004  34.799  30.325  1.00  0.00     0.040 A 
ATOM     83  F   UNL A   1      44.768  33.205  28.621  1.00  0.00    -0.206 F 
ATOM     84  C   UNL A   1      44.981  35.140  31.675  1.00  0.00     0.006 A 
ENDBRANCH  60  77
ENDBRANCH  34  35
ENDBRANCH  26  29
ENDBRANCH  24  25
ENDBRANCH  23  24
ENDBRANCH   1  23
TORSDOF 13
ENDMDL
MODEL 2
REMARK VINA RESULT:     -12.1      0.906      1.776
REMARK SMILES N#Cc1ccc(C[N@H+]2CCCC[C@H]2C(=O)NCCCNC(=O)c2ccc(-c3c4nc(c(-c5c(F)cccc5F)c5ccc([nH]5)c(-c5c(F)cccc5F)c5nc(c(-c6c(F)cccc6F)c6ccc3[nH]6)C=C5)C=C4)cc2)c(F)c1
REMARK SMILES IDX 17 1 16 2 14 3 15 4 13 6 8 7 9 8 10 10 12 11 11 12 7 13 6 14
REMARK SMILES IDX 3 15 4 16 79 17 5 18 77 19 78 20 2 21 1 22 18 23 19 24 20 25
REMARK SMILES IDX 21 26 22 28 23 29 24 30 76 31 25 32 75 33 26 34 27 35 28 36
REMARK SMILES IDX 69 37 29 38 74 39 68 40 70 41 30 42 73 43 67 44 66 45 31 47
REMARK SMILES IDX 57 48 40 49 56 50 41 51 44 52 55 53 71 54 42 55 43 56 54 58
REMARK SMILES IDX 72 59 45 60 32 61 33 62 38 63 34 64 35 65 37 66 39 67 36 68
REMARK SMILES IDX 58 69 59 70 64 71 60 72 61 73 63 74 65 75 62 76 46 77 47 78
REMARK SMILES IDX 52 79 48 80 49 81 51 82 53 83 50 84
REMARK H PARENT 16 5 8 9 20 27 70 46 44 57
REMARK Flexibility Score: inf
ROOT
ATOM      1  C   UNL A   1      36.732  20.824  24.692  1.00  0.00     0.118 C 
ENDROOT
BRANCH   1   2
ATOM      2  N   UNL A   1      35.948  21.075  25.880  1.00  0.00    -0.351 N 
ATOM      3  C   UNL A   1      34.996  22.025  26.093  1.00  0.00     0.278 C 
ATOM      4  O   UNL A   1      34.819  22.354  27.268  1.00  0.00    -0.268 OA
ATOM      5  H   UNL A   1      36.126  20.476  26.641  1.00  0.00     0.163 HD
BRANCH   3   6
ATOM      6  C   UNL A   1      34.198  22.589  24.886  1.00  0.00     0.274 C 
ATOM      7  N   UNL A   1      32.823  23.031  25.225  1.00  0.00    -0.321 N 
ATOM      8  C   UNL A   1      32.772  24.160  26.154  1.00  0.00     0.263 C 
ATOM      9  H   UNL A   1      32.476  23.419  24.348  1.00  0.00     0.349 HD
ATOM     10  C   UNL A   1      33.632  25.342  25.679  1.00  0.00     0.062 C 
ATOM     11  C   UNL A   1      34.960  23.762  24.258  1.00  0.00     0.076 C 
ATOM     12  C   UNL A   1      35.030  24.945  25.215  1.00  0.00     0.012 C 
BRANCH   7  13
ATOM     13  C   UNL A   1      31.841  21.959  25.471  1.00  0.00     0.302 C 
BRANCH  13  14
ATOM     14  C   UNL A   1      32.139  20.594  24.898  1.00  0.00     0.042 A 
ATOM     15  C   UNL A   1      33.117  18.218  23.761  1.00  0.00     0.055 A 
ATOM     16  C   UNL A   1      33.028  18.349  25.152  1.00  0.00     0.020 A 
ATOM     17  C   UNL A   1      32.616  19.225  22.939  1.00  0.00     0.059 A 
ATOM     18  C   UNL A   1      32.548  19.534  25.718  1.00  0.00     0.014 A 
ATOM     19  C   UNL A   1      32.102  20.384  23.514  1.00  0.00     0.133 A 
ATOM     20  F   UNL A   1      31.667  21.359  22.702  1.00  0.00    -0.206 F 
BRANCH  15  21
ATOM     21  C   UNL A   1      33.771  17.081  23.181  1.00  0.00     0.099 C 
ATOM     22  N   UNL A   1      34.308  16.181  22.688  1.00  0.00    -0.192 NA
ENDBRANCH  15  21
ENDBRANCH  13  14
ENDBRANCH   7  13
ENDBRANCH   3   6
ENDBRANCH   1   2
BRANCH   1  23
ATOM     23  C   UNL A   1      37.760  19.733  24.982  1.00  0.00     0.042 C 
BRANCH  23  24
ATOM     24  C   UNL A   1      38.965  20.228  25.783  1.00  0.00     0.118 C 
BRANCH  24  25
ATOM     25  N   UNL A   1      40.039  19.249  25.835  1.00  0.00    -0.352 N 
ATOM     26  C   UNL A   1      41.374  19.432  26.090  1.00  0.00     0.251 C 
ATOM     27  H   UNL A   1      39.769  18.319  25.661  1.00  0.00     0.163 HD
ATOM     28  O   UNL A   1      42.165  18.515  25.886  1.00  0.00    -0.269 OA
BRANCH  26  29
ATOM     29  C   UNL A   1      41.863  20.736  26.583  1.00  0.00     0.039 A 
ATOM     30  C   UNL A   1      42.304  21.677  25.652  1.00  0.00     0.014 A 
ATOM     31  C   UNL A   1      41.893  21.032  27.949  1.00  0.00     0.014 A 
ATOM     32  C   UNL A   1      42.717  22.936  26.085  1.00  0.00     0.010 A 
ATOM     33  C   UNL A   1      42.225  22.316  28.373  1.00  0.00     0.010 A 
ATOM     34  C   UNL A   1      42.640  23.284  27.446  1.00  0.00    -0.014 A 
BRANCH  34  35
ATOM     35  C   UNL A   1      42.965  24.663  27.892  1.00  0.00     0.031 A 
ATOM     36  C   UNL A   1      44.393  25.094  28.083  1.00  0.00     0.074 A 
ATOM     37  C   UNL A   1      41.960  25.524  28.152  1.00  0.00     0.049 A 
ATOM     38  N   UNL A   1      44.858  26.253  28.479  1.00  0.00    -0.248 NA
ATOM     39  C   UNL A   1      45.437  24.092  27.812  1.00  0.00     0.031 C 
ATOM     40  C   UNL A   1      40.532  25.213  28.050  1.00  0.00     0.029 A 
ATOM     41  N   UNL A   1      41.983  26.836  28.555  1.00  0.00    -0.354 N 
ATOM     42  C   UNL A   1      46.241  26.122  28.496  1.00  0.00     0.074 A 
ATOM     43  C   UNL A   1      46.539  24.753  28.135  1.00  0.00     0.031 C 
ATOM     44  C   UNL A   1      39.819  26.310  28.346  1.00  0.00     0.029 A 
ATOM     45  C   UNL A   1      40.732  27.387  28.711  1.00  0.00     0.049 A 
ATOM     46  H   UNL A   1      42.816  27.336  28.715  1.00  0.00     0.167 HD
ATOM     47  C   UNL A   1      47.177  27.064  28.760  1.00  0.00     0.037 A 
ATOM     48  C   UNL A   1      40.363  28.616  29.118  1.00  0.00     0.037 A 
ATOM     49  C   UNL A   1      46.879  28.426  29.119  1.00  0.00     0.049 A 
ATOM     50  C   UNL A   1      41.428  29.626  29.453  1.00  0.00     0.074 A 
ATOM     51  C   UNL A   1      47.761  29.462  29.376  1.00  0.00     0.029 A 
ATOM     52  N   UNL A   1      45.602  28.942  29.279  1.00  0.00    -0.354 N 
ATOM     53  N   UNL A   1      42.732  29.505  29.397  1.00  0.00    -0.248 NA
ATOM     54  C   UNL A   1      40.969  30.946  29.903  1.00  0.00     0.031 C 
ATOM     55  C   UNL A   1      47.021  30.586  29.751  1.00  0.00     0.029 A 
ATOM     56  C   UNL A   1      45.675  30.273  29.658  1.00  0.00     0.049 A 
ATOM     57  H   UNL A   1      44.767  28.438  29.144  1.00  0.00     0.167 HD
ATOM     58  C   UNL A   1      43.245  30.741  29.769  1.00  0.00     0.074 A 
ATOM     59  C   UNL A   1      42.112  31.604  30.022  1.00  0.00     0.031 C 
ATOM     60  C   UNL A   1      44.539  31.127  29.896  1.00  0.00     0.037 A 
BRANCH  47  61
ATOM     61  C   UNL A   1      48.622  26.663  28.663  1.00  0.00     0.057 A 
ATOM     62  C   UNL A   1      49.306  26.104  29.751  1.00  0.00     0.134 A 
ATOM     63  C   UNL A   1      49.315  26.763  27.449  1.00  0.00     0.134 A 
ATOM     64  F   UNL A   1      48.705  25.987  30.945  1.00  0.00    -0.206 F 
ATOM     65  C   UNL A   1      50.630  25.676  29.641  1.00  0.00     0.040 A 
ATOM     66  C   UNL A   1      50.629  26.310  27.319  1.00  0.00     0.040 A 
ATOM     67  F   UNL A   1      48.719  27.280  26.365  1.00  0.00    -0.206 F 
ATOM     68  C   UNL A   1      51.291  25.767  28.418  1.00  0.00     0.006 A 
ENDBRANCH  47  61
BRANCH  48  69
ATOM     69  C   UNL A   1      38.923  28.969  29.250  1.00  0.00     0.057 A 
ATOM     70  C   UNL A   1      38.216  29.554  28.191  1.00  0.00     0.134 A 
ATOM     71  C   UNL A   1      38.237  28.787  30.457  1.00  0.00     0.134 A 
ATOM     72  F   UNL A   1      38.820  29.771  27.014  1.00  0.00    -0.206 F 
ATOM     73  C   UNL A   1      36.898  29.986  28.342  1.00  0.00     0.040 A 
ATOM     74  C   UNL A   1      36.906  29.179  30.609  1.00  0.00     0.040 A 
ATOM     75  F   UNL A   1      38.849  28.223  31.508  1.00  0.00    -0.206 F 
ATOM     76  C   UNL A   1      36.238  29.798  29.554  1.00  0.00     0.006 A 
ENDBRANCH  48  69
BRANCH  60  77
ATOM     77  C   UNL A   1      44.795  32.556  30.283  1.00  0.00     0.057 A 
ATOM     78  C   UNL A   1      44.901  33.580  29.331  1.00  0.00     0.134 A 
ATOM     79  C   UNL A   1      44.922  32.916  31.632  1.00  0.00     0.134 A 
ATOM     80  F   UNL A   1      44.801  33.305  28.023  1.00  0.00    -0.206 F 
ATOM     81  C   UNL A   1      45.164  34.900  29.704  1.00  0.00     0.040 A 
ATOM     82  C   UNL A   1      45.147  34.239  32.018  1.00  0.00     0.040 A 
ATOM     83  F   UNL A   1      44.819  31.990  32.598  1.00  0.00    -0.206 F 
ATOM     84  C   UNL A   1      45.280  35.232  31.052  1.00  0.00     0.006 A 
ENDBRANCH  60  77
ENDBRANCH  34  35
ENDBRANCH  26  29
ENDBRANCH  24  25
ENDBRANCH  23  24
ENDBRANCH   1  23
TORSDOF 13
ENDMDL
MODEL 3
REMARK VINA RESULT:     -12.1      2.107      4.347
REMARK SMILES N#Cc1ccc(C[N@H+]2CCCC[C@H]2C(=O)NCCCNC(=O)c2ccc(-c3c4nc(c(-c5c(F)cccc5F)c5ccc([nH]5)c(-c5c(F)cccc5F)c5nc(c(-c6c(F)cccc6F)c6ccc3[nH]6)C=C5)C=C4)cc2)c(F)c1
REMARK SMILES IDX 17 1 16 2 14 3 15 4 13 6 8 7 9 8 10 10 12 11 11 12 7 13 6 14
REMARK SMILES IDX 3 15 4 16 79 17 5 18 77 19 78 20 2 21 1 22 18 23 19 24 20 25
REMARK SMILES IDX 21 26 22 28 23 29 24 30 76 31 25 32 75 33 26 34 27 35 28 36
REMARK SMILES IDX 69 37 29 38 74 39 68 40 70 41 30 42 73 43 67 44 66 45 31 47
REMARK SMILES IDX 57 48 40 49 56 50 41 51 44 52 55 53 71 54 42 55 43 56 54 58
REMARK SMILES IDX 72 59 45 60 32 61 33 62 38 63 34 64 35 65 37 66 39 67 36 68
REMARK SMILES IDX 58 69 59 70 64 71 60 72 61 73 63 74 65 75 62 76 46 77 47 78
REMARK SMILES IDX 52 79 48 80 49 81 51 82 53 83 50 84
REMARK H PARENT 16 5 8 9 20 27 70 46 44 57
REMARK Flexibility Score: inf
ROOT
ATOM      1  C   UNL A   1      36.295  20.705  25.102  1.00  0.00     0.118 C 
ENDROOT
BRANCH   1   2
ATOM      2  N   UNL A   1      36.318  21.837  24.203  1.00  0.00    -0.351 N 
ATOM      3  C   UNL A   1      35.302  22.675  23.855  1.00  0.00     0.278 C 
ATOM      4  O   UNL A   1      35.419  23.233  22.763  1.00  0.00    -0.268 OA
ATOM      5  H   UNL A   1      37.188  22.029  23.785  1.00  0.00     0.163 HD
BRANCH   3   6
ATOM      6  C   UNL A   1      34.121  22.891  24.840  1.00  0.00     0.274 C 
ATOM      7  N   UNL A   1      33.442  24.202  24.689  1.00  0.00    -0.321 N 
ATOM      8  C   UNL A   1      32.777  24.383  23.399  1.00  0.00     0.263 C 
ATOM      9  H   UNL A   1      32.673  24.148  25.357  1.00  0.00     0.349 HD
ATOM     10  C   UNL A   1      31.822  23.224  23.070  1.00  0.00     0.062 C 
ATOM     11  C   UNL A   1      33.088  21.771  24.671  1.00  0.00     0.076 C 
ATOM     12  C   UNL A   1      32.422  21.841  23.304  1.00  0.00     0.012 C 
BRANCH   7  13
ATOM     13  C   UNL A   1      34.179  25.375  25.195  1.00  0.00     0.302 C 
BRANCH  13  14
ATOM     14  C   UNL A   1      33.428  26.681  25.295  1.00  0.00     0.042 A 
ATOM     15  C   UNL A   1      32.304  29.199  25.838  1.00  0.00     0.055 A 
ATOM     16  C   UNL A   1      33.258  29.057  24.823  1.00  0.00     0.020 A 
ATOM     17  C   UNL A   1      31.831  28.069  26.503  1.00  0.00     0.059 A 
ATOM     18  C   UNL A   1      33.822  27.805  24.558  1.00  0.00     0.014 A 
ATOM     19  C   UNL A   1      32.370  26.822  26.202  1.00  0.00     0.133 A 
ATOM     20  F   UNL A   1      31.931  25.756  26.887  1.00  0.00    -0.206 F 
BRANCH  15  21
ATOM     21  C   UNL A   1      31.855  30.502  26.233  1.00  0.00     0.099 C 
ATOM     22  N   UNL A   1      31.463  31.548  26.540  1.00  0.00    -0.192 NA
ENDBRANCH  15  21
ENDBRANCH  13  14
ENDBRANCH   7  13
ENDBRANCH   3   6
ENDBRANCH   1   2
BRANCH   1  23
ATOM     23  C   UNL A   1      37.551  19.863  24.892  1.00  0.00     0.042 C 
BRANCH  23  24
ATOM     24  C   UNL A   1      38.763  20.368  25.675  1.00  0.00     0.118 C 
BRANCH  24  25
ATOM     25  N   UNL A   1      39.843  19.395  25.718  1.00  0.00    -0.352 N 
ATOM     26  C   UNL A   1      41.166  19.574  26.031  1.00  0.00     0.251 C 
ATOM     27  H   UNL A   1      39.587  18.473  25.488  1.00  0.00     0.163 HD
ATOM     28  O   UNL A   1      41.972  18.674  25.812  1.00  0.00    -0.269 OA
BRANCH  26  29
ATOM     29  C   UNL A   1      41.626  20.855  26.606  1.00  0.00     0.039 A 
ATOM     30  C   UNL A   1      42.131  21.829  25.743  1.00  0.00     0.014 A 
ATOM     31  C   UNL A   1      41.566  21.098  27.981  1.00  0.00     0.014 A 
ATOM     32  C   UNL A   1      42.518  23.068  26.252  1.00  0.00     0.010 A 
ATOM     33  C   UNL A   1      41.873  22.363  28.477  1.00  0.00     0.010 A 
ATOM     34  C   UNL A   1      42.352  23.363  27.617  1.00  0.00    -0.014 A 
BRANCH  34  35
ATOM     35  C   UNL A   1      42.651  24.722  28.137  1.00  0.00     0.031 A 
ATOM     36  C   UNL A   1      44.050  25.104  28.534  1.00  0.00     0.074 A 
ATOM     37  C   UNL A   1      41.645  25.609  28.276  1.00  0.00     0.049 A 
ATOM     38  N   UNL A   1      44.489  26.239  29.018  1.00  0.00    -0.248 NA
ATOM     39  C   UNL A   1      45.092  24.075  28.386  1.00  0.00     0.031 C 
ATOM     40  C   UNL A   1      40.236  25.345  27.970  1.00  0.00     0.029 A 
ATOM     41  N   UNL A   1      41.648  26.912  28.710  1.00  0.00    -0.354 N 
ATOM     42  C   UNL A   1      45.852  26.064  29.223  1.00  0.00     0.074 A 
ATOM     43  C   UNL A   1      46.157  24.694  28.873  1.00  0.00     0.031 C 
ATOM     44  C   UNL A   1      39.521  26.458  28.192  1.00  0.00     0.029 A 
ATOM     45  C   UNL A   1      40.404  27.498  28.706  1.00  0.00     0.049 A 
ATOM     46  H   UNL A   1      42.465  27.381  28.996  1.00  0.00     0.167 HD
ATOM     47  C   UNL A   1      46.769  26.970  29.637  1.00  0.00     0.037 A 
ATOM     48  C   UNL A   1      40.017  28.730  29.088  1.00  0.00     0.037 A 
ATOM     49  C   UNL A   1      46.462  28.334  29.984  1.00  0.00     0.049 A 
ATOM     50  C   UNL A   1      41.054  29.698  29.591  1.00  0.00     0.074 A 
ATOM     51  C   UNL A   1      47.330  29.336  30.386  1.00  0.00     0.029 A 
ATOM     52  N   UNL A   1      45.191  28.887  29.978  1.00  0.00    -0.354 N 
ATOM     53  N   UNL A   1      42.350  29.538  29.712  1.00  0.00    -0.248 NA
ATOM     54  C   UNL A   1      40.575  31.023  30.005  1.00  0.00     0.031 C 
ATOM     55  C   UNL A   1      46.577  30.476  30.682  1.00  0.00     0.029 A 
ATOM     56  C   UNL A   1      45.248  30.207  30.396  1.00  0.00     0.049 A 
ATOM     57  H   UNL A   1      44.369  28.412  29.717  1.00  0.00     0.167 HD
ATOM     58  C   UNL A   1      42.841  30.749  30.182  1.00  0.00     0.074 A 
ATOM     59  C   UNL A   1      41.709  31.642  30.297  1.00  0.00     0.031 C 
ATOM     60  C   UNL A   1      44.115  31.091  30.496  1.00  0.00     0.037 A 
BRANCH  47  61
ATOM     61  C   UNL A   1      48.200  26.526  29.730  1.00  0.00     0.057 A 
ATOM     62  C   UNL A   1      48.704  25.900  30.879  1.00  0.00     0.134 A 
ATOM     63  C   UNL A   1      49.066  26.654  28.635  1.00  0.00     0.134 A 
ATOM     64  F   UNL A   1      47.933  25.753  31.967  1.00  0.00    -0.206 F 
ATOM     65  C   UNL A   1      50.018  25.433  30.941  1.00  0.00     0.040 A 
ATOM     66  C   UNL A   1      50.372  26.163  28.674  1.00  0.00     0.040 A 
ATOM     67  F   UNL A   1      48.647  27.235  27.501  1.00  0.00    -0.206 F 
ATOM     68  C   UNL A   1      50.852  25.553  29.832  1.00  0.00     0.006 A 
ENDBRANCH  47  61
BRANCH  48  69
ATOM     69  C   UNL A   1      38.584  29.125  29.028  1.00  0.00     0.057 A 
ATOM     70  C   UNL A   1      38.018  29.641  27.855  1.00  0.00     0.134 A 
ATOM     71  C   UNL A   1      37.762  29.055  30.159  1.00  0.00     0.134 A 
ATOM     72  F   UNL A   1      38.756  29.750  26.740  1.00  0.00    -0.206 F 
ATOM     73  C   UNL A   1      36.706  30.114  27.821  1.00  0.00     0.040 A 
ATOM     74  C   UNL A   1      36.436  29.489  30.129  1.00  0.00     0.040 A 
ATOM     75  F   UNL A   1      38.235  28.562  31.313  1.00  0.00    -0.206 F 
ATOM     76  C   UNL A   1      35.909  30.037  28.961  1.00  0.00     0.006 A 
ENDBRANCH  48  69
BRANCH  60  77
ATOM     77  C   UNL A   1      44.355  32.504  30.949  1.00  0.00     0.057 A 
ATOM     78  C   UNL A   1      44.624  33.542  30.046  1.00  0.00     0.134 A 
ATOM     79  C   UNL A   1      44.302  32.833  32.310  1.00  0.00     0.134 A 
ATOM     80  F   UNL A   1      44.700  33.296  28.730  1.00  0.00    -0.206 F 
ATOM     81  C   UNL A   1      44.869  34.845  30.484  1.00  0.00     0.040 A 
ATOM     82  C   UNL A   1      44.508  34.139  32.756  1.00  0.00     0.040 A 
ATOM     83  F   UNL A   1      44.037  31.892  33.230  1.00  0.00    -0.206 F 
ATOM     84  C   UNL A   1      44.805  35.147  31.842  1.00  0.00     0.006 A 
ENDBRANCH  60  77
ENDBRANCH  34  35
ENDBRANCH  26  29
ENDBRANCH  24  25
ENDBRANCH  23  24
ENDBRANCH   1  23
TORSDOF 13
ENDMDL
