MODEL 1
REMARK VINA RESULT:     -11.6      0.000      0.000
REMARK SMILES CC[C@@H](C)c1nc2cc(C(=O)NCCCNC(=O)c3ccc(-c4c5nc(c(-c6c(F)cccc6F)c6ccc([nH]6)c(-c6c(F)cccc6F)c6nc(c(-c7c(F)cccc7F)c7ccc4[nH]7)C=C6)C=C5)cc3)ccc2n1[C@@H](C)CC
REMARK SMILES IDX 14 1 13 2 12 3 10 4 11 5 9 7 5 8 6 9 76 10 7 11 75 12 8 13
REMARK SMILES IDX 74 14 73 15 3 16 4 17 2 18 1 19 77 20 78 21 79 22 80 23
REMARK SMILES IDX 15 24 16 25 17 26 18 28 19 29 20 30 72 31 21 32 71 33 22 34
REMARK SMILES IDX 23 35 24 36 65 37 25 38 70 39 64 40 66 41 26 42 69 43 63 44
REMARK SMILES IDX 62 45 27 47 53 48 36 49 52 50 37 51 40 52 51 53 67 54 38 55
REMARK SMILES IDX 39 56 50 58 68 59 41 60 28 61 29 62 34 63 30 64 31 65 33 66
REMARK SMILES IDX 35 67 32 68 54 69 55 70 60 71 56 72 57 73 59 74 61 75 58 76
REMARK SMILES IDX 42 77 43 78 48 79 44 80 45 81 47 82 49 83 46 84
REMARK H PARENT 12 6 16 27 66 46 40 57
REMARK Flexibility Score: inf
ROOT
ATOM      1  C   UNL A   1      33.911  29.974  26.469  1.00  0.00     0.042 C 
ENDROOT
BRANCH   1   2
ATOM      2  C   UNL A   1      32.412  29.764  26.712  1.00  0.00     0.118 C 
BRANCH   2   3
ATOM      3  N   UNL A   1      31.642  29.910  25.487  1.00  0.00    -0.352 N 
ATOM      4  C   UNL A   1      31.175  29.035  24.533  1.00  0.00     0.251 C 
ATOM      5  O   UNL A   1      30.475  29.512  23.648  1.00  0.00    -0.269 OA
ATOM      6  H   UNL A   1      31.399  30.845  25.299  1.00  0.00     0.163 HD
BRANCH   4   7
ATOM      7  C   UNL A   1      31.449  27.565  24.529  1.00  0.00     0.042 A 
ATOM      8  C   UNL A   1      34.117  23.853  24.619  1.00  0.00     0.112 A 
ATOM      9  N   UNL A   1      34.336  25.165  24.624  1.00  0.00    -0.233 NA
ATOM     10  N   UNL A   1      32.757  23.625  24.423  1.00  0.00    -0.325 N 
ATOM     11  C   UNL A   1      33.124  25.792  24.557  1.00  0.00     0.090 A 
ATOM     12  C   UNL A   1      32.110  24.856  24.491  1.00  0.00     0.068 A 
ATOM     13  C   UNL A   1      32.802  27.162  24.554  1.00  0.00     0.044 A 
ATOM     14  C   UNL A   1      30.758  25.225  24.500  1.00  0.00     0.029 A 
ATOM     15  C   UNL A   1      30.454  26.589  24.559  1.00  0.00     0.016 A 
BRANCH   8  16
ATOM     16  C   UNL A   1      35.285  22.865  24.742  1.00  0.00     0.052 C 
ATOM     17  C   UNL A   1      35.383  22.077  26.042  1.00  0.00     0.016 C 
BRANCH  16  18
ATOM     18  C   UNL A   1      36.626  23.631  24.523  1.00  0.00     0.008 C 
ATOM     19  C   UNL A   1      37.551  23.686  25.736  1.00  0.00     0.004 C 
ENDBRANCH  16  18
ENDBRANCH   8  16
BRANCH  10  20
ATOM     20  C   UNL A   1      32.003  22.407  24.138  1.00  0.00     0.085 C 
ATOM     21  C   UNL A   1      32.272  21.834  22.742  1.00  0.00     0.031 C 
BRANCH  20  22
ATOM     22  C   UNL A   1      31.939  21.374  25.284  1.00  0.00     0.022 C 
ATOM     23  C   UNL A   1      32.506  20.004  24.924  1.00  0.00     0.006 C 
ENDBRANCH  20  22
ENDBRANCH  10  20
ENDBRANCH   4   7
ENDBRANCH   2   3
ENDBRANCH   1   2
BRANCH   1  24
ATOM     24  C   UNL A   1      34.794  29.138  27.400  1.00  0.00     0.118 C 
BRANCH  24  25
ATOM     25  N   UNL A   1      35.044  29.765  28.684  1.00  0.00    -0.352 N 
ATOM     26  C   UNL A   1      36.130  29.928  29.497  1.00  0.00     0.251 C 
ATOM     27  H   UNL A   1      34.232  30.173  29.063  1.00  0.00     0.163 HD
ATOM     28  O   UNL A   1      35.935  30.571  30.532  1.00  0.00    -0.269 OA
BRANCH  26  29
ATOM     29  C   UNL A   1      37.485  29.358  29.262  1.00  0.00     0.039 A 
ATOM     30  C   UNL A   1      38.179  28.515  30.129  1.00  0.00     0.014 A 
ATOM     31  C   UNL A   1      38.110  29.740  28.057  1.00  0.00     0.014 A 
ATOM     32  C   UNL A   1      39.492  28.143  29.846  1.00  0.00     0.010 A 
ATOM     33  C   UNL A   1      39.412  29.352  27.758  1.00  0.00     0.010 A 
ATOM     34  C   UNL A   1      40.120  28.590  28.678  1.00  0.00    -0.014 A 
BRANCH  34  35
ATOM     35  C   UNL A   1      41.489  28.145  28.423  1.00  0.00     0.031 A 
ATOM     36  C   UNL A   1      41.597  26.837  27.721  1.00  0.00     0.074 A 
ATOM     37  C   UNL A   1      42.587  28.873  28.714  1.00  0.00     0.049 A 
ATOM     38  N   UNL A   1      42.072  25.727  28.181  1.00  0.00    -0.248 NA
ATOM     39  C   UNL A   1      41.000  26.722  26.383  1.00  0.00     0.031 C 
ATOM     40  C   UNL A   1      42.642  30.274  29.143  1.00  0.00     0.029 A 
ATOM     41  N   UNL A   1      43.908  28.529  28.614  1.00  0.00    -0.354 N 
ATOM     42  C   UNL A   1      42.009  24.814  27.127  1.00  0.00     0.074 A 
ATOM     43  C   UNL A   1      41.214  25.435  26.103  1.00  0.00     0.031 C 
ATOM     44  C   UNL A   1      43.917  30.718  29.070  1.00  0.00     0.029 A 
ATOM     45  C   UNL A   1      44.785  29.599  28.741  1.00  0.00     0.049 A 
ATOM     46  H   UNL A   1      44.210  27.604  28.465  1.00  0.00     0.167 HD
ATOM     47  C   UNL A   1      42.826  23.724  27.096  1.00  0.00     0.037 A 
ATOM     48  C   UNL A   1      46.129  29.582  28.581  1.00  0.00     0.037 A 
ATOM     49  C   UNL A   1      43.418  23.487  28.387  1.00  0.00     0.049 A 
ATOM     50  C   UNL A   1      46.600  28.193  28.754  1.00  0.00     0.074 A 
ATOM     51  C   UNL A   1      43.040  22.945  29.595  1.00  0.00     0.029 A 
ATOM     52  N   UNL A   1      44.583  24.174  28.594  1.00  0.00    -0.354 N 
ATOM     53  N   UNL A   1      46.604  27.571  29.898  1.00  0.00    -0.248 NA
ATOM     54  C   UNL A   1      46.808  27.349  27.583  1.00  0.00     0.031 C 
ATOM     55  C   UNL A   1      43.916  23.509  30.572  1.00  0.00     0.029 A 
ATOM     56  C   UNL A   1      44.808  24.365  29.926  1.00  0.00     0.049 A 
ATOM     57  H   UNL A   1      45.179  24.488  27.876  1.00  0.00     0.167 HD
ATOM     58  C   UNL A   1      46.376  26.251  29.567  1.00  0.00     0.074 A 
ATOM     59  C   UNL A   1      46.704  26.145  28.152  1.00  0.00     0.031 C 
ATOM     60  C   UNL A   1      45.637  25.451  30.387  1.00  0.00     0.037 A 
BRANCH  47  61
ATOM     61  C   UNL A   1      43.505  23.181  25.848  1.00  0.00     0.057 A 
ATOM     62  C   UNL A   1      44.396  23.915  25.041  1.00  0.00     0.134 A 
ATOM     63  C   UNL A   1      43.558  21.782  25.664  1.00  0.00     0.134 A 
ATOM     64  F   UNL A   1      44.501  25.245  25.108  1.00  0.00    -0.206 F 
ATOM     65  C   UNL A   1      45.316  23.306  24.178  1.00  0.00     0.040 A 
ATOM     66  C   UNL A   1      44.504  21.163  24.838  1.00  0.00     0.040 A 
ATOM     67  F   UNL A   1      42.749  20.965  26.355  1.00  0.00    -0.206 F 
ATOM     68  C   UNL A   1      45.402  21.926  24.105  1.00  0.00     0.006 A 
ENDBRANCH  47  61
BRANCH  48  69
ATOM     69  C   UNL A   1      47.044  30.656  28.148  1.00  0.00     0.057 A 
ATOM     70  C   UNL A   1      47.923  31.257  29.063  1.00  0.00     0.134 A 
ATOM     71  C   UNL A   1      46.882  31.312  26.920  1.00  0.00     0.134 A 
ATOM     72  F   UNL A   1      48.099  30.740  30.289  1.00  0.00    -0.206 F 
ATOM     73  C   UNL A   1      48.581  32.459  28.786  1.00  0.00     0.040 A 
ATOM     74  C   UNL A   1      47.531  32.517  26.630  1.00  0.00     0.040 A 
ATOM     75  F   UNL A   1      46.039  30.829  25.995  1.00  0.00    -0.206 F 
ATOM     76  C   UNL A   1      48.373  33.103  27.572  1.00  0.00     0.006 A 
ENDBRANCH  48  69
BRANCH  60  77
ATOM     77  C   UNL A   1      45.536  25.870  31.818  1.00  0.00     0.057 A 
ATOM     78  C   UNL A   1      44.389  26.553  32.230  1.00  0.00     0.134 A 
ATOM     79  C   UNL A   1      46.538  25.656  32.773  1.00  0.00     0.134 A 
ATOM     80  F   UNL A   1      43.413  26.830  31.352  1.00  0.00    -0.206 F 
ATOM     81  C   UNL A   1      44.229  26.990  33.545  1.00  0.00     0.040 A 
ATOM     82  C   UNL A   1      46.375  26.057  34.102  1.00  0.00     0.040 A 
ATOM     83  F   UNL A   1      47.701  25.079  32.443  1.00  0.00    -0.206 F 
ATOM     84  C   UNL A   1      45.218  26.727  34.491  1.00  0.00     0.006 A 
ENDBRANCH  60  77
ENDBRANCH  34  35
ENDBRANCH  26  29
ENDBRANCH  24  25
ENDBRANCH   1  24
TORSDOF 14
ENDMDL
MODEL 2
REMARK VINA RESULT:     -11.6      1.993      6.110
REMARK SMILES CC[C@@H](C)c1nc2cc(C(=O)NCCCNC(=O)c3ccc(-c4c5nc(c(-c6c(F)cccc6F)c6ccc([nH]6)c(-c6c(F)cccc6F)c6nc(c(-c7c(F)cccc7F)c7ccc4[nH]7)C=C6)C=C5)cc3)ccc2n1[C@@H](C)CC
REMARK SMILES IDX 14 1 13 2 12 3 10 4 11 5 9 7 5 8 6 9 76 10 7 11 75 12 8 13
REMARK SMILES IDX 74 14 73 15 3 16 4 17 2 18 1 19 77 20 78 21 79 22 80 23
REMARK SMILES IDX 15 24 16 25 17 26 18 28 19 29 20 30 72 31 21 32 71 33 22 34
REMARK SMILES IDX 23 35 24 36 65 37 25 38 70 39 64 40 66 41 26 42 69 43 63 44
REMARK SMILES IDX 62 45 27 47 53 48 36 49 52 50 37 51 40 52 51 53 67 54 38 55
REMARK SMILES IDX 39 56 50 58 68 59 41 60 28 61 29 62 34 63 30 64 31 65 33 66
REMARK SMILES IDX 35 67 32 68 54 69 55 70 60 71 56 72 57 73 59 74 61 75 58 76
REMARK SMILES IDX 42 77 43 78 48 79 44 80 45 81 47 82 49 83 46 84
REMARK H PARENT 12 6 16 27 66 46 40 57
REMARK Flexibility Score: inf
ROOT
ATOM      1  C   UNL A   1      34.101  30.363  27.254  1.00  0.00     0.042 C 
ENDROOT
BRANCH   1   2
ATOM      2  C   UNL A   1      32.583  30.152  27.275  1.00  0.00     0.118 C 
BRANCH   2   3
ATOM      3  N   UNL A   1      32.045  29.970  25.937  1.00  0.00    -0.352 N 
ATOM      4  C   UNL A   1      31.836  28.881  25.123  1.00  0.00     0.251 C 
ATOM      5  O   UNL A   1      31.276  29.095  24.054  1.00  0.00    -0.269 OA
ATOM      6  H   UNL A   1      31.767  30.818  25.520  1.00  0.00     0.163 HD
BRANCH   4   7
ATOM      7  C   UNL A   1      32.223  27.480  25.471  1.00  0.00     0.042 A 
ATOM      8  C   UNL A   1      35.079  23.918  25.730  1.00  0.00     0.112 A 
ATOM      9  N   UNL A   1      35.166  25.157  25.254  1.00  0.00    -0.233 NA
ATOM     10  N   UNL A   1      33.762  23.676  26.115  1.00  0.00    -0.325 N 
ATOM     11  C   UNL A   1      33.955  25.763  25.437  1.00  0.00     0.090 A 
ATOM     12  C   UNL A   1      33.071  24.883  26.031  1.00  0.00     0.068 A 
ATOM     13  C   UNL A   1      33.530  27.068  25.131  1.00  0.00     0.044 A 
ATOM     14  C   UNL A   1      31.780  25.272  26.411  1.00  0.00     0.029 A 
ATOM     15  C   UNL A   1      31.394  26.591  26.154  1.00  0.00     0.016 A 
BRANCH   8  16
ATOM     16  C   UNL A   1      36.301  22.990  25.721  1.00  0.00     0.052 C 
ATOM     17  C   UNL A   1      37.666  23.652  25.850  1.00  0.00     0.016 C 
BRANCH  16  18
ATOM     18  C   UNL A   1      36.284  22.137  24.415  1.00  0.00     0.008 C 
ATOM     19  C   UNL A   1      36.690  22.881  23.145  1.00  0.00     0.004 C 
ENDBRANCH  16  18
ENDBRANCH   8  16
BRANCH  10  20
ATOM     20  C   UNL A   1      33.070  22.452  26.508  1.00  0.00     0.085 C 
ATOM     21  C   UNL A   1      32.881  22.316  28.023  1.00  0.00     0.031 C 
BRANCH  20  22
ATOM     22  C   UNL A   1      31.849  22.065  25.645  1.00  0.00     0.022 C 
ATOM     23  C   UNL A   1      32.201  21.316  24.363  1.00  0.00     0.006 C 
ENDBRANCH  20  22
ENDBRANCH  10  20
ENDBRANCH   4   7
ENDBRANCH   2   3
ENDBRANCH   1   2
BRANCH   1  24
ATOM     24  C   UNL A   1      34.516  31.788  27.629  1.00  0.00     0.118 C 
BRANCH  24  25
ATOM     25  N   UNL A   1      34.357  32.089  29.040  1.00  0.00    -0.352 N 
ATOM     26  C   UNL A   1      35.111  31.915  30.166  1.00  0.00     0.251 C 
ATOM     27  H   UNL A   1      33.497  32.525  29.233  1.00  0.00     0.163 HD
ATOM     28  O   UNL A   1      34.622  32.349  31.213  1.00  0.00    -0.269 OA
BRANCH  26  29
ATOM     29  C   UNL A   1      36.421  31.211  30.236  1.00  0.00     0.039 A 
ATOM     30  C   UNL A   1      37.676  31.803  30.098  1.00  0.00     0.014 A 
ATOM     31  C   UNL A   1      36.357  29.816  30.435  1.00  0.00     0.014 A 
ATOM     32  C   UNL A   1      38.825  31.015  30.066  1.00  0.00     0.010 A 
ATOM     33  C   UNL A   1      37.503  29.028  30.427  1.00  0.00     0.010 A 
ATOM     34  C   UNL A   1      38.735  29.624  30.196  1.00  0.00    -0.014 A 
BRANCH  34  35
ATOM     35  C   UNL A   1      39.977  28.854  30.180  1.00  0.00     0.031 A 
ATOM     36  C   UNL A   1      40.648  28.729  31.503  1.00  0.00     0.074 A 
ATOM     37  C   UNL A   1      40.463  28.224  29.090  1.00  0.00     0.049 A 
ATOM     38  N   UNL A   1      41.787  29.223  31.864  1.00  0.00    -0.248 NA
ATOM     39  C   UNL A   1      39.911  28.071  32.590  1.00  0.00     0.031 C 
ATOM     40  C   UNL A   1      39.790  28.019  27.803  1.00  0.00     0.029 A 
ATOM     41  N   UNL A   1      41.649  27.561  28.927  1.00  0.00    -0.354 N 
ATOM     42  C   UNL A   1      42.002  28.780  33.170  1.00  0.00     0.074 A 
ATOM     43  C   UNL A   1      40.760  28.204  33.611  1.00  0.00     0.031 C 
ATOM     44  C   UNL A   1      40.483  27.118  27.071  1.00  0.00     0.029 A 
ATOM     45  C   UNL A   1      41.720  26.802  27.765  1.00  0.00     0.049 A 
ATOM     46  H   UNL A   1      42.387  27.617  29.576  1.00  0.00     0.167 HD
ATOM     47  C   UNL A   1      43.261  28.709  33.685  1.00  0.00     0.037 A 
ATOM     48  C   UNL A   1      42.716  25.963  27.394  1.00  0.00     0.037 A 
ATOM     49  C   UNL A   1      44.190  29.461  32.882  1.00  0.00     0.049 A 
ATOM     50  C   UNL A   1      43.940  26.341  28.128  1.00  0.00     0.074 A 
ATOM     51  C   UNL A   1      44.536  30.780  32.694  1.00  0.00     0.029 A 
ATOM     52  N   UNL A   1      44.729  28.746  31.848  1.00  0.00    -0.354 N 
ATOM     53  N   UNL A   1      44.609  27.435  27.899  1.00  0.00    -0.248 NA
ATOM     54  C   UNL A   1      44.292  25.638  29.356  1.00  0.00     0.031 C 
ATOM     55  C   UNL A   1      45.127  30.852  31.396  1.00  0.00     0.029 A 
ATOM     56  C   UNL A   1      45.136  29.573  30.842  1.00  0.00     0.049 A 
ATOM     57  H   UNL A   1      44.811  27.765  31.833  1.00  0.00     0.167 HD
ATOM     58  C   UNL A   1      45.127  27.778  29.131  1.00  0.00     0.074 A 
ATOM     59  C   UNL A   1      45.071  26.560  29.927  1.00  0.00     0.031 C 
ATOM     60  C   UNL A   1      45.249  29.088  29.488  1.00  0.00     0.037 A 
BRANCH  47  61
ATOM     61  C   UNL A   1      43.775  27.587  34.574  1.00  0.00     0.057 A 
ATOM     62  C   UNL A   1      43.951  27.689  35.968  1.00  0.00     0.134 A 
ATOM     63  C   UNL A   1      43.736  26.265  34.079  1.00  0.00     0.134 A 
ATOM     64  F   UNL A   1      43.978  28.862  36.607  1.00  0.00    -0.206 F 
ATOM     65  C   UNL A   1      44.007  26.571  36.809  1.00  0.00     0.040 A 
ATOM     66  C   UNL A   1      43.747  25.142  34.917  1.00  0.00     0.040 A 
ATOM     67  F   UNL A   1      43.594  26.023  32.767  1.00  0.00    -0.206 F 
ATOM     68  C   UNL A   1      43.863  25.295  36.292  1.00  0.00     0.006 A 
ENDBRANCH  47  61
BRANCH  48  69
ATOM     69  C   UNL A   1      42.669  24.756  26.546  1.00  0.00     0.057 A 
ATOM     70  C   UNL A   1      42.106  23.564  27.030  1.00  0.00     0.134 A 
ATOM     71  C   UNL A   1      43.422  24.653  25.367  1.00  0.00     0.134 A 
ATOM     72  F   UNL A   1      41.420  23.547  28.183  1.00  0.00    -0.206 F 
ATOM     73  C   UNL A   1      42.305  22.334  26.397  1.00  0.00     0.040 A 
ATOM     74  C   UNL A   1      43.633  23.428  24.725  1.00  0.00     0.040 A 
ATOM     75  F   UNL A   1      44.024  25.732  24.847  1.00  0.00    -0.206 F 
ATOM     76  C   UNL A   1      43.085  22.259  25.249  1.00  0.00     0.006 A 
ENDBRANCH  48  69
BRANCH  60  77
ATOM     77  C   UNL A   1      45.297  30.084  28.374  1.00  0.00     0.057 A 
ATOM     78  C   UNL A   1      44.108  30.707  27.988  1.00  0.00     0.134 A 
ATOM     79  C   UNL A   1      46.458  30.411  27.661  1.00  0.00     0.134 A 
ATOM     80  F   UNL A   1      42.954  30.402  28.601  1.00  0.00    -0.206 F 
ATOM     81  C   UNL A   1      44.071  31.635  26.947  1.00  0.00     0.040 A 
ATOM     82  C   UNL A   1      46.441  31.364  26.640  1.00  0.00     0.040 A 
ATOM     83  F   UNL A   1      47.623  29.802  27.915  1.00  0.00    -0.206 F 
ATOM     84  C   UNL A   1      45.244  31.979  26.280  1.00  0.00     0.006 A 
ENDBRANCH  60  77
ENDBRANCH  34  35
ENDBRANCH  26  29
ENDBRANCH  24  25
ENDBRANCH   1  24
TORSDOF 14
ENDMDL
MODEL 3
REMARK VINA RESULT:     -11.3      3.123      7.833
REMARK SMILES CC[C@@H](C)c1nc2cc(C(=O)NCCCNC(=O)c3ccc(-c4c5nc(c(-c6c(F)cccc6F)c6ccc([nH]6)c(-c6c(F)cccc6F)c6nc(c(-c7c(F)cccc7F)c7ccc4[nH]7)C=C6)C=C5)cc3)ccc2n1[C@@H](C)CC
REMARK SMILES IDX 14 1 13 2 12 3 10 4 11 5 9 7 5 8 6 9 76 10 7 11 75 12 8 13
REMARK SMILES IDX 74 14 73 15 3 16 4 17 2 18 1 19 77 20 78 21 79 22 80 23
REMARK SMILES IDX 15 24 16 25 17 26 18 28 19 29 20 30 72 31 21 32 71 33 22 34
REMARK SMILES IDX 23 35 24 36 65 37 25 38 70 39 64 40 66 41 26 42 69 43 63 44
REMARK SMILES IDX 62 45 27 47 53 48 36 49 52 50 37 51 40 52 51 53 67 54 38 55
REMARK SMILES IDX 39 56 50 58 68 59 41 60 28 61 29 62 34 63 30 64 31 65 33 66
REMARK SMILES IDX 35 67 32 68 54 69 55 70 60 71 56 72 57 73 59 74 61 75 58 76
REMARK SMILES IDX 42 77 43 78 48 79 44 80 45 81 47 82 49 83 46 84
REMARK H PARENT 12 6 16 27 66 46 40 57
REMARK Flexibility Score: inf
ROOT
ATOM      1  C   UNL A   1      42.322  19.876  26.806  1.00  0.00     0.042 C 
ENDROOT
BRANCH   1   2
ATOM      2  C   UNL A   1      40.927  20.027  26.187  1.00  0.00     0.118 C 
BRANCH   2   3
ATOM      3  N   UNL A   1      40.479  21.410  26.199  1.00  0.00    -0.352 N 
ATOM      4  C   UNL A   1      39.271  22.033  25.984  1.00  0.00     0.251 C 
ATOM      5  O   UNL A   1      39.241  23.245  26.155  1.00  0.00    -0.269 OA
ATOM      6  H   UNL A   1      41.203  22.043  26.408  1.00  0.00     0.163 HD
BRANCH   4   7
ATOM      7  C   UNL A   1      38.015  21.325  25.586  1.00  0.00     0.042 A 
ATOM      8  C   UNL A   1      33.605  21.071  24.408  1.00  0.00     0.112 A 
ATOM      9  N   UNL A   1      34.429  22.058  24.744  1.00  0.00    -0.233 NA
ATOM     10  N   UNL A   1      34.261  19.855  24.589  1.00  0.00    -0.325 N 
ATOM     11  C   UNL A   1      35.649  21.509  25.023  1.00  0.00     0.090 A 
ATOM     12  C   UNL A   1      35.595  20.137  24.876  1.00  0.00     0.068 A 
ATOM     13  C   UNL A   1      36.860  22.116  25.403  1.00  0.00     0.044 A 
ATOM     14  C   UNL A   1      36.731  19.329  25.017  1.00  0.00     0.029 A 
ATOM     15  C   UNL A   1      37.941  19.956  25.336  1.00  0.00     0.016 A 
BRANCH   8  16
ATOM     16  C   UNL A   1      32.160  21.369  23.982  1.00  0.00     0.052 C 
ATOM     17  C   UNL A   1      31.874  21.374  22.486  1.00  0.00     0.016 C 
BRANCH  16  18
ATOM     18  C   UNL A   1      31.728  22.746  24.575  1.00  0.00     0.008 C 
ATOM     19  C   UNL A   1      30.931  22.674  25.875  1.00  0.00     0.004 C 
ENDBRANCH  16  18
ENDBRANCH   8  16
BRANCH  10  20
ATOM     20  C   UNL A   1      33.783  18.476  24.567  1.00  0.00     0.085 C 
ATOM     21  C   UNL A   1      32.689  18.192  25.602  1.00  0.00     0.031 C 
BRANCH  20  22
ATOM     22  C   UNL A   1      33.552  17.867  23.167  1.00  0.00     0.022 C 
ATOM     23  C   UNL A   1      34.097  16.452  23.003  1.00  0.00     0.006 C 
ENDBRANCH  20  22
ENDBRANCH  10  20
ENDBRANCH   4   7
ENDBRANCH   2   3
ENDBRANCH   1   2
BRANCH   1  24
ATOM     24  C   UNL A   1      43.118  18.707  26.220  1.00  0.00     0.118 C 
BRANCH  24  25
ATOM     25  N   UNL A   1      43.926  19.072  25.071  1.00  0.00    -0.352 N 
ATOM     26  C   UNL A   1      44.535  20.211  24.627  1.00  0.00     0.251 C 
ATOM     27  H   UNL A   1      44.073  18.312  24.463  1.00  0.00     0.163 HD
ATOM     28  O   UNL A   1      45.180  20.104  23.581  1.00  0.00    -0.269 OA
BRANCH  26  29
ATOM     29  C   UNL A   1      44.436  21.554  25.264  1.00  0.00     0.039 A 
ATOM     30  C   UNL A   1      45.167  21.990  26.368  1.00  0.00     0.014 A 
ATOM     31  C   UNL A   1      43.495  22.435  24.694  1.00  0.00     0.014 A 
ATOM     32  C   UNL A   1      44.898  23.231  26.943  1.00  0.00     0.010 A 
ATOM     33  C   UNL A   1      43.239  23.684  25.249  1.00  0.00     0.010 A 
ATOM     34  C   UNL A   1      43.910  24.063  26.404  1.00  0.00    -0.014 A 
BRANCH  34  35
ATOM     35  C   UNL A   1      43.692  25.364  27.034  1.00  0.00     0.031 A 
ATOM     36  C   UNL A   1      44.741  26.379  26.744  1.00  0.00     0.074 A 
ATOM     37  C   UNL A   1      42.598  25.679  27.759  1.00  0.00     0.049 A 
ATOM     38  N   UNL A   1      45.581  26.910  27.571  1.00  0.00    -0.248 NA
ATOM     39  C   UNL A   1      44.955  26.767  25.343  1.00  0.00     0.031 C 
ATOM     40  C   UNL A   1      41.366  24.897  27.901  1.00  0.00     0.029 A 
ATOM     41  N   UNL A   1      42.327  26.815  28.472  1.00  0.00    -0.354 N 
ATOM     42  C   UNL A   1      46.311  27.843  26.832  1.00  0.00     0.074 A 
ATOM     43  C   UNL A   1      45.986  27.608  25.451  1.00  0.00     0.031 C 
ATOM     44  C   UNL A   1      40.411  25.662  28.477  1.00  0.00     0.029 A 
ATOM     45  C   UNL A   1      41.004  26.926  28.882  1.00  0.00     0.049 A 
ATOM     46  H   UNL A   1      43.009  27.495  28.675  1.00  0.00     0.167 HD
ATOM     47  C   UNL A   1      46.933  28.888  27.447  1.00  0.00     0.037 A 
ATOM     48  C   UNL A   1      40.424  27.979  29.503  1.00  0.00     0.037 A 
ATOM     49  C   UNL A   1      47.030  28.667  28.866  1.00  0.00     0.049 A 
ATOM     50  C   UNL A   1      41.484  28.785  30.141  1.00  0.00     0.074 A 
ATOM     51  C   UNL A   1      47.810  27.931  29.729  1.00  0.00     0.029 A 
ATOM     52  N   UNL A   1      45.936  29.095  29.566  1.00  0.00    -0.354 N 
ATOM     53  N   UNL A   1      42.164  28.389  31.179  1.00  0.00    -0.248 NA
ATOM     54  C   UNL A   1      42.023  29.949  29.447  1.00  0.00     0.031 C 
ATOM     55  C   UNL A   1      47.034  27.763  30.916  1.00  0.00     0.029 A 
ATOM     56  C   UNL A   1      45.813  28.414  30.743  1.00  0.00     0.049 A 
ATOM     57  H   UNL A   1      45.320  29.800  29.261  1.00  0.00     0.167 HD
ATOM     58  C   UNL A   1      43.409  28.959  31.006  1.00  0.00     0.074 A 
ATOM     59  C   UNL A   1      43.208  30.044  30.056  1.00  0.00     0.031 C 
ATOM     60  C   UNL A   1      44.533  28.294  31.396  1.00  0.00     0.037 A 
BRANCH  47  61
ATOM     61  C   UNL A   1      46.991  30.307  26.902  1.00  0.00     0.057 A 
ATOM     62  C   UNL A   1      45.863  31.113  26.652  1.00  0.00     0.134 A 
ATOM     63  C   UNL A   1      48.213  31.010  26.982  1.00  0.00     0.134 A 
ATOM     64  F   UNL A   1      44.625  30.617  26.578  1.00  0.00    -0.206 F 
ATOM     65  C   UNL A   1      45.933  32.509  26.566  1.00  0.00     0.040 A 
ATOM     66  C   UNL A   1      48.286  32.408  26.941  1.00  0.00     0.040 A 
ATOM     67  F   UNL A   1      49.369  30.362  27.196  1.00  0.00    -0.206 F 
ATOM     68  C   UNL A   1      47.138  33.164  26.752  1.00  0.00     0.006 A 
ENDBRANCH  47  61
BRANCH  48  69
ATOM     69  C   UNL A   1      39.020  28.435  29.480  1.00  0.00     0.057 A 
ATOM     70  C   UNL A   1      38.505  29.107  28.360  1.00  0.00     0.134 A 
ATOM     71  C   UNL A   1      38.242  28.484  30.646  1.00  0.00     0.134 A 
ATOM     72  F   UNL A   1      39.204  29.172  27.216  1.00  0.00    -0.206 F 
ATOM     73  C   UNL A   1      37.300  29.815  28.404  1.00  0.00     0.040 A 
ATOM     74  C   UNL A   1      37.036  29.192  30.704  1.00  0.00     0.040 A 
ATOM     75  F   UNL A   1      38.667  27.898  31.774  1.00  0.00    -0.206 F 
ATOM     76  C   UNL A   1      36.568  29.873  29.584  1.00  0.00     0.006 A 
ENDBRANCH  48  69
BRANCH  60  77
ATOM     77  C   UNL A   1      44.356  27.232  32.432  1.00  0.00     0.057 A 
ATOM     78  C   UNL A   1      44.259  25.903  32.012  1.00  0.00     0.134 A 
ATOM     79  C   UNL A   1      44.243  27.484  33.806  1.00  0.00     0.134 A 
ATOM     80  F   UNL A   1      44.314  25.600  30.706  1.00  0.00    -0.206 F 
ATOM     81  C   UNL A   1      44.078  24.859  32.919  1.00  0.00     0.040 A 
ATOM     82  C   UNL A   1      44.096  26.444  34.728  1.00  0.00     0.040 A 
ATOM     83  F   UNL A   1      44.246  28.734  34.285  1.00  0.00    -0.206 F 
ATOM     84  C   UNL A   1      44.013  25.126  34.284  1.00  0.00     0.006 A 
ENDBRANCH  60  77
ENDBRANCH  34  35
ENDBRANCH  26  29
ENDBRANCH  24  25
ENDBRANCH   1  24
TORSDOF 14
ENDMDL
