MODEL 1
REMARK VINA RESULT:     -11.3      0.000      0.000
REMARK SMILES Cc1n[nH]c(C)c1S(=O)(=O)N[C@H](C(=O)NCCCNC(=O)c1ccc(-c2c3nc(c(-c4c(F)cccc4F)c4ccc([nH]4)c(-c4c(F)cccc4F)c4nc(c(-c5c(F)cccc5F)c5ccc2[nH]5)C=C4)C=C3)cc1)C(C)C
REMARK SMILES IDX 16 1 15 2 13 3 14 4 12 6 11 7 8 9 9 10 10 11 7 12 1 13 2 14
REMARK SMILES IDX 3 15 4 16 5 17 6 19 76 20 77 21 78 22 17 23 18 24 19 25
REMARK SMILES IDX 20 26 21 28 22 29 23 30 75 31 24 32 74 33 25 34 26 35 27 36
REMARK SMILES IDX 68 37 28 38 73 39 67 40 69 41 29 42 72 43 66 44 65 45 30 47
REMARK SMILES IDX 56 48 39 49 55 50 40 51 43 52 54 53 70 54 41 55 42 56 53 58
REMARK SMILES IDX 71 59 44 60 31 61 32 62 37 63 33 64 34 65 36 66 38 67 35 68
REMARK SMILES IDX 57 69 58 70 63 71 59 72 60 73 62 74 64 75 61 76 45 77 46 78
REMARK SMILES IDX 51 79 47 80 48 81 50 82 52 83 49 84
REMARK H PARENT 15 5 11 8 4 18 19 27 69 46 43 57
REMARK Flexibility Score: inf
ROOT
ATOM      1  C   UNL A   1      36.524  20.649  25.073  1.00  0.00     0.117 C 
ENDROOT
BRANCH   1   2
ATOM      2  N   UNL A   1      36.503  21.776  24.155  1.00  0.00    -0.355 N 
ATOM      3  C   UNL A   1      35.476  22.529  23.675  1.00  0.00     0.238 C 
ATOM      4  O   UNL A   1      35.743  23.325  22.765  1.00  0.00    -0.273 OA
ATOM      5  H   UNL A   1      37.389  22.042  23.819  1.00  0.00     0.163 HD
BRANCH   3   6
ATOM      6  C   UNL A   1      34.030  22.449  24.263  1.00  0.00     0.161 C 
BRANCH   6   7
ATOM      7  N   UNL A   1      33.585  23.839  23.963  1.00  0.00    -0.198 NA
ATOM      8  H   UNL A   1      34.340  24.247  23.413  1.00  0.00     0.142 HD
BRANCH   7   9
ATOM      9  S   UNL A   1      33.181  24.998  25.077  1.00  0.00     0.244 S 
ATOM     10  O   UNL A   1      32.919  26.232  24.381  1.00  0.00    -0.207 OA
ATOM     11  O   UNL A   1      34.178  24.932  26.124  1.00  0.00    -0.207 OA
BRANCH   9  12
ATOM     12  C   UNL A   1      31.719  24.571  25.864  1.00  0.00     0.125 A 
ATOM     13  C   UNL A   1      32.542  22.624  27.414  1.00  0.00     0.070 C 
ATOM     14  C   UNL A   1      31.544  23.561  26.838  1.00  0.00     0.079 A 
ATOM     15  N   UNL A   1      30.268  23.507  27.250  1.00  0.00    -0.179 NA
ATOM     16  N   UNL A   1      29.636  24.421  26.499  1.00  0.00    -0.281 N 
ATOM     17  C   UNL A   1      30.461  25.105  25.649  1.00  0.00     0.052 A 
ATOM     18  H   UNL A   1      28.668  24.586  26.555  1.00  0.00     0.190 HD
ATOM     19  C   UNL A   1      29.959  26.147  24.726  1.00  0.00     0.067 C 
ENDBRANCH   9  12
ENDBRANCH   7   9
ENDBRANCH   6   7
BRANCH   6  20
ATOM     20  C   UNL A   1      33.204  21.345  23.564  1.00  0.00     0.010 C 
ATOM     21  C   UNL A   1      32.609  20.353  24.571  1.00  0.00     0.009 C 
ATOM     22  C   UNL A   1      32.029  21.903  22.747  1.00  0.00     0.009 C 
ENDBRANCH   6  20
ENDBRANCH   3   6
ENDBRANCH   1   2
BRANCH   1  23
ATOM     23  C   UNL A   1      37.802  19.822  24.923  1.00  0.00     0.042 C 
BRANCH  23  24
ATOM     24  C   UNL A   1      38.964  20.300  25.792  1.00  0.00     0.118 C 
BRANCH  24  25
ATOM     25  N   UNL A   1      40.012  19.298  25.904  1.00  0.00    -0.352 N 
ATOM     26  C   UNL A   1      41.370  19.456  26.047  1.00  0.00     0.251 C 
ATOM     27  H   UNL A   1      39.701  18.366  25.872  1.00  0.00     0.163 HD
ATOM     28  O   UNL A   1      42.106  18.484  25.890  1.00  0.00    -0.269 OA
BRANCH  26  29
ATOM     29  C   UNL A   1      41.966  20.775  26.373  1.00  0.00     0.039 A 
ATOM     30  C   UNL A   1      42.149  21.118  27.718  1.00  0.00     0.014 A 
ATOM     31  C   UNL A   1      42.275  21.705  25.378  1.00  0.00     0.014 A 
ATOM     32  C   UNL A   1      42.681  22.367  28.059  1.00  0.00     0.010 A 
ATOM     33  C   UNL A   1      42.877  22.918  25.715  1.00  0.00     0.010 A 
ATOM     34  C   UNL A   1      43.069  23.271  27.060  1.00  0.00    -0.014 A 
BRANCH  34  35
ATOM     35  C   UNL A   1      43.627  24.611  27.387  1.00  0.00     0.031 A 
ATOM     36  C   UNL A   1      42.706  25.722  27.817  1.00  0.00     0.074 A 
ATOM     37  C   UNL A   1      44.940  24.860  27.229  1.00  0.00     0.049 A 
ATOM     38  N   UNL A   1      42.966  26.990  28.011  1.00  0.00    -0.248 NA
ATOM     39  C   UNL A   1      41.294  25.361  28.024  1.00  0.00     0.031 C 
ATOM     40  C   UNL A   1      45.942  23.887  26.790  1.00  0.00     0.029 A 
ATOM     41  N   UNL A   1      45.656  26.021  27.398  1.00  0.00    -0.354 N 
ATOM     42  C   UNL A   1      41.749  27.583  28.326  1.00  0.00     0.074 A 
ATOM     43  C   UNL A   1      40.745  26.544  28.257  1.00  0.00     0.031 C 
ATOM     44  C   UNL A   1      47.141  24.487  26.733  1.00  0.00     0.029 A 
ATOM     45  C   UNL A   1      46.989  25.895  27.093  1.00  0.00     0.049 A 
ATOM     46  H   UNL A   1      45.251  26.862  27.710  1.00  0.00     0.167 HD
ATOM     47  C   UNL A   1      41.491  28.870  28.658  1.00  0.00     0.037 A 
ATOM     48  C   UNL A   1      47.976  26.812  27.086  1.00  0.00     0.037 A 
ATOM     49  C   UNL A   1      42.494  29.896  28.771  1.00  0.00     0.049 A 
ATOM     50  C   UNL A   1      47.673  28.232  27.474  1.00  0.00     0.074 A 
ATOM     51  C   UNL A   1      42.341  31.213  29.168  1.00  0.00     0.029 A 
ATOM     52  N   UNL A   1      43.841  29.716  28.491  1.00  0.00    -0.354 N 
ATOM     53  N   UNL A   1      46.526  28.769  27.814  1.00  0.00    -0.248 NA
ATOM     54  C   UNL A   1      48.801  29.175  27.482  1.00  0.00     0.031 C 
ATOM     55  C   UNL A   1      43.590  31.840  29.094  1.00  0.00     0.029 A 
ATOM     56  C   UNL A   1      44.527  30.901  28.692  1.00  0.00     0.049 A 
ATOM     57  H   UNL A   1      44.248  28.870  28.193  1.00  0.00     0.167 HD
ATOM     58  C   UNL A   1      46.798  30.100  28.103  1.00  0.00     0.074 A 
ATOM     59  C   UNL A   1      48.219  30.290  27.904  1.00  0.00     0.031 C 
ATOM     60  C   UNL A   1      45.945  31.074  28.503  1.00  0.00     0.037 A 
BRANCH  47  61
ATOM     61  C   UNL A   1      40.060  29.240  28.917  1.00  0.00     0.057 A 
ATOM     62  C   UNL A   1      39.146  29.442  27.874  1.00  0.00     0.134 A 
ATOM     63  C   UNL A   1      39.585  29.388  30.227  1.00  0.00     0.134 A 
ATOM     64  F   UNL A   1      39.537  29.329  26.596  1.00  0.00    -0.206 F 
ATOM     65  C   UNL A   1      37.823  29.813  28.123  1.00  0.00     0.040 A 
ATOM     66  C   UNL A   1      38.257  29.730  30.489  1.00  0.00     0.040 A 
ATOM     67  F   UNL A   1      40.404  29.201  31.273  1.00  0.00    -0.206 F 
ATOM     68  C   UNL A   1      37.375  29.954  29.436  1.00  0.00     0.006 A 
ENDBRANCH  47  61
BRANCH  48  69
ATOM     69  C   UNL A   1      49.353  26.404  26.717  1.00  0.00     0.057 A 
ATOM     70  C   UNL A   1      50.258  25.962  27.690  1.00  0.00     0.134 A 
ATOM     71  C   UNL A   1      49.793  26.427  25.388  1.00  0.00     0.134 A 
ATOM     72  F   UNL A   1      49.899  25.936  28.982  1.00  0.00    -0.206 F 
ATOM     73  C   UNL A   1      51.553  25.566  27.356  1.00  0.00     0.040 A 
ATOM     74  C   UNL A   1      51.080  26.014  25.038  1.00  0.00     0.040 A 
ATOM     75  F   UNL A   1      48.971  26.834  24.410  1.00  0.00    -0.206 F 
ATOM     76  C   UNL A   1      51.965  25.585  26.024  1.00  0.00     0.006 A 
ENDBRANCH  48  69
BRANCH  60  77
ATOM     77  C   UNL A   1      46.527  32.426  28.795  1.00  0.00     0.057 A 
ATOM     78  C   UNL A   1      47.028  32.758  30.058  1.00  0.00     0.134 A 
ATOM     79  C   UNL A   1      46.639  33.384  27.779  1.00  0.00     0.134 A 
ATOM     80  F   UNL A   1      46.939  31.888  31.076  1.00  0.00    -0.206 F 
ATOM     81  C   UNL A   1      47.610  34.003  30.305  1.00  0.00     0.040 A 
ATOM     82  C   UNL A   1      47.239  34.622  28.008  1.00  0.00     0.040 A 
ATOM     83  F   UNL A   1      46.186  33.123  26.543  1.00  0.00    -0.206 F 
ATOM     84  C   UNL A   1      47.725  34.935  29.276  1.00  0.00     0.006 A 
ENDBRANCH  60  77
ENDBRANCH  34  35
ENDBRANCH  26  29
ENDBRANCH  24  25
ENDBRANCH  23  24
ENDBRANCH   1  23
TORSDOF 14
ENDMDL
MODEL 2
REMARK VINA RESULT:     -11.2      5.788      9.734
REMARK SMILES Cc1n[nH]c(C)c1S(=O)(=O)N[C@H](C(=O)NCCCNC(=O)c1ccc(-c2c3nc(c(-c4c(F)cccc4F)c4ccc([nH]4)c(-c4c(F)cccc4F)c4nc(c(-c5c(F)cccc5F)c5ccc2[nH]5)C=C4)C=C3)cc1)C(C)C
REMARK SMILES IDX 16 1 15 2 13 3 14 4 12 6 11 7 8 9 9 10 10 11 7 12 1 13 2 14
REMARK SMILES IDX 3 15 4 16 5 17 6 19 76 20 77 21 78 22 17 23 18 24 19 25
REMARK SMILES IDX 20 26 21 28 22 29 23 30 75 31 24 32 74 33 25 34 26 35 27 36
REMARK SMILES IDX 68 37 28 38 73 39 67 40 69 41 29 42 72 43 66 44 65 45 30 47
REMARK SMILES IDX 56 48 39 49 55 50 40 51 43 52 54 53 70 54 41 55 42 56 53 58
REMARK SMILES IDX 71 59 44 60 31 61 32 62 37 63 33 64 34 65 36 66 38 67 35 68
REMARK SMILES IDX 57 69 58 70 63 71 59 72 60 73 62 74 64 75 61 76 45 77 46 78
REMARK SMILES IDX 51 79 47 80 48 81 50 82 52 83 49 84
REMARK H PARENT 15 5 11 8 4 18 19 27 69 46 43 57
REMARK Flexibility Score: inf
ROOT
ATOM      1  C   UNL A   1      44.948  26.420  25.907  1.00  0.00     0.117 C 
ENDROOT
BRANCH   1   2
ATOM      2  N   UNL A   1      45.886  25.423  26.398  1.00  0.00    -0.355 N 
ATOM      3  C   UNL A   1      45.693  24.267  27.089  1.00  0.00     0.238 C 
ATOM      4  O   UNL A   1      46.704  23.700  27.523  1.00  0.00    -0.273 OA
ATOM      5  H   UNL A   1      46.829  25.620  26.195  1.00  0.00     0.163 HD
BRANCH   3   6
ATOM      6  C   UNL A   1      44.278  23.637  27.294  1.00  0.00     0.161 C 
BRANCH   6   7
ATOM      7  N   UNL A   1      44.545  22.286  26.727  1.00  0.00    -0.198 NA
ATOM      8  H   UNL A   1      45.550  22.263  26.557  1.00  0.00     0.142 HD
BRANCH   7   9
ATOM      9  S   UNL A   1      43.859  21.645  25.361  1.00  0.00     0.244 S 
ATOM     10  O   UNL A   1      44.892  21.443  24.378  1.00  0.00    -0.207 OA
ATOM     11  O   UNL A   1      42.697  22.453  25.063  1.00  0.00    -0.207 OA
BRANCH   9  12
ATOM     12  C   UNL A   1      43.212  20.094  25.704  1.00  0.00     0.125 A 
ATOM     13  C   UNL A   1      45.250  18.562  25.098  1.00  0.00     0.070 C 
ATOM     14  C   UNL A   1      43.871  18.851  25.568  1.00  0.00     0.079 A 
ATOM     15  N   UNL A   1      43.070  17.840  25.937  1.00  0.00    -0.179 NA
ATOM     16  N   UNL A   1      41.903  18.430  26.235  1.00  0.00    -0.281 N 
ATOM     17  C   UNL A   1      41.928  19.793  26.123  1.00  0.00     0.052 A 
ATOM     18  H   UNL A   1      41.102  17.929  26.510  1.00  0.00     0.190 HD
ATOM     19  C   UNL A   1      40.740  20.632  26.396  1.00  0.00     0.067 C 
ENDBRANCH   9  12
ENDBRANCH   7   9
ENDBRANCH   6   7
BRANCH   6  20
ATOM     20  C   UNL A   1      43.877  23.640  28.786  1.00  0.00     0.010 C 
ATOM     21  C   UNL A   1      43.772  25.063  29.348  1.00  0.00     0.009 C 
ATOM     22  C   UNL A   1      42.522  22.963  29.044  1.00  0.00     0.009 C 
ENDBRANCH   6  20
ENDBRANCH   3   6
ENDBRANCH   1   2
BRANCH   1  23
ATOM     23  C   UNL A   1      43.898  25.801  24.982  1.00  0.00     0.042 C 
BRANCH  23  24
ATOM     24  C   UNL A   1      42.492  26.372  25.159  1.00  0.00     0.118 C 
BRANCH  24  25
ATOM     25  N   UNL A   1      41.496  25.328  25.333  1.00  0.00    -0.352 N 
ATOM     26  C   UNL A   1      40.706  25.034  26.420  1.00  0.00     0.251 C 
ATOM     27  H   UNL A   1      41.367  24.742  24.553  1.00  0.00     0.163 HD
ATOM     28  O   UNL A   1      40.095  23.969  26.445  1.00  0.00    -0.269 OA
BRANCH  26  29
ATOM     29  C   UNL A   1      40.588  25.970  27.565  1.00  0.00     0.039 A 
ATOM     30  C   UNL A   1      39.614  25.725  28.539  1.00  0.00     0.014 A 
ATOM     31  C   UNL A   1      41.371  27.124  27.651  1.00  0.00     0.014 A 
ATOM     32  C   UNL A   1      39.458  26.605  29.617  1.00  0.00     0.010 A 
ATOM     33  C   UNL A   1      41.268  27.959  28.764  1.00  0.00     0.010 A 
ATOM     34  C   UNL A   1      40.298  27.720  29.750  1.00  0.00    -0.014 A 
BRANCH  34  35
ATOM     35  C   UNL A   1      40.152  28.682  30.876  1.00  0.00     0.031 A 
ATOM     36  C   UNL A   1      39.129  29.784  30.793  1.00  0.00     0.074 A 
ATOM     37  C   UNL A   1      40.981  28.623  31.935  1.00  0.00     0.049 A 
ATOM     38  N   UNL A   1      38.935  30.802  31.592  1.00  0.00    -0.248 NA
ATOM     39  C   UNL A   1      38.221  29.750  29.634  1.00  0.00     0.031 C 
ATOM     40  C   UNL A   1      42.037  27.630  32.131  1.00  0.00     0.029 A 
ATOM     41  N   UNL A   1      41.078  29.435  33.039  1.00  0.00    -0.354 N 
ATOM     42  C   UNL A   1      37.914  31.548  31.016  1.00  0.00     0.074 A 
ATOM     43  C   UNL A   1      37.556  30.887  29.780  1.00  0.00     0.031 C 
ATOM     44  C   UNL A   1      42.669  27.884  33.288  1.00  0.00     0.029 A 
ATOM     45  C   UNL A   1      42.091  29.080  33.896  1.00  0.00     0.049 A 
ATOM     46  H   UNL A   1      40.477  30.198  33.201  1.00  0.00     0.167 HD
ATOM     47  C   UNL A   1      37.315  32.670  31.481  1.00  0.00     0.037 A 
ATOM     48  C   UNL A   1      42.518  29.660  35.034  1.00  0.00     0.037 A 
ATOM     49  C   UNL A   1      37.639  33.305  32.731  1.00  0.00     0.049 A 
ATOM     50  C   UNL A   1      41.830  30.896  35.541  1.00  0.00     0.074 A 
ATOM     51  C   UNL A   1      37.042  34.406  33.320  1.00  0.00     0.029 A 
ATOM     52  N   UNL A   1      38.646  32.888  33.589  1.00  0.00    -0.354 N 
ATOM     53  N   UNL A   1      40.835  31.564  35.011  1.00  0.00    -0.248 NA
ATOM     54  C   UNL A   1      42.320  31.458  36.809  1.00  0.00     0.031 C 
ATOM     55  C   UNL A   1      37.711  34.677  34.518  1.00  0.00     0.029 A 
ATOM     56  C   UNL A   1      38.697  33.719  34.695  1.00  0.00     0.049 A 
ATOM     57  H   UNL A   1      39.237  32.116  33.434  1.00  0.00     0.167 HD
ATOM     58  C   UNL A   1      40.562  32.605  35.889  1.00  0.00     0.074 A 
ATOM     59  C   UNL A   1      41.492  32.478  36.991  1.00  0.00     0.031 C 
ATOM     60  C   UNL A   1      39.620  33.574  35.793  1.00  0.00     0.037 A 
BRANCH  47  61
ATOM     61  C   UNL A   1      36.251  33.288  30.621  1.00  0.00     0.057 A 
ATOM     62  C   UNL A   1      36.562  34.040  29.480  1.00  0.00     0.134 A 
ATOM     63  C   UNL A   1      34.895  33.121  30.932  1.00  0.00     0.134 A 
ATOM     64  F   UNL A   1      37.841  34.249  29.132  1.00  0.00    -0.206 F 
ATOM     65  C   UNL A   1      35.568  34.633  28.702  1.00  0.00     0.040 A 
ATOM     66  C   UNL A   1      33.890  33.686  30.145  1.00  0.00     0.040 A 
ATOM     67  F   UNL A   1      34.525  32.405  32.005  1.00  0.00    -0.206 F 
ATOM     68  C   UNL A   1      34.225  34.453  29.033  1.00  0.00     0.006 A 
ENDBRANCH  47  61
BRANCH  48  69
ATOM     69  C   UNL A   1      43.647  29.058  35.784  1.00  0.00     0.057 A 
ATOM     70  C   UNL A   1      43.445  27.967  36.637  1.00  0.00     0.134 A 
ATOM     71  C   UNL A   1      44.954  29.544  35.655  1.00  0.00     0.134 A 
ATOM     72  F   UNL A   1      42.212  27.470  36.815  1.00  0.00    -0.206 F 
ATOM     73  C   UNL A   1      44.500  27.385  37.341  1.00  0.00     0.040 A 
ATOM     74  C   UNL A   1      46.021  28.958  36.337  1.00  0.00     0.040 A 
ATOM     75  F   UNL A   1      45.213  30.584  34.848  1.00  0.00    -0.206 F 
ATOM     76  C   UNL A   1      45.795  27.877  37.186  1.00  0.00     0.006 A 
ENDBRANCH  48  69
BRANCH  60  77
ATOM     77  C   UNL A   1      39.515  34.553  36.924  1.00  0.00     0.057 A 
ATOM     78  C   UNL A   1      38.824  34.250  38.103  1.00  0.00     0.134 A 
ATOM     79  C   UNL A   1      40.166  35.791  36.854  1.00  0.00     0.134 A 
ATOM     80  F   UNL A   1      38.170  33.084  38.228  1.00  0.00    -0.206 F 
ATOM     81  C   UNL A   1      38.773  35.150  39.169  1.00  0.00     0.040 A 
ATOM     82  C   UNL A   1      40.141  36.690  37.921  1.00  0.00     0.040 A 
ATOM     83  F   UNL A   1      40.853  36.139  35.755  1.00  0.00    -0.206 F 
ATOM     84  C   UNL A   1      39.441  36.370  39.082  1.00  0.00     0.006 A 
ENDBRANCH  60  77
ENDBRANCH  34  35
ENDBRANCH  26  29
ENDBRANCH  24  25
ENDBRANCH  23  24
ENDBRANCH   1  23
TORSDOF 14
ENDMDL
MODEL 3
REMARK VINA RESULT:     -11.2      1.416      2.016
REMARK SMILES Cc1n[nH]c(C)c1S(=O)(=O)N[C@H](C(=O)NCCCNC(=O)c1ccc(-c2c3nc(c(-c4c(F)cccc4F)c4ccc([nH]4)c(-c4c(F)cccc4F)c4nc(c(-c5c(F)cccc5F)c5ccc2[nH]5)C=C4)C=C3)cc1)C(C)C
REMARK SMILES IDX 16 1 15 2 13 3 14 4 12 6 11 7 8 9 9 10 10 11 7 12 1 13 2 14
REMARK SMILES IDX 3 15 4 16 5 17 6 19 76 20 77 21 78 22 17 23 18 24 19 25
REMARK SMILES IDX 20 26 21 28 22 29 23 30 75 31 24 32 74 33 25 34 26 35 27 36
REMARK SMILES IDX 68 37 28 38 73 39 67 40 69 41 29 42 72 43 66 44 65 45 30 47
REMARK SMILES IDX 56 48 39 49 55 50 40 51 43 52 54 53 70 54 41 55 42 56 53 58
REMARK SMILES IDX 71 59 44 60 31 61 32 62 37 63 33 64 34 65 36 66 38 67 35 68
REMARK SMILES IDX 57 69 58 70 63 71 59 72 60 73 62 74 64 75 61 76 45 77 46 78
REMARK SMILES IDX 51 79 47 80 48 81 50 82 52 83 49 84
REMARK H PARENT 15 5 11 8 4 18 19 27 69 46 43 57
REMARK Flexibility Score: inf
ROOT
ATOM      1  C   UNL A   1      36.304  20.567  25.001  1.00  0.00     0.117 C 
ENDROOT
BRANCH   1   2
ATOM      2  N   UNL A   1      35.032  19.863  24.990  1.00  0.00    -0.355 N 
ATOM      3  C   UNL A   1      33.754  20.309  25.124  1.00  0.00     0.238 C 
ATOM      4  O   UNL A   1      32.871  19.450  25.244  1.00  0.00    -0.273 OA
ATOM      5  H   UNL A   1      35.109  18.890  24.864  1.00  0.00     0.163 HD
BRANCH   3   6
ATOM      6  C   UNL A   1      33.385  21.827  25.079  1.00  0.00     0.161 C 
BRANCH   6   7
ATOM      7  N   UNL A   1      33.298  21.997  23.602  1.00  0.00    -0.198 NA
ATOM      8  H   UNL A   1      33.686  21.139  23.211  1.00  0.00     0.142 HD
BRANCH   7   9
ATOM      9  S   UNL A   1      33.978  23.223  22.716  1.00  0.00     0.244 S 
ATOM     10  O   UNL A   1      33.277  23.327  21.462  1.00  0.00    -0.207 OA
ATOM     11  O   UNL A   1      35.409  23.017  22.754  1.00  0.00    -0.207 OA
BRANCH   9  12
ATOM     12  C   UNL A   1      33.750  24.721  23.519  1.00  0.00     0.125 A 
ATOM     13  C   UNL A   1      35.417  24.465  25.526  1.00  0.00     0.070 C 
ATOM     14  C   UNL A   1      34.403  25.162  24.694  1.00  0.00     0.079 A 
ATOM     15  N   UNL A   1      33.992  26.392  25.038  1.00  0.00    -0.179 NA
ATOM     16  N   UNL A   1      33.048  26.694  24.134  1.00  0.00    -0.281 N 
ATOM     17  C   UNL A   1      32.863  25.728  23.184  1.00  0.00     0.052 A 
ATOM     18  H   UNL A   1      32.536  27.534  24.153  1.00  0.00     0.190 HD
ATOM     19  C   UNL A   1      31.860  25.862  22.104  1.00  0.00     0.067 C 
ENDBRANCH   9  12
ENDBRANCH   7   9
ENDBRANCH   6   7
BRANCH   6  20
ATOM     20  C   UNL A   1      32.066  22.104  25.835  1.00  0.00     0.010 C 
ATOM     21  C   UNL A   1      32.295  22.954  27.091  1.00  0.00     0.009 C 
ATOM     22  C   UNL A   1      31.030  22.849  24.980  1.00  0.00     0.009 C 
ENDBRANCH   6  20
ENDBRANCH   3   6
ENDBRANCH   1   2
BRANCH   1  23
ATOM     23  C   UNL A   1      37.487  19.597  25.001  1.00  0.00     0.042 C 
BRANCH  23  24
ATOM     24  C   UNL A   1      38.796  20.204  25.502  1.00  0.00     0.118 C 
BRANCH  24  25
ATOM     25  N   UNL A   1      39.809  19.191  25.751  1.00  0.00    -0.352 N 
ATOM     26  C   UNL A   1      41.144  19.334  26.048  1.00  0.00     0.251 C 
ATOM     27  H   UNL A   1      39.490  18.262  25.698  1.00  0.00     0.163 HD
ATOM     28  O   UNL A   1      41.878  18.350  25.994  1.00  0.00    -0.269 OA
BRANCH  26  29
ATOM     29  C   UNL A   1      41.717  20.651  26.420  1.00  0.00     0.039 A 
ATOM     30  C   UNL A   1      41.879  20.957  27.776  1.00  0.00     0.014 A 
ATOM     31  C   UNL A   1      42.025  21.614  25.456  1.00  0.00     0.014 A 
ATOM     32  C   UNL A   1      42.389  22.203  28.161  1.00  0.00     0.010 A 
ATOM     33  C   UNL A   1      42.606  22.824  25.836  1.00  0.00     0.010 A 
ATOM     34  C   UNL A   1      42.777  23.141  27.193  1.00  0.00    -0.014 A 
BRANCH  34  35
ATOM     35  C   UNL A   1      43.312  24.478  27.566  1.00  0.00     0.031 A 
ATOM     36  C   UNL A   1      42.370  25.566  28.009  1.00  0.00     0.074 A 
ATOM     37  C   UNL A   1      44.624  24.748  27.436  1.00  0.00     0.049 A 
ATOM     38  N   UNL A   1      42.610  26.832  28.242  1.00  0.00    -0.248 NA
ATOM     39  C   UNL A   1      40.959  25.182  28.182  1.00  0.00     0.031 C 
ATOM     40  C   UNL A   1      45.646  23.800  26.989  1.00  0.00     0.029 A 
ATOM     41  N   UNL A   1      45.322  25.912  27.649  1.00  0.00    -0.354 N 
ATOM     42  C   UNL A   1      41.380  27.400  28.551  1.00  0.00     0.074 A 
ATOM     43  C   UNL A   1      40.391  26.351  28.438  1.00  0.00     0.031 C 
ATOM     44  C   UNL A   1      46.838  24.416  26.969  1.00  0.00     0.029 A 
ATOM     45  C   UNL A   1      46.662  25.811  27.363  1.00  0.00     0.049 A 
ATOM     46  H   UNL A   1      44.902  26.739  27.977  1.00  0.00     0.167 HD
ATOM     47  C   UNL A   1      41.101  28.675  28.914  1.00  0.00     0.037 A 
ATOM     48  C   UNL A   1      47.637  26.740  27.398  1.00  0.00     0.037 A 
ATOM     49  C   UNL A   1      42.089  29.709  29.072  1.00  0.00     0.049 A 
ATOM     50  C   UNL A   1      47.309  28.145  27.819  1.00  0.00     0.074 A 
ATOM     51  C   UNL A   1      41.912  31.013  29.501  1.00  0.00     0.029 A 
ATOM     52  N   UNL A   1      43.442  29.554  28.810  1.00  0.00    -0.354 N 
ATOM     53  N   UNL A   1      46.150  28.658  28.154  1.00  0.00    -0.248 NA
ATOM     54  C   UNL A   1      48.425  29.101  27.872  1.00  0.00     0.031 C 
ATOM     55  C   UNL A   1      43.154  31.657  29.466  1.00  0.00     0.029 A 
ATOM     56  C   UNL A   1      44.109  30.741  29.055  1.00  0.00     0.049 A 
ATOM     57  H   UNL A   1      43.864  28.722  28.496  1.00  0.00     0.167 HD
ATOM     58  C   UNL A   1      46.400  29.984  28.483  1.00  0.00     0.074 A 
ATOM     59  C   UNL A   1      47.822  30.197  28.313  1.00  0.00     0.031 C 
ATOM     60  C   UNL A   1      45.529  30.937  28.895  1.00  0.00     0.037 A 
BRANCH  47  61
ATOM     61  C   UNL A   1      39.660  29.020  29.159  1.00  0.00     0.057 A 
ATOM     62  C   UNL A   1      38.813  29.441  28.125  1.00  0.00     0.134 A 
ATOM     63  C   UNL A   1      39.110  28.921  30.442  1.00  0.00     0.134 A 
ATOM     64  F   UNL A   1      39.280  29.569  26.873  1.00  0.00    -0.206 F 
ATOM     65  C   UNL A   1      37.483  29.786  28.365  1.00  0.00     0.040 A 
ATOM     66  C   UNL A   1      37.773  29.236  30.691  1.00  0.00     0.040 A 
ATOM     67  F   UNL A   1      39.862  28.516  31.477  1.00  0.00    -0.206 F 
ATOM     68  C   UNL A   1      36.958  29.680  29.652  1.00  0.00     0.006 A 
ENDBRANCH  47  61
BRANCH  48  69
ATOM     69  C   UNL A   1      49.026  26.359  27.042  1.00  0.00     0.057 A 
ATOM     70  C   UNL A   1      49.483  26.457  25.724  1.00  0.00     0.134 A 
ATOM     71  C   UNL A   1      49.931  25.907  28.010  1.00  0.00     0.134 A 
ATOM     72  F   UNL A   1      48.655  26.866  24.750  1.00  0.00    -0.206 F 
ATOM     73  C   UNL A   1      50.790  26.112  25.377  1.00  0.00     0.040 A 
ATOM     74  C   UNL A   1      51.247  25.579  27.680  1.00  0.00     0.040 A 
ATOM     75  F   UNL A   1      49.554  25.798  29.292  1.00  0.00    -0.206 F 
ATOM     76  C   UNL A   1      51.679  25.677  26.359  1.00  0.00     0.006 A 
ENDBRANCH  48  69
BRANCH  60  77
ATOM     77  C   UNL A   1      46.088  32.287  29.233  1.00  0.00     0.057 A 
ATOM     78  C   UNL A   1      46.567  32.590  30.512  1.00  0.00     0.134 A 
ATOM     79  C   UNL A   1      46.200  33.275  28.246  1.00  0.00     0.134 A 
ATOM     80  F   UNL A   1      46.478  31.690  31.503  1.00  0.00    -0.206 F 
ATOM     81  C   UNL A   1      47.130  33.834  30.802  1.00  0.00     0.040 A 
ATOM     82  C   UNL A   1      46.780  34.515  28.519  1.00  0.00     0.040 A 
ATOM     83  F   UNL A   1      45.767  33.044  26.998  1.00  0.00    -0.206 F 
ATOM     84  C   UNL A   1      47.245  34.797  29.801  1.00  0.00     0.006 A 
ENDBRANCH  60  77
ENDBRANCH  34  35
ENDBRANCH  26  29
ENDBRANCH  24  25
ENDBRANCH  23  24
ENDBRANCH   1  23
TORSDOF 14
ENDMDL
