MODEL 1
REMARK VINA RESULT:     -12.3      0.000      0.000
REMARK SMILES O=C(NCCCNC(=O)[C@@H]1C=C[C@@H](NS(=O)(=O)c2ccc(F)c(F)c2F)C1)c1ccc(-c2c3nc(c(-c4c(F)cccc4F)c4ccc([nH]4)c(-c4c(F)cccc4F)c4nc(c(-c5c(F)cccc5F)c5ccc2[nH]5)C=C4)C=C3)cc1
REMARK SMILES IDX 5 1 4 2 3 3 1 4 2 5 28 7 29 8 81 9 30 10 80 11 31 12 32 13
REMARK SMILES IDX 33 14 74 15 34 16 79 17 73 18 75 19 35 20 78 21 72 22 71 23
REMARK SMILES IDX 36 25 62 26 45 27 61 28 46 29 49 30 60 31 76 32 47 33 48 34
REMARK SMILES IDX 59 36 77 37 50 38 37 39 38 40 43 41 39 42 40 43 42 44 44 45
REMARK SMILES IDX 41 46 63 47 64 48 69 49 65 50 66 51 68 52 70 53 67 54 51 55
REMARK SMILES IDX 52 56 57 57 53 58 54 59 56 60 58 61 55 62 6 63 7 64 8 65
REMARK SMILES IDX 9 67 10 68 11 69 27 70 12 71 13 72 14 73 15 75 16 76 17 77
REMARK SMILES IDX 18 78 19 79 25 80 20 81 23 82 26 83 21 84 24 85 22 86
REMARK H PARENT 3 6 75 24 49 35 7 66 14 74
REMARK Flexibility Score: inf
ROOT
ATOM      1  C   UNL A   1      30.900  31.505  26.413  1.00  0.00     0.042 C 
ENDROOT
BRANCH   1   2
ATOM      2  C   UNL A   1      32.272  32.117  26.649  1.00  0.00     0.118 C 
BRANCH   2   3
ATOM      3  N   UNL A   1      32.187  33.493  27.113  1.00  0.00    -0.352 N 
ATOM      4  O   UNL A   1      32.604  35.267  28.434  1.00  0.00    -0.269 OA
ATOM      5  C   UNL A   1      32.940  34.148  28.059  1.00  0.00     0.251 C 
ATOM      6  H   UNL A   1      31.484  34.036  26.688  1.00  0.00     0.163 HD
BRANCH   5   7
ATOM      7  C   UNL A   1      34.146  33.512  28.638  1.00  0.00     0.039 A 
ATOM      8  C   UNL A   1      35.357  34.202  28.714  1.00  0.00     0.014 A 
ATOM      9  C   UNL A   1      34.052  32.216  29.159  1.00  0.00     0.014 A 
ATOM     10  C   UNL A   1      36.496  33.557  29.184  1.00  0.00     0.010 A 
ATOM     11  C   UNL A   1      35.178  31.601  29.721  1.00  0.00     0.010 A 
ATOM     12  C   UNL A   1      36.415  32.260  29.720  1.00  0.00    -0.014 A 
BRANCH  12  13
ATOM     13  C   UNL A   1      37.627  31.677  30.351  1.00  0.00     0.031 A 
ATOM     14  C   UNL A   1      37.988  31.959  31.780  1.00  0.00     0.074 A 
ATOM     15  C   UNL A   1      38.372  30.822  29.620  1.00  0.00     0.049 A 
ATOM     16  N   UNL A   1      38.957  31.448  32.499  1.00  0.00    -0.248 NA
ATOM     17  C   UNL A   1      37.165  32.942  32.500  1.00  0.00     0.031 C 
ATOM     18  C   UNL A   1      38.138  30.498  28.211  1.00  0.00     0.029 A 
ATOM     19  N   UNL A   1      39.447  30.044  29.965  1.00  0.00    -0.354 N 
ATOM     20  C   UNL A   1      38.868  32.049  33.746  1.00  0.00     0.074 A 
ATOM     21  C   UNL A   1      37.765  32.987  33.682  1.00  0.00     0.031 C 
ATOM     22  C   UNL A   1      38.996  29.541  27.830  1.00  0.00     0.029 A 
ATOM     23  C   UNL A   1      39.875  29.225  28.948  1.00  0.00     0.049 A 
ATOM     24  H   UNL A   1      39.870  30.070  30.853  1.00  0.00     0.167 HD
ATOM     25  C   UNL A   1      39.630  31.832  34.845  1.00  0.00     0.037 A 
ATOM     26  C   UNL A   1      40.868  28.316  28.917  1.00  0.00     0.037 A 
ATOM     27  C   UNL A   1      40.723  30.896  34.906  1.00  0.00     0.049 A 
ATOM     28  C   UNL A   1      41.683  28.087  30.154  1.00  0.00     0.074 A 
ATOM     29  C   UNL A   1      41.551  30.601  35.977  1.00  0.00     0.029 A 
ATOM     30  N   UNL A   1      41.141  30.098  33.852  1.00  0.00    -0.354 N 
ATOM     31  N   UNL A   1      41.568  28.650  31.333  1.00  0.00    -0.248 NA
ATOM     32  C   UNL A   1      42.766  27.100  30.058  1.00  0.00     0.031 C 
ATOM     33  C   UNL A   1      42.487  29.648  35.561  1.00  0.00     0.029 A 
ATOM     34  C   UNL A   1      42.219  29.321  34.242  1.00  0.00     0.049 A 
ATOM     35  H   UNL A   1      40.732  30.087  32.956  1.00  0.00     0.167 HD
ATOM     36  C   UNL A   1      42.565  28.089  32.117  1.00  0.00     0.074 A 
ATOM     37  C   UNL A   1      43.248  27.113  31.292  1.00  0.00     0.031 C 
ATOM     38  C   UNL A   1      42.895  28.366  33.402  1.00  0.00     0.037 A 
BRANCH  25  39
ATOM     39  C   UNL A   1      39.312  32.624  36.081  1.00  0.00     0.057 A 
ATOM     40  C   UNL A   1      39.854  33.898  36.296  1.00  0.00     0.134 A 
ATOM     41  C   UNL A   1      38.410  32.136  37.034  1.00  0.00     0.134 A 
ATOM     42  F   UNL A   1      40.733  34.418  35.427  1.00  0.00    -0.206 F 
ATOM     43  C   UNL A   1      39.516  34.653  37.420  1.00  0.00     0.040 A 
ATOM     44  C   UNL A   1      38.050  32.889  38.153  1.00  0.00     0.040 A 
ATOM     45  F   UNL A   1      37.852  30.924  36.886  1.00  0.00    -0.206 F 
ATOM     46  C   UNL A   1      38.606  34.152  38.349  1.00  0.00     0.006 A 
ENDBRANCH  25  39
BRANCH  26  47
ATOM     47  C   UNL A   1      41.141  27.565  27.668  1.00  0.00     0.057 A 
ATOM     48  C   UNL A   1      41.990  28.079  26.681  1.00  0.00     0.134 A 
ATOM     49  C   UNL A   1      40.567  26.310  27.437  1.00  0.00     0.134 A 
ATOM     50  F   UNL A   1      42.557  29.285  26.838  1.00  0.00    -0.206 F 
ATOM     51  C   UNL A   1      42.246  27.378  25.501  1.00  0.00     0.040 A 
ATOM     52  C   UNL A   1      40.835  25.585  26.275  1.00  0.00     0.040 A 
ATOM     53  F   UNL A   1      39.752  25.760  28.350  1.00  0.00    -0.206 F 
ATOM     54  C   UNL A   1      41.672  26.123  25.300  1.00  0.00     0.006 A 
ENDBRANCH  26  47
BRANCH  38  55
ATOM     55  C   UNL A   1      44.046  27.599  33.979  1.00  0.00     0.057 A 
ATOM     56  C   UNL A   1      43.861  26.351  34.588  1.00  0.00     0.134 A 
ATOM     57  C   UNL A   1      45.348  28.111  33.926  1.00  0.00     0.134 A 
ATOM     58  F   UNL A   1      42.634  25.816  34.684  1.00  0.00    -0.206 F 
ATOM     59  C   UNL A   1      44.928  25.652  35.153  1.00  0.00     0.040 A 
ATOM     60  C   UNL A   1      46.426  27.410  34.466  1.00  0.00     0.040 A 
ATOM     61  F   UNL A   1      45.591  29.298  33.351  1.00  0.00    -0.206 F 
ATOM     62  C   UNL A   1      46.217  26.181  35.090  1.00  0.00     0.006 A 
ENDBRANCH  38  55
ENDBRANCH  12  13
ENDBRANCH   5   7
ENDBRANCH   2   3
ENDBRANCH   1   2
BRANCH   1  63
ATOM     63  C   UNL A   1      30.638  31.135  24.956  1.00  0.00     0.117 C 
BRANCH  63  64
ATOM     64  N   UNL A   1      29.686  32.033  24.333  1.00  0.00    -0.356 N 
ATOM     65  C   UNL A   1      28.860  31.913  23.262  1.00  0.00     0.226 C 
ATOM     66  H   UNL A   1      29.626  32.911  24.777  1.00  0.00     0.163 HD
ATOM     67  O   UNL A   1      28.129  32.886  23.036  1.00  0.00    -0.274 OA
BRANCH  65  68
ATOM     68  C   UNL A   1      28.769  30.681  22.347  1.00  0.00     0.103 C 
ATOM     69  C   UNL A   1      27.932  29.560  22.875  1.00  0.00    -0.016 C 
ATOM     70  C   UNL A   1      30.075  29.979  21.955  1.00  0.00     0.042 C 
ATOM     71  C   UNL A   1      28.648  28.441  23.032  1.00  0.00    -0.011 C 
ATOM     72  C   UNL A   1      30.092  28.658  22.740  1.00  0.00     0.093 C 
BRANCH  72  73
ATOM     73  N   UNL A   1      30.710  27.583  21.988  1.00  0.00    -0.204 NA
ATOM     74  H   UNL A   1      31.150  28.017  21.176  1.00  0.00     0.142 HD
BRANCH  73  75
ATOM     75  S   UNL A   1      31.870  26.574  22.666  1.00  0.00     0.244 S 
ATOM     76  O   UNL A   1      31.286  25.294  22.983  1.00  0.00    -0.207 OA
ATOM     77  O   UNL A   1      33.000  26.657  21.763  1.00  0.00    -0.207 OA
BRANCH  75  78
ATOM     78  C   UNL A   1      32.357  27.353  24.175  1.00  0.00     0.121 A 
ATOM     79  C   UNL A   1      33.607  27.976  24.288  1.00  0.00     0.028 A 
ATOM     80  C   UNL A   1      31.531  27.246  25.291  1.00  0.00     0.181 A 
ATOM     81  C   UNL A   1      34.000  28.520  25.516  1.00  0.00     0.044 A 
ATOM     82  C   UNL A   1      31.915  27.811  26.501  1.00  0.00     0.195 A 
ATOM     83  F   UNL A   1      30.341  26.635  25.224  1.00  0.00    -0.202 F 
ATOM     84  C   UNL A   1      33.144  28.443  26.612  1.00  0.00     0.161 A 
ATOM     85  F   UNL A   1      31.086  27.755  27.552  1.00  0.00    -0.200 F 
ATOM     86  F   UNL A   1      33.520  28.986  27.778  1.00  0.00    -0.204 F 
ENDBRANCH  75  78
ENDBRANCH  73  75
ENDBRANCH  72  73
ENDBRANCH  65  68
ENDBRANCH  63  64
ENDBRANCH   1  63
TORSDOF 13
ENDMDL
MODEL 2
REMARK VINA RESULT:     -12.3      5.560     10.032
REMARK SMILES O=C(NCCCNC(=O)[C@@H]1C=C[C@@H](NS(=O)(=O)c2ccc(F)c(F)c2F)C1)c1ccc(-c2c3nc(c(-c4c(F)cccc4F)c4ccc([nH]4)c(-c4c(F)cccc4F)c4nc(c(-c5c(F)cccc5F)c5ccc2[nH]5)C=C4)C=C3)cc1
REMARK SMILES IDX 5 1 4 2 3 3 1 4 2 5 28 7 29 8 81 9 30 10 80 11 31 12 32 13
REMARK SMILES IDX 33 14 74 15 34 16 79 17 73 18 75 19 35 20 78 21 72 22 71 23
REMARK SMILES IDX 36 25 62 26 45 27 61 28 46 29 49 30 60 31 76 32 47 33 48 34
REMARK SMILES IDX 59 36 77 37 50 38 37 39 38 40 43 41 39 42 40 43 42 44 44 45
REMARK SMILES IDX 41 46 63 47 64 48 69 49 65 50 66 51 68 52 70 53 67 54 51 55
REMARK SMILES IDX 52 56 57 57 53 58 54 59 56 60 58 61 55 62 6 63 7 64 8 65
REMARK SMILES IDX 9 67 10 68 11 69 27 70 12 71 13 72 14 73 15 75 16 76 17 77
REMARK SMILES IDX 18 78 19 79 25 80 20 81 23 82 26 83 21 84 24 85 22 86
REMARK H PARENT 3 6 75 24 49 35 7 66 14 74
REMARK Flexibility Score: inf
ROOT
ATOM      1  C   UNL A   1      37.469  19.669  24.483  1.00  0.00     0.042 C 
ENDROOT
BRANCH   1   2
ATOM      2  C   UNL A   1      38.419  20.058  25.605  1.00  0.00     0.118 C 
BRANCH   2   3
ATOM      3  N   UNL A   1      39.581  19.186  25.667  1.00  0.00    -0.352 N 
ATOM      4  O   UNL A   1      41.758  18.637  25.838  1.00  0.00    -0.269 OA
ATOM      5  C   UNL A   1      40.881  19.479  26.008  1.00  0.00     0.251 C 
ATOM      6  H   UNL A   1      39.412  18.245  25.429  1.00  0.00     0.163 HD
BRANCH   5   7
ATOM      7  C   UNL A   1      41.235  20.804  26.567  1.00  0.00     0.039 A 
ATOM      8  C   UNL A   1      41.194  21.040  27.942  1.00  0.00     0.014 A 
ATOM      9  C   UNL A   1      41.664  21.819  25.702  1.00  0.00     0.014 A 
ATOM     10  C   UNL A   1      41.449  22.314  28.438  1.00  0.00     0.010 A 
ATOM     11  C   UNL A   1      42.014  23.075  26.212  1.00  0.00     0.010 A 
ATOM     12  C   UNL A   1      41.890  23.338  27.583  1.00  0.00    -0.014 A 
BRANCH  12  13
ATOM     13  C   UNL A   1      42.299  24.635  28.184  1.00  0.00     0.031 A 
ATOM     14  C   UNL A   1      43.736  24.952  28.478  1.00  0.00     0.074 A 
ATOM     15  C   UNL A   1      41.343  25.562  28.400  1.00  0.00     0.049 A 
ATOM     16  N   UNL A   1      44.258  26.073  28.909  1.00  0.00    -0.248 NA
ATOM     17  C   UNL A   1      44.718  23.877  28.269  1.00  0.00     0.031 C 
ATOM     18  C   UNL A   1      39.909  25.354  28.185  1.00  0.00     0.029 A 
ATOM     19  N   UNL A   1      41.431  26.866  28.812  1.00  0.00    -0.354 N 
ATOM     20  C   UNL A   1      45.621  25.840  29.031  1.00  0.00     0.074 A 
ATOM     21  C   UNL A   1      45.845  24.460  28.656  1.00  0.00     0.031 C 
ATOM     22  C   UNL A   1      39.259  26.507  28.399  1.00  0.00     0.029 A 
ATOM     23  C   UNL A   1      40.222  27.518  28.820  1.00  0.00     0.049 A 
ATOM     24  H   UNL A   1      42.278  27.294  29.075  1.00  0.00     0.167 HD
ATOM     25  C   UNL A   1      46.595  26.702  29.413  1.00  0.00     0.037 A 
ATOM     26  C   UNL A   1      39.917  28.791  29.133  1.00  0.00     0.037 A 
ATOM     27  C   UNL A   1      46.367  28.076  29.783  1.00  0.00     0.049 A 
ATOM     28  C   UNL A   1      41.018  29.724  29.536  1.00  0.00     0.074 A 
ATOM     29  C   UNL A   1      47.291  29.029  30.180  1.00  0.00     0.029 A 
ATOM     30  N   UNL A   1      45.127  28.695  29.800  1.00  0.00    -0.354 N 
ATOM     31  N   UNL A   1      42.305  29.491  29.624  1.00  0.00    -0.248 NA
ATOM     32  C   UNL A   1      40.627  31.096  29.887  1.00  0.00     0.031 C 
ATOM     33  C   UNL A   1      46.605  30.215  30.463  1.00  0.00     0.029 A 
ATOM     34  C   UNL A   1      45.259  30.013  30.208  1.00  0.00     0.049 A 
ATOM     35  H   UNL A   1      44.276  28.263  29.558  1.00  0.00     0.167 HD
ATOM     36  C   UNL A   1      42.877  30.683  30.043  1.00  0.00     0.074 A 
ATOM     37  C   UNL A   1      41.801  31.648  30.152  1.00  0.00     0.031 C 
ATOM     38  C   UNL A   1      44.175  30.953  30.325  1.00  0.00     0.037 A 
BRANCH  25  39
ATOM     39  C   UNL A   1      48.004  26.186  29.456  1.00  0.00     0.057 A 
ATOM     40  C   UNL A   1      48.845  26.252  28.338  1.00  0.00     0.134 A 
ATOM     41  C   UNL A   1      48.545  25.674  30.643  1.00  0.00     0.134 A 
ATOM     42  F   UNL A   1      48.385  26.721  27.168  1.00  0.00    -0.206 F 
ATOM     43  C   UNL A   1      50.171  25.820  28.396  1.00  0.00     0.040 A 
ATOM     44  C   UNL A   1      49.874  25.256  30.718  1.00  0.00     0.040 A 
ATOM     45  F   UNL A   1      47.794  25.587  31.751  1.00  0.00    -0.206 F 
ATOM     46  C   UNL A   1      50.692  25.326  29.592  1.00  0.00     0.006 A 
ENDBRANCH  25  39
BRANCH  26  47
ATOM     47  C   UNL A   1      38.507  29.247  29.078  1.00  0.00     0.057 A 
ATOM     48  C   UNL A   1      37.689  29.221  30.213  1.00  0.00     0.134 A 
ATOM     49  C   UNL A   1      37.946  29.729  27.889  1.00  0.00     0.134 A 
ATOM     50  F   UNL A   1      38.165  28.754  31.378  1.00  0.00    -0.206 F 
ATOM     51  C   UNL A   1      36.359  29.643  30.165  1.00  0.00     0.040 A 
ATOM     52  C   UNL A   1      36.628  30.180  27.832  1.00  0.00     0.040 A 
ATOM     53  F   UNL A   1      38.682  29.787  26.769  1.00  0.00    -0.206 F 
ATOM     54  C   UNL A   1      35.828  30.131  28.972  1.00  0.00     0.006 A 
ENDBRANCH  26  47
BRANCH  38  55
ATOM     55  C   UNL A   1      44.486  32.347  30.779  1.00  0.00     0.057 A 
ATOM     56  C   UNL A   1      44.792  33.362  29.863  1.00  0.00     0.134 A 
ATOM     57  C   UNL A   1      44.483  32.676  32.139  1.00  0.00     0.134 A 
ATOM     58  F   UNL A   1      44.828  33.104  28.547  1.00  0.00    -0.206 F 
ATOM     59  C   UNL A   1      45.113  34.652  30.288  1.00  0.00     0.040 A 
ATOM     60  C   UNL A   1      44.779  33.968  32.574  1.00  0.00     0.040 A 
ATOM     61  F   UNL A   1      44.193  31.750  33.064  1.00  0.00    -0.206 F 
ATOM     62  C   UNL A   1      45.104  34.958  31.648  1.00  0.00     0.006 A 
ENDBRANCH  38  55
ENDBRANCH  12  13
ENDBRANCH   5   7
ENDBRANCH   2   3
ENDBRANCH   1   2
BRANCH   1  63
ATOM     63  C   UNL A   1      36.083  19.258  24.971  1.00  0.00     0.117 C 
BRANCH  63  64
ATOM     64  N   UNL A   1      35.901  17.819  24.934  1.00  0.00    -0.356 N 
ATOM     65  C   UNL A   1      34.806  17.024  24.827  1.00  0.00     0.226 C 
ATOM     66  H   UNL A   1      36.745  17.315  25.001  1.00  0.00     0.163 HD
ATOM     67  O   UNL A   1      35.028  15.808  24.778  1.00  0.00    -0.274 OA
BRANCH  65  68
ATOM     68  C   UNL A   1      33.353  17.523  24.755  1.00  0.00     0.103 C 
ATOM     69  C   UNL A   1      32.924  18.034  23.417  1.00  0.00    -0.016 C 
ATOM     70  C   UNL A   1      32.932  18.651  25.704  1.00  0.00     0.042 C 
ATOM     71  C   UNL A   1      32.557  19.319  23.474  1.00  0.00    -0.011 C 
ATOM     72  C   UNL A   1      32.780  19.903  24.825  1.00  0.00     0.093 C 
BRANCH  72  73
ATOM     73  N   UNL A   1      31.706  20.764  25.280  1.00  0.00    -0.204 NA
ATOM     74  H   UNL A   1      31.422  20.409  26.194  1.00  0.00     0.142 HD
BRANCH  73  75
ATOM     75  S   UNL A   1      31.911  22.422  25.464  1.00  0.00     0.244 S 
ATOM     76  O   UNL A   1      31.243  23.123  24.396  1.00  0.00    -0.207 OA
ATOM     77  O   UNL A   1      31.555  22.683  26.845  1.00  0.00    -0.207 OA
BRANCH  75  78
ATOM     78  C   UNL A   1      33.648  22.708  25.317  1.00  0.00     0.121 A 
ATOM     79  C   UNL A   1      34.416  23.043  26.440  1.00  0.00     0.028 A 
ATOM     80  C   UNL A   1      34.231  22.706  24.052  1.00  0.00     0.181 A 
ATOM     81  C   UNL A   1      35.775  23.338  26.285  1.00  0.00     0.044 A 
ATOM     82  C   UNL A   1      35.586  22.974  23.908  1.00  0.00     0.195 A 
ATOM     83  F   UNL A   1      33.520  22.414  22.955  1.00  0.00    -0.202 F 
ATOM     84  C   UNL A   1      36.354  23.290  25.019  1.00  0.00     0.161 A 
ATOM     85  F   UNL A   1      36.150  22.910  22.693  1.00  0.00    -0.200 F 
ATOM     86  F   UNL A   1      37.660  23.553  24.884  1.00  0.00    -0.204 F 
ENDBRANCH  75  78
ENDBRANCH  73  75
ENDBRANCH  72  73
ENDBRANCH  65  68
ENDBRANCH  63  64
ENDBRANCH   1  63
TORSDOF 13
ENDMDL
MODEL 3
REMARK VINA RESULT:     -12.2      5.493      9.440
REMARK SMILES O=C(NCCCNC(=O)[C@@H]1C=C[C@@H](NS(=O)(=O)c2ccc(F)c(F)c2F)C1)c1ccc(-c2c3nc(c(-c4c(F)cccc4F)c4ccc([nH]4)c(-c4c(F)cccc4F)c4nc(c(-c5c(F)cccc5F)c5ccc2[nH]5)C=C4)C=C3)cc1
REMARK SMILES IDX 5 1 4 2 3 3 1 4 2 5 28 7 29 8 81 9 30 10 80 11 31 12 32 13
REMARK SMILES IDX 33 14 74 15 34 16 79 17 73 18 75 19 35 20 78 21 72 22 71 23
REMARK SMILES IDX 36 25 62 26 45 27 61 28 46 29 49 30 60 31 76 32 47 33 48 34
REMARK SMILES IDX 59 36 77 37 50 38 37 39 38 40 43 41 39 42 40 43 42 44 44 45
REMARK SMILES IDX 41 46 63 47 64 48 69 49 65 50 66 51 68 52 70 53 67 54 51 55
REMARK SMILES IDX 52 56 57 57 53 58 54 59 56 60 58 61 55 62 6 63 7 64 8 65
REMARK SMILES IDX 9 67 10 68 11 69 27 70 12 71 13 72 14 73 15 75 16 76 17 77
REMARK SMILES IDX 18 78 19 79 25 80 20 81 23 82 26 83 21 84 24 85 22 86
REMARK H PARENT 3 6 75 24 49 35 7 66 14 74
REMARK Flexibility Score: inf
ROOT
ATOM      1  C   UNL A   1      37.487  19.721  24.493  1.00  0.00     0.042 C 
ENDROOT
BRANCH   1   2
ATOM      2  C   UNL A   1      38.431  20.110  25.620  1.00  0.00     0.118 C 
BRANCH   2   3
ATOM      3  N   UNL A   1      39.550  19.189  25.740  1.00  0.00    -0.352 N 
ATOM      4  O   UNL A   1      41.697  18.548  25.957  1.00  0.00    -0.269 OA
ATOM      5  C   UNL A   1      40.861  19.439  26.073  1.00  0.00     0.251 C 
ATOM      6  H   UNL A   1      39.338  18.245  25.556  1.00  0.00     0.163 HD
BRANCH   5   7
ATOM      7  C   UNL A   1      41.276  20.776  26.556  1.00  0.00     0.039 A 
ATOM      8  C   UNL A   1      41.757  21.744  25.673  1.00  0.00     0.014 A 
ATOM      9  C   UNL A   1      41.135  21.086  27.915  1.00  0.00     0.014 A 
ATOM     10  C   UNL A   1      42.218  22.962  26.160  1.00  0.00     0.010 A 
ATOM     11  C   UNL A   1      41.511  22.348  28.390  1.00  0.00     0.010 A 
ATOM     12  C   UNL A   1      42.074  23.290  27.518  1.00  0.00    -0.014 A 
BRANCH  12  13
ATOM     13  C   UNL A   1      42.440  24.662  27.958  1.00  0.00     0.031 A 
ATOM     14  C   UNL A   1      41.403  25.726  28.175  1.00  0.00     0.074 A 
ATOM     15  C   UNL A   1      43.737  24.916  28.229  1.00  0.00     0.049 A 
ATOM     16  N   UNL A   1      41.556  26.937  28.649  1.00  0.00    -0.248 NA
ATOM     17  C   UNL A   1      40.018  25.397  27.808  1.00  0.00     0.031 C 
ATOM     18  C   UNL A   1      44.838  23.970  28.024  1.00  0.00     0.029 A 
ATOM     19  N   UNL A   1      44.345  26.021  28.764  1.00  0.00    -0.354 N 
ATOM     20  C   UNL A   1      40.296  27.517  28.632  1.00  0.00     0.074 A 
ATOM     21  C   UNL A   1      39.389  26.535  28.073  1.00  0.00     0.031 C 
ATOM     22  C   UNL A   1      45.974  24.508  28.490  1.00  0.00     0.029 A 
ATOM     23  C   UNL A   1      45.693  25.854  28.974  1.00  0.00     0.049 A 
ATOM     24  H   UNL A   1      43.864  26.853  28.977  1.00  0.00     0.167 HD
ATOM     25  C   UNL A   1      39.928  28.752  29.052  1.00  0.00     0.037 A 
ATOM     26  C   UNL A   1      46.606  26.692  29.499  1.00  0.00     0.037 A 
ATOM     27  C   UNL A   1      40.832  29.724  29.612  1.00  0.00     0.049 A 
ATOM     28  C   UNL A   1      46.165  28.045  29.970  1.00  0.00     0.074 A 
ATOM     29  C   UNL A   1      40.554  31.001  30.071  1.00  0.00     0.029 A 
ATOM     30  N   UNL A   1      42.193  29.528  29.790  1.00  0.00    -0.354 N 
ATOM     31  N   UNL A   1      44.963  28.568  29.967  1.00  0.00    -0.248 NA
ATOM     32  C   UNL A   1      47.207  28.926  30.515  1.00  0.00     0.031 C 
ATOM     33  C   UNL A   1      41.750  31.586  30.500  1.00  0.00     0.029 A 
ATOM     34  C   UNL A   1      42.768  30.661  30.343  1.00  0.00     0.049 A 
ATOM     35  H   UNL A   1      42.681  28.704  29.558  1.00  0.00     0.167 HD
ATOM     36  C   UNL A   1      45.103  29.839  30.504  1.00  0.00     0.074 A 
ATOM     37  C   UNL A   1      46.500  29.992  30.859  1.00  0.00     0.031 C 
ATOM     38  C   UNL A   1      44.162  30.799  30.676  1.00  0.00     0.037 A 
BRANCH  25  39
ATOM     39  C   UNL A   1      38.481  29.130  28.923  1.00  0.00     0.057 A 
ATOM     40  C   UNL A   1      37.599  29.045  30.008  1.00  0.00     0.134 A 
ATOM     41  C   UNL A   1      37.978  29.641  27.720  1.00  0.00     0.134 A 
ATOM     42  F   UNL A   1      38.015  28.553  31.185  1.00  0.00    -0.206 F 
ATOM     43  C   UNL A   1      36.267  29.447  29.898  1.00  0.00     0.040 A 
ATOM     44  C   UNL A   1      36.653  30.064  27.603  1.00  0.00     0.040 A 
ATOM     45  F   UNL A   1      38.771  29.753  26.643  1.00  0.00    -0.206 F 
ATOM     46  C   UNL A   1      35.792  29.965  28.695  1.00  0.00     0.006 A 
ENDBRANCH  25  39
BRANCH  26  47
ATOM     47  C   UNL A   1      48.024  26.269  29.599  1.00  0.00     0.057 A 
ATOM     48  C   UNL A   1      48.526  25.677  30.764  1.00  0.00     0.134 A 
ATOM     49  C   UNL A   1      48.908  26.437  28.527  1.00  0.00     0.134 A 
ATOM     50  F   UNL A   1      47.731  25.505  31.831  1.00  0.00    -0.206 F 
ATOM     51  C   UNL A   1      49.861  25.282  30.865  1.00  0.00     0.040 A 
ATOM     52  C   UNL A   1      50.237  26.021  28.603  1.00  0.00     0.040 A 
ATOM     53  F   UNL A   1      48.484  26.988  27.380  1.00  0.00    -0.206 F 
ATOM     54  C   UNL A   1      50.718  25.448  29.778  1.00  0.00     0.006 A 
ENDBRANCH  26  47
BRANCH  38  55
ATOM     55  C   UNL A   1      44.627  32.093  31.273  1.00  0.00     0.057 A 
ATOM     56  C   UNL A   1      44.625  32.301  32.658  1.00  0.00     0.134 A 
ATOM     57  C   UNL A   1      45.078  33.138  30.458  1.00  0.00     0.134 A 
ATOM     58  F   UNL A   1      44.189  31.343  33.490  1.00  0.00    -0.206 F 
ATOM     59  C   UNL A   1      45.028  33.517  33.211  1.00  0.00     0.040 A 
ATOM     60  C   UNL A   1      45.505  34.350  31.001  1.00  0.00     0.040 A 
ATOM     61  F   UNL A   1      45.109  32.999  29.125  1.00  0.00    -0.206 F 
ATOM     62  C   UNL A   1      45.472  34.545  32.381  1.00  0.00     0.006 A 
ENDBRANCH  38  55
ENDBRANCH  12  13
ENDBRANCH   5   7
ENDBRANCH   2   3
ENDBRANCH   1   2
BRANCH   1  63
ATOM     63  C   UNL A   1      36.102  19.297  24.975  1.00  0.00     0.117 C 
BRANCH  63  64
ATOM     64  N   UNL A   1      35.932  17.858  24.933  1.00  0.00    -0.356 N 
ATOM     65  C   UNL A   1      34.842  17.054  24.832  1.00  0.00     0.226 C 
ATOM     66  H   UNL A   1      36.780  17.360  24.990  1.00  0.00     0.163 HD
ATOM     67  O   UNL A   1      35.073  15.840  24.776  1.00  0.00    -0.274 OA
BRANCH  65  68
ATOM     68  C   UNL A   1      33.385  17.542  24.776  1.00  0.00     0.103 C 
ATOM     69  C   UNL A   1      32.933  18.033  23.438  1.00  0.00    -0.016 C 
ATOM     70  C   UNL A   1      32.969  18.679  25.716  1.00  0.00     0.042 C 
ATOM     71  C   UNL A   1      32.557  19.316  23.484  1.00  0.00    -0.011 C 
ATOM     72  C   UNL A   1      32.795  19.918  24.824  1.00  0.00     0.093 C 
BRANCH  72  73
ATOM     73  N   UNL A   1      31.722  20.778  25.284  1.00  0.00    -0.204 NA
ATOM     74  H   UNL A   1      31.459  20.437  26.210  1.00  0.00     0.142 HD
BRANCH  73  75
ATOM     75  S   UNL A   1      31.913  22.440  25.434  1.00  0.00     0.244 S 
ATOM     76  O   UNL A   1      31.253  23.113  24.343  1.00  0.00    -0.207 OA
ATOM     77  O   UNL A   1      31.540  22.730  26.804  1.00  0.00    -0.207 OA
BRANCH  75  78
ATOM     78  C   UNL A   1      33.650  22.735  25.300  1.00  0.00     0.121 A 
ATOM     79  C   UNL A   1      34.407  23.081  26.427  1.00  0.00     0.028 A 
ATOM     80  C   UNL A   1      34.244  22.729  24.040  1.00  0.00     0.181 A 
ATOM     81  C   UNL A   1      35.766  23.382  26.282  1.00  0.00     0.044 A 
ATOM     82  C   UNL A   1      35.599  23.003  23.905  1.00  0.00     0.195 A 
ATOM     83  F   UNL A   1      33.544  22.426  22.939  1.00  0.00    -0.202 F 
ATOM     84  C   UNL A   1      36.355  23.330  25.021  1.00  0.00     0.161 A 
ATOM     85  F   UNL A   1      36.173  22.934  22.696  1.00  0.00    -0.200 F 
ATOM     86  F   UNL A   1      37.661  23.599  24.895  1.00  0.00    -0.204 F 
ENDBRANCH  75  78
ENDBRANCH  73  75
ENDBRANCH  72  73
ENDBRANCH  65  68
ENDBRANCH  63  64
ENDBRANCH   1  63
TORSDOF 13
ENDMDL
