MODEL 1
REMARK VINA RESULT:     -11.0      0.000      0.000
REMARK SMILES O=C(C[C@H]1C[C@H]2CC[C@@H](C1)N2C(=O)NCCC1CC1)NCCCNC(=O)c1ccc(-c2c3nc(c(-c4c(F)cccc4F)c4ccc([nH]4)c(-c4c(F)cccc4F)c4nc(c(-c5c(F)cccc5F)c5ccc2[nH]5)C=C4)C=C3)cc1
REMARK SMILES IDX 1 1 2 2 20 3 3 5 4 6 5 7 10 8 6 9 9 10 7 11 11 12 8 13 12 14
REMARK SMILES IDX 13 15 14 16 15 18 16 19 17 20 18 21 19 22 21 23 22 24 23 25
REMARK SMILES IDX 24 26 25 27 26 29 27 30 28 31 80 32 29 33 79 34 30 35 31 36
REMARK SMILES IDX 32 37 73 38 33 39 78 40 72 41 74 42 34 43 77 44 71 45 70 46
REMARK SMILES IDX 35 48 61 49 44 50 60 51 45 52 48 53 59 54 75 55 46 56 47 57
REMARK SMILES IDX 58 59 76 60 49 61 36 62 37 63 42 64 38 65 39 66 41 67 43 68
REMARK SMILES IDX 40 69 62 70 63 71 68 72 64 73 65 74 67 75 69 76 66 77 50 78
REMARK SMILES IDX 51 79 56 80 52 81 53 82 55 83 57 84 54 85
REMARK H PARENT 20 4 14 17 24 28 74 47 48 58
REMARK Flexibility Score: inf
ROOT
ATOM      1  O   UNL A   1      34.693  21.778  26.421  1.00  0.00    -0.275 OA
ATOM      2  C   UNL A   1      34.315  21.374  25.326  1.00  0.00     0.220 C 
ATOM      3  N   UNL A   1      35.017  20.471  24.563  1.00  0.00    -0.356 N 
ATOM      4  H   UNL A   1      34.639  20.179  23.703  1.00  0.00     0.163 HD
ENDROOT
BRANCH   2   5
ATOM      5  C   UNL A   1      33.017  21.843  24.702  1.00  0.00     0.103 C 
BRANCH   5   6
ATOM      6  C   UNL A   1      33.190  22.667  23.407  1.00  0.00     0.002 C 
ATOM      7  C   UNL A   1      31.935  23.550  23.137  1.00  0.00     0.029 C 
ATOM      8  C   UNL A   1      34.511  23.487  23.327  1.00  0.00     0.029 C 
ATOM      9  C   UNL A   1      32.079  25.023  23.582  1.00  0.00     0.087 C 
ATOM     10  C   UNL A   1      34.371  24.938  23.818  1.00  0.00     0.087 C 
ATOM     11  C   UNL A   1      32.313  25.162  25.085  1.00  0.00     0.027 C 
ATOM     12  N   UNL A   1      33.320  25.535  23.020  1.00  0.00    -0.319 N 
ATOM     13  C   UNL A   1      33.829  25.025  25.250  1.00  0.00     0.027 C 
BRANCH  12  14
ATOM     14  C   UNL A   1      33.314  26.293  21.897  1.00  0.00     0.317 C 
ATOM     15  O   UNL A   1      33.191  25.779  20.779  1.00  0.00    -0.249 OA
ATOM     16  N   UNL A   1      33.440  27.632  21.904  1.00  0.00    -0.338 N 
ATOM     17  H   UNL A   1      33.323  28.015  21.005  1.00  0.00     0.165 HD
BRANCH  16  18
ATOM     18  C   UNL A   1      33.705  28.658  22.898  1.00  0.00     0.118 C 
BRANCH  18  19
ATOM     19  C   UNL A   1      32.579  28.771  23.928  1.00  0.00     0.025 C 
BRANCH  19  20
ATOM     20  C   UNL A   1      33.018  29.343  25.248  1.00  0.00    -0.009 C 
ATOM     21  C   UNL A   1      32.639  28.607  26.511  1.00  0.00     0.004 C 
ATOM     22  C   UNL A   1      34.071  28.640  26.068  1.00  0.00     0.004 C 
ENDBRANCH  19  20
ENDBRANCH  18  19
ENDBRANCH  16  18
ENDBRANCH  12  14
ENDBRANCH   5   6
ENDBRANCH   2   5
BRANCH   3  23
ATOM     23  C   UNL A   1      36.295  19.936  24.984  1.00  0.00     0.117 C 
BRANCH  23  24
ATOM     24  C   UNL A   1      37.452  20.854  24.615  1.00  0.00     0.042 C 
BRANCH  24  25
ATOM     25  C   UNL A   1      38.530  20.957  25.689  1.00  0.00     0.118 C 
BRANCH  25  26
ATOM     26  N   UNL A   1      39.489  19.860  25.649  1.00  0.00    -0.352 N 
ATOM     27  C   UNL A   1      40.821  19.848  25.992  1.00  0.00     0.251 C 
ATOM     28  H   UNL A   1      39.130  19.000  25.331  1.00  0.00     0.163 HD
ATOM     29  O   UNL A   1      41.504  18.857  25.771  1.00  0.00    -0.269 OA
BRANCH  27  30
ATOM     30  C   UNL A   1      41.433  21.051  26.596  1.00  0.00     0.039 A 
ATOM     31  C   UNL A   1      42.077  21.970  25.763  1.00  0.00     0.014 A 
ATOM     32  C   UNL A   1      41.355  21.280  27.971  1.00  0.00     0.014 A 
ATOM     33  C   UNL A   1      42.566  23.163  26.298  1.00  0.00     0.010 A 
ATOM     34  C   UNL A   1      41.780  22.498  28.490  1.00  0.00     0.010 A 
ATOM     35  C   UNL A   1      42.380  23.457  27.658  1.00  0.00    -0.014 A 
BRANCH  35  36
ATOM     36  C   UNL A   1      42.780  24.764  28.236  1.00  0.00     0.031 A 
ATOM     37  C   UNL A   1      41.748  25.830  28.470  1.00  0.00     0.074 A 
ATOM     38  C   UNL A   1      44.083  25.026  28.457  1.00  0.00     0.049 A 
ATOM     39  N   UNL A   1      41.914  27.078  28.829  1.00  0.00    -0.248 NA
ATOM     40  C   UNL A   1      40.344  25.449  28.246  1.00  0.00     0.031 C 
ATOM     41  C   UNL A   1      45.186  24.087  28.237  1.00  0.00     0.029 A 
ATOM     42  N   UNL A   1      44.704  26.169  28.895  1.00  0.00    -0.354 N 
ATOM     43  C   UNL A   1      40.642  27.636  28.850  1.00  0.00     0.074 A 
ATOM     44  C   UNL A   1      39.719  26.603  28.428  1.00  0.00     0.031 C 
ATOM     45  C   UNL A   1      46.345  24.690  28.549  1.00  0.00     0.029 A 
ATOM     46  C   UNL A   1      46.073  26.067  28.946  1.00  0.00     0.049 A 
ATOM     47  H   UNL A   1      44.214  26.985  29.147  1.00  0.00     0.167 HD
ATOM     48  C   UNL A   1      40.275  28.890  29.206  1.00  0.00     0.037 A 
ATOM     49  C   UNL A   1      47.007  26.986  29.259  1.00  0.00     0.037 A 
ATOM     50  C   UNL A   1      41.193  29.906  29.650  1.00  0.00     0.049 A 
ATOM     51  C   UNL A   1      46.576  28.378  29.633  1.00  0.00     0.074 A 
ATOM     52  C   UNL A   1      40.911  31.189  30.086  1.00  0.00     0.029 A 
ATOM     53  N   UNL A   1      42.570  29.754  29.712  1.00  0.00    -0.354 N 
ATOM     54  N   UNL A   1      45.366  28.875  29.702  1.00  0.00    -0.248 NA
ATOM     55  C   UNL A   1      47.639  29.334  29.972  1.00  0.00     0.031 C 
ATOM     56  C   UNL A   1      42.121  31.828  30.372  1.00  0.00     0.029 A 
ATOM     57  C   UNL A   1      43.153  30.928  30.161  1.00  0.00     0.049 A 
ATOM     58  H   UNL A   1      43.059  28.936  29.473  1.00  0.00     0.167 HD
ATOM     59  C   UNL A   1      45.518  30.190  30.125  1.00  0.00     0.074 A 
ATOM     60  C   UNL A   1      46.939  30.411  30.300  1.00  0.00     0.031 C 
ATOM     61  C   UNL A   1      44.567  31.127  30.349  1.00  0.00     0.037 A 
BRANCH  48  62
ATOM     62  C   UNL A   1      38.817  29.234  29.129  1.00  0.00     0.057 A 
ATOM     63  C   UNL A   1      38.213  29.628  27.928  1.00  0.00     0.134 A 
ATOM     64  C   UNL A   1      37.998  29.133  30.261  1.00  0.00     0.134 A 
ATOM     65  F   UNL A   1      38.943  29.755  26.809  1.00  0.00    -0.206 F 
ATOM     66  C   UNL A   1      36.853  29.934  27.860  1.00  0.00     0.040 A 
ATOM     67  C   UNL A   1      36.631  29.410  30.200  1.00  0.00     0.040 A 
ATOM     68  F   UNL A   1      38.510  28.755  31.442  1.00  0.00    -0.206 F 
ATOM     69  C   UNL A   1      36.056  29.817  28.998  1.00  0.00     0.006 A 
ENDBRANCH  48  62
BRANCH  49  70
ATOM     70  C   UNL A   1      48.445  26.618  29.242  1.00  0.00     0.057 A 
ATOM     71  C   UNL A   1      49.069  26.103  30.384  1.00  0.00     0.134 A 
ATOM     72  C   UNL A   1      49.231  26.778  28.095  1.00  0.00     0.134 A 
ATOM     73  F   UNL A   1      48.374  25.944  31.520  1.00  0.00    -0.206 F 
ATOM     74  C   UNL A   1      50.426  25.774  30.391  1.00  0.00     0.040 A 
ATOM     75  C   UNL A   1      50.583  26.432  28.080  1.00  0.00     0.040 A 
ATOM     76  F   UNL A   1      48.690  27.261  26.966  1.00  0.00    -0.206 F 
ATOM     77  C   UNL A   1      51.186  25.934  29.233  1.00  0.00     0.006 A 
ENDBRANCH  49  70
BRANCH  61  78
ATOM     78  C   UNL A   1      45.017  32.464  30.859  1.00  0.00     0.057 A 
ATOM     79  C   UNL A   1      45.183  32.719  32.224  1.00  0.00     0.134 A 
ATOM     80  C   UNL A   1      45.352  33.488  29.962  1.00  0.00     0.134 A 
ATOM     81  F   UNL A   1      44.868  31.783  33.134  1.00  0.00    -0.206 F 
ATOM     82  C   UNL A   1      45.654  33.950  32.684  1.00  0.00     0.040 A 
ATOM     83  C   UNL A   1      45.846  34.714  30.408  1.00  0.00     0.040 A 
ATOM     84  F   UNL A   1      45.223  33.305  28.640  1.00  0.00    -0.206 F 
ATOM     85  C   UNL A   1      45.997  34.948  31.773  1.00  0.00     0.006 A 
ENDBRANCH  61  78
ENDBRANCH  35  36
ENDBRANCH  27  30
ENDBRANCH  25  26
ENDBRANCH  24  25
ENDBRANCH  23  24
ENDBRANCH   3  23
TORSDOF 15
ENDMDL
MODEL 2
REMARK VINA RESULT:     -10.8      4.441      8.945
REMARK SMILES O=C(C[C@H]1C[C@H]2CC[C@@H](C1)N2C(=O)NCCC1CC1)NCCCNC(=O)c1ccc(-c2c3nc(c(-c4c(F)cccc4F)c4ccc([nH]4)c(-c4c(F)cccc4F)c4nc(c(-c5c(F)cccc5F)c5ccc2[nH]5)C=C4)C=C3)cc1
REMARK SMILES IDX 1 1 2 2 20 3 3 5 4 6 5 7 10 8 6 9 9 10 7 11 11 12 8 13 12 14
REMARK SMILES IDX 13 15 14 16 15 18 16 19 17 20 18 21 19 22 21 23 22 24 23 25
REMARK SMILES IDX 24 26 25 27 26 29 27 30 28 31 80 32 29 33 79 34 30 35 31 36
REMARK SMILES IDX 32 37 73 38 33 39 78 40 72 41 74 42 34 43 77 44 71 45 70 46
REMARK SMILES IDX 35 48 61 49 44 50 60 51 45 52 48 53 59 54 75 55 46 56 47 57
REMARK SMILES IDX 58 59 76 60 49 61 36 62 37 63 42 64 38 65 39 66 41 67 43 68
REMARK SMILES IDX 40 69 62 70 63 71 68 72 64 73 65 74 67 75 69 76 66 77 50 78
REMARK SMILES IDX 51 79 56 80 52 81 53 82 55 83 57 84 54 85
REMARK H PARENT 20 4 14 17 24 28 74 47 48 58
REMARK Flexibility Score: inf
ROOT
ATOM      1  O   UNL A   1      33.900  29.261  26.010  1.00  0.00    -0.275 OA
ATOM      2  C   UNL A   1      33.103  29.434  25.094  1.00  0.00     0.220 C 
ATOM      3  N   UNL A   1      31.905  30.091  25.241  1.00  0.00    -0.356 N 
ATOM      4  H   UNL A   1      31.326  30.208  24.453  1.00  0.00     0.163 HD
ENDROOT
BRANCH   2   5
ATOM      5  C   UNL A   1      33.370  28.928  23.692  1.00  0.00     0.103 C 
BRANCH   5   6
ATOM      6  C   UNL A   1      33.515  27.394  23.581  1.00  0.00     0.002 C 
ATOM      7  C   UNL A   1      32.737  26.677  24.725  1.00  0.00     0.029 C 
ATOM      8  C   UNL A   1      33.171  26.805  22.181  1.00  0.00     0.029 C 
ATOM      9  C   UNL A   1      31.345  26.143  24.318  1.00  0.00     0.087 C 
ATOM     10  C   UNL A   1      31.715  26.329  22.049  1.00  0.00     0.087 C 
ATOM     11  C   UNL A   1      30.399  27.254  23.866  1.00  0.00     0.027 C 
ATOM     12  N   UNL A   1      31.510  25.356  23.104  1.00  0.00    -0.319 N 
ATOM     13  C   UNL A   1      30.702  27.432  22.377  1.00  0.00     0.027 C 
BRANCH  12  14
ATOM     14  C   UNL A   1      31.572  24.004  23.156  1.00  0.00     0.317 C 
ATOM     15  O   UNL A   1      30.565  23.327  23.396  1.00  0.00    -0.249 OA
ATOM     16  N   UNL A   1      32.703  23.304  22.959  1.00  0.00    -0.338 N 
ATOM     17  H   UNL A   1      32.535  22.335  22.947  1.00  0.00     0.165 HD
BRANCH  16  18
ATOM     18  C   UNL A   1      34.108  23.612  22.759  1.00  0.00     0.118 C 
BRANCH  18  19
ATOM     19  C   UNL A   1      35.003  22.929  23.795  1.00  0.00     0.025 C 
BRANCH  19  20
ATOM     20  C   UNL A   1      35.815  23.888  24.624  1.00  0.00    -0.009 C 
ATOM     21  C   UNL A   1      35.838  23.699  26.123  1.00  0.00     0.004 C 
ATOM     22  C   UNL A   1      37.071  23.418  25.315  1.00  0.00     0.004 C 
ENDBRANCH  19  20
ENDBRANCH  18  19
ENDBRANCH  16  18
ENDBRANCH  12  14
ENDBRANCH   5   6
ENDBRANCH   2   5
BRANCH   3  23
ATOM     23  C   UNL A   1      31.466  30.617  26.517  1.00  0.00     0.117 C 
BRANCH  23  24
ATOM     24  C   UNL A   1      31.419  32.139  26.526  1.00  0.00     0.042 C 
BRANCH  24  25
ATOM     25  C   UNL A   1      32.608  32.792  27.224  1.00  0.00     0.118 C 
BRANCH  25  26
ATOM     26  N   UNL A   1      32.354  34.170  27.624  1.00  0.00    -0.352 N 
ATOM     27  C   UNL A   1      32.963  34.926  28.599  1.00  0.00     0.251 C 
ATOM     28  H   UNL A   1      31.642  34.629  27.122  1.00  0.00     0.163 HD
ATOM     29  O   UNL A   1      32.527  36.035  28.879  1.00  0.00    -0.269 OA
BRANCH  27  30
ATOM     30  C   UNL A   1      34.125  34.379  29.330  1.00  0.00     0.039 A 
ATOM     31  C   UNL A   1      33.907  33.712  30.538  1.00  0.00     0.014 A 
ATOM     32  C   UNL A   1      35.417  34.506  28.818  1.00  0.00     0.014 A 
ATOM     33  C   UNL A   1      34.977  33.095  31.190  1.00  0.00     0.010 A 
ATOM     34  C   UNL A   1      36.469  33.833  29.431  1.00  0.00     0.010 A 
ATOM     35  C   UNL A   1      36.258  33.112  30.617  1.00  0.00    -0.014 A 
BRANCH  35  36
ATOM     36  C   UNL A   1      37.393  32.367  31.219  1.00  0.00     0.031 A 
ATOM     37  C   UNL A   1      38.027  32.863  32.488  1.00  0.00     0.074 A 
ATOM     38  C   UNL A   1      37.913  31.306  30.574  1.00  0.00     0.049 A 
ATOM     39  N   UNL A   1      39.109  32.441  33.091  1.00  0.00    -0.248 NA
ATOM     40  C   UNL A   1      37.372  34.000  33.153  1.00  0.00     0.031 C 
ATOM     41  C   UNL A   1      37.410  30.747  29.317  1.00  0.00     0.029 A 
ATOM     42  N   UNL A   1      38.996  30.519  30.875  1.00  0.00    -0.354 N 
ATOM     43  C   UNL A   1      39.277  33.275  34.190  1.00  0.00     0.074 A 
ATOM     44  C   UNL A   1      38.210  34.251  34.147  1.00  0.00     0.031 C 
ATOM     45  C   UNL A   1      38.178  29.705  28.961  1.00  0.00     0.029 A 
ATOM     46  C   UNL A   1      39.251  29.549  29.936  1.00  0.00     0.049 A 
ATOM     47  H   UNL A   1      39.541  30.639  31.687  1.00  0.00     0.167 HD
ATOM     48  C   UNL A   1      40.225  33.218  35.156  1.00  0.00     0.037 A 
ATOM     49  C   UNL A   1      40.249  28.648  29.858  1.00  0.00     0.037 A 
ATOM     50  C   UNL A   1      41.269  32.229  35.209  1.00  0.00     0.049 A 
ATOM     51  C   UNL A   1      41.301  28.618  30.934  1.00  0.00     0.074 A 
ATOM     52  C   UNL A   1      42.242  32.056  36.178  1.00  0.00     0.029 A 
ATOM     53  N   UNL A   1      41.477  31.248  34.251  1.00  0.00    -0.354 N 
ATOM     54  N   UNL A   1      41.416  29.377  31.996  1.00  0.00    -0.248 NA
ATOM     55  C   UNL A   1      42.360  27.608  30.800  1.00  0.00     0.031 C 
ATOM     56  C   UNL A   1      43.065  30.995  35.785  1.00  0.00     0.029 A 
ATOM     57  C   UNL A   1      42.575  30.478  34.597  1.00  0.00     0.049 A 
ATOM     58  H   UNL A   1      40.927  31.118  33.447  1.00  0.00     0.167 HD
ATOM     59  C   UNL A   1      42.537  28.915  32.675  1.00  0.00     0.074 A 
ATOM     60  C   UNL A   1      43.065  27.807  31.905  1.00  0.00     0.031 C 
ATOM     61  C   UNL A   1      43.078  29.366  33.831  1.00  0.00     0.037 A 
BRANCH  48  62
ATOM     62  C   UNL A   1      40.175  34.259  36.236  1.00  0.00     0.057 A 
ATOM     63  C   UNL A   1      40.860  35.475  36.121  1.00  0.00     0.134 A 
ATOM     64  C   UNL A   1      39.404  34.058  37.388  1.00  0.00     0.134 A 
ATOM     65  F   UNL A   1      41.626  35.726  35.048  1.00  0.00    -0.206 F 
ATOM     66  C   UNL A   1      40.800  36.445  37.124  1.00  0.00     0.040 A 
ATOM     67  C   UNL A   1      39.314  35.030  38.385  1.00  0.00     0.040 A 
ATOM     68  F   UNL A   1      38.718  32.917  37.559  1.00  0.00    -0.206 F 
ATOM     69  C   UNL A   1      40.018  36.225  38.257  1.00  0.00     0.006 A 
ENDBRANCH  48  62
BRANCH  49  70
ATOM     70  C   UNL A   1      40.299  27.691  28.725  1.00  0.00     0.057 A 
ATOM     71  C   UNL A   1      41.025  27.986  27.565  1.00  0.00     0.134 A 
ATOM     72  C   UNL A   1      39.623  26.466  28.768  1.00  0.00     0.134 A 
ATOM     73  F   UNL A   1      41.678  29.152  27.457  1.00  0.00    -0.206 F 
ATOM     74  C   UNL A   1      41.063  27.106  26.482  1.00  0.00     0.040 A 
ATOM     75  C   UNL A   1      39.671  25.566  27.703  1.00  0.00     0.040 A 
ATOM     76  F   UNL A   1      38.915  26.121  29.855  1.00  0.00    -0.206 F 
ATOM     77  C   UNL A   1      40.388  25.889  26.552  1.00  0.00     0.006 A 
ENDBRANCH  49  70
BRANCH  61  78
ATOM     78  C   UNL A   1      44.272  28.637  34.369  1.00  0.00     0.057 A 
ATOM     79  C   UNL A   1      44.145  27.514  35.194  1.00  0.00     0.134 A 
ATOM     80  C   UNL A   1      45.566  29.028  34.001  1.00  0.00     0.134 A 
ATOM     81  F   UNL A   1      42.933  27.096  35.592  1.00  0.00    -0.206 F 
ATOM     82  C   UNL A   1      45.263  26.811  35.645  1.00  0.00     0.040 A 
ATOM     83  C   UNL A   1      46.691  28.320  34.426  1.00  0.00     0.040 A 
ATOM     84  F   UNL A   1      45.757  30.092  33.206  1.00  0.00    -0.206 F 
ATOM     85  C   UNL A   1      46.541  27.208  35.252  1.00  0.00     0.006 A 
ENDBRANCH  61  78
ENDBRANCH  35  36
ENDBRANCH  27  30
ENDBRANCH  25  26
ENDBRANCH  24  25
ENDBRANCH  23  24
ENDBRANCH   3  23
TORSDOF 15
ENDMDL
MODEL 3
REMARK VINA RESULT:     -10.8      1.529      2.346
REMARK SMILES O=C(C[C@H]1C[C@H]2CC[C@@H](C1)N2C(=O)NCCC1CC1)NCCCNC(=O)c1ccc(-c2c3nc(c(-c4c(F)cccc4F)c4ccc([nH]4)c(-c4c(F)cccc4F)c4nc(c(-c5c(F)cccc5F)c5ccc2[nH]5)C=C4)C=C3)cc1
REMARK SMILES IDX 1 1 2 2 20 3 3 5 4 6 5 7 10 8 6 9 9 10 7 11 11 12 8 13 12 14
REMARK SMILES IDX 13 15 14 16 15 18 16 19 17 20 18 21 19 22 21 23 22 24 23 25
REMARK SMILES IDX 24 26 25 27 26 29 27 30 28 31 80 32 29 33 79 34 30 35 31 36
REMARK SMILES IDX 32 37 73 38 33 39 78 40 72 41 74 42 34 43 77 44 71 45 70 46
REMARK SMILES IDX 35 48 61 49 44 50 60 51 45 52 48 53 59 54 75 55 46 56 47 57
REMARK SMILES IDX 58 59 76 60 49 61 36 62 37 63 42 64 38 65 39 66 41 67 43 68
REMARK SMILES IDX 40 69 62 70 63 71 68 72 64 73 65 74 67 75 69 76 66 77 50 78
REMARK SMILES IDX 51 79 56 80 52 81 53 82 55 83 57 84 54 85
REMARK H PARENT 20 4 14 17 24 28 74 47 48 58
REMARK Flexibility Score: inf
ROOT
ATOM      1  O   UNL A   1      35.759  23.407  25.953  1.00  0.00    -0.275 OA
ATOM      2  C   UNL A   1      35.127  22.900  25.032  1.00  0.00     0.220 C 
ATOM      3  N   UNL A   1      35.223  21.573  24.683  1.00  0.00    -0.356 N 
ATOM      4  H   UNL A   1      34.668  21.235  23.943  1.00  0.00     0.163 HD
ENDROOT
BRANCH   2   5
ATOM      5  C   UNL A   1      34.167  23.703  24.179  1.00  0.00     0.103 C 
BRANCH   5   6
ATOM      6  C   UNL A   1      33.737  25.052  24.796  1.00  0.00     0.002 C 
ATOM      7  C   UNL A   1      33.779  26.190  23.733  1.00  0.00     0.029 C 
ATOM      8  C   UNL A   1      32.381  25.017  25.563  1.00  0.00     0.029 C 
ATOM      9  C   UNL A   1      32.409  26.532  23.105  1.00  0.00     0.087 C 
ATOM     10  C   UNL A   1      31.172  25.421  24.703  1.00  0.00     0.087 C 
ATOM     11  C   UNL A   1      31.794  25.350  22.358  1.00  0.00     0.027 C 
ATOM     12  N   UNL A   1      31.465  26.746  24.192  1.00  0.00    -0.319 N 
ATOM     13  C   UNL A   1      31.039  24.569  23.435  1.00  0.00     0.027 C 
BRANCH  12  14
ATOM     14  C   UNL A   1      31.143  27.998  24.596  1.00  0.00     0.317 C 
ATOM     15  O   UNL A   1      31.424  28.394  25.733  1.00  0.00    -0.249 OA
ATOM     16  N   UNL A   1      30.504  28.888  23.817  1.00  0.00    -0.338 N 
ATOM     17  H   UNL A   1      30.436  29.769  24.250  1.00  0.00     0.165 HD
BRANCH  16  18
ATOM     18  C   UNL A   1      29.888  28.883  22.502  1.00  0.00     0.118 C 
BRANCH  18  19
ATOM     19  C   UNL A   1      29.359  30.263  22.104  1.00  0.00     0.025 C 
BRANCH  19  20
ATOM     20  C   UNL A   1      29.019  31.144  23.276  1.00  0.00    -0.009 C 
ATOM     21  C   UNL A   1      28.271  32.430  23.013  1.00  0.00     0.004 C 
ATOM     22  C   UNL A   1      27.585  31.298  23.718  1.00  0.00     0.004 C 
ENDBRANCH  19  20
ENDBRANCH  18  19
ENDBRANCH  16  18
ENDBRANCH  12  14
ENDBRANCH   5   6
ENDBRANCH   2   5
BRANCH   3  23
ATOM     23  C   UNL A   1      36.114  20.659  25.366  1.00  0.00     0.117 C 
BRANCH  23  24
ATOM     24  C   UNL A   1      37.505  20.643  24.748  1.00  0.00     0.042 C 
BRANCH  24  25
ATOM     25  C   UNL A   1      38.635  20.810  25.760  1.00  0.00     0.118 C 
BRANCH  25  26
ATOM     26  N   UNL A   1      39.628  19.745  25.695  1.00  0.00    -0.352 N 
ATOM     27  C   UNL A   1      40.967  19.776  26.006  1.00  0.00     0.251 C 
ATOM     28  H   UNL A   1      39.289  18.874  25.384  1.00  0.00     0.163 HD
ATOM     29  O   UNL A   1      41.676  18.807  25.768  1.00  0.00    -0.269 OA
BRANCH  27  30
ATOM     30  C   UNL A   1      41.554  20.996  26.598  1.00  0.00     0.039 A 
ATOM     31  C   UNL A   1      42.057  21.983  25.747  1.00  0.00     0.014 A 
ATOM     32  C   UNL A   1      41.589  21.175  27.982  1.00  0.00     0.014 A 
ATOM     33  C   UNL A   1      42.516  23.189  26.280  1.00  0.00     0.010 A 
ATOM     34  C   UNL A   1      41.981  22.402  28.508  1.00  0.00     0.010 A 
ATOM     35  C   UNL A   1      42.439  23.425  27.662  1.00  0.00    -0.014 A 
BRANCH  35  36
ATOM     36  C   UNL A   1      42.806  24.737  28.251  1.00  0.00     0.031 A 
ATOM     37  C   UNL A   1      41.753  25.788  28.462  1.00  0.00     0.074 A 
ATOM     38  C   UNL A   1      44.099  25.017  28.504  1.00  0.00     0.049 A 
ATOM     39  N   UNL A   1      41.892  27.037  28.826  1.00  0.00    -0.248 NA
ATOM     40  C   UNL A   1      40.361  25.388  28.204  1.00  0.00     0.031 C 
ATOM     41  C   UNL A   1      45.220  24.095  28.310  1.00  0.00     0.029 A 
ATOM     42  N   UNL A   1      44.693  26.168  28.958  1.00  0.00    -0.354 N 
ATOM     43  C   UNL A   1      40.612  27.577  28.817  1.00  0.00     0.074 A 
ATOM     44  C   UNL A   1      39.715  26.532  28.372  1.00  0.00     0.031 C 
ATOM     45  C   UNL A   1      46.363  24.713  28.650  1.00  0.00     0.029 A 
ATOM     46  C   UNL A   1      46.062  26.086  29.043  1.00  0.00     0.049 A 
ATOM     47  H   UNL A   1      44.186  26.977  29.200  1.00  0.00     0.167 HD
ATOM     48  C   UNL A   1      40.220  28.825  29.166  1.00  0.00     0.037 A 
ATOM     49  C   UNL A   1      46.975  27.017  29.379  1.00  0.00     0.037 A 
ATOM     50  C   UNL A   1      41.111  29.854  29.633  1.00  0.00     0.049 A 
ATOM     51  C   UNL A   1      46.515  28.403  29.744  1.00  0.00     0.074 A 
ATOM     52  C   UNL A   1      40.801  31.132  30.064  1.00  0.00     0.029 A 
ATOM     53  N   UNL A   1      42.489  29.721  29.728  1.00  0.00    -0.354 N 
ATOM     54  N   UNL A   1      45.296  28.882  29.784  1.00  0.00    -0.248 NA
ATOM     55  C   UNL A   1      47.556  29.373  30.110  1.00  0.00     0.031 C 
ATOM     56  C   UNL A   1      41.995  31.788  30.380  1.00  0.00     0.029 A 
ATOM     57  C   UNL A   1      43.044  30.902  30.193  1.00  0.00     0.049 A 
ATOM     58  H   UNL A   1      42.996  28.910  29.500  1.00  0.00     0.167 HD
ATOM     59  C   UNL A   1      45.420  30.199  30.212  1.00  0.00     0.074 A 
ATOM     60  C   UNL A   1      46.833  30.440  30.422  1.00  0.00     0.031 C 
ATOM     61  C   UNL A   1      44.450  31.122  30.415  1.00  0.00     0.037 A 
BRANCH  48  62
ATOM     62  C   UNL A   1      38.759  29.148  29.055  1.00  0.00     0.057 A 
ATOM     63  C   UNL A   1      37.903  29.091  30.163  1.00  0.00     0.134 A 
ATOM     64  C   UNL A   1      38.208  29.558  27.833  1.00  0.00     0.134 A 
ATOM     65  F   UNL A   1      38.365  28.695  31.359  1.00  0.00    -0.206 F 
ATOM     66  C   UNL A   1      36.547  29.404  30.055  1.00  0.00     0.040 A 
ATOM     67  C   UNL A   1      36.860  29.900  27.719  1.00  0.00     0.040 A 
ATOM     68  F   UNL A   1      38.972  29.640  26.734  1.00  0.00    -0.206 F 
ATOM     69  C   UNL A   1      36.024  29.818  28.831  1.00  0.00     0.006 A 
ENDBRANCH  48  62
BRANCH  49  70
ATOM     70  C   UNL A   1      48.418  26.671  29.396  1.00  0.00     0.057 A 
ATOM     71  C   UNL A   1      49.004  26.086  30.525  1.00  0.00     0.134 A 
ATOM     72  C   UNL A   1      49.247  26.919  28.295  1.00  0.00     0.134 A 
ATOM     73  F   UNL A   1      48.267  25.841  31.618  1.00  0.00    -0.206 F 
ATOM     74  C   UNL A   1      50.364  25.775  30.565  1.00  0.00     0.040 A 
ATOM     75  C   UNL A   1      50.603  26.592  28.312  1.00  0.00     0.040 A 
ATOM     76  F   UNL A   1      48.744  27.471  27.181  1.00  0.00    -0.206 F 
ATOM     77  C   UNL A   1      51.167  26.024  29.453  1.00  0.00     0.006 A 
ENDBRANCH  49  70
BRANCH  61  78
ATOM     78  C   UNL A   1      44.869  32.464  30.937  1.00  0.00     0.057 A 
ATOM     79  C   UNL A   1      45.165  33.532  30.083  1.00  0.00     0.134 A 
ATOM     80  C   UNL A   1      44.914  32.705  32.317  1.00  0.00     0.134 A 
ATOM     81  F   UNL A   1      45.152  33.361  28.752  1.00  0.00    -0.206 F 
ATOM     82  C   UNL A   1      45.502  34.791  30.581  1.00  0.00     0.040 A 
ATOM     83  C   UNL A   1      45.226  33.965  32.827  1.00  0.00     0.040 A 
ATOM     84  F   UNL A   1      44.634  31.725  33.189  1.00  0.00    -0.206 F 
ATOM     85  C   UNL A   1      45.523  35.013  31.958  1.00  0.00     0.006 A 
ENDBRANCH  61  78
ENDBRANCH  35  36
ENDBRANCH  27  30
ENDBRANCH  25  26
ENDBRANCH  24  25
ENDBRANCH  23  24
ENDBRANCH   3  23
TORSDOF 15
ENDMDL
