MODEL 1
REMARK VINA RESULT:     -12.3      0.000      0.000
REMARK SMILES C[C@@H](Oc1ccc(-c2ccccc2)cc1)C(=O)N1CCC[C@H](C(=O)NCCCNC(=O)c2ccc(-c3c4nc(c(-c5c(F)cccc5F)c5ccc([nH]5)c(-c5c(F)cccc5F)c5nc(c(-c6c(F)cccc6F)c6ccc3[nH]6)C=C5)C=C4)cc2)C1
REMARK SMILES IDX 23 1 24 2 25 3 22 5 18 6 19 7 86 8 20 9 21 10 16 11 17 12
REMARK SMILES IDX 2 13 1 14 3 15 4 16 5 17 15 18 6 19 14 20 7 21 8 22 9 23
REMARK SMILES IDX 13 24 10 25 12 26 11 27 26 28 27 29 28 30 29 31 30 32 31 34
REMARK SMILES IDX 32 35 33 36 85 37 34 38 84 39 35 40 36 41 37 42 78 43 38 44
REMARK SMILES IDX 83 45 77 46 79 47 39 48 82 49 76 50 75 51 40 53 66 54 49 55
REMARK SMILES IDX 65 56 50 57 53 58 64 59 80 60 51 61 52 62 63 64 81 65 54 66
REMARK SMILES IDX 41 67 42 68 47 69 43 70 44 71 46 72 48 73 45 74 67 75 68 76
REMARK SMILES IDX 73 77 69 78 70 79 72 80 74 81 71 82 55 83 56 84 61 85 57 86
REMARK SMILES IDX 58 87 60 88 62 89 59 90
REMARK H PARENT 25 4 29 33 79 52 53 63
REMARK Flexibility Score: inf
ROOT
ATOM      1  C   UNL A   1      32.623  28.886  25.086  1.00  0.00     0.224 C 
ATOM      2  O   UNL A   1      33.826  28.633  24.953  1.00  0.00    -0.275 OA
ATOM      3  N   UNL A   1      32.320  30.176  25.380  1.00  0.00    -0.356 N 
ATOM      4  H   UNL A   1      33.099  30.737  25.597  1.00  0.00     0.163 HD
ENDROOT
BRANCH   1   5
ATOM      5  C   UNL A   1      31.599  27.746  24.956  1.00  0.00     0.098 C 
ATOM      6  N   UNL A   1      32.319  25.758  23.590  1.00  0.00    -0.339 N 
ATOM      7  C   UNL A   1      31.212  25.940  22.660  1.00  0.00     0.119 C 
ATOM      8  C   UNL A   1      32.162  26.320  24.929  1.00  0.00     0.133 C 
ATOM      9  C   UNL A   1      30.741  27.381  22.564  1.00  0.00     0.022 C 
ATOM     10  C   UNL A   1      30.503  28.020  23.925  1.00  0.00     0.017 C 
BRANCH   6  11
ATOM     11  C   UNL A   1      33.414  25.007  23.162  1.00  0.00     0.263 C 
ATOM     12  O   UNL A   1      33.875  25.161  22.025  1.00  0.00    -0.271 OA
BRANCH  11  13
ATOM     13  C   UNL A   1      33.962  23.889  24.060  1.00  0.00     0.259 C 
ATOM     14  C   UNL A   1      33.092  22.651  24.216  1.00  0.00     0.064 C 
BRANCH  13  15
ATOM     15  O   UNL A   1      35.215  23.575  23.437  1.00  0.00    -0.481 OA
BRANCH  15  16
ATOM     16  C   UNL A   1      36.136  23.084  24.313  1.00  0.00     0.120 A 
ATOM     17  C   UNL A   1      36.667  23.907  25.303  1.00  0.00     0.047 A 
ATOM     18  C   UNL A   1      36.654  21.820  24.081  1.00  0.00     0.047 A 
ATOM     19  C   UNL A   1      37.762  23.459  26.051  1.00  0.00     0.012 A 
ATOM     20  C   UNL A   1      37.733  21.375  24.833  1.00  0.00     0.012 A 
ATOM     21  C   UNL A   1      38.332  22.198  25.801  1.00  0.00    -0.018 A 
BRANCH  21  22
ATOM     22  C   UNL A   1      39.572  21.757  26.456  1.00  0.00    -0.018 A 
ATOM     23  C   UNL A   1      40.266  22.568  27.363  1.00  0.00     0.009 A 
ATOM     24  C   UNL A   1      40.082  20.473  26.188  1.00  0.00     0.009 A 
ATOM     25  C   UNL A   1      41.420  22.098  27.999  1.00  0.00     0.001 A 
ATOM     26  C   UNL A   1      41.231  20.001  26.822  1.00  0.00     0.001 A 
ATOM     27  C   UNL A   1      41.896  20.814  27.732  1.00  0.00     0.000 A 
ENDBRANCH  21  22
ENDBRANCH  15  16
ENDBRANCH  13  15
ENDBRANCH  11  13
ENDBRANCH   6  11
ENDBRANCH   1   5
BRANCH   3  28
ATOM     28  C   UNL A   1      31.053  30.865  25.432  1.00  0.00     0.117 C 
BRANCH  28  29
ATOM     29  C   UNL A   1      30.987  31.962  26.476  1.00  0.00     0.042 C 
BRANCH  29  30
ATOM     30  C   UNL A   1      32.350  32.514  26.836  1.00  0.00     0.118 C 
BRANCH  30  31
ATOM     31  N   UNL A   1      32.288  33.856  27.408  1.00  0.00    -0.352 N 
ATOM     32  C   UNL A   1      33.079  34.471  28.351  1.00  0.00     0.251 C 
ATOM     33  H   UNL A   1      31.555  34.415  27.060  1.00  0.00     0.163 HD
ATOM     34  O   UNL A   1      32.779  35.575  28.774  1.00  0.00    -0.269 OA
BRANCH  32  35
ATOM     35  C   UNL A   1      34.276  33.780  28.877  1.00  0.00     0.039 A 
ATOM     36  C   UNL A   1      35.517  34.418  28.797  1.00  0.00     0.014 A 
ATOM     37  C   UNL A   1      34.177  32.518  29.463  1.00  0.00     0.014 A 
ATOM     38  C   UNL A   1      36.640  33.820  29.373  1.00  0.00     0.010 A 
ATOM     39  C   UNL A   1      35.260  31.991  30.149  1.00  0.00     0.010 A 
ATOM     40  C   UNL A   1      36.509  32.622  30.093  1.00  0.00    -0.014 A 
BRANCH  40  41
ATOM     41  C   UNL A   1      37.665  31.982  30.765  1.00  0.00     0.031 A 
ATOM     42  C   UNL A   1      38.483  30.958  30.025  1.00  0.00     0.074 A 
ATOM     43  C   UNL A   1      37.929  32.258  32.055  1.00  0.00     0.049 A 
ATOM     44  N   UNL A   1      39.472  30.218  30.455  1.00  0.00    -0.248 NA
ATOM     45  C   UNL A   1      38.107  30.699  28.625  1.00  0.00     0.031 C 
ATOM     46  C   UNL A   1      37.176  33.191  32.896  1.00  0.00     0.029 A 
ATOM     47  N   UNL A   1      38.906  31.775  32.889  1.00  0.00    -0.354 N 
ATOM     48  C   UNL A   1      39.812  29.391  29.392  1.00  0.00     0.074 A 
ATOM     49  C   UNL A   1      38.876  29.666  28.325  1.00  0.00     0.031 C 
ATOM     50  C   UNL A   1      37.747  33.247  34.110  1.00  0.00     0.029 A 
ATOM     51  C   UNL A   1      38.876  32.324  34.147  1.00  0.00     0.049 A 
ATOM     52  H   UNL A   1      39.565  31.099  32.611  1.00  0.00     0.167 HD
ATOM     53  C   UNL A   1      40.832  28.506  29.297  1.00  0.00     0.037 A 
ATOM     54  C   UNL A   1      39.675  32.109  35.208  1.00  0.00     0.037 A 
ATOM     55  C   UNL A   1      41.781  28.266  30.350  1.00  0.00     0.049 A 
ATOM     56  C   UNL A   1      40.802  31.123  35.085  1.00  0.00     0.074 A 
ATOM     57  C   UNL A   1      42.896  27.447  30.339  1.00  0.00     0.029 A 
ATOM     58  N   UNL A   1      41.723  28.848  31.608  1.00  0.00    -0.354 N 
ATOM     59  N   UNL A   1      41.158  30.398  34.052  1.00  0.00    -0.248 NA
ATOM     60  C   UNL A   1      41.639  30.925  36.276  1.00  0.00     0.031 C 
ATOM     61  C   UNL A   1      43.485  27.498  31.607  1.00  0.00     0.029 A 
ATOM     62  C   UNL A   1      42.768  28.388  32.392  1.00  0.00     0.049 A 
ATOM     63  H   UNL A   1      41.039  29.494  31.901  1.00  0.00     0.167 HD
ATOM     64  C   UNL A   1      42.276  29.681  34.456  1.00  0.00     0.074 A 
ATOM     65  C   UNL A   1      42.544  30.067  35.827  1.00  0.00     0.031 C 
ATOM     66  C   UNL A   1      43.016  28.786  33.755  1.00  0.00     0.037 A 
BRANCH  53  67
ATOM     67  C   UNL A   1      40.958  27.742  28.009  1.00  0.00     0.057 A 
ATOM     68  C   UNL A   1      40.329  26.504  27.816  1.00  0.00     0.134 A 
ATOM     69  C   UNL A   1      41.738  28.237  26.958  1.00  0.00     0.134 A 
ATOM     70  F   UNL A   1      39.579  25.962  28.788  1.00  0.00    -0.206 F 
ATOM     71  C   UNL A   1      40.511  25.763  26.645  1.00  0.00     0.040 A 
ATOM     72  C   UNL A   1      41.901  27.523  25.769  1.00  0.00     0.040 A 
ATOM     73  F   UNL A   1      42.365  29.418  27.070  1.00  0.00    -0.206 F 
ATOM     74  C   UNL A   1      41.297  26.275  25.616  1.00  0.00     0.006 A 
ENDBRANCH  53  67
BRANCH  54  75
ATOM     75  C   UNL A   1      39.470  32.887  36.455  1.00  0.00     0.057 A 
ATOM     76  C   UNL A   1      40.137  34.101  36.656  1.00  0.00     0.134 A 
ATOM     77  C   UNL A   1      38.593  32.459  37.457  1.00  0.00     0.134 A 
ATOM     78  F   UNL A   1      41.002  34.555  35.737  1.00  0.00    -0.206 F 
ATOM     79  C   UNL A   1      39.946  34.859  37.812  1.00  0.00     0.040 A 
ATOM     80  C   UNL A   1      38.375  33.217  38.610  1.00  0.00     0.040 A 
ATOM     81  F   UNL A   1      37.917  31.309  37.321  1.00  0.00    -0.206 F 
ATOM     82  C   UNL A   1      39.056  34.420  38.790  1.00  0.00     0.006 A 
ENDBRANCH  54  75
BRANCH  66  83
ATOM     83  C   UNL A   1      44.204  28.188  34.450  1.00  0.00     0.057 A 
ATOM     84  C   UNL A   1      44.125  26.968  35.134  1.00  0.00     0.134 A 
ATOM     85  C   UNL A   1      45.452  28.822  34.397  1.00  0.00     0.134 A 
ATOM     86  F   UNL A   1      42.956  26.317  35.231  1.00  0.00    -0.206 F 
ATOM     87  C   UNL A   1      45.241  26.411  35.759  1.00  0.00     0.040 A 
ATOM     88  C   UNL A   1      46.581  28.262  34.995  1.00  0.00     0.040 A 
ATOM     89  F   UNL A   1      45.597  29.989  33.752  1.00  0.00    -0.206 F 
ATOM     90  C   UNL A   1      46.476  27.054  35.683  1.00  0.00     0.006 A 
ENDBRANCH  66  83
ENDBRANCH  40  41
ENDBRANCH  32  35
ENDBRANCH  30  31
ENDBRANCH  29  30
ENDBRANCH  28  29
ENDBRANCH   3  28
TORSDOF 15
ENDMDL
MODEL 2
REMARK VINA RESULT:     -12.1      3.891      7.513
REMARK SMILES C[C@@H](Oc1ccc(-c2ccccc2)cc1)C(=O)N1CCC[C@H](C(=O)NCCCNC(=O)c2ccc(-c3c4nc(c(-c5c(F)cccc5F)c5ccc([nH]5)c(-c5c(F)cccc5F)c5nc(c(-c6c(F)cccc6F)c6ccc3[nH]6)C=C5)C=C4)cc2)C1
REMARK SMILES IDX 23 1 24 2 25 3 22 5 18 6 19 7 86 8 20 9 21 10 16 11 17 12
REMARK SMILES IDX 2 13 1 14 3 15 4 16 5 17 15 18 6 19 14 20 7 21 8 22 9 23
REMARK SMILES IDX 13 24 10 25 12 26 11 27 26 28 27 29 28 30 29 31 30 32 31 34
REMARK SMILES IDX 32 35 33 36 85 37 34 38 84 39 35 40 36 41 37 42 78 43 38 44
REMARK SMILES IDX 83 45 77 46 79 47 39 48 82 49 76 50 75 51 40 53 66 54 49 55
REMARK SMILES IDX 65 56 50 57 53 58 64 59 80 60 51 61 52 62 63 64 81 65 54 66
REMARK SMILES IDX 41 67 42 68 47 69 43 70 44 71 46 72 48 73 45 74 67 75 68 76
REMARK SMILES IDX 73 77 69 78 70 79 72 80 74 81 71 82 55 83 56 84 61 85 57 86
REMARK SMILES IDX 58 87 60 88 62 89 59 90
REMARK H PARENT 25 4 29 33 79 52 53 63
REMARK Flexibility Score: inf
ROOT
ATOM      1  C   UNL A   1      34.016  25.924  22.793  1.00  0.00     0.224 C 
ATOM      2  O   UNL A   1      33.624  25.996  21.621  1.00  0.00    -0.275 OA
ATOM      3  N   UNL A   1      34.405  24.693  23.210  1.00  0.00    -0.356 N 
ATOM      4  H   UNL A   1      34.199  23.965  22.580  1.00  0.00     0.163 HD
ENDROOT
BRANCH   1   5
ATOM      5  C   UNL A   1      33.987  27.186  23.670  1.00  0.00     0.098 C 
ATOM      6  N   UNL A   1      32.044  27.389  25.260  1.00  0.00    -0.339 N 
ATOM      7  C   UNL A   1      31.613  28.636  24.643  1.00  0.00     0.119 C 
ATOM      8  C   UNL A   1      33.447  27.017  25.096  1.00  0.00     0.133 C 
ATOM      9  C   UNL A   1      32.012  28.752  23.181  1.00  0.00     0.022 C 
ATOM     10  C   UNL A   1      33.479  28.430  22.939  1.00  0.00     0.017 C 
BRANCH   6  11
ATOM     11  C   UNL A   1      31.112  26.677  26.014  1.00  0.00     0.263 C 
ATOM     12  O   UNL A   1      31.021  26.861  27.234  1.00  0.00    -0.271 OA
BRANCH  11  13
ATOM     13  C   UNL A   1      30.290  25.565  25.349  1.00  0.00     0.259 C 
ATOM     14  C   UNL A   1      28.904  25.946  24.852  1.00  0.00     0.064 C 
BRANCH  13  15
ATOM     15  O   UNL A   1      31.139  25.152  24.269  1.00  0.00    -0.481 OA
BRANCH  15  16
ATOM     16  C   UNL A   1      31.338  23.805  24.236  1.00  0.00     0.120 A 
ATOM     17  C   UNL A   1      31.663  23.116  25.401  1.00  0.00     0.047 A 
ATOM     18  C   UNL A   1      31.388  23.180  22.999  1.00  0.00     0.047 A 
ATOM     19  C   UNL A   1      32.077  21.782  25.316  1.00  0.00     0.012 A 
ATOM     20  C   UNL A   1      31.788  21.853  22.920  1.00  0.00     0.012 A 
ATOM     21  C   UNL A   1      32.178  21.142  24.068  1.00  0.00    -0.018 A 
BRANCH  21  22
ATOM     22  C   UNL A   1      32.753  19.797  23.923  1.00  0.00    -0.018 A 
ATOM     23  C   UNL A   1      32.288  18.886  22.967  1.00  0.00     0.009 A 
ATOM     24  C   UNL A   1      33.820  19.402  24.752  1.00  0.00     0.009 A 
ATOM     25  C   UNL A   1      32.888  17.630  22.828  1.00  0.00     0.001 A 
ATOM     26  C   UNL A   1      34.421  18.152  24.616  1.00  0.00     0.001 A 
ATOM     27  C   UNL A   1      33.957  17.268  23.649  1.00  0.00     0.000 A 
ENDBRANCH  21  22
ENDBRANCH  15  16
ENDBRANCH  13  15
ENDBRANCH  11  13
ENDBRANCH   6  11
ENDBRANCH   1   5
BRANCH   3  28
ATOM     28  C   UNL A   1      35.069  24.267  24.419  1.00  0.00     0.117 C 
BRANCH  28  29
ATOM     29  C   UNL A   1      35.475  22.806  24.420  1.00  0.00     0.042 C 
BRANCH  29  30
ATOM     30  C   UNL A   1      35.964  22.332  25.772  1.00  0.00     0.118 C 
BRANCH  30  31
ATOM     31  N   UNL A   1      37.005  21.312  25.675  1.00  0.00    -0.352 N 
ATOM     32  C   UNL A   1      38.363  21.389  25.882  1.00  0.00     0.251 C 
ATOM     33  H   UNL A   1      36.678  20.419  25.419  1.00  0.00     0.163 HD
ATOM     34  O   UNL A   1      39.073  20.428  25.634  1.00  0.00    -0.269 OA
BRANCH  32  35
ATOM     35  C   UNL A   1      38.968  22.647  26.372  1.00  0.00     0.039 A 
ATOM     36  C   UNL A   1      40.053  22.579  27.250  1.00  0.00     0.014 A 
ATOM     37  C   UNL A   1      38.481  23.886  25.958  1.00  0.00     0.014 A 
ATOM     38  C   UNL A   1      40.694  23.754  27.648  1.00  0.00     0.010 A 
ATOM     39  C   UNL A   1      39.198  25.038  26.244  1.00  0.00     0.010 A 
ATOM     40  C   UNL A   1      40.298  24.989  27.111  1.00  0.00    -0.014 A 
BRANCH  40  41
ATOM     41  C   UNL A   1      40.985  26.254  27.465  1.00  0.00     0.031 A 
ATOM     42  C   UNL A   1      42.412  26.470  27.042  1.00  0.00     0.074 A 
ATOM     43  C   UNL A   1      40.359  27.168  28.230  1.00  0.00     0.049 A 
ATOM     44  N   UNL A   1      43.222  27.459  27.323  1.00  0.00    -0.248 NA
ATOM     45  C   UNL A   1      43.028  25.407  26.229  1.00  0.00     0.031 C 
ATOM     46  C   UNL A   1      38.995  27.049  28.749  1.00  0.00     0.029 A 
ATOM     47  N   UNL A   1      40.792  28.378  28.709  1.00  0.00    -0.354 N 
ATOM     48  C   UNL A   1      44.441  27.121  26.750  1.00  0.00     0.074 A 
ATOM     49  C   UNL A   1      44.288  25.805  26.172  1.00  0.00     0.031 C 
ATOM     50  C   UNL A   1      38.687  28.163  29.433  1.00  0.00     0.029 A 
ATOM     51  C   UNL A   1      39.844  29.052  29.439  1.00  0.00     0.049 A 
ATOM     52  H   UNL A   1      41.696  28.729  28.544  1.00  0.00     0.167 HD
ATOM     53  C   UNL A   1      45.578  27.853  26.679  1.00  0.00     0.037 A 
ATOM     54  C   UNL A   1      39.903  30.254  30.039  1.00  0.00     0.037 A 
ATOM     55  C   UNL A   1      45.710  29.177  27.224  1.00  0.00     0.049 A 
ATOM     56  C   UNL A   1      41.172  31.053  29.951  1.00  0.00     0.074 A 
ATOM     57  C   UNL A   1      46.788  30.039  27.148  1.00  0.00     0.029 A 
ATOM     58  N   UNL A   1      44.723  29.830  27.950  1.00  0.00    -0.354 N 
ATOM     59  N   UNL A   1      42.297  30.754  29.346  1.00  0.00    -0.248 NA
ATOM     60  C   UNL A   1      41.181  32.356  30.629  1.00  0.00     0.031 C 
ATOM     61  C   UNL A   1      46.471  31.196  27.869  1.00  0.00     0.029 A 
ATOM     62  C   UNL A   1      45.177  31.076  28.351  1.00  0.00     0.049 A 
ATOM     63  H   UNL A   1      43.832  29.462  28.151  1.00  0.00     0.167 HD
ATOM     64  C   UNL A   1      43.137  31.843  29.544  1.00  0.00     0.074 A 
ATOM     65  C   UNL A   1      42.386  32.811  30.317  1.00  0.00     0.031 C 
ATOM     66  C   UNL A   1      44.413  32.025  29.120  1.00  0.00     0.037 A 
BRANCH  53  67
ATOM     67  C   UNL A   1      46.755  27.224  25.988  1.00  0.00     0.057 A 
ATOM     68  C   UNL A   1      47.711  26.474  26.687  1.00  0.00     0.134 A 
ATOM     69  C   UNL A   1      46.950  27.392  24.613  1.00  0.00     0.134 A 
ATOM     70  F   UNL A   1      47.596  26.287  28.011  1.00  0.00    -0.206 F 
ATOM     71  C   UNL A   1      48.843  25.956  26.053  1.00  0.00     0.040 A 
ATOM     72  C   UNL A   1      48.059  26.850  23.960  1.00  0.00     0.040 A 
ATOM     73  F   UNL A   1      46.072  28.093  23.879  1.00  0.00    -0.206 F 
ATOM     74  C   UNL A   1      49.017  26.142  24.684  1.00  0.00     0.006 A 
ENDBRANCH  53  67
BRANCH  54  75
ATOM     75  C   UNL A   1      38.703  30.796  30.723  1.00  0.00     0.057 A 
ATOM     76  C   UNL A   1      38.466  30.521  32.075  1.00  0.00     0.134 A 
ATOM     77  C   UNL A   1      37.783  31.617  30.062  1.00  0.00     0.134 A 
ATOM     78  F   UNL A   1      39.305  29.728  32.758  1.00  0.00    -0.206 F 
ATOM     79  C   UNL A   1      37.355  31.035  32.744  1.00  0.00     0.040 A 
ATOM     80  C   UNL A   1      36.677  32.156  30.724  1.00  0.00     0.040 A 
ATOM     81  F   UNL A   1      37.957  31.926  28.769  1.00  0.00    -0.206 F 
ATOM     82  C   UNL A   1      36.460  31.861  32.068  1.00  0.00     0.006 A 
ENDBRANCH  54  75
BRANCH  66  83
ATOM     83  C   UNL A   1      45.065  33.333  29.459  1.00  0.00     0.057 A 
ATOM     84  C   UNL A   1      44.946  34.456  28.631  1.00  0.00     0.134 A 
ATOM     85  C   UNL A   1      45.786  33.480  30.651  1.00  0.00     0.134 A 
ATOM     86  F   UNL A   1      44.279  34.377  27.470  1.00  0.00    -0.206 F 
ATOM     87  C   UNL A   1      45.539  35.674  28.967  1.00  0.00     0.040 A 
ATOM     88  C   UNL A   1      46.360  34.699  31.011  1.00  0.00     0.040 A 
ATOM     89  F   UNL A   1      45.931  32.445  31.493  1.00  0.00    -0.206 F 
ATOM     90  C   UNL A   1      46.242  35.799  30.164  1.00  0.00     0.006 A 
ENDBRANCH  66  83
ENDBRANCH  40  41
ENDBRANCH  32  35
ENDBRANCH  30  31
ENDBRANCH  29  30
ENDBRANCH  28  29
ENDBRANCH   3  28
TORSDOF 15
ENDMDL
MODEL 3
REMARK VINA RESULT:     -12.1      3.929      9.057
REMARK SMILES C[C@@H](Oc1ccc(-c2ccccc2)cc1)C(=O)N1CCC[C@H](C(=O)NCCCNC(=O)c2ccc(-c3c4nc(c(-c5c(F)cccc5F)c5ccc([nH]5)c(-c5c(F)cccc5F)c5nc(c(-c6c(F)cccc6F)c6ccc3[nH]6)C=C5)C=C4)cc2)C1
REMARK SMILES IDX 23 1 24 2 25 3 22 5 18 6 19 7 86 8 20 9 21 10 16 11 17 12
REMARK SMILES IDX 2 13 1 14 3 15 4 16 5 17 15 18 6 19 14 20 7 21 8 22 9 23
REMARK SMILES IDX 13 24 10 25 12 26 11 27 26 28 27 29 28 30 29 31 30 32 31 34
REMARK SMILES IDX 32 35 33 36 85 37 34 38 84 39 35 40 36 41 37 42 78 43 38 44
REMARK SMILES IDX 83 45 77 46 79 47 39 48 82 49 76 50 75 51 40 53 66 54 49 55
REMARK SMILES IDX 65 56 50 57 53 58 64 59 80 60 51 61 52 62 63 64 81 65 54 66
REMARK SMILES IDX 41 67 42 68 47 69 43 70 44 71 46 72 48 73 45 74 67 75 68 76
REMARK SMILES IDX 73 77 69 78 70 79 72 80 74 81 71 82 55 83 56 84 61 85 57 86
REMARK SMILES IDX 58 87 60 88 62 89 59 90
REMARK H PARENT 25 4 29 33 79 52 53 63
REMARK Flexibility Score: inf
ROOT
ATOM      1  C   UNL A   1      34.021  25.936  22.770  1.00  0.00     0.224 C 
ATOM      2  O   UNL A   1      33.619  26.026  21.604  1.00  0.00    -0.275 OA
ATOM      3  N   UNL A   1      34.463  24.710  23.149  1.00  0.00    -0.356 N 
ATOM      4  H   UNL A   1      34.280  23.993  22.499  1.00  0.00     0.163 HD
ENDROOT
BRANCH   1   5
ATOM      5  C   UNL A   1      33.949  27.170  23.685  1.00  0.00     0.098 C 
ATOM      6  N   UNL A   1      31.936  27.320  25.190  1.00  0.00    -0.339 N 
ATOM      7  C   UNL A   1      31.530  28.586  24.594  1.00  0.00     0.119 C 
ATOM      8  C   UNL A   1      33.347  26.955  25.078  1.00  0.00     0.133 C 
ATOM      9  C   UNL A   1      31.994  28.747  23.156  1.00  0.00     0.022 C 
ATOM     10  C   UNL A   1      33.472  28.435  22.970  1.00  0.00     0.017 C 
BRANCH   6  11
ATOM     11  C   UNL A   1      30.973  26.584  25.879  1.00  0.00     0.263 C 
ATOM     12  O   UNL A   1      30.847  26.707  27.104  1.00  0.00    -0.271 OA
BRANCH  11  13
ATOM     13  C   UNL A   1      30.159  25.518  25.134  1.00  0.00     0.259 C 
ATOM     14  C   UNL A   1      28.809  25.954  24.582  1.00  0.00     0.064 C 
BRANCH  13  15
ATOM     15  O   UNL A   1      31.051  25.121  24.084  1.00  0.00    -0.481 OA
BRANCH  15  16
ATOM     16  C   UNL A   1      31.268  23.776  24.052  1.00  0.00     0.120 A 
ATOM     17  C   UNL A   1      31.467  23.071  25.236  1.00  0.00     0.047 A 
ATOM     18  C   UNL A   1      31.464  23.173  22.819  1.00  0.00     0.047 A 
ATOM     19  C   UNL A   1      31.902  21.742  25.177  1.00  0.00     0.012 A 
ATOM     20  C   UNL A   1      31.885  21.851  22.765  1.00  0.00     0.012 A 
ATOM     21  C   UNL A   1      32.151  21.125  23.939  1.00  0.00    -0.018 A 
BRANCH  21  22
ATOM     22  C   UNL A   1      32.754  19.788  23.839  1.00  0.00    -0.018 A 
ATOM     23  C   UNL A   1      33.745  19.348  24.725  1.00  0.00     0.009 A 
ATOM     24  C   UNL A   1      32.320  18.901  22.836  1.00  0.00     0.009 A 
ATOM     25  C   UNL A   1      34.265  18.053  24.626  1.00  0.00     0.001 A 
ATOM     26  C   UNL A   1      32.835  17.610  22.736  1.00  0.00     0.001 A 
ATOM     27  C   UNL A   1      33.805  17.185  23.636  1.00  0.00     0.000 A 
ENDBRANCH  21  22
ENDBRANCH  15  16
ENDBRANCH  13  15
ENDBRANCH  11  13
ENDBRANCH   6  11
ENDBRANCH   1   5
BRANCH   3  28
ATOM     28  C   UNL A   1      35.151  24.275  24.341  1.00  0.00     0.117 C 
BRANCH  28  29
ATOM     29  C   UNL A   1      35.233  22.769  24.494  1.00  0.00     0.042 C 
BRANCH  29  30
ATOM     30  C   UNL A   1      35.908  22.344  25.781  1.00  0.00     0.118 C 
BRANCH  30  31
ATOM     31  N   UNL A   1      36.871  21.264  25.589  1.00  0.00    -0.352 N 
ATOM     32  C   UNL A   1      38.240  21.241  25.734  1.00  0.00     0.251 C 
ATOM     33  H   UNL A   1      36.474  20.407  25.307  1.00  0.00     0.163 HD
ATOM     34  O   UNL A   1      38.871  20.249  25.409  1.00  0.00    -0.269 OA
BRANCH  32  35
ATOM     35  C   UNL A   1      38.949  22.431  26.252  1.00  0.00     0.039 A 
ATOM     36  C   UNL A   1      40.116  22.252  27.000  1.00  0.00     0.014 A 
ATOM     37  C   UNL A   1      38.479  23.717  25.991  1.00  0.00     0.014 A 
ATOM     38  C   UNL A   1      40.849  23.365  27.416  1.00  0.00     0.010 A 
ATOM     39  C   UNL A   1      39.274  24.814  26.286  1.00  0.00     0.010 A 
ATOM     40  C   UNL A   1      40.455  24.654  27.023  1.00  0.00    -0.014 A 
BRANCH  40  41
ATOM     41  C   UNL A   1      41.233  25.859  27.398  1.00  0.00     0.031 A 
ATOM     42  C   UNL A   1      40.591  26.927  28.241  1.00  0.00     0.074 A 
ATOM     43  C   UNL A   1      42.478  26.031  26.917  1.00  0.00     0.049 A 
ATOM     44  N   UNL A   1      41.061  28.093  28.603  1.00  0.00    -0.248 NA
ATOM     45  C   UNL A   1      39.216  26.668  28.701  1.00  0.00     0.031 C 
ATOM     46  C   UNL A   1      43.189  25.094  26.045  1.00  0.00     0.029 A 
ATOM     47  N   UNL A   1      43.367  27.061  27.092  1.00  0.00    -0.354 N 
ATOM     48  C   UNL A   1      40.033  28.711  29.304  1.00  0.00     0.074 A 
ATOM     49  C   UNL A   1      38.891  27.826  29.250  1.00  0.00     0.031 C 
ATOM     50  C   UNL A   1      44.421  25.569  25.801  1.00  0.00     0.029 A 
ATOM     51  C   UNL A   1      44.570  26.862  26.461  1.00  0.00     0.049 A 
ATOM     52  H   UNL A   1      43.162  27.865  27.621  1.00  0.00     0.167 HD
ATOM     53  C   UNL A   1      40.046  29.894  29.963  1.00  0.00     0.037 A 
ATOM     54  C   UNL A   1      45.670  27.636  26.424  1.00  0.00     0.037 A 
ATOM     55  C   UNL A   1      41.198  30.751  30.043  1.00  0.00     0.049 A 
ATOM     56  C   UNL A   1      45.667  28.945  27.161  1.00  0.00     0.074 A 
ATOM     57  C   UNL A   1      41.347  31.934  30.742  1.00  0.00     0.029 A 
ATOM     58  N   UNL A   1      42.401  30.510  29.396  1.00  0.00    -0.354 N 
ATOM     59  N   UNL A   1      44.713  29.488  27.879  1.00  0.00    -0.248 NA
ATOM     60  C   UNL A   1      46.893  29.750  27.083  1.00  0.00     0.031 C 
ATOM     61  C   UNL A   1      42.627  32.435  30.480  1.00  0.00     0.029 A 
ATOM     62  C   UNL A   1      43.293  31.537  29.659  1.00  0.00     0.049 A 
ATOM     63  H   UNL A   1      42.594  29.726  28.833  1.00  0.00     0.167 HD
ATOM     64  C   UNL A   1      45.232  30.682  28.363  1.00  0.00     0.074 A 
ATOM     65  C   UNL A   1      46.588  30.777  27.863  1.00  0.00     0.031 C 
ATOM     66  C   UNL A   1      44.640  31.613  29.152  1.00  0.00     0.037 A 
BRANCH  53  67
ATOM     67  C   UNL A   1      38.771  30.314  30.639  1.00  0.00     0.057 A 
ATOM     68  C   UNL A   1      37.835  31.145  30.009  1.00  0.00     0.134 A 
ATOM     69  C   UNL A   1      38.488  29.904  31.947  1.00  0.00     0.134 A 
ATOM     70  F   UNL A   1      38.051  31.590  28.761  1.00  0.00    -0.206 F 
ATOM     71  C   UNL A   1      36.689  31.594  30.670  1.00  0.00     0.040 A 
ATOM     72  C   UNL A   1      37.329  30.317  32.608  1.00  0.00     0.040 A 
ATOM     73  F   UNL A   1      39.335  29.103  32.610  1.00  0.00    -0.206 F 
ATOM     74  C   UNL A   1      36.433  31.177  31.973  1.00  0.00     0.006 A 
ENDBRANCH  53  67
BRANCH  54  75
ATOM     75  C   UNL A   1      46.883  27.160  25.713  1.00  0.00     0.057 A 
ATOM     76  C   UNL A   1      47.102  27.498  24.373  1.00  0.00     0.134 A 
ATOM     77  C   UNL A   1      47.858  26.386  26.351  1.00  0.00     0.134 A 
ATOM     78  F   UNL A   1      46.195  28.225  23.703  1.00  0.00    -0.206 F 
ATOM     79  C   UNL A   1      48.244  27.078  23.689  1.00  0.00     0.040 A 
ATOM     80  C   UNL A   1      49.016  25.976  25.686  1.00  0.00     0.040 A 
ATOM     81  F   UNL A   1      47.712  26.037  27.637  1.00  0.00    -0.206 F 
ATOM     82  C   UNL A   1      49.209  26.320  24.349  1.00  0.00     0.006 A 
ENDBRANCH  54  75
BRANCH  66  83
ATOM     83  C   UNL A   1      45.468  32.800  29.547  1.00  0.00     0.057 A 
ATOM     84  C   UNL A   1      45.443  33.996  28.819  1.00  0.00     0.134 A 
ATOM     85  C   UNL A   1      46.269  32.756  30.696  1.00  0.00     0.134 A 
ATOM     86  F   UNL A   1      44.706  34.097  27.703  1.00  0.00    -0.206 F 
ATOM     87  C   UNL A   1      46.202  35.101  29.208  1.00  0.00     0.040 A 
ATOM     88  C   UNL A   1      47.010  33.862  31.110  1.00  0.00     0.040 A 
ATOM     89  F   UNL A   1      46.331  31.643  31.442  1.00  0.00    -0.206 F 
ATOM     90  C   UNL A   1      46.982  35.038  30.362  1.00  0.00     0.006 A 
ENDBRANCH  66  83
ENDBRANCH  40  41
ENDBRANCH  32  35
ENDBRANCH  30  31
ENDBRANCH  29  30
ENDBRANCH  28  29
ENDBRANCH   3  28
TORSDOF 15
ENDMDL
