MODEL 1
REMARK VINA RESULT:     -13.4      0.000      0.000
REMARK SMILES O=C(NCCCNC(=O)c1ccccc1Nc1nc(Cl)nc(Nc2ccc(N3CCOCC3=O)cc2)n1)c1ccc(-c2c3nc(c(-c4c(F)cccc4F)c4ccc([nH]4)c(-c4c(F)cccc4F)c4nc(c(-c5c(F)cccc5F)c5ccc2[nH]5)C=C4)C=C3)cc1
REMARK SMILES IDX 7 1 8 2 9 3 6 5 5 6 4 7 3 8 1 9 2 10 38 12 39 13 91 14 40 15
REMARK SMILES IDX 90 16 41 17 42 18 43 19 84 20 44 21 89 22 83 23 85 24 45 25
REMARK SMILES IDX 88 26 82 27 81 28 46 30 72 31 55 32 71 33 56 34 59 35 70 36
REMARK SMILES IDX 86 37 57 38 58 39 69 41 87 42 60 43 47 44 48 45 53 46 49 47
REMARK SMILES IDX 50 48 52 49 54 50 51 51 73 52 74 53 79 54 75 55 76 56 78 57
REMARK SMILES IDX 80 58 77 59 61 60 62 61 67 62 63 63 64 64 66 65 68 66 65 67
REMARK SMILES IDX 10 68 11 69 15 70 12 71 14 72 13 73 16 74 17 76 18 77 37 78
REMARK SMILES IDX 19 79 22 80 20 81 21 82 23 83 24 85 25 86 36 87 26 88 35 89
REMARK SMILES IDX 27 90 28 91 29 92 33 93 30 94 32 95 34 96 31 97
REMARK H PARENT 7 4 3 11 85 29 59 40 16 75 23 84
REMARK Flexibility Score: inf
ROOT
ATOM      1  N   UNL A   1      35.961  21.274  25.835  1.00  0.00    -0.352 N 
ATOM      2  C   UNL A   1      34.618  21.037  25.985  1.00  0.00     0.253 C 
ATOM      3  O   UNL A   1      34.041  21.436  26.993  1.00  0.00    -0.269 OA
ATOM      4  H   UNL A   1      36.400  21.691  26.611  1.00  0.00     0.163 HD
ENDROOT
BRANCH   1   5
ATOM      5  C   UNL A   1      36.838  21.003  24.703  1.00  0.00     0.118 C 
BRANCH   5   6
ATOM      6  C   UNL A   1      37.803  19.857  24.963  1.00  0.00     0.042 C 
BRANCH   6   7
ATOM      7  C   UNL A   1      39.000  20.222  25.829  1.00  0.00     0.118 C 
BRANCH   7   8
ATOM      8  N   UNL A   1      40.058  19.219  25.815  1.00  0.00    -0.352 N 
ATOM      9  O   UNL A   1      42.139  18.359  25.832  1.00  0.00    -0.269 OA
ATOM     10  C   UNL A   1      41.413  19.331  26.025  1.00  0.00     0.251 C 
ATOM     11  H   UNL A   1      39.751  18.304  25.622  1.00  0.00     0.163 HD
BRANCH  10  12
ATOM     12  C   UNL A   1      42.011  20.619  26.442  1.00  0.00     0.039 A 
ATOM     13  C   UNL A   1      42.221  20.914  27.787  1.00  0.00     0.014 A 
ATOM     14  C   UNL A   1      42.379  21.552  25.466  1.00  0.00     0.014 A 
ATOM     15  C   UNL A   1      42.581  22.201  28.165  1.00  0.00     0.010 A 
ATOM     16  C   UNL A   1      42.863  22.809  25.846  1.00  0.00     0.010 A 
ATOM     17  C   UNL A   1      42.916  23.165  27.200  1.00  0.00    -0.014 A 
BRANCH  17  18
ATOM     18  C   UNL A   1      43.341  24.518  27.653  1.00  0.00     0.031 A 
ATOM     19  C   UNL A   1      44.775  24.963  27.545  1.00  0.00     0.074 A 
ATOM     20  C   UNL A   1      42.404  25.375  28.103  1.00  0.00     0.049 A 
ATOM     21  N   UNL A   1      45.296  26.131  27.830  1.00  0.00    -0.248 NA
ATOM     22  C   UNL A   1      45.754  23.975  27.071  1.00  0.00     0.031 C 
ATOM     23  C   UNL A   1      40.982  25.058  28.266  1.00  0.00     0.029 A 
ATOM     24  N   UNL A   1      42.491  26.694  28.467  1.00  0.00    -0.354 N 
ATOM     25  C   UNL A   1      46.662  26.008  27.600  1.00  0.00     0.074 A 
ATOM     26  C   UNL A   1      46.893  24.646  27.172  1.00  0.00     0.031 C 
ATOM     27  C   UNL A   1      40.321  26.169  28.619  1.00  0.00     0.029 A 
ATOM     28  C   UNL A   1      41.276  27.258  28.776  1.00  0.00     0.049 A 
ATOM     29  H   UNL A   1      43.341  27.188  28.504  1.00  0.00     0.167 HD
ATOM     30  C   UNL A   1      47.631  26.946  27.730  1.00  0.00     0.037 A 
ATOM     31  C   UNL A   1      40.964  28.512  29.148  1.00  0.00     0.037 A 
ATOM     32  C   UNL A   1      47.395  28.312  28.120  1.00  0.00     0.049 A 
ATOM     33  C   UNL A   1      42.057  29.531  29.276  1.00  0.00     0.074 A 
ATOM     34  C   UNL A   1      48.307  29.348  28.232  1.00  0.00     0.029 A 
ATOM     35  N   UNL A   1      46.157  28.834  28.464  1.00  0.00    -0.354 N 
ATOM     36  N   UNL A   1      43.337  29.403  29.027  1.00  0.00    -0.248 NA
ATOM     37  C   UNL A   1      41.662  30.864  29.748  1.00  0.00     0.031 C 
ATOM     38  C   UNL A   1      47.627  30.486  28.680  1.00  0.00     0.029 A 
ATOM     39  C   UNL A   1      46.284  30.170  28.807  1.00  0.00     0.049 A 
ATOM     40  H   UNL A   1      45.311  28.328  28.464  1.00  0.00     0.167 HD
ATOM     41  C   UNL A   1      43.900  30.643  29.297  1.00  0.00     0.074 A 
ATOM     42  C   UNL A   1      42.817  31.513  29.709  1.00  0.00     0.031 C 
ATOM     43  C   UNL A   1      45.198  31.023  29.215  1.00  0.00     0.037 A 
BRANCH  30  44
ATOM     44  C   UNL A   1      49.048  26.522  27.466  1.00  0.00     0.057 A 
ATOM     45  C   UNL A   1      49.889  26.060  28.486  1.00  0.00     0.134 A 
ATOM     46  C   UNL A   1      49.564  26.540  26.163  1.00  0.00     0.134 A 
ATOM     47  F   UNL A   1      49.462  26.028  29.758  1.00  0.00    -0.206 F 
ATOM     48  C   UNL A   1      51.198  25.650  28.223  1.00  0.00     0.040 A 
ATOM     49  C   UNL A   1      50.862  26.111  25.884  1.00  0.00     0.040 A 
ATOM     50  F   UNL A   1      48.809  26.964  25.138  1.00  0.00    -0.206 F 
ATOM     51  C   UNL A   1      51.686  25.669  26.918  1.00  0.00     0.006 A 
ENDBRANCH  30  44
BRANCH  31  52
ATOM     52  C   UNL A   1      39.550  28.871  29.414  1.00  0.00     0.057 A 
ATOM     53  C   UNL A   1      39.011  28.775  30.702  1.00  0.00     0.134 A 
ATOM     54  C   UNL A   1      38.709  29.331  28.394  1.00  0.00     0.134 A 
ATOM     55  F   UNL A   1      39.764  28.326  31.718  1.00  0.00    -0.206 F 
ATOM     56  C   UNL A   1      37.684  29.117  30.967  1.00  0.00     0.040 A 
ATOM     57  C   UNL A   1      37.388  29.700  28.648  1.00  0.00     0.040 A 
ATOM     58  F   UNL A   1      39.168  29.452  27.140  1.00  0.00    -0.206 F 
ATOM     59  C   UNL A   1      36.870  29.587  29.937  1.00  0.00     0.006 A 
ENDBRANCH  31  52
BRANCH  43  60
ATOM     60  C   UNL A   1      45.506  32.450  29.553  1.00  0.00     0.057 A 
ATOM     61  C   UNL A   1      45.456  33.464  28.587  1.00  0.00     0.134 A 
ATOM     62  C   UNL A   1      45.848  32.816  30.861  1.00  0.00     0.134 A 
ATOM     63  F   UNL A   1      45.152  33.175  27.313  1.00  0.00    -0.206 F 
ATOM     64  C   UNL A   1      45.760  34.788  28.906  1.00  0.00     0.040 A 
ATOM     65  C   UNL A   1      46.130  34.140  31.196  1.00  0.00     0.040 A 
ATOM     66  F   UNL A   1      45.908  31.893  31.832  1.00  0.00    -0.206 F 
ATOM     67  C   UNL A   1      46.094  35.130  30.216  1.00  0.00     0.006 A 
ENDBRANCH  43  60
ENDBRANCH  17  18
ENDBRANCH  10  12
ENDBRANCH   7   8
ENDBRANCH   6   7
ENDBRANCH   5   6
ENDBRANCH   1   5
BRANCH   2  68
ATOM     68  C   UNL A   1      33.850  20.328  24.940  1.00  0.00     0.063 A 
ATOM     69  C   UNL A   1      34.109  18.956  24.795  1.00  0.00     0.016 A 
ATOM     70  C   UNL A   1      32.929  20.982  24.100  1.00  0.00     0.054 A 
ATOM     71  C   UNL A   1      33.407  18.207  23.853  1.00  0.00     0.001 A 
ATOM     72  C   UNL A   1      32.194  20.193  23.200  1.00  0.00     0.027 A 
ATOM     73  C   UNL A   1      32.437  18.823  23.069  1.00  0.00     0.002 A 
BRANCH  70  74
ATOM     74  N   UNL A   1      32.723  22.369  24.163  1.00  0.00    -0.323 N 
ATOM     75  H   UNL A   1      33.312  22.903  23.582  1.00  0.00     0.170 HD
BRANCH  74  76
ATOM     76  C   UNL A   1      31.819  23.106  24.916  1.00  0.00     0.233 A 
ATOM     77  N   UNL A   1      31.012  22.488  25.764  1.00  0.00    -0.182 NA
ATOM     78  N   UNL A   1      31.850  24.422  24.748  1.00  0.00    -0.176 NA
ATOM     79  C   UNL A   1      30.236  23.304  26.451  1.00  0.00     0.228 A 
ATOM     80  C   UNL A   1      30.967  25.135  25.442  1.00  0.00     0.233 A 
ATOM     81  Cl  UNL A   1      29.187  22.568  27.581  1.00  0.00    -0.041 Cl
ATOM     82  N   UNL A   1      30.151  24.616  26.345  1.00  0.00    -0.182 NA
BRANCH  80  83
ATOM     83  N   UNL A   1      30.854  26.472  25.072  1.00  0.00    -0.324 N 
ATOM     84  H   UNL A   1      30.255  26.658  24.313  1.00  0.00     0.170 HD
BRANCH  83  85
ATOM     85  C   UNL A   1      31.480  27.585  25.637  1.00  0.00     0.041 A 
ATOM     86  C   UNL A   1      32.054  28.551  24.804  1.00  0.00     0.028 A 
ATOM     87  C   UNL A   1      31.452  27.826  27.012  1.00  0.00     0.028 A 
ATOM     88  C   UNL A   1      32.568  29.741  25.332  1.00  0.00     0.028 A 
ATOM     89  C   UNL A   1      32.017  28.985  27.549  1.00  0.00     0.028 A 
ATOM     90  C   UNL A   1      32.560  29.965  26.713  1.00  0.00     0.044 A 
BRANCH  90  91
ATOM     91  N   UNL A   1      33.042  31.195  27.253  1.00  0.00    -0.308 N 
ATOM     92  C   UNL A   1      34.476  31.262  27.562  1.00  0.00     0.154 C 
ATOM     93  C   UNL A   1      32.275  32.364  27.174  1.00  0.00     0.253 C 
ATOM     94  C   UNL A   1      34.863  32.496  28.366  1.00  0.00     0.183 C 
ATOM     95  C   UNL A   1      32.968  33.646  27.666  1.00  0.00     0.260 C 
ATOM     96  O   UNL A   1      31.089  32.402  26.842  1.00  0.00    -0.272 OA
ATOM     97  O   UNL A   1      34.386  33.663  27.704  1.00  0.00    -0.370 OA
ENDBRANCH  90  91
ENDBRANCH  83  85
ENDBRANCH  80  83
ENDBRANCH  74  76
ENDBRANCH  70  74
ENDBRANCH   2  68
TORSDOF 15
ENDMDL
MODEL 2
REMARK VINA RESULT:     -13.2      1.705      6.203
REMARK SMILES O=C(NCCCNC(=O)c1ccccc1Nc1nc(Cl)nc(Nc2ccc(N3CCOCC3=O)cc2)n1)c1ccc(-c2c3nc(c(-c4c(F)cccc4F)c4ccc([nH]4)c(-c4c(F)cccc4F)c4nc(c(-c5c(F)cccc5F)c5ccc2[nH]5)C=C4)C=C3)cc1
REMARK SMILES IDX 7 1 8 2 9 3 6 5 5 6 4 7 3 8 1 9 2 10 38 12 39 13 91 14 40 15
REMARK SMILES IDX 90 16 41 17 42 18 43 19 84 20 44 21 89 22 83 23 85 24 45 25
REMARK SMILES IDX 88 26 82 27 81 28 46 30 72 31 55 32 71 33 56 34 59 35 70 36
REMARK SMILES IDX 86 37 57 38 58 39 69 41 87 42 60 43 47 44 48 45 53 46 49 47
REMARK SMILES IDX 50 48 52 49 54 50 51 51 73 52 74 53 79 54 75 55 76 56 78 57
REMARK SMILES IDX 80 58 77 59 61 60 62 61 67 62 63 63 64 64 66 65 68 66 65 67
REMARK SMILES IDX 10 68 11 69 15 70 12 71 14 72 13 73 16 74 17 76 18 77 37 78
REMARK SMILES IDX 19 79 22 80 20 81 21 82 23 83 24 85 25 86 36 87 26 88 35 89
REMARK SMILES IDX 27 90 28 91 29 92 33 93 30 94 32 95 34 96 31 97
REMARK H PARENT 7 4 3 11 85 29 59 40 16 75 23 84
REMARK Flexibility Score: inf
ROOT
ATOM      1  N   UNL A   1      36.095  21.265  25.772  1.00  0.00    -0.352 N 
ATOM      2  C   UNL A   1      34.775  20.958  25.984  1.00  0.00     0.253 C 
ATOM      3  O   UNL A   1      34.226  21.326  27.020  1.00  0.00    -0.269 OA
ATOM      4  H   UNL A   1      36.547  21.705  26.527  1.00  0.00     0.163 HD
ENDROOT
BRANCH   1   5
ATOM      5  C   UNL A   1      36.931  21.041  24.599  1.00  0.00     0.118 C 
BRANCH   5   6
ATOM      6  C   UNL A   1      37.970  19.953  24.812  1.00  0.00     0.042 C 
BRANCH   6   7
ATOM      7  C   UNL A   1      38.996  20.260  25.893  1.00  0.00     0.118 C 
BRANCH   7   8
ATOM      8  N   UNL A   1      40.096  19.305  25.942  1.00  0.00    -0.352 N 
ATOM      9  O   UNL A   1      42.209  18.537  26.075  1.00  0.00    -0.269 OA
ATOM     10  C   UNL A   1      41.432  19.478  26.222  1.00  0.00     0.251 C 
ATOM     11  H   UNL A   1      39.840  18.376  25.741  1.00  0.00     0.163 HD
BRANCH  10  12
ATOM     12  C   UNL A   1      41.951  20.793  26.660  1.00  0.00     0.039 A 
ATOM     13  C   UNL A   1      41.958  21.153  28.004  1.00  0.00     0.014 A 
ATOM     14  C   UNL A   1      42.449  21.686  25.703  1.00  0.00     0.014 A 
ATOM     15  C   UNL A   1      42.248  22.462  28.369  1.00  0.00     0.010 A 
ATOM     16  C   UNL A   1      42.861  22.967  26.089  1.00  0.00     0.010 A 
ATOM     17  C   UNL A   1      42.711  23.386  27.418  1.00  0.00    -0.014 A 
BRANCH  17  18
ATOM     18  C   UNL A   1      43.052  24.764  27.862  1.00  0.00     0.031 A 
ATOM     19  C   UNL A   1      41.980  25.778  28.159  1.00  0.00     0.074 A 
ATOM     20  C   UNL A   1      44.347  25.079  28.062  1.00  0.00     0.049 A 
ATOM     21  N   UNL A   1      42.107  26.998  28.622  1.00  0.00    -0.248 NA
ATOM     22  C   UNL A   1      40.588  25.384  27.897  1.00  0.00     0.031 C 
ATOM     23  C   UNL A   1      45.480  24.188  27.797  1.00  0.00     0.029 A 
ATOM     24  N   UNL A   1      44.931  26.212  28.569  1.00  0.00    -0.354 N 
ATOM     25  C   UNL A   1      40.822  27.525  28.674  1.00  0.00     0.074 A 
ATOM     26  C   UNL A   1      39.929  26.500  28.178  1.00  0.00     0.031 C 
ATOM     27  C   UNL A   1      46.610  24.774  28.217  1.00  0.00     0.029 A 
ATOM     28  C   UNL A   1      46.293  26.107  28.715  1.00  0.00     0.049 A 
ATOM     29  H   UNL A   1      44.422  27.021  28.805  1.00  0.00     0.167 HD
ATOM     30  C   UNL A   1      40.423  28.747  29.101  1.00  0.00     0.037 A 
ATOM     31  C   UNL A   1      47.191  26.987  29.193  1.00  0.00     0.037 A 
ATOM     32  C   UNL A   1      41.309  29.753  29.629  1.00  0.00     0.049 A 
ATOM     33  C   UNL A   1      46.720  28.330  29.664  1.00  0.00     0.074 A 
ATOM     34  C   UNL A   1      40.991  31.004  30.132  1.00  0.00     0.029 A 
ATOM     35  N   UNL A   1      42.686  29.625  29.722  1.00  0.00    -0.354 N 
ATOM     36  N   UNL A   1      45.498  28.798  29.734  1.00  0.00    -0.248 NA
ATOM     37  C   UNL A   1      47.755  29.270  30.115  1.00  0.00     0.031 C 
ATOM     38  C   UNL A   1      42.180  31.646  30.493  1.00  0.00     0.029 A 
ATOM     39  C   UNL A   1      43.235  30.780  30.255  1.00  0.00     0.049 A 
ATOM     40  H   UNL A   1      43.199  28.829  29.449  1.00  0.00     0.167 HD
ATOM     41  C   UNL A   1      45.614  30.082  30.249  1.00  0.00     0.074 A 
ATOM     42  C   UNL A   1      47.024  30.309  30.493  1.00  0.00     0.031 C 
ATOM     43  C   UNL A   1      44.639  30.991  30.493  1.00  0.00     0.037 A 
BRANCH  30  44
ATOM     44  C   UNL A   1      38.962  29.077  28.997  1.00  0.00     0.057 A 
ATOM     45  C   UNL A   1      38.379  29.509  27.798  1.00  0.00     0.134 A 
ATOM     46  C   UNL A   1      38.117  28.921  30.104  1.00  0.00     0.134 A 
ATOM     47  F   UNL A   1      39.132  29.690  26.702  1.00  0.00    -0.206 F 
ATOM     48  C   UNL A   1      37.015  29.794  27.710  1.00  0.00     0.040 A 
ATOM     49  C   UNL A   1      36.748  29.180  30.023  1.00  0.00     0.040 A 
ATOM     50  F   UNL A   1      38.608  28.504  31.280  1.00  0.00    -0.206 F 
ATOM     51  C   UNL A   1      36.194  29.623  28.824  1.00  0.00     0.006 A 
ENDBRANCH  30  44
BRANCH  31  52
ATOM     52  C   UNL A   1      48.626  26.615  29.256  1.00  0.00     0.057 A 
ATOM     53  C   UNL A   1      49.130  25.862  30.323  1.00  0.00     0.134 A 
ATOM     54  C   UNL A   1      49.522  26.987  28.246  1.00  0.00     0.134 A 
ATOM     55  F   UNL A   1      48.323  25.490  31.327  1.00  0.00    -0.206 F 
ATOM     56  C   UNL A   1      50.476  25.500  30.389  1.00  0.00     0.040 A 
ATOM     57  C   UNL A   1      50.864  26.610  28.287  1.00  0.00     0.040 A 
ATOM     58  F   UNL A   1      49.098  27.702  27.194  1.00  0.00    -0.206 F 
ATOM     59  C   UNL A   1      51.346  25.869  29.364  1.00  0.00     0.006 A 
ENDBRANCH  31  52
BRANCH  43  60
ATOM     60  C   UNL A   1      45.070  32.302  31.078  1.00  0.00     0.057 A 
ATOM     61  C   UNL A   1      45.400  33.398  30.269  1.00  0.00     0.134 A 
ATOM     62  C   UNL A   1      45.146  32.473  32.466  1.00  0.00     0.134 A 
ATOM     63  F   UNL A   1      45.363  33.292  28.933  1.00  0.00    -0.206 F 
ATOM     64  C   UNL A   1      45.815  34.610  30.822  1.00  0.00     0.040 A 
ATOM     65  C   UNL A   1      45.536  33.688  33.029  1.00  0.00     0.040 A 
ATOM     66  F   UNL A   1      44.837  31.464  33.294  1.00  0.00    -0.206 F 
ATOM     67  C   UNL A   1      45.879  34.759  32.206  1.00  0.00     0.006 A 
ENDBRANCH  43  60
ENDBRANCH  17  18
ENDBRANCH  10  12
ENDBRANCH   7   8
ENDBRANCH   6   7
ENDBRANCH   5   6
ENDBRANCH   1   5
BRANCH   2  68
ATOM     68  C   UNL A   1      33.997  20.210  24.975  1.00  0.00     0.063 A 
ATOM     69  C   UNL A   1      34.311  18.850  24.824  1.00  0.00     0.016 A 
ATOM     70  C   UNL A   1      33.012  20.817  24.173  1.00  0.00     0.054 A 
ATOM     71  C   UNL A   1      33.604  18.065  23.915  1.00  0.00     0.001 A 
ATOM     72  C   UNL A   1      32.277  19.991  23.307  1.00  0.00     0.027 A 
ATOM     73  C   UNL A   1      32.575  18.632  23.171  1.00  0.00     0.002 A 
BRANCH  70  74
ATOM     74  N   UNL A   1      32.748  22.194  24.239  1.00  0.00    -0.323 N 
ATOM     75  H   UNL A   1      33.156  22.730  23.522  1.00  0.00     0.170 HD
BRANCH  74  76
ATOM     76  C   UNL A   1      31.999  22.917  25.159  1.00  0.00     0.233 A 
ATOM     77  N   UNL A   1      30.989  22.336  25.785  1.00  0.00    -0.182 NA
ATOM     78  N   UNL A   1      32.383  24.170  25.371  1.00  0.00    -0.176 NA
ATOM     79  C   UNL A   1      30.390  23.116  26.666  1.00  0.00     0.228 A 
ATOM     80  C   UNL A   1      31.654  24.881  26.228  1.00  0.00     0.233 A 
ATOM     81  Cl  UNL A   1      29.091  22.417  27.526  1.00  0.00    -0.041 Cl
ATOM     82  N   UNL A   1      30.655  24.380  26.935  1.00  0.00    -0.182 NA
BRANCH  80  83
ATOM     83  N   UNL A   1      31.922  26.247  26.251  1.00  0.00    -0.324 N 
ATOM     84  H   UNL A   1      32.556  26.548  26.941  1.00  0.00     0.170 HD
BRANCH  83  85
ATOM     85  C   UNL A   1      31.407  27.247  25.422  1.00  0.00     0.041 A 
ATOM     86  C   UNL A   1      30.373  26.939  24.531  1.00  0.00     0.028 A 
ATOM     87  C   UNL A   1      31.813  28.577  25.535  1.00  0.00     0.028 A 
ATOM     88  C   UNL A   1      29.746  27.944  23.786  1.00  0.00     0.028 A 
ATOM     89  C   UNL A   1      31.229  29.575  24.751  1.00  0.00     0.028 A 
ATOM     90  C   UNL A   1      30.174  29.272  23.884  1.00  0.00     0.044 A 
BRANCH  90  91
ATOM     91  N   UNL A   1      29.508  30.306  23.162  1.00  0.00    -0.308 N 
ATOM     92  C   UNL A   1      28.773  29.901  21.957  1.00  0.00     0.154 C 
ATOM     93  C   UNL A   1      29.286  31.561  23.743  1.00  0.00     0.253 C 
ATOM     94  C   UNL A   1      28.313  31.077  21.105  1.00  0.00     0.183 C 
ATOM     95  C   UNL A   1      28.435  32.536  22.912  1.00  0.00     0.260 C 
ATOM     96  O   UNL A   1      29.798  31.946  24.795  1.00  0.00    -0.272 OA
ATOM     97  O   UNL A   1      27.584  31.993  21.916  1.00  0.00    -0.370 OA
ENDBRANCH  90  91
ENDBRANCH  83  85
ENDBRANCH  80  83
ENDBRANCH  74  76
ENDBRANCH  70  74
ENDBRANCH   2  68
TORSDOF 15
ENDMDL
MODEL 3
REMARK VINA RESULT:     -13.2      0.551      5.900
REMARK SMILES O=C(NCCCNC(=O)c1ccccc1Nc1nc(Cl)nc(Nc2ccc(N3CCOCC3=O)cc2)n1)c1ccc(-c2c3nc(c(-c4c(F)cccc4F)c4ccc([nH]4)c(-c4c(F)cccc4F)c4nc(c(-c5c(F)cccc5F)c5ccc2[nH]5)C=C4)C=C3)cc1
REMARK SMILES IDX 7 1 8 2 9 3 6 5 5 6 4 7 3 8 1 9 2 10 38 12 39 13 91 14 40 15
REMARK SMILES IDX 90 16 41 17 42 18 43 19 84 20 44 21 89 22 83 23 85 24 45 25
REMARK SMILES IDX 88 26 82 27 81 28 46 30 72 31 55 32 71 33 56 34 59 35 70 36
REMARK SMILES IDX 86 37 57 38 58 39 69 41 87 42 60 43 47 44 48 45 53 46 49 47
REMARK SMILES IDX 50 48 52 49 54 50 51 51 73 52 74 53 79 54 75 55 76 56 78 57
REMARK SMILES IDX 80 58 77 59 61 60 62 61 67 62 63 63 64 64 66 65 68 66 65 67
REMARK SMILES IDX 10 68 11 69 15 70 12 71 14 72 13 73 16 74 17 76 18 77 37 78
REMARK SMILES IDX 19 79 22 80 20 81 21 82 23 83 24 85 25 86 36 87 26 88 35 89
REMARK SMILES IDX 27 90 28 91 29 92 33 93 30 94 32 95 34 96 31 97
REMARK H PARENT 7 4 3 11 85 29 59 40 16 75 23 84
REMARK Flexibility Score: inf
ROOT
ATOM      1  N   UNL A   1      35.997  21.082  25.747  1.00  0.00    -0.352 N 
ATOM      2  C   UNL A   1      34.641  20.932  25.888  1.00  0.00     0.253 C 
ATOM      3  O   UNL A   1      34.078  21.400  26.874  1.00  0.00    -0.269 OA
ATOM      4  H   UNL A   1      36.451  21.500  26.513  1.00  0.00     0.163 HD
ENDROOT
BRANCH   1   5
ATOM      5  C   UNL A   1      36.867  20.719  24.636  1.00  0.00     0.118 C 
BRANCH   5   6
ATOM      6  C   UNL A   1      37.861  19.627  24.995  1.00  0.00     0.042 C 
BRANCH   6   7
ATOM      7  C   UNL A   1      39.082  20.109  25.764  1.00  0.00     0.118 C 
BRANCH   7   8
ATOM      8  N   UNL A   1      40.127  19.100  25.893  1.00  0.00    -0.352 N 
ATOM      9  O   UNL A   1      42.196  18.225  26.043  1.00  0.00    -0.269 OA
ATOM     10  C   UNL A   1      41.482  19.224  26.098  1.00  0.00     0.251 C 
ATOM     11  H   UNL A   1      39.809  18.172  25.823  1.00  0.00     0.163 HD
BRANCH  10  12
ATOM     12  C   UNL A   1      42.095  20.548  26.343  1.00  0.00     0.039 A 
ATOM     13  C   UNL A   1      42.246  21.044  27.635  1.00  0.00     0.014 A 
ATOM     14  C   UNL A   1      42.536  21.311  25.255  1.00  0.00     0.014 A 
ATOM     15  C   UNL A   1      42.623  22.366  27.830  1.00  0.00     0.010 A 
ATOM     16  C   UNL A   1      43.035  22.602  25.463  1.00  0.00     0.010 A 
ATOM     17  C   UNL A   1      43.031  23.162  26.747  1.00  0.00    -0.014 A 
BRANCH  17  18
ATOM     18  C   UNL A   1      43.471  24.560  27.008  1.00  0.00     0.031 A 
ATOM     19  C   UNL A   1      42.520  25.588  27.560  1.00  0.00     0.074 A 
ATOM     20  C   UNL A   1      44.764  24.881  26.806  1.00  0.00     0.049 A 
ATOM     21  N   UNL A   1      42.762  26.829  27.909  1.00  0.00    -0.248 NA
ATOM     22  C   UNL A   1      41.118  25.185  27.735  1.00  0.00     0.031 C 
ATOM     23  C   UNL A   1      45.781  23.976  26.262  1.00  0.00     0.029 A 
ATOM     24  N   UNL A   1      45.456  26.035  27.068  1.00  0.00    -0.354 N 
ATOM     25  C   UNL A   1      41.542  27.359  28.311  1.00  0.00     0.074 A 
ATOM     26  C   UNL A   1      40.556  26.314  28.145  1.00  0.00     0.031 C 
ATOM     27  C   UNL A   1      46.976  24.580  26.306  1.00  0.00     0.029 A 
ATOM     28  C   UNL A   1      46.803  25.936  26.813  1.00  0.00     0.049 A 
ATOM     29  H   UNL A   1      45.029  26.856  27.405  1.00  0.00     0.167 HD
ATOM     30  C   UNL A   1      41.271  28.601  28.780  1.00  0.00     0.037 A 
ATOM     31  C   UNL A   1      47.791  26.835  26.967  1.00  0.00     0.037 A 
ATOM     32  C   UNL A   1      42.260  29.630  28.979  1.00  0.00     0.049 A 
ATOM     33  C   UNL A   1      47.462  28.200  27.494  1.00  0.00     0.074 A 
ATOM     34  C   UNL A   1      42.088  30.903  29.495  1.00  0.00     0.029 A 
ATOM     35  N   UNL A   1      43.605  29.503  28.670  1.00  0.00    -0.354 N 
ATOM     36  N   UNL A   1      46.308  28.673  27.896  1.00  0.00    -0.248 NA
ATOM     37  C   UNL A   1      48.572  29.158  27.578  1.00  0.00     0.031 C 
ATOM     38  C   UNL A   1      43.323  31.560  29.462  1.00  0.00     0.029 A 
ATOM     39  C   UNL A   1      44.272  30.681  28.966  1.00  0.00     0.049 A 
ATOM     40  H   UNL A   1      44.026  28.694  28.296  1.00  0.00     0.167 HD
ATOM     41  C   UNL A   1      46.554  29.979  28.295  1.00  0.00     0.074 A 
ATOM     42  C   UNL A   1      47.971  30.215  28.106  1.00  0.00     0.031 C 
ATOM     43  C   UNL A   1      45.682  30.901  28.772  1.00  0.00     0.037 A 
BRANCH  30  44
ATOM     44  C   UNL A   1      39.839  28.929  29.092  1.00  0.00     0.057 A 
ATOM     45  C   UNL A   1      38.934  29.333  28.102  1.00  0.00     0.134 A 
ATOM     46  C   UNL A   1      39.349  28.798  30.399  1.00  0.00     0.134 A 
ATOM     47  F   UNL A   1      39.339  29.489  26.833  1.00  0.00    -0.206 F 
ATOM     48  C   UNL A   1      37.600  29.615  28.404  1.00  0.00     0.040 A 
ATOM     49  C   UNL A   1      38.013  29.055  30.709  1.00  0.00     0.040 A 
ATOM     50  F   UNL A   1      40.160  28.408  31.393  1.00  0.00    -0.206 F 
ATOM     51  C   UNL A   1      37.135  29.470  29.710  1.00  0.00     0.006 A 
ENDBRANCH  30  44
BRANCH  31  52
ATOM     52  C   UNL A   1      49.185  26.464  26.624  1.00  0.00     0.057 A 
ATOM     53  C   UNL A   1      49.695  26.682  25.339  1.00  0.00     0.134 A 
ATOM     54  C   UNL A   1      50.044  25.897  27.573  1.00  0.00     0.134 A 
ATOM     55  F   UNL A   1      48.915  27.207  24.383  1.00  0.00    -0.206 F 
ATOM     56  C   UNL A   1      51.008  26.343  25.007  1.00  0.00     0.040 A 
ATOM     57  C   UNL A   1      51.366  25.577  27.262  1.00  0.00     0.040 A 
ATOM     58  F   UNL A   1      49.616  25.670  28.824  1.00  0.00    -0.206 F 
ATOM     59  C   UNL A   1      51.849  25.794  25.973  1.00  0.00     0.006 A 
ENDBRANCH  31  52
BRANCH  43  60
ATOM     60  C   UNL A   1      46.249  32.237  29.145  1.00  0.00     0.057 A 
ATOM     61  C   UNL A   1      46.307  33.296  28.229  1.00  0.00     0.134 A 
ATOM     62  C   UNL A   1      46.734  32.471  30.438  1.00  0.00     0.134 A 
ATOM     63  F   UNL A   1      45.874  33.130  26.970  1.00  0.00    -0.206 F 
ATOM     64  C   UNL A   1      46.850  34.532  28.579  1.00  0.00     0.040 A 
ATOM     65  C   UNL A   1      47.258  33.710  30.807  1.00  0.00     0.040 A 
ATOM     66  F   UNL A   1      46.701  31.500  31.363  1.00  0.00    -0.206 F 
ATOM     67  C   UNL A   1      47.324  34.743  29.874  1.00  0.00     0.006 A 
ENDBRANCH  43  60
ENDBRANCH  17  18
ENDBRANCH  10  12
ENDBRANCH   7   8
ENDBRANCH   6   7
ENDBRANCH   5   6
ENDBRANCH   1   5
BRANCH   2  68
ATOM     68  C   UNL A   1      33.842  20.234  24.858  1.00  0.00     0.063 A 
ATOM     69  C   UNL A   1      34.071  18.856  24.715  1.00  0.00     0.016 A 
ATOM     70  C   UNL A   1      32.921  20.903  24.030  1.00  0.00     0.054 A 
ATOM     71  C   UNL A   1      33.338  18.118  23.789  1.00  0.00     0.001 A 
ATOM     72  C   UNL A   1      32.156  20.125  23.145  1.00  0.00     0.027 A 
ATOM     73  C   UNL A   1      32.369  18.749  23.017  1.00  0.00     0.002 A 
BRANCH  70  74
ATOM     74  N   UNL A   1      32.745  22.294  24.089  1.00  0.00    -0.323 N 
ATOM     75  H   UNL A   1      33.343  22.813  23.504  1.00  0.00     0.170 HD
BRANCH  74  76
ATOM     76  C   UNL A   1      31.859  23.052  24.843  1.00  0.00     0.233 A 
ATOM     77  N   UNL A   1      31.041  22.453  25.694  1.00  0.00    -0.182 NA
ATOM     78  N   UNL A   1      31.919  24.367  24.672  1.00  0.00    -0.176 NA
ATOM     79  C   UNL A   1      30.285  23.288  26.381  1.00  0.00     0.228 A 
ATOM     80  C   UNL A   1      31.054  25.100  25.368  1.00  0.00     0.233 A 
ATOM     81  Cl  UNL A   1      29.222  22.578  27.515  1.00  0.00    -0.041 Cl
ATOM     82  N   UNL A   1      30.228  24.602  26.273  1.00  0.00    -0.182 NA
BRANCH  80  83
ATOM     83  N   UNL A   1      30.969  26.439  24.995  1.00  0.00    -0.324 N 
ATOM     84  H   UNL A   1      30.416  26.630  24.204  1.00  0.00     0.170 HD
BRANCH  83  85
ATOM     85  C   UNL A   1      31.568  27.548  25.599  1.00  0.00     0.041 A 
ATOM     86  C   UNL A   1      32.254  28.476  24.809  1.00  0.00     0.028 A 
ATOM     87  C   UNL A   1      31.407  27.821  26.958  1.00  0.00     0.028 A 
ATOM     88  C   UNL A   1      32.748  29.663  25.363  1.00  0.00     0.028 A 
ATOM     89  C   UNL A   1      31.949  28.976  27.526  1.00  0.00     0.028 A 
ATOM     90  C   UNL A   1      32.605  29.921  26.730  1.00  0.00     0.044 A 
BRANCH  90  91
ATOM     91  N   UNL A   1      33.067  31.149  27.290  1.00  0.00    -0.308 N 
ATOM     92  C   UNL A   1      34.495  31.226  27.622  1.00  0.00     0.154 C 
ATOM     93  C   UNL A   1      32.289  32.311  27.214  1.00  0.00     0.253 C 
ATOM     94  C   UNL A   1      34.858  32.455  28.445  1.00  0.00     0.183 C 
ATOM     95  C   UNL A   1      32.962  33.594  27.730  1.00  0.00     0.260 C 
ATOM     96  O   UNL A   1      31.108  32.342  26.865  1.00  0.00    -0.272 OA
ATOM     97  O   UNL A   1      34.379  33.624  27.790  1.00  0.00    -0.370 OA
ENDBRANCH  90  91
ENDBRANCH  83  85
ENDBRANCH  80  83
ENDBRANCH  74  76
ENDBRANCH  70  74
ENDBRANCH   2  68
TORSDOF 15
ENDMDL
