MODEL 1
REMARK VINA RESULT:     -10.6      0.000      0.000
REMARK SMILES Cc1ccc(C(=O)N2CCC(CC(=O)NCCCNC(=O)c3ccc(-c4c5nc(c(-c6c(F)cccc6F)c6ccc([nH]6)c(-c6c(F)cccc6F)c6nc(c(-c7c(F)cccc7F)c7ccc4[nH]7)C=C6)C=C5)cc3)CC2)cn1
REMARK SMILES IDX 17 1 16 2 15 3 13 4 14 5 12 7 11 8 6 9 7 10 8 11 9 12 77 13
REMARK SMILES IDX 10 14 76 15 5 16 1 17 2 18 3 19 79 20 4 21 78 22 18 23 19 24
REMARK SMILES IDX 20 25 21 27 22 28 23 29 75 30 24 31 74 32 25 33 26 34 27 35
REMARK SMILES IDX 68 36 28 37 73 38 67 39 69 40 29 41 72 42 66 43 65 44 30 46
REMARK SMILES IDX 56 47 39 48 55 49 40 50 43 51 54 52 70 53 41 54 42 55 53 57
REMARK SMILES IDX 71 58 44 59 31 60 32 61 37 62 33 63 34 64 36 65 38 66 35 67
REMARK SMILES IDX 57 68 58 69 63 70 59 71 60 72 62 73 64 74 61 75 45 76 46 77
REMARK SMILES IDX 51 78 47 79 48 80 50 81 52 82 49 83
REMARK H PARENT 15 6 19 26 69 45 43 56
REMARK Flexibility Score: inf
ROOT
ATOM      1  C   UNL A   1      33.643  33.863  28.408  1.00  0.00     0.042 C 
ENDROOT
BRANCH   1   2
ATOM      2  C   UNL A   1      33.913  35.060  29.317  1.00  0.00     0.117 C 
BRANCH   2   3
ATOM      3  N   UNL A   1      32.870  35.245  30.318  1.00  0.00    -0.356 N 
ATOM      4  C   UNL A   1      32.942  35.390  31.670  1.00  0.00     0.220 C 
ATOM      5  O   UNL A   1      31.890  35.477  32.305  1.00  0.00    -0.275 OA
ATOM      6  H   UNL A   1      31.955  35.268  29.953  1.00  0.00     0.163 HD
BRANCH   4   7
ATOM      7  C   UNL A   1      34.281  35.423  32.377  1.00  0.00     0.103 C 
BRANCH   7   8
ATOM      8  C   UNL A   1      35.215  34.285  31.931  1.00  0.00     0.002 C 
ATOM      9  C   UNL A   1      37.565  31.772  33.816  1.00  0.00     0.255 C 
ATOM     10  O   UNL A   1      37.068  32.150  34.871  1.00  0.00    -0.269 OA
ATOM     11  N   UNL A   1      37.076  32.147  32.571  1.00  0.00    -0.339 N 
ATOM     12  C   UNL A   1      37.586  33.370  31.977  1.00  0.00     0.120 C 
ATOM     13  C   UNL A   1      35.700  31.815  32.241  1.00  0.00     0.120 C 
ATOM     14  C   UNL A   1      36.680  34.552  32.313  1.00  0.00     0.026 C 
ATOM     15  C   UNL A   1      34.744  32.960  32.560  1.00  0.00     0.026 C 
BRANCH   9  16
ATOM     16  C   UNL A   1      38.706  30.823  33.798  1.00  0.00     0.058 A 
ATOM     17  C   UNL A   1      41.865  28.002  33.399  1.00  0.00     0.066 C 
ATOM     18  C   UNL A   1      40.768  29.009  33.565  1.00  0.00     0.037 A 
ATOM     19  C   UNL A   1      41.022  30.250  34.140  1.00  0.00     0.024 A 
ATOM     20  N   UNL A   1      39.537  28.648  33.129  1.00  0.00    -0.261 NA
ATOM     21  C   UNL A   1      39.979  31.166  34.257  1.00  0.00     0.017 A 
ATOM     22  C   UNL A   1      38.538  29.562  33.248  1.00  0.00     0.125 A 
ENDBRANCH   9  16
ENDBRANCH   7   8
ENDBRANCH   4   7
ENDBRANCH   2   3
ENDBRANCH   1   2
BRANCH   1  23
ATOM     23  C   UNL A   1      34.547  32.662  28.674  1.00  0.00     0.118 C 
BRANCH  23  24
ATOM     24  N   UNL A   1      33.922  31.416  28.266  1.00  0.00    -0.352 N 
ATOM     25  C   UNL A   1      34.489  30.198  27.978  1.00  0.00     0.251 C 
ATOM     26  H   UNL A   1      32.942  31.448  28.183  1.00  0.00     0.163 HD
ATOM     27  O   UNL A   1      33.808  29.337  27.426  1.00  0.00    -0.269 OA
BRANCH  25  28
ATOM     28  C   UNL A   1      35.904  29.897  28.314  1.00  0.00     0.039 A 
ATOM     29  C   UNL A   1      36.878  30.077  27.324  1.00  0.00     0.014 A 
ATOM     30  C   UNL A   1      36.271  29.351  29.548  1.00  0.00     0.014 A 
ATOM     31  C   UNL A   1      38.212  29.739  27.578  1.00  0.00     0.010 A 
ATOM     32  C   UNL A   1      37.611  29.067  29.820  1.00  0.00     0.010 A 
ATOM     33  C   UNL A   1      38.593  29.240  28.832  1.00  0.00    -0.014 A 
BRANCH  33  34
ATOM     34  C   UNL A   1      39.999  28.842  29.106  1.00  0.00     0.031 A 
ATOM     35  C   UNL A   1      40.924  29.785  29.828  1.00  0.00     0.074 A 
ATOM     36  C   UNL A   1      40.467  27.655  28.674  1.00  0.00     0.049 A 
ATOM     37  N   UNL A   1      42.203  29.659  30.081  1.00  0.00    -0.248 NA
ATOM     38  C   UNL A   1      40.337  31.044  30.313  1.00  0.00     0.031 C 
ATOM     39  C   UNL A   1      39.691  26.654  27.941  1.00  0.00     0.029 A 
ATOM     40  N   UNL A   1      41.716  27.096  28.784  1.00  0.00    -0.354 N 
ATOM     41  C   UNL A   1      42.579  30.833  30.721  1.00  0.00     0.074 A 
ATOM     42  C   UNL A   1      41.400  31.667  30.803  1.00  0.00     0.031 C 
ATOM     43  C   UNL A   1      40.479  25.597  27.678  1.00  0.00     0.029 A 
ATOM     44  C   UNL A   1      41.817  25.857  28.200  1.00  0.00     0.049 A 
ATOM     45  H   UNL A   1      42.466  27.541  29.240  1.00  0.00     0.167 HD
ATOM     46  C   UNL A   1      43.794  31.182  31.206  1.00  0.00     0.037 A 
ATOM     47  C   UNL A   1      42.873  25.027  28.093  1.00  0.00     0.037 A 
ATOM     48  C   UNL A   1      44.960  30.342  31.182  1.00  0.00     0.049 A 
ATOM     49  C   UNL A   1      44.199  25.419  28.678  1.00  0.00     0.074 A 
ATOM     50  C   UNL A   1      46.217  30.594  31.706  1.00  0.00     0.029 A 
ATOM     51  N   UNL A   1      45.010  29.080  30.613  1.00  0.00    -0.354 N 
ATOM     52  N   UNL A   1      44.531  26.523  29.301  1.00  0.00    -0.248 NA
ATOM     53  C   UNL A   1      45.296  24.450  28.544  1.00  0.00     0.031 C 
ATOM     54  C   UNL A   1      47.033  29.488  31.441  1.00  0.00     0.029 A 
ATOM     55  C   UNL A   1      46.277  28.543  30.769  1.00  0.00     0.049 A 
ATOM     56  H   UNL A   1      44.257  28.632  30.165  1.00  0.00     0.167 HD
ATOM     57  C   UNL A   1      45.867  26.374  29.648  1.00  0.00     0.074 A 
ATOM     58  C   UNL A   1      46.284  25.072  29.173  1.00  0.00     0.031 C 
ATOM     59  C   UNL A   1      46.676  27.243  30.299  1.00  0.00     0.037 A 
BRANCH  46  60
ATOM     60  C   UNL A   1      43.923  32.546  31.811  1.00  0.00     0.057 A 
ATOM     61  C   UNL A   1      44.094  33.688  31.020  1.00  0.00     0.134 A 
ATOM     62  C   UNL A   1      43.842  32.721  33.198  1.00  0.00     0.134 A 
ATOM     63  F   UNL A   1      44.191  33.581  29.686  1.00  0.00    -0.206 F 
ATOM     64  C   UNL A   1      44.195  34.958  31.588  1.00  0.00     0.040 A 
ATOM     65  C   UNL A   1      43.925  33.988  33.778  1.00  0.00     0.040 A 
ATOM     66  F   UNL A   1      43.678  31.665  34.009  1.00  0.00    -0.206 F 
ATOM     67  C   UNL A   1      44.105  35.111  32.971  1.00  0.00     0.006 A 
ENDBRANCH  46  60
BRANCH  47  68
ATOM     68  C   UNL A   1      42.712  23.721  27.414  1.00  0.00     0.057 A 
ATOM     69  C   UNL A   1      42.884  23.606  26.031  1.00  0.00     0.134 A 
ATOM     70  C   UNL A   1      42.381  22.564  28.127  1.00  0.00     0.134 A 
ATOM     71  F   UNL A   1      43.179  24.688  25.295  1.00  0.00    -0.206 F 
ATOM     72  C   UNL A   1      42.722  22.384  25.376  1.00  0.00     0.040 A 
ATOM     73  C   UNL A   1      42.232  21.333  27.487  1.00  0.00     0.040 A 
ATOM     74  F   UNL A   1      42.206  22.614  29.455  1.00  0.00    -0.206 F 
ATOM     75  C   UNL A   1      42.399  21.242  26.106  1.00  0.00     0.006 A 
ENDBRANCH  47  68
BRANCH  59  76
ATOM     76  C   UNL A   1      48.083  26.806  30.556  1.00  0.00     0.057 A 
ATOM     77  C   UNL A   1      48.423  26.071  31.698  1.00  0.00     0.134 A 
ATOM     78  C   UNL A   1      49.101  27.091  29.638  1.00  0.00     0.134 A 
ATOM     79  F   UNL A   1      47.493  25.779  32.620  1.00  0.00    -0.206 F 
ATOM     80  C   UNL A   1      49.732  25.642  31.923  1.00  0.00     0.040 A 
ATOM     81  C   UNL A   1      50.410  26.656  29.845  1.00  0.00     0.040 A 
ATOM     82  F   UNL A   1      48.836  27.790  28.523  1.00  0.00    -0.206 F 
ATOM     83  C   UNL A   1      50.728  25.930  30.992  1.00  0.00     0.006 A 
ENDBRANCH  59  76
ENDBRANCH  33  34
ENDBRANCH  25  28
ENDBRANCH  23  24
ENDBRANCH   1  23
TORSDOF 12
ENDMDL
MODEL 2
REMARK VINA RESULT:     -10.5      4.027      9.552
REMARK SMILES Cc1ccc(C(=O)N2CCC(CC(=O)NCCCNC(=O)c3ccc(-c4c5nc(c(-c6c(F)cccc6F)c6ccc([nH]6)c(-c6c(F)cccc6F)c6nc(c(-c7c(F)cccc7F)c7ccc4[nH]7)C=C6)C=C5)cc3)CC2)cn1
REMARK SMILES IDX 17 1 16 2 15 3 13 4 14 5 12 7 11 8 6 9 7 10 8 11 9 12 77 13
REMARK SMILES IDX 10 14 76 15 5 16 1 17 2 18 3 19 79 20 4 21 78 22 18 23 19 24
REMARK SMILES IDX 20 25 21 27 22 28 23 29 75 30 24 31 74 32 25 33 26 34 27 35
REMARK SMILES IDX 68 36 28 37 73 38 67 39 69 40 29 41 72 42 66 43 65 44 30 46
REMARK SMILES IDX 56 47 39 48 55 49 40 50 43 51 54 52 70 53 41 54 42 55 53 57
REMARK SMILES IDX 71 58 44 59 31 60 32 61 37 62 33 63 34 64 36 65 38 66 35 67
REMARK SMILES IDX 57 68 58 69 63 70 59 71 60 72 62 73 64 74 61 75 45 76 46 77
REMARK SMILES IDX 51 78 47 79 48 80 50 81 52 82 49 83
REMARK H PARENT 15 6 19 26 69 45 43 56
REMARK Flexibility Score: inf
ROOT
ATOM      1  C   UNL A   1      37.606  19.706  24.980  1.00  0.00     0.042 C 
ENDROOT
BRANCH   1   2
ATOM      2  C   UNL A   1      36.381  20.618  24.946  1.00  0.00     0.117 C 
BRANCH   2   3
ATOM      3  N   UNL A   1      35.149  19.907  25.262  1.00  0.00    -0.356 N 
ATOM      4  C   UNL A   1      33.845  20.237  25.050  1.00  0.00     0.220 C 
ATOM      5  O   UNL A   1      32.974  19.473  25.469  1.00  0.00    -0.275 OA
ATOM      6  H   UNL A   1      35.283  19.039  25.707  1.00  0.00     0.163 HD
BRANCH   4   7
ATOM      7  C   UNL A   1      33.476  21.520  24.334  1.00  0.00     0.103 C 
BRANCH   7   8
ATOM      8  C   UNL A   1      33.491  22.743  25.265  1.00  0.00     0.002 C 
ATOM      9  C   UNL A   1      31.920  26.334  25.096  1.00  0.00     0.255 C 
ATOM     10  O   UNL A   1      31.272  25.969  24.122  1.00  0.00    -0.269 OA
ATOM     11  N   UNL A   1      32.673  25.465  25.874  1.00  0.00    -0.339 N 
ATOM     12  C   UNL A   1      34.048  25.214  25.483  1.00  0.00     0.120 C 
ATOM     13  C   UNL A   1      31.995  24.357  26.526  1.00  0.00     0.120 C 
ATOM     14  C   UNL A   1      34.141  23.970  24.603  1.00  0.00     0.026 C 
ATOM     15  C   UNL A   1      32.050  23.082  25.690  1.00  0.00     0.026 C 
BRANCH   9  16
ATOM     16  C   UNL A   1      31.894  27.747  25.553  1.00  0.00     0.058 A 
ATOM     17  C   UNL A   1      31.489  31.828  26.681  1.00  0.00     0.066 C 
ATOM     18  C   UNL A   1      31.654  30.387  26.307  1.00  0.00     0.037 A 
ATOM     19  C   UNL A   1      32.120  29.459  27.234  1.00  0.00     0.024 A 
ATOM     20  N   UNL A   1      31.330  30.045  25.036  1.00  0.00    -0.261 NA
ATOM     21  C   UNL A   1      32.241  28.125  26.851  1.00  0.00     0.017 A 
ATOM     22  C   UNL A   1      31.449  28.736  24.690  1.00  0.00     0.125 A 
ENDBRANCH   9  16
ENDBRANCH   7   8
ENDBRANCH   4   7
ENDBRANCH   2   3
ENDBRANCH   1   2
BRANCH   1  23
ATOM     23  C   UNL A   1      38.811  20.308  25.698  1.00  0.00     0.118 C 
BRANCH  23  24
ATOM     24  N   UNL A   1      39.912  19.365  25.789  1.00  0.00    -0.352 N 
ATOM     25  C   UNL A   1      41.242  19.584  26.051  1.00  0.00     0.251 C 
ATOM     26  H   UNL A   1      39.667  18.423  25.638  1.00  0.00     0.163 HD
ATOM     27  O   UNL A   1      42.049  18.678  25.852  1.00  0.00    -0.269 OA
BRANCH  25  28
ATOM     28  C   UNL A   1      41.730  20.887  26.568  1.00  0.00     0.039 A 
ATOM     29  C   UNL A   1      41.747  21.091  27.954  1.00  0.00     0.014 A 
ATOM     30  C   UNL A   1      42.074  21.940  25.715  1.00  0.00     0.014 A 
ATOM     31  C   UNL A   1      42.133  22.329  28.480  1.00  0.00     0.010 A 
ATOM     32  C   UNL A   1      42.513  23.158  26.242  1.00  0.00     0.010 A 
ATOM     33  C   UNL A   1      42.529  23.371  27.629  1.00  0.00    -0.014 A 
BRANCH  33  34
ATOM     34  C   UNL A   1      42.906  24.704  28.169  1.00  0.00     0.031 A 
ATOM     35  C   UNL A   1      41.847  25.745  28.419  1.00  0.00     0.074 A 
ATOM     36  C   UNL A   1      44.199  25.005  28.397  1.00  0.00     0.049 A 
ATOM     37  N   UNL A   1      41.984  26.990  28.800  1.00  0.00    -0.248 NA
ATOM     38  C   UNL A   1      40.453  25.335  28.192  1.00  0.00     0.031 C 
ATOM     39  C   UNL A   1      45.331  24.105  28.178  1.00  0.00     0.029 A 
ATOM     40  N   UNL A   1      44.776  26.162  28.859  1.00  0.00    -0.354 N 
ATOM     41  C   UNL A   1      40.701  27.521  28.824  1.00  0.00     0.074 A 
ATOM     42  C   UNL A   1      39.800  26.470  28.404  1.00  0.00     0.031 C 
ATOM     43  C   UNL A   1      46.466  24.739  28.516  1.00  0.00     0.029 A 
ATOM     44  C   UNL A   1      46.145  26.095  28.952  1.00  0.00     0.049 A 
ATOM     45  H   UNL A   1      44.258  26.963  29.102  1.00  0.00     0.167 HD
ATOM     46  C   UNL A   1      40.305  28.767  29.174  1.00  0.00     0.037 A 
ATOM     47  C   UNL A   1      47.040  27.024  29.339  1.00  0.00     0.037 A 
ATOM     48  C   UNL A   1      41.181  29.804  29.647  1.00  0.00     0.049 A 
ATOM     49  C   UNL A   1      46.572  28.386  29.764  1.00  0.00     0.074 A 
ATOM     50  C   UNL A   1      40.855  31.079  30.082  1.00  0.00     0.029 A 
ATOM     51  N   UNL A   1      42.556  29.683  29.760  1.00  0.00    -0.354 N 
ATOM     52  N   UNL A   1      45.352  28.864  29.804  1.00  0.00    -0.248 NA
ATOM     53  C   UNL A   1      47.605  29.338  30.198  1.00  0.00     0.031 C 
ATOM     54  C   UNL A   1      42.038  31.734  30.444  1.00  0.00     0.029 A 
ATOM     55  C   UNL A   1      43.094  30.860  30.252  1.00  0.00     0.049 A 
ATOM     56  H   UNL A   1      43.073  28.879  29.525  1.00  0.00     0.167 HD
ATOM     57  C   UNL A   1      45.469  30.162  30.282  1.00  0.00     0.074 A 
ATOM     58  C   UNL A   1      46.877  30.396  30.525  1.00  0.00     0.031 C 
ATOM     59  C   UNL A   1      44.495  31.077  30.496  1.00  0.00     0.037 A 
BRANCH  46  60
ATOM     60  C   UNL A   1      38.845  29.081  29.059  1.00  0.00     0.057 A 
ATOM     61  C   UNL A   1      37.983  28.982  30.158  1.00  0.00     0.134 A 
ATOM     62  C   UNL A   1      38.304  29.519  27.845  1.00  0.00     0.134 A 
ATOM     63  F   UNL A   1      38.442  28.555  31.344  1.00  0.00    -0.206 F 
ATOM     64  C   UNL A   1      36.628  29.294  30.049  1.00  0.00     0.040 A 
ATOM     65  C   UNL A   1      36.953  29.850  27.727  1.00  0.00     0.040 A 
ATOM     66  F   UNL A   1      39.080  29.636  26.756  1.00  0.00    -0.206 F 
ATOM     67  C   UNL A   1      36.110  29.734  28.832  1.00  0.00     0.006 A 
ENDBRANCH  46  60
BRANCH  47  68
ATOM     68  C   UNL A   1      48.483  26.689  29.360  1.00  0.00     0.057 A 
ATOM     69  C   UNL A   1      49.054  26.051  30.464  1.00  0.00     0.134 A 
ATOM     70  C   UNL A   1      49.319  27.004  28.283  1.00  0.00     0.134 A 
ATOM     71  F   UNL A   1      48.303  25.747  31.532  1.00  0.00    -0.206 F 
ATOM     72  C   UNL A   1      50.415  25.741  30.503  1.00  0.00     0.040 A 
ATOM     73  C   UNL A   1      50.678  26.687  28.303  1.00  0.00     0.040 A 
ATOM     74  F   UNL A   1      48.825  27.616  27.198  1.00  0.00    -0.206 F 
ATOM     75  C   UNL A   1      51.230  26.057  29.417  1.00  0.00     0.006 A 
ENDBRANCH  47  68
BRANCH  59  76
ATOM     76  C   UNL A   1      44.914  32.407  31.040  1.00  0.00     0.057 A 
ATOM     77  C   UNL A   1      44.995  32.640  32.418  1.00  0.00     0.134 A 
ATOM     78  C   UNL A   1      45.274  33.451  30.180  1.00  0.00     0.134 A 
ATOM     79  F   UNL A   1      44.651  31.681  33.291  1.00  0.00    -0.206 F 
ATOM     80  C   UNL A   1      45.412  33.873  32.923  1.00  0.00     0.040 A 
ATOM     81  C   UNL A   1      45.705  34.683  30.673  1.00  0.00     0.040 A 
ATOM     82  F   UNL A   1      45.219  33.286  28.850  1.00  0.00    -0.206 F 
ATOM     83  C   UNL A   1      45.772  34.897  32.049  1.00  0.00     0.006 A 
ENDBRANCH  59  76
ENDBRANCH  33  34
ENDBRANCH  25  28
ENDBRANCH  23  24
ENDBRANCH   1  23
TORSDOF 12
ENDMDL
MODEL 3
REMARK VINA RESULT:     -10.5      4.124      9.786
REMARK SMILES Cc1ccc(C(=O)N2CCC(CC(=O)NCCCNC(=O)c3ccc(-c4c5nc(c(-c6c(F)cccc6F)c6ccc([nH]6)c(-c6c(F)cccc6F)c6nc(c(-c7c(F)cccc7F)c7ccc4[nH]7)C=C6)C=C5)cc3)CC2)cn1
REMARK SMILES IDX 17 1 16 2 15 3 13 4 14 5 12 7 11 8 6 9 7 10 8 11 9 12 77 13
REMARK SMILES IDX 10 14 76 15 5 16 1 17 2 18 3 19 79 20 4 21 78 22 18 23 19 24
REMARK SMILES IDX 20 25 21 27 22 28 23 29 75 30 24 31 74 32 25 33 26 34 27 35
REMARK SMILES IDX 68 36 28 37 73 38 67 39 69 40 29 41 72 42 66 43 65 44 30 46
REMARK SMILES IDX 56 47 39 48 55 49 40 50 43 51 54 52 70 53 41 54 42 55 53 57
REMARK SMILES IDX 71 58 44 59 31 60 32 61 37 62 33 63 34 64 36 65 38 66 35 67
REMARK SMILES IDX 57 68 58 69 63 70 59 71 60 72 62 73 64 74 61 75 45 76 46 77
REMARK SMILES IDX 51 78 47 79 48 80 50 81 52 82 49 83
REMARK H PARENT 15 6 19 26 69 45 43 56
REMARK Flexibility Score: inf
ROOT
ATOM      1  C   UNL A   1      37.384  19.439  25.001  1.00  0.00     0.042 C 
ENDROOT
BRANCH   1   2
ATOM      2  C   UNL A   1      36.134  20.317  24.943  1.00  0.00     0.117 C 
BRANCH   2   3
ATOM      3  N   UNL A   1      34.915  19.567  25.217  1.00  0.00    -0.356 N 
ATOM      4  C   UNL A   1      33.607  19.872  24.990  1.00  0.00     0.220 C 
ATOM      5  O   UNL A   1      32.748  19.076  25.373  1.00  0.00    -0.275 OA
ATOM      6  H   UNL A   1      35.062  18.691  25.641  1.00  0.00     0.163 HD
BRANCH   4   7
ATOM      7  C   UNL A   1      33.219  21.164  24.303  1.00  0.00     0.103 C 
BRANCH   7   8
ATOM      8  C   UNL A   1      33.261  22.375  25.249  1.00  0.00     0.002 C 
ATOM      9  C   UNL A   1      31.889  26.045  25.065  1.00  0.00     0.255 C 
ATOM     10  O   UNL A   1      31.261  25.726  24.062  1.00  0.00    -0.269 OA
ATOM     11  N   UNL A   1      32.563  25.129  25.861  1.00  0.00    -0.339 N 
ATOM     12  C   UNL A   1      33.938  24.810  25.521  1.00  0.00     0.120 C 
ATOM     13  C   UNL A   1      31.803  24.052  26.472  1.00  0.00     0.120 C 
ATOM     14  C   UNL A   1      34.001  23.572  24.629  1.00  0.00     0.026 C 
ATOM     15  C   UNL A   1      31.824  22.785  25.622  1.00  0.00     0.026 C 
BRANCH   9  16
ATOM     16  C   UNL A   1      31.919  27.452  25.539  1.00  0.00     0.058 A 
ATOM     17  C   UNL A   1      31.682  31.536  26.706  1.00  0.00     0.066 C 
ATOM     18  C   UNL A   1      31.787  30.093  26.319  1.00  0.00     0.037 A 
ATOM     19  C   UNL A   1      32.177  29.133  27.248  1.00  0.00     0.024 A 
ATOM     20  N   UNL A   1      31.486  29.782  25.034  1.00  0.00    -0.261 NA
ATOM     21  C   UNL A   1      32.243  27.798  26.852  1.00  0.00     0.017 A 
ATOM     22  C   UNL A   1      31.551  28.472  24.676  1.00  0.00     0.125 A 
ENDBRANCH   9  16
ENDBRANCH   7   8
ENDBRANCH   4   7
ENDBRANCH   2   3
ENDBRANCH   1   2
BRANCH   1  23
ATOM     23  C   UNL A   1      38.638  20.173  25.467  1.00  0.00     0.118 C 
BRANCH  23  24
ATOM     24  N   UNL A   1      39.731  19.255  25.739  1.00  0.00    -0.352 N 
ATOM     25  C   UNL A   1      41.022  19.511  26.133  1.00  0.00     0.251 C 
ATOM     26  H   UNL A   1      39.512  18.302  25.624  1.00  0.00     0.163 HD
ATOM     27  O   UNL A   1      41.853  18.607  26.082  1.00  0.00    -0.269 OA
BRANCH  25  28
ATOM     28  C   UNL A   1      41.438  20.853  26.615  1.00  0.00     0.039 A 
ATOM     29  C   UNL A   1      41.222  21.174  27.961  1.00  0.00     0.014 A 
ATOM     30  C   UNL A   1      41.941  21.827  25.748  1.00  0.00     0.014 A 
ATOM     31  C   UNL A   1      41.535  22.451  28.440  1.00  0.00     0.010 A 
ATOM     32  C   UNL A   1      42.305  23.084  26.239  1.00  0.00     0.010 A 
ATOM     33  C   UNL A   1      42.089  23.414  27.586  1.00  0.00    -0.014 A 
BRANCH  33  34
ATOM     34  C   UNL A   1      42.392  24.788  28.069  1.00  0.00     0.031 A 
ATOM     35  C   UNL A   1      43.800  25.159  28.453  1.00  0.00     0.074 A 
ATOM     36  C   UNL A   1      41.406  25.694  28.208  1.00  0.00     0.049 A 
ATOM     37  N   UNL A   1      44.249  26.272  28.979  1.00  0.00    -0.248 NA
ATOM     38  C   UNL A   1      44.836  24.138  28.234  1.00  0.00     0.031 C 
ATOM     39  C   UNL A   1      39.995  25.465  27.898  1.00  0.00     0.029 A 
ATOM     40  N   UNL A   1      41.445  26.991  28.656  1.00  0.00    -0.354 N 
ATOM     41  C   UNL A   1      45.608  26.071  29.185  1.00  0.00     0.074 A 
ATOM     42  C   UNL A   1      45.909  24.726  28.744  1.00  0.00     0.031 C 
ATOM     43  C   UNL A   1      39.303  26.589  28.154  1.00  0.00     0.029 A 
ATOM     44  C   UNL A   1      40.217  27.606  28.667  1.00  0.00     0.049 A 
ATOM     45  H   UNL A   1      42.274  27.438  28.940  1.00  0.00     0.167 HD
ATOM     46  C   UNL A   1      46.525  26.930  29.686  1.00  0.00     0.037 A 
ATOM     47  C   UNL A   1      39.865  28.847  29.054  1.00  0.00     0.037 A 
ATOM     48  C   UNL A   1      46.253  28.287  30.076  1.00  0.00     0.049 A 
ATOM     49  C   UNL A   1      40.910  29.797  29.567  1.00  0.00     0.074 A 
ATOM     50  C   UNL A   1      47.137  29.248  30.537  1.00  0.00     0.029 A 
ATOM     51  N   UNL A   1      45.002  28.881  30.038  1.00  0.00    -0.354 N 
ATOM     52  N   UNL A   1      42.195  29.599  29.732  1.00  0.00    -0.248 NA
ATOM     53  C   UNL A   1      40.455  31.143  29.945  1.00  0.00     0.031 C 
ATOM     54  C   UNL A   1      46.417  30.421  30.792  1.00  0.00     0.029 A 
ATOM     55  C   UNL A   1      45.090  30.193  30.472  1.00  0.00     0.049 A 
ATOM     56  H   UNL A   1      44.174  28.436  29.745  1.00  0.00     0.167 HD
ATOM     57  C   UNL A   1      42.703  30.797  30.216  1.00  0.00     0.074 A 
ATOM     58  C   UNL A   1      41.591  31.720  30.312  1.00  0.00     0.031 C 
ATOM     59  C   UNL A   1      43.978  31.102  30.554  1.00  0.00     0.037 A 
BRANCH  46  60
ATOM     60  C   UNL A   1      47.926  26.424  29.842  1.00  0.00     0.057 A 
ATOM     61  C   UNL A   1      48.372  25.854  31.041  1.00  0.00     0.134 A 
ATOM     62  C   UNL A   1      48.826  26.475  28.772  1.00  0.00     0.134 A 
ATOM     63  F   UNL A   1      47.557  25.788  32.105  1.00  0.00    -0.206 F 
ATOM     64  C   UNL A   1      49.671  25.366  31.174  1.00  0.00     0.040 A 
ATOM     65  C   UNL A   1      50.124  25.976  28.888  1.00  0.00     0.040 A 
ATOM     66  F   UNL A   1      48.457  27.009  27.597  1.00  0.00    -0.206 F 
ATOM     67  C   UNL A   1      50.551  25.422  30.094  1.00  0.00     0.006 A 
ENDBRANCH  46  60
BRANCH  47  68
ATOM     68  C   UNL A   1      38.451  29.275  28.955  1.00  0.00     0.057 A 
ATOM     69  C   UNL A   1      37.908  29.679  27.731  1.00  0.00     0.134 A 
ATOM     70  C   UNL A   1      37.615  29.294  30.076  1.00  0.00     0.134 A 
ATOM     71  F   UNL A   1      38.672  29.701  26.628  1.00  0.00    -0.206 F 
ATOM     72  C   UNL A   1      36.581  30.097  27.625  1.00  0.00     0.040 A 
ATOM     73  C   UNL A   1      36.282  29.695  29.982  1.00  0.00     0.040 A 
ATOM     74  F   UNL A   1      38.081  28.917  31.275  1.00  0.00    -0.206 F 
ATOM     75  C   UNL A   1      35.763  30.102  28.754  1.00  0.00     0.006 A 
ENDBRANCH  47  68
BRANCH  59  76
ATOM     76  C   UNL A   1      44.244  32.493  31.036  1.00  0.00     0.057 A 
ATOM     77  C   UNL A   1      44.284  32.798  32.402  1.00  0.00     0.134 A 
ATOM     78  C   UNL A   1      44.498  33.528  30.129  1.00  0.00     0.134 A 
ATOM     79  F   UNL A   1      44.036  31.850  33.318  1.00  0.00    -0.206 F 
ATOM     80  C   UNL A   1      44.559  34.092  32.849  1.00  0.00     0.040 A 
ATOM     81  C   UNL A   1      44.787  34.823  30.565  1.00  0.00     0.040 A 
ATOM     82  F   UNL A   1      44.476  33.297  28.808  1.00  0.00    -0.206 F 
ATOM     83  C   UNL A   1      44.816  35.106  31.929  1.00  0.00     0.006 A 
ENDBRANCH  59  76
ENDBRANCH  33  34
ENDBRANCH  25  28
ENDBRANCH  23  24
ENDBRANCH   1  23
TORSDOF 12
ENDMDL
