MODEL 1
REMARK VINA RESULT:     -10.7      0.000      0.000
REMARK SMILES O=C(NCCCNC(=O)c1[nH]c2ccc(Cl)cc2c1-c1ccccc1)c1ccc(-c2c3nc(c(-c4c(F)cccc4F)c4ccc([nH]4)c(-c4c(F)cccc4F)c4nc(c(-c5c(F)cccc5F)c5ccc2[nH]5)C=C4)C=C3)cc1
REMARK SMILES IDX 4 1 3 2 1 3 2 4 26 6 27 7 79 8 28 9 78 10 29 11 30 12 31 13
REMARK SMILES IDX 72 14 32 15 77 16 71 17 73 18 33 19 76 20 70 21 69 22 34 24
REMARK SMILES IDX 60 25 43 26 59 27 44 28 47 29 58 30 74 31 45 32 46 33 57 35
REMARK SMILES IDX 75 36 48 37 35 38 36 39 41 40 37 41 38 42 40 43 42 44 39 45
REMARK SMILES IDX 61 46 62 47 67 48 63 49 64 50 66 51 68 52 65 53 49 54 50 55
REMARK SMILES IDX 55 56 51 57 52 58 54 59 56 60 53 61 5 62 6 63 7 64 8 65 9 67
REMARK SMILES IDX 10 68 11 69 19 70 12 71 18 73 13 74 17 75 14 76 15 77 16 78
REMARK SMILES IDX 20 79 21 80 25 81 22 82 24 83 23 84
REMARK H PARENT 3 5 73 23 47 34 7 66 11 72
REMARK Flexibility Score: inf
ROOT
ATOM      1  C   UNL A   1      40.985  21.485  27.099  1.00  0.00     0.118 C 
ENDROOT
BRANCH   1   2
ATOM      2  N   UNL A   1      39.688  21.672  26.459  1.00  0.00    -0.352 N 
ATOM      3  O   UNL A   1      37.753  22.701  25.928  1.00  0.00    -0.269 OA
ATOM      4  C   UNL A   1      38.895  22.790  26.369  1.00  0.00     0.251 C 
ATOM      5  H   UNL A   1      39.322  20.868  26.022  1.00  0.00     0.163 HD
BRANCH   4   6
ATOM      6  C   UNL A   1      39.408  24.099  26.827  1.00  0.00     0.039 A 
ATOM      7  C   UNL A   1      39.279  24.484  28.162  1.00  0.00     0.014 A 
ATOM      8  C   UNL A   1      40.041  24.948  25.915  1.00  0.00     0.014 A 
ATOM      9  C   UNL A   1      39.601  25.777  28.544  1.00  0.00     0.010 A 
ATOM     10  C   UNL A   1      40.488  26.204  26.332  1.00  0.00     0.010 A 
ATOM     11  C   UNL A   1      40.249  26.638  27.645  1.00  0.00    -0.014 A 
BRANCH  11  12
ATOM     12  C   UNL A   1      40.765  27.935  28.145  1.00  0.00     0.031 A 
ATOM     13  C   UNL A   1      42.232  28.251  28.137  1.00  0.00     0.074 A 
ATOM     14  C   UNL A   1      39.873  28.834  28.606  1.00  0.00     0.049 A 
ATOM     15  N   UNL A   1      42.841  29.326  28.569  1.00  0.00    -0.248 NA
ATOM     16  C   UNL A   1      43.137  27.231  27.583  1.00  0.00     0.031 C 
ATOM     17  C   UNL A   1      38.423  28.625  28.670  1.00  0.00     0.029 A 
ATOM     18  N   UNL A   1      40.045  30.101  29.100  1.00  0.00    -0.354 N 
ATOM     19  C   UNL A   1      44.196  29.105  28.367  1.00  0.00     0.074 A 
ATOM     20  C   UNL A   1      44.325  27.786  27.784  1.00  0.00     0.031 C 
ATOM     21  C   UNL A   1      37.836  29.735  29.138  1.00  0.00     0.029 A 
ATOM     22  C   UNL A   1      38.870  30.699  29.485  1.00  0.00     0.049 A 
ATOM     23  H   UNL A   1      40.924  30.539  29.171  1.00  0.00     0.167 HD
ATOM     24  C   UNL A   1      45.231  29.932  28.645  1.00  0.00     0.037 A 
ATOM     25  C   UNL A   1      38.647  31.879  30.091  1.00  0.00     0.037 A 
ATOM     26  C   UNL A   1      45.084  31.252  29.204  1.00  0.00     0.049 A 
ATOM     27  C   UNL A   1      39.819  32.753  30.420  1.00  0.00     0.074 A 
ATOM     28  C   UNL A   1      46.067  32.194  29.458  1.00  0.00     0.029 A 
ATOM     29  N   UNL A   1      43.881  31.812  29.609  1.00  0.00    -0.354 N 
ATOM     30  N   UNL A   1      41.090  32.555  30.171  1.00  0.00    -0.248 NA
ATOM     31  C   UNL A   1      39.529  34.010  31.123  1.00  0.00     0.031 C 
ATOM     32  C   UNL A   1      45.467  33.297  30.072  1.00  0.00     0.029 A 
ATOM     33  C   UNL A   1      44.103  33.068  30.150  1.00  0.00     0.049 A 
ATOM     34  H   UNL A   1      43.000  31.380  29.524  1.00  0.00     0.167 HD
ATOM     35  C   UNL A   1      41.752  33.664  30.675  1.00  0.00     0.074 A 
ATOM     36  C   UNL A   1      40.738  34.543  31.221  1.00  0.00     0.031 C 
ATOM     37  C   UNL A   1      43.081  33.928  30.690  1.00  0.00     0.037 A 
BRANCH  24  38
ATOM     38  C   UNL A   1      46.624  29.437  28.377  1.00  0.00     0.057 A 
ATOM     39  C   UNL A   1      47.264  29.639  27.147  1.00  0.00     0.134 A 
ATOM     40  C   UNL A   1      47.362  28.816  29.394  1.00  0.00     0.134 A 
ATOM     41  F   UNL A   1      46.612  30.220  26.129  1.00  0.00    -0.206 F 
ATOM     42  C   UNL A   1      48.583  29.229  26.936  1.00  0.00     0.040 A 
ATOM     43  C   UNL A   1      48.687  28.424  29.202  1.00  0.00     0.040 A 
ATOM     44  F   UNL A   1      46.812  28.600  30.598  1.00  0.00    -0.206 F 
ATOM     45  C   UNL A   1      49.301  28.629  27.968  1.00  0.00     0.006 A 
ENDBRANCH  24  38
BRANCH  25  46
ATOM     46  C   UNL A   1      37.265  32.269  30.464  1.00  0.00     0.057 A 
ATOM     47  C   UNL A   1      36.711  31.901  31.694  1.00  0.00     0.134 A 
ATOM     48  C   UNL A   1      36.466  33.029  29.597  1.00  0.00     0.134 A 
ATOM     49  F   UNL A   1      37.421  31.162  32.559  1.00  0.00    -0.206 F 
ATOM     50  C   UNL A   1      35.406  32.254  32.042  1.00  0.00     0.040 A 
ATOM     51  C   UNL A   1      35.172  33.416  29.945  1.00  0.00     0.040 A 
ATOM     52  F   UNL A   1      36.943  33.425  28.408  1.00  0.00    -0.206 F 
ATOM     53  C   UNL A   1      34.635  33.019  31.167  1.00  0.00     0.006 A 
ENDBRANCH  25  46
BRANCH  37  54
ATOM     54  C   UNL A   1      43.508  35.228  31.302  1.00  0.00     0.057 A 
ATOM     55  C   UNL A   1      43.672  36.384  30.529  1.00  0.00     0.134 A 
ATOM     56  C   UNL A   1      43.721  35.334  32.681  1.00  0.00     0.134 A 
ATOM     57  F   UNL A   1      43.501  36.344  29.199  1.00  0.00    -0.206 F 
ATOM     58  C   UNL A   1      44.051  37.598  31.106  1.00  0.00     0.040 A 
ATOM     59  C   UNL A   1      44.071  36.546  33.274  1.00  0.00     0.040 A 
ATOM     60  F   UNL A   1      43.574  34.263  33.477  1.00  0.00    -0.206 F 
ATOM     61  C   UNL A   1      44.242  37.681  32.484  1.00  0.00     0.006 A 
ENDBRANCH  37  54
ENDBRANCH  11  12
ENDBRANCH   4   6
ENDBRANCH   1   2
BRANCH   1  62
ATOM     62  C   UNL A   1      42.077  21.098  26.123  1.00  0.00     0.042 C 
BRANCH  62  63
ATOM     63  C   UNL A   1      42.877  22.279  25.614  1.00  0.00     0.118 C 
BRANCH  63  64
ATOM     64  N   UNL A   1      44.257  21.950  25.305  1.00  0.00    -0.351 N 
ATOM     65  C   UNL A   1      45.398  22.344  25.952  1.00  0.00     0.268 C 
ATOM     66  H   UNL A   1      44.390  21.364  24.526  1.00  0.00     0.163 HD
ATOM     67  O   UNL A   1      46.480  22.083  25.427  1.00  0.00    -0.268 OA
BRANCH  65  68
ATOM     68  C   UNL A   1      45.300  23.126  27.159  1.00  0.00     0.113 A 
ATOM     69  N   UNL A   1      44.427  22.748  28.153  1.00  0.00    -0.350 N 
ATOM     70  C   UNL A   1      45.913  24.303  27.588  1.00  0.00     0.020 A 
ATOM     71  C   UNL A   1      44.623  23.495  29.286  1.00  0.00     0.047 A 
ATOM     72  H   UNL A   1      43.753  22.037  28.063  1.00  0.00     0.167 HD
ATOM     73  C   UNL A   1      45.539  24.496  28.959  1.00  0.00     0.010 A 
ATOM     74  C   UNL A   1      44.058  23.359  30.558  1.00  0.00     0.028 A 
ATOM     75  C   UNL A   1      45.899  25.423  29.959  1.00  0.00     0.031 A 
ATOM     76  C   UNL A   1      44.451  24.274  31.538  1.00  0.00     0.022 A 
ATOM     77  C   UNL A   1      45.356  25.288  31.240  1.00  0.00     0.041 A 
ATOM     78  Cl  UNL A   1      45.827  26.394  32.475  1.00  0.00    -0.084 Cl
BRANCH  70  79
ATOM     79  C   UNL A   1      46.862  25.064  26.779  1.00  0.00    -0.015 A 
ATOM     80  C   UNL A   1      46.424  25.813  25.678  1.00  0.00     0.009 A 
ATOM     81  C   UNL A   1      48.239  24.956  27.025  1.00  0.00     0.009 A 
ATOM     82  C   UNL A   1      47.350  26.399  24.811  1.00  0.00     0.001 A 
ATOM     83  C   UNL A   1      49.163  25.536  26.152  1.00  0.00     0.001 A 
ATOM     84  C   UNL A   1      48.717  26.249  25.041  1.00  0.00     0.000 A 
ENDBRANCH  70  79
ENDBRANCH  65  68
ENDBRANCH  63  64
ENDBRANCH  62  63
ENDBRANCH   1  62
TORSDOF 11
ENDMDL
MODEL 2
REMARK VINA RESULT:     -10.7      3.404      9.797
REMARK SMILES O=C(NCCCNC(=O)c1[nH]c2ccc(Cl)cc2c1-c1ccccc1)c1ccc(-c2c3nc(c(-c4c(F)cccc4F)c4ccc([nH]4)c(-c4c(F)cccc4F)c4nc(c(-c5c(F)cccc5F)c5ccc2[nH]5)C=C4)C=C3)cc1
REMARK SMILES IDX 4 1 3 2 1 3 2 4 26 6 27 7 79 8 28 9 78 10 29 11 30 12 31 13
REMARK SMILES IDX 72 14 32 15 77 16 71 17 73 18 33 19 76 20 70 21 69 22 34 24
REMARK SMILES IDX 60 25 43 26 59 27 44 28 47 29 58 30 74 31 45 32 46 33 57 35
REMARK SMILES IDX 75 36 48 37 35 38 36 39 41 40 37 41 38 42 40 43 42 44 39 45
REMARK SMILES IDX 61 46 62 47 67 48 63 49 64 50 66 51 68 52 65 53 49 54 50 55
REMARK SMILES IDX 55 56 51 57 52 58 54 59 56 60 53 61 5 62 6 63 7 64 8 65 9 67
REMARK SMILES IDX 10 68 11 69 19 70 12 71 18 73 13 74 17 75 14 76 15 77 16 78
REMARK SMILES IDX 20 79 21 80 25 81 22 82 24 83 23 84
REMARK H PARENT 3 5 73 23 47 34 7 66 11 72
REMARK Flexibility Score: inf
ROOT
ATOM      1  C   UNL A   1      34.788  32.617  29.146  1.00  0.00     0.118 C 
ENDROOT
BRANCH   1   2
ATOM      2  N   UNL A   1      34.141  31.523  28.432  1.00  0.00    -0.352 N 
ATOM      3  O   UNL A   1      33.982  29.637  27.207  1.00  0.00    -0.269 OA
ATOM      4  C   UNL A   1      34.666  30.359  27.926  1.00  0.00     0.251 C 
ATOM      5  H   UNL A   1      33.173  31.636  28.292  1.00  0.00     0.163 HD
BRANCH   4   6
ATOM      6  C   UNL A   1      36.066  29.988  28.223  1.00  0.00     0.039 A 
ATOM      7  C   UNL A   1      37.077  30.224  27.292  1.00  0.00     0.014 A 
ATOM      8  C   UNL A   1      36.376  29.411  29.458  1.00  0.00     0.014 A 
ATOM      9  C   UNL A   1      38.348  29.716  27.506  1.00  0.00     0.010 A 
ATOM     10  C   UNL A   1      37.690  29.018  29.729  1.00  0.00     0.010 A 
ATOM     11  C   UNL A   1      38.681  29.145  28.744  1.00  0.00    -0.014 A 
BRANCH  11  12
ATOM     12  C   UNL A   1      40.098  28.801  29.014  1.00  0.00     0.031 A 
ATOM     13  C   UNL A   1      41.025  29.770  29.687  1.00  0.00     0.074 A 
ATOM     14  C   UNL A   1      40.535  27.582  28.641  1.00  0.00     0.049 A 
ATOM     15  N   UNL A   1      42.297  29.630  29.963  1.00  0.00    -0.248 NA
ATOM     16  C   UNL A   1      40.462  31.067  30.096  1.00  0.00     0.031 C 
ATOM     17  C   UNL A   1      39.719  26.565  27.968  1.00  0.00     0.029 A 
ATOM     18  N   UNL A   1      41.760  26.984  28.777  1.00  0.00    -0.354 N 
ATOM     19  C   UNL A   1      42.694  30.823  30.551  1.00  0.00     0.074 A 
ATOM     20  C   UNL A   1      41.532  31.685  30.582  1.00  0.00     0.031 C 
ATOM     21  C   UNL A   1      40.453  25.460  27.784  1.00  0.00     0.029 A 
ATOM     22  C   UNL A   1      41.810  25.717  28.246  1.00  0.00     0.049 A 
ATOM     23  H   UNL A   1      42.529  27.419  29.212  1.00  0.00     0.167 HD
ATOM     24  C   UNL A   1      43.919  31.160  31.020  1.00  0.00     0.037 A 
ATOM     25  C   UNL A   1      42.843  24.868  28.107  1.00  0.00     0.037 A 
ATOM     26  C   UNL A   1      45.061  30.282  31.002  1.00  0.00     0.049 A 
ATOM     27  C   UNL A   1      44.194  25.288  28.602  1.00  0.00     0.074 A 
ATOM     28  C   UNL A   1      46.328  30.506  31.516  1.00  0.00     0.029 A 
ATOM     29  N   UNL A   1      45.081  29.018  30.430  1.00  0.00    -0.354 N 
ATOM     30  N   UNL A   1      44.541  26.397  29.207  1.00  0.00    -0.248 NA
ATOM     31  C   UNL A   1      45.298  24.345  28.386  1.00  0.00     0.031 C 
ATOM     32  C   UNL A   1      47.129  29.404  31.201  1.00  0.00     0.029 A 
ATOM     33  C   UNL A   1      46.349  28.469  30.541  1.00  0.00     0.049 A 
ATOM     34  H   UNL A   1      44.308  28.577  30.009  1.00  0.00     0.167 HD
ATOM     35  C   UNL A   1      45.900  26.283  29.455  1.00  0.00     0.074 A 
ATOM     36  C   UNL A   1      46.308  24.985  28.957  1.00  0.00     0.031 C 
ATOM     37  C   UNL A   1      46.737  27.176  30.037  1.00  0.00     0.037 A 
BRANCH  24  38
ATOM     38  C   UNL A   1      44.109  32.544  31.572  1.00  0.00     0.057 A 
ATOM     39  C   UNL A   1      43.902  32.843  32.924  1.00  0.00     0.134 A 
ATOM     40  C   UNL A   1      44.580  33.576  30.748  1.00  0.00     0.134 A 
ATOM     41  F   UNL A   1      43.445  31.904  33.766  1.00  0.00    -0.206 F 
ATOM     42  C   UNL A   1      44.146  34.121  33.434  1.00  0.00     0.040 A 
ATOM     43  C   UNL A   1      44.849  34.849  31.250  1.00  0.00     0.040 A 
ATOM     44  F   UNL A   1      44.807  33.355  29.444  1.00  0.00    -0.206 F 
ATOM     45  C   UNL A   1      44.630  35.125  32.598  1.00  0.00     0.006 A 
ENDBRANCH  24  38
BRANCH  25  46
ATOM     46  C   UNL A   1      42.641  23.563  27.431  1.00  0.00     0.057 A 
ATOM     47  C   UNL A   1      42.308  22.413  28.152  1.00  0.00     0.134 A 
ATOM     48  C   UNL A   1      42.771  23.437  26.040  1.00  0.00     0.134 A 
ATOM     49  F   UNL A   1      42.184  22.465  29.487  1.00  0.00    -0.206 F 
ATOM     50  C   UNL A   1      42.132  21.180  27.521  1.00  0.00     0.040 A 
ATOM     51  C   UNL A   1      42.566  22.220  25.392  1.00  0.00     0.040 A 
ATOM     52  F   UNL A   1      43.076  24.506  25.289  1.00  0.00    -0.206 F 
ATOM     53  C   UNL A   1      42.255  21.084  26.135  1.00  0.00     0.006 A 
ENDBRANCH  25  46
BRANCH  37  54
ATOM     54  C   UNL A   1      48.172  26.768  30.181  1.00  0.00     0.057 A 
ATOM     55  C   UNL A   1      49.139  27.138  29.239  1.00  0.00     0.134 A 
ATOM     56  C   UNL A   1      48.597  26.032  31.293  1.00  0.00     0.134 A 
ATOM     57  F   UNL A   1      48.791  27.828  28.142  1.00  0.00    -0.206 F 
ATOM     58  C   UNL A   1      50.478  26.773  29.388  1.00  0.00     0.040 A 
ATOM     59  C   UNL A   1      49.936  25.686  31.469  1.00  0.00     0.040 A 
ATOM     60  F   UNL A   1      47.720  25.652  32.235  1.00  0.00    -0.206 F 
ATOM     61  C   UNL A   1      50.880  26.052  30.511  1.00  0.00     0.006 A 
ENDBRANCH  37  54
ENDBRANCH  11  12
ENDBRANCH   4   6
ENDBRANCH   1   2
BRANCH   1  62
ATOM     62  C   UNL A   1      34.756  32.445  30.651  1.00  0.00     0.042 C 
BRANCH  62  63
ATOM     63  C   UNL A   1      36.026  32.905  31.337  1.00  0.00     0.118 C 
BRANCH  63  64
ATOM     64  N   UNL A   1      35.812  33.355  32.701  1.00  0.00    -0.351 N 
ATOM     65  C   UNL A   1      36.368  32.878  33.859  1.00  0.00     0.268 C 
ATOM     66  H   UNL A   1      35.183  34.104  32.808  1.00  0.00     0.163 HD
ATOM     67  O   UNL A   1      35.925  33.297  34.927  1.00  0.00    -0.268 OA
BRANCH  65  68
ATOM     68  C   UNL A   1      37.372  31.845  33.795  1.00  0.00     0.113 A 
ATOM     69  N   UNL A   1      37.012  30.557  33.475  1.00  0.00    -0.350 N 
ATOM     70  C   UNL A   1      38.746  31.832  34.033  1.00  0.00     0.020 A 
ATOM     71  C   UNL A   1      38.120  29.776  33.273  1.00  0.00     0.047 A 
ATOM     72  H   UNL A   1      36.083  30.239  33.400  1.00  0.00     0.167 HD
ATOM     73  C   UNL A   1      39.229  30.542  33.633  1.00  0.00     0.010 A 
ATOM     74  C   UNL A   1      38.216  28.461  32.806  1.00  0.00     0.028 A 
ATOM     75  C   UNL A   1      40.506  29.954  33.536  1.00  0.00     0.031 A 
ATOM     76  C   UNL A   1      39.495  27.910  32.693  1.00  0.00     0.022 A 
ATOM     77  C   UNL A   1      40.620  28.647  33.054  1.00  0.00     0.041 A 
ATOM     78  Cl  UNL A   1      42.183  27.940  32.893  1.00  0.00    -0.084 Cl
BRANCH  70  79
ATOM     79  C   UNL A   1      39.504  33.001  34.472  1.00  0.00    -0.015 A 
ATOM     80  C   UNL A   1      39.431  33.445  35.799  1.00  0.00     0.009 A 
ATOM     81  C   UNL A   1      40.220  33.764  33.537  1.00  0.00     0.009 A 
ATOM     82  C   UNL A   1      40.020  34.656  36.171  1.00  0.00     0.001 A 
ATOM     83  C   UNL A   1      40.802  34.979  33.910  1.00  0.00     0.001 A 
ATOM     84  C   UNL A   1      40.693  35.427  35.225  1.00  0.00     0.000 A 
ENDBRANCH  70  79
ENDBRANCH  65  68
ENDBRANCH  63  64
ENDBRANCH  62  63
ENDBRANCH   1  62
TORSDOF 11
ENDMDL
MODEL 3
REMARK VINA RESULT:     -10.7      4.004     10.764
REMARK SMILES O=C(NCCCNC(=O)c1[nH]c2ccc(Cl)cc2c1-c1ccccc1)c1ccc(-c2c3nc(c(-c4c(F)cccc4F)c4ccc([nH]4)c(-c4c(F)cccc4F)c4nc(c(-c5c(F)cccc5F)c5ccc2[nH]5)C=C4)C=C3)cc1
REMARK SMILES IDX 4 1 3 2 1 3 2 4 26 6 27 7 79 8 28 9 78 10 29 11 30 12 31 13
REMARK SMILES IDX 72 14 32 15 77 16 71 17 73 18 33 19 76 20 70 21 69 22 34 24
REMARK SMILES IDX 60 25 43 26 59 27 44 28 47 29 58 30 74 31 45 32 46 33 57 35
REMARK SMILES IDX 75 36 48 37 35 38 36 39 41 40 37 41 38 42 40 43 42 44 39 45
REMARK SMILES IDX 61 46 62 47 67 48 63 49 64 50 66 51 68 52 65 53 49 54 50 55
REMARK SMILES IDX 55 56 51 57 52 58 54 59 56 60 53 61 5 62 6 63 7 64 8 65 9 67
REMARK SMILES IDX 10 68 11 69 19 70 12 71 18 73 13 74 17 75 14 76 15 77 16 78
REMARK SMILES IDX 20 79 21 80 25 81 22 82 24 83 23 84
REMARK H PARENT 3 5 73 23 47 34 7 66 11 72
REMARK Flexibility Score: inf
ROOT
ATOM      1  C   UNL A   1      34.933  33.174  28.479  1.00  0.00     0.118 C 
ENDROOT
BRANCH   1   2
ATOM      2  N   UNL A   1      34.222  32.080  27.828  1.00  0.00    -0.352 N 
ATOM      3  O   UNL A   1      33.928  30.057  26.877  1.00  0.00    -0.269 OA
ATOM      4  C   UNL A   1      34.611  30.783  27.593  1.00  0.00     0.251 C 
ATOM      5  H   UNL A   1      33.320  32.307  27.505  1.00  0.00     0.163 HD
BRANCH   4   6
ATOM      6  C   UNL A   1      35.866  30.269  28.182  1.00  0.00     0.039 A 
ATOM      7  C   UNL A   1      37.068  30.358  27.481  1.00  0.00     0.014 A 
ATOM      8  C   UNL A   1      35.845  29.704  29.460  1.00  0.00     0.014 A 
ATOM      9  C   UNL A   1      38.200  29.719  27.962  1.00  0.00     0.010 A 
ATOM     10  C   UNL A   1      37.019  29.177  30.004  1.00  0.00     0.010 A 
ATOM     11  C   UNL A   1      38.201  29.158  29.248  1.00  0.00    -0.014 A 
BRANCH  11  12
ATOM     12  C   UNL A   1      39.481  28.668  29.812  1.00  0.00     0.031 A 
ATOM     13  C   UNL A   1      40.075  29.274  31.051  1.00  0.00     0.074 A 
ATOM     14  C   UNL A   1      40.102  27.651  29.182  1.00  0.00     0.049 A 
ATOM     15  N   UNL A   1      41.201  28.978  31.648  1.00  0.00    -0.248 NA
ATOM     16  C   UNL A   1      39.317  30.356  31.700  1.00  0.00     0.031 C 
ATOM     17  C   UNL A   1      39.618  26.996  27.962  1.00  0.00     0.029 A 
ATOM     18  N   UNL A   1      41.262  26.985  29.475  1.00  0.00    -0.354 N 
ATOM     19  C   UNL A   1      41.303  29.850  32.724  1.00  0.00     0.074 A 
ATOM     20  C   UNL A   1      40.130  30.697  32.692  1.00  0.00     0.031 C 
ATOM     21  C   UNL A   1      40.452  26.001  27.634  1.00  0.00     0.029 A 
ATOM     22  C   UNL A   1      41.571  26.001  28.566  1.00  0.00     0.049 A 
ATOM     23  H   UNL A   1      41.821  27.190  30.260  1.00  0.00     0.167 HD
ATOM     24  C   UNL A   1      42.289  29.928  33.649  1.00  0.00     0.037 A 
ATOM     25  C   UNL A   1      42.654  25.212  28.466  1.00  0.00     0.037 A 
ATOM     26  C   UNL A   1      43.440  29.062  33.679  1.00  0.00     0.049 A 
ATOM     27  C   UNL A   1      43.745  25.352  29.484  1.00  0.00     0.074 A 
ATOM     28  C   UNL A   1      44.460  29.018  34.615  1.00  0.00     0.029 A 
ATOM     29  N   UNL A   1      43.733  28.099  32.725  1.00  0.00    -0.354 N 
ATOM     30  N   UNL A   1      43.801  26.142  30.528  1.00  0.00    -0.248 NA
ATOM     31  C   UNL A   1      44.928  24.501  29.306  1.00  0.00     0.031 C 
ATOM     32  C   UNL A   1      45.398  28.070  34.195  1.00  0.00     0.029 A 
ATOM     33  C   UNL A   1      44.938  27.484  33.027  1.00  0.00     0.049 A 
ATOM     34  H   UNL A   1      43.167  27.882  31.948  1.00  0.00     0.167 HD
ATOM     35  C   UNL A   1      45.017  25.876  31.139  1.00  0.00     0.074 A 
ATOM     36  C   UNL A   1      45.656  24.834  30.362  1.00  0.00     0.031 C 
ATOM     37  C   UNL A   1      45.559  26.449  32.240  1.00  0.00     0.037 A 
BRANCH  24  38
ATOM     38  C   UNL A   1      42.193  31.001  34.695  1.00  0.00     0.057 A 
ATOM     39  C   UNL A   1      41.560  30.787  35.927  1.00  0.00     0.134 A 
ATOM     40  C   UNL A   1      42.811  32.243  34.495  1.00  0.00     0.134 A 
ATOM     41  F   UNL A   1      40.943  29.623  36.181  1.00  0.00    -0.206 F 
ATOM     42  C   UNL A   1      41.536  31.774  36.915  1.00  0.00     0.040 A 
ATOM     43  C   UNL A   1      42.813  33.228  35.483  1.00  0.00     0.040 A 
ATOM     44  F   UNL A   1      43.441  32.511  33.342  1.00  0.00    -0.206 F 
ATOM     45  C   UNL A   1      42.172  32.994  36.698  1.00  0.00     0.006 A 
ENDBRANCH  24  38
BRANCH  25  46
ATOM     46  C   UNL A   1      42.773  24.260  27.335  1.00  0.00     0.057 A 
ATOM     47  C   UNL A   1      43.307  24.654  26.104  1.00  0.00     0.134 A 
ATOM     48  C   UNL A   1      42.359  22.926  27.461  1.00  0.00     0.134 A 
ATOM     49  F   UNL A   1      43.707  25.920  25.917  1.00  0.00    -0.206 F 
ATOM     50  C   UNL A   1      43.407  23.764  25.033  1.00  0.00     0.040 A 
ATOM     51  C   UNL A   1      42.483  22.018  26.410  1.00  0.00     0.040 A 
ATOM     52  F   UNL A   1      41.850  22.481  28.619  1.00  0.00    -0.206 F 
ATOM     53  C   UNL A   1      42.999  22.440  25.187  1.00  0.00     0.006 A 
ENDBRANCH  25  46
BRANCH  37  54
ATOM     54  C   UNL A   1      46.902  25.946  32.678  1.00  0.00     0.057 A 
ATOM     55  C   UNL A   1      47.029  24.911  33.612  1.00  0.00     0.134 A 
ATOM     56  C   UNL A   1      48.076  26.474  32.129  1.00  0.00     0.134 A 
ATOM     57  F   UNL A   1      45.942  24.376  34.188  1.00  0.00    -0.206 F 
ATOM     58  C   UNL A   1      48.281  24.432  34.001  1.00  0.00     0.040 A 
ATOM     59  C   UNL A   1      49.332  25.984  32.487  1.00  0.00     0.040 A 
ATOM     60  F   UNL A   1      48.021  27.463  31.224  1.00  0.00    -0.206 F 
ATOM     61  C   UNL A   1      49.436  24.963  33.430  1.00  0.00     0.006 A 
ENDBRANCH  37  54
ENDBRANCH  11  12
ENDBRANCH   4   6
ENDBRANCH   1   2
BRANCH   1  62
ATOM     62  C   UNL A   1      34.225  33.688  29.716  1.00  0.00     0.042 C 
BRANCH  62  63
ATOM     63  C   UNL A   1      34.782  33.125  31.007  1.00  0.00     0.118 C 
BRANCH  63  64
ATOM     64  N   UNL A   1      34.760  34.074  32.106  1.00  0.00    -0.351 N 
ATOM     65  C   UNL A   1      35.815  34.679  32.737  1.00  0.00     0.268 C 
ATOM     66  H   UNL A   1      33.868  34.314  32.443  1.00  0.00     0.163 HD
ATOM     67  O   UNL A   1      35.582  35.328  33.756  1.00  0.00    -0.268 OA
BRANCH  65  68
ATOM     68  C   UNL A   1      37.156  34.461  32.254  1.00  0.00     0.113 A 
ATOM     69  N   UNL A   1      37.429  34.578  30.911  1.00  0.00    -0.350 N 
ATOM     70  C   UNL A   1      38.348  34.095  32.877  1.00  0.00     0.020 A 
ATOM     71  C   UNL A   1      38.780  34.531  30.682  1.00  0.00     0.047 A 
ATOM     72  H   UNL A   1      36.747  34.682  30.210  1.00  0.00     0.167 HD
ATOM     73  C   UNL A   1      39.388  34.210  31.896  1.00  0.00     0.010 A 
ATOM     74  C   UNL A   1      39.496  34.744  29.499  1.00  0.00     0.028 A 
ATOM     75  C   UNL A   1      40.791  34.079  31.926  1.00  0.00     0.031 A 
ATOM     76  C   UNL A   1      40.887  34.634  29.561  1.00  0.00     0.022 A 
ATOM     77  C   UNL A   1      41.521  34.307  30.755  1.00  0.00     0.041 A 
ATOM     78  Cl  UNL A   1      43.240  34.189  30.798  1.00  0.00    -0.084 Cl
BRANCH  70  79
ATOM     79  C   UNL A   1      38.461  33.804  34.305  1.00  0.00    -0.015 A 
ATOM     80  C   UNL A   1      37.963  32.605  34.832  1.00  0.00     0.009 A 
ATOM     81  C   UNL A   1      38.961  34.778  35.183  1.00  0.00     0.009 A 
ATOM     82  C   UNL A   1      37.921  32.405  36.214  1.00  0.00     0.001 A 
ATOM     83  C   UNL A   1      38.910  34.580  36.565  1.00  0.00     0.001 A 
ATOM     84  C   UNL A   1      38.381  33.397  37.079  1.00  0.00     0.000 A 
ENDBRANCH  70  79
ENDBRANCH  65  68
ENDBRANCH  63  64
ENDBRANCH  62  63
ENDBRANCH   1  62
TORSDOF 11
ENDMDL
