MODEL 1
REMARK VINA RESULT:     -11.7      0.000      0.000
REMARK SMILES COc1ccc(CSc2ncccc2C(=O)NCCCNC(=O)c2ccc(-c3c4nc(c(-c5c(F)cccc5F)c5ccc([nH]5)c(-c5c(F)cccc5F)c5nc(c(-c6c(F)cccc6F)c6ccc3[nH]6)C=C5)C=C4)cc2)cc1
REMARK SMILES IDX 18 1 17 2 15 3 16 4 14 6 9 7 10 8 11 9 13 10 12 11 8 12 7 13
REMARK SMILES IDX 6 14 3 15 4 16 79 17 5 18 78 19 2 20 1 21 19 22 20 23 21 24
REMARK SMILES IDX 22 25 23 27 24 28 25 29 77 30 26 31 76 32 27 33 28 34 29 35
REMARK SMILES IDX 70 36 30 37 75 38 69 39 71 40 31 41 74 42 68 43 67 44 32 46
REMARK SMILES IDX 58 47 41 48 57 49 42 50 45 51 56 52 72 53 43 54 44 55 55 57
REMARK SMILES IDX 73 58 46 59 33 60 34 61 39 62 35 63 36 64 38 65 40 66 37 67
REMARK SMILES IDX 59 68 60 69 65 70 61 71 62 72 64 73 66 74 63 75 47 76 48 77
REMARK SMILES IDX 53 78 49 79 50 80 52 81 54 82 51 83
REMARK H PARENT 17 5 21 26 71 45 45 56
REMARK Flexibility Score: inf
ROOT
ATOM      1  C   UNL A   1      36.069  20.399  24.889  1.00  0.00     0.118 C 
ENDROOT
BRANCH   1   2
ATOM      2  N   UNL A   1      35.861  21.108  26.140  1.00  0.00    -0.352 N 
ATOM      3  C   UNL A   1      34.748  21.805  26.560  1.00  0.00     0.254 C 
ATOM      4  O   UNL A   1      34.251  21.475  27.634  1.00  0.00    -0.269 OA
ATOM      5  H   UNL A   1      36.616  21.090  26.771  1.00  0.00     0.163 HD
BRANCH   3   6
ATOM      6  C   UNL A   1      34.230  22.993  25.823  1.00  0.00     0.072 A 
ATOM      7  C   UNL A   1      32.963  22.969  25.214  1.00  0.00     0.109 A 
ATOM      8  N   UNL A   1      32.476  24.016  24.485  1.00  0.00    -0.249 NA
ATOM      9  C   UNL A   1      33.256  25.099  24.320  1.00  0.00     0.112 A 
ATOM     10  C   UNL A   1      34.993  24.154  25.642  1.00  0.00     0.018 A 
ATOM     11  C   UNL A   1      34.508  25.216  24.881  1.00  0.00     0.021 A 
BRANCH   7  12
ATOM     12  S   UNL A   1      31.800  21.617  25.248  1.00  0.00    -0.101 SA
BRANCH  12  13
ATOM     13  C   UNL A   1      32.340  20.712  23.767  1.00  0.00     0.112 C 
BRANCH  13  14
ATOM     14  C   UNL A   1      32.678  19.262  24.024  1.00  0.00    -0.037 A 
ATOM     15  C   UNL A   1      33.317  16.556  24.497  1.00  0.00     0.118 A 
ATOM     16  C   UNL A   1      33.008  17.404  25.558  1.00  0.00     0.047 A 
ATOM     17  C   UNL A   1      33.319  17.063  23.196  1.00  0.00     0.047 A 
ATOM     18  C   UNL A   1      32.714  18.749  25.329  1.00  0.00     0.008 A 
ATOM     19  C   UNL A   1      33.000  18.406  22.963  1.00  0.00     0.008 A 
BRANCH  15  20
ATOM     20  O   UNL A   1      33.542  15.254  24.846  1.00  0.00    -0.497 OA
ATOM     21  C   UNL A   1      32.564  14.649  25.681  1.00  0.00     0.278 C 
ENDBRANCH  15  20
ENDBRANCH  13  14
ENDBRANCH  12  13
ENDBRANCH   7  12
ENDBRANCH   3   6
ENDBRANCH   1   2
BRANCH   1  22
ATOM     22  C   UNL A   1      37.367  19.602  24.851  1.00  0.00     0.042 C 
BRANCH  22  23
ATOM     23  C   UNL A   1      38.524  20.236  25.625  1.00  0.00     0.118 C 
BRANCH  23  24
ATOM     24  N   UNL A   1      39.703  19.382  25.695  1.00  0.00    -0.352 N 
ATOM     25  C   UNL A   1      41.000  19.645  26.045  1.00  0.00     0.251 C 
ATOM     26  H   UNL A   1      39.535  18.445  25.446  1.00  0.00     0.163 HD
ATOM     27  O   UNL A   1      41.855  18.776  25.861  1.00  0.00    -0.269 OA
BRANCH  25  28
ATOM     28  C   UNL A   1      41.408  20.942  26.627  1.00  0.00     0.039 A 
ATOM     29  C   UNL A   1      41.890  21.934  25.766  1.00  0.00     0.014 A 
ATOM     30  C   UNL A   1      41.400  21.169  28.006  1.00  0.00     0.014 A 
ATOM     31  C   UNL A   1      42.305  23.166  26.279  1.00  0.00     0.010 A 
ATOM     32  C   UNL A   1      41.758  22.419  28.514  1.00  0.00     0.010 A 
ATOM     33  C   UNL A   1      42.212  23.429  27.655  1.00  0.00    -0.014 A 
BRANCH  33  34
ATOM     34  C   UNL A   1      42.557  24.771  28.187  1.00  0.00     0.031 A 
ATOM     35  C   UNL A   1      43.970  25.121  28.555  1.00  0.00     0.074 A 
ATOM     36  C   UNL A   1      41.571  25.671  28.376  1.00  0.00     0.049 A 
ATOM     37  N   UNL A   1      44.446  26.248  29.020  1.00  0.00    -0.248 NA
ATOM     38  C   UNL A   1      44.978  24.061  28.403  1.00  0.00     0.031 C 
ATOM     39  C   UNL A   1      40.150  25.430  28.117  1.00  0.00     0.029 A 
ATOM     40  N   UNL A   1      41.613  26.964  28.830  1.00  0.00    -0.354 N 
ATOM     41  C   UNL A   1      45.803  26.034  29.224  1.00  0.00     0.074 A 
ATOM     42  C   UNL A   1      46.066  24.653  28.874  1.00  0.00     0.031 C 
ATOM     43  C   UNL A   1      39.460  26.549  28.390  1.00  0.00     0.029 A 
ATOM     44  C   UNL A   1      40.384  27.574  28.862  1.00  0.00     0.049 A 
ATOM     45  H   UNL A   1      42.445  27.411  29.108  1.00  0.00     0.167 HD
ATOM     46  C   UNL A   1      46.746  26.911  29.644  1.00  0.00     0.037 A 
ATOM     47  C   UNL A   1      40.040  28.824  29.221  1.00  0.00     0.037 A 
ATOM     48  C   UNL A   1      46.487  28.291  29.967  1.00  0.00     0.049 A 
ATOM     49  C   UNL A   1      41.108  29.787  29.654  1.00  0.00     0.074 A 
ATOM     50  C   UNL A   1      47.389  29.276  30.330  1.00  0.00     0.029 A 
ATOM     51  N   UNL A   1      45.232  28.879  29.968  1.00  0.00    -0.354 N 
ATOM     52  N   UNL A   1      42.398  29.592  29.764  1.00  0.00    -0.248 NA
ATOM     53  C   UNL A   1      40.670  31.146  30.001  1.00  0.00     0.031 C 
ATOM     54  C   UNL A   1      46.675  30.453  30.584  1.00  0.00     0.029 A 
ATOM     55  C   UNL A   1      45.333  30.209  30.345  1.00  0.00     0.049 A 
ATOM     56  H   UNL A   1      44.393  28.420  29.735  1.00  0.00     0.167 HD
ATOM     57  C   UNL A   1      42.931  30.804  30.179  1.00  0.00     0.074 A 
ATOM     58  C   UNL A   1      41.825  31.735  30.281  1.00  0.00     0.031 C 
ATOM     59  C   UNL A   1      44.221  31.119  30.452  1.00  0.00     0.037 A 
BRANCH  46  60
ATOM     60  C   UNL A   1      48.152  26.403  29.771  1.00  0.00     0.057 A 
ATOM     61  C   UNL A   1      48.617  25.807  30.950  1.00  0.00     0.134 A 
ATOM     62  C   UNL A   1      49.042  26.479  28.691  1.00  0.00     0.134 A 
ATOM     63  F   UNL A   1      47.818  25.712  32.024  1.00  0.00    -0.206 F 
ATOM     64  C   UNL A   1      49.924  25.328  31.061  1.00  0.00     0.040 A 
ATOM     65  C   UNL A   1      50.344  25.984  28.782  1.00  0.00     0.040 A 
ATOM     66  F   UNL A   1      48.659  27.033  27.530  1.00  0.00    -0.206 F 
ATOM     67  C   UNL A   1      50.790  25.411  29.973  1.00  0.00     0.006 A 
ENDBRANCH  46  60
BRANCH  47  68
ATOM     68  C   UNL A   1      38.621  29.247  29.146  1.00  0.00     0.057 A 
ATOM     69  C   UNL A   1      37.793  29.195  30.273  1.00  0.00     0.134 A 
ATOM     70  C   UNL A   1      38.064  29.727  27.954  1.00  0.00     0.134 A 
ATOM     71  F   UNL A   1      38.270  28.730  31.437  1.00  0.00    -0.206 F 
ATOM     72  C   UNL A   1      36.457  29.592  30.217  1.00  0.00     0.040 A 
ATOM     73  C   UNL A   1      36.734  30.146  27.889  1.00  0.00     0.040 A 
ATOM     74  F   UNL A   1      38.810  29.809  26.843  1.00  0.00    -0.206 F 
ATOM     75  C   UNL A   1      35.925  30.074  29.022  1.00  0.00     0.006 A 
ENDBRANCH  47  68
BRANCH  59  76
ATOM     76  C   UNL A   1      44.498  32.529  30.879  1.00  0.00     0.057 A 
ATOM     77  C   UNL A   1      44.511  32.896  32.230  1.00  0.00     0.134 A 
ATOM     78  C   UNL A   1      44.771  33.524  29.933  1.00  0.00     0.134 A 
ATOM     79  F   UNL A   1      44.241  31.991  33.184  1.00  0.00    -0.206 F 
ATOM     80  C   UNL A   1      44.761  34.212  32.624  1.00  0.00     0.040 A 
ATOM     81  C   UNL A   1      45.045  34.837  30.316  1.00  0.00     0.040 A 
ATOM     82  F   UNL A   1      44.780  33.234  28.623  1.00  0.00    -0.206 F 
ATOM     83  C   UNL A   1      45.034  35.186  31.665  1.00  0.00     0.006 A 
ENDBRANCH  59  76
ENDBRANCH  33  34
ENDBRANCH  25  28
ENDBRANCH  23  24
ENDBRANCH  22  23
ENDBRANCH   1  22
TORSDOF 14
ENDMDL
MODEL 2
REMARK VINA RESULT:     -11.6      0.369      6.266
REMARK SMILES COc1ccc(CSc2ncccc2C(=O)NCCCNC(=O)c2ccc(-c3c4nc(c(-c5c(F)cccc5F)c5ccc([nH]5)c(-c5c(F)cccc5F)c5nc(c(-c6c(F)cccc6F)c6ccc3[nH]6)C=C5)C=C4)cc2)cc1
REMARK SMILES IDX 18 1 17 2 15 3 16 4 14 6 9 7 10 8 11 9 13 10 12 11 8 12 7 13
REMARK SMILES IDX 6 14 3 15 4 16 79 17 5 18 78 19 2 20 1 21 19 22 20 23 21 24
REMARK SMILES IDX 22 25 23 27 24 28 25 29 77 30 26 31 76 32 27 33 28 34 29 35
REMARK SMILES IDX 70 36 30 37 75 38 69 39 71 40 31 41 74 42 68 43 67 44 32 46
REMARK SMILES IDX 58 47 41 48 57 49 42 50 45 51 56 52 72 53 43 54 44 55 55 57
REMARK SMILES IDX 73 58 46 59 33 60 34 61 39 62 35 63 36 64 38 65 40 66 37 67
REMARK SMILES IDX 59 68 60 69 65 70 61 71 62 72 64 73 66 74 63 75 47 76 48 77
REMARK SMILES IDX 53 78 49 79 50 80 52 81 54 82 51 83
REMARK H PARENT 17 5 21 26 71 45 45 56
REMARK Flexibility Score: inf
ROOT
ATOM      1  C   UNL A   1      36.078  20.478  24.858  1.00  0.00     0.118 C 
ENDROOT
BRANCH   1   2
ATOM      2  N   UNL A   1      35.871  21.141  26.133  1.00  0.00    -0.352 N 
ATOM      3  C   UNL A   1      34.757  21.820  26.580  1.00  0.00     0.254 C 
ATOM      4  O   UNL A   1      34.263  21.449  27.642  1.00  0.00    -0.269 OA
ATOM      5  H   UNL A   1      36.626  21.100  26.763  1.00  0.00     0.163 HD
BRANCH   3   6
ATOM      6  C   UNL A   1      34.236  23.033  25.888  1.00  0.00     0.072 A 
ATOM      7  C   UNL A   1      32.970  23.027  25.275  1.00  0.00     0.109 A 
ATOM      8  N   UNL A   1      32.481  24.099  24.585  1.00  0.00    -0.249 NA
ATOM      9  C   UNL A   1      33.258  25.191  24.464  1.00  0.00     0.112 A 
ATOM     10  C   UNL A   1      34.995  24.202  25.753  1.00  0.00     0.018 A 
ATOM     11  C   UNL A   1      34.507  25.291  25.032  1.00  0.00     0.021 A 
BRANCH   7  12
ATOM     12  S   UNL A   1      31.813  21.670  25.254  1.00  0.00    -0.101 SA
BRANCH  12  13
ATOM     13  C   UNL A   1      32.448  20.748  23.822  1.00  0.00     0.112 C 
BRANCH  13  14
ATOM     14  C   UNL A   1      32.714  19.287  24.103  1.00  0.00    -0.037 A 
ATOM     15  C   UNL A   1      33.200  16.561  24.635  1.00  0.00     0.118 A 
ATOM     16  C   UNL A   1      33.182  17.032  23.324  1.00  0.00     0.047 A 
ATOM     17  C   UNL A   1      32.961  17.451  25.683  1.00  0.00     0.047 A 
ATOM     18  C   UNL A   1      32.920  18.376  23.057  1.00  0.00     0.008 A 
ATOM     19  C   UNL A   1      32.722  18.805  25.418  1.00  0.00     0.008 A 
BRANCH  15  20
ATOM     20  O   UNL A   1      33.513  15.237  24.767  1.00  0.00    -0.497 OA
ATOM     21  C   UNL A   1      32.657  14.467  25.599  1.00  0.00     0.278 C 
ENDBRANCH  15  20
ENDBRANCH  13  14
ENDBRANCH  12  13
ENDBRANCH   7  12
ENDBRANCH   3   6
ENDBRANCH   1   2
BRANCH   1  22
ATOM     22  C   UNL A   1      37.385  19.698  24.784  1.00  0.00     0.042 C 
BRANCH  22  23
ATOM     23  C   UNL A   1      38.522  20.282  25.625  1.00  0.00     0.118 C 
BRANCH  23  24
ATOM     24  N   UNL A   1      39.671  19.391  25.732  1.00  0.00    -0.352 N 
ATOM     25  C   UNL A   1      40.973  19.622  26.087  1.00  0.00     0.251 C 
ATOM     26  H   UNL A   1      39.474  18.453  25.510  1.00  0.00     0.163 HD
ATOM     27  O   UNL A   1      41.800  18.721  25.938  1.00  0.00    -0.269 OA
BRANCH  25  28
ATOM     28  C   UNL A   1      41.418  20.922  26.634  1.00  0.00     0.039 A 
ATOM     29  C   UNL A   1      41.919  21.880  25.746  1.00  0.00     0.014 A 
ATOM     30  C   UNL A   1      41.428  21.182  28.007  1.00  0.00     0.014 A 
ATOM     31  C   UNL A   1      42.368  23.113  26.225  1.00  0.00     0.010 A 
ATOM     32  C   UNL A   1      41.821  22.435  28.482  1.00  0.00     0.010 A 
ATOM     33  C   UNL A   1      42.294  23.412  27.594  1.00  0.00    -0.014 A 
BRANCH  33  34
ATOM     34  C   UNL A   1      42.676  24.758  28.091  1.00  0.00     0.031 A 
ATOM     35  C   UNL A   1      41.643  25.825  28.312  1.00  0.00     0.074 A 
ATOM     36  C   UNL A   1      43.979  25.028  28.306  1.00  0.00     0.049 A 
ATOM     37  N   UNL A   1      41.803  27.047  28.753  1.00  0.00    -0.248 NA
ATOM     38  C   UNL A   1      40.254  25.486  27.973  1.00  0.00     0.031 C 
ATOM     39  C   UNL A   1      45.083  24.096  28.068  1.00  0.00     0.029 A 
ATOM     40  N   UNL A   1      44.594  26.162  28.770  1.00  0.00    -0.354 N 
ATOM     41  C   UNL A   1      40.541  27.625  28.737  1.00  0.00     0.074 A 
ATOM     42  C   UNL A   1      39.632  26.634  28.201  1.00  0.00     0.031 C 
ATOM     43  C   UNL A   1      46.237  24.687  28.416  1.00  0.00     0.029 A 
ATOM     44  C   UNL A   1      45.958  26.042  28.878  1.00  0.00     0.049 A 
ATOM     45  H   UNL A   1      44.104  26.984  29.004  1.00  0.00     0.167 HD
ATOM     46  C   UNL A   1      40.169  28.861  29.151  1.00  0.00     0.037 A 
ATOM     47  C   UNL A   1      46.879  26.921  29.310  1.00  0.00     0.037 A 
ATOM     48  C   UNL A   1      41.070  29.837  29.709  1.00  0.00     0.049 A 
ATOM     49  C   UNL A   1      46.438  28.273  29.793  1.00  0.00     0.074 A 
ATOM     50  C   UNL A   1      40.776  31.088  30.225  1.00  0.00     0.029 A 
ATOM     51  N   UNL A   1      42.441  29.673  29.820  1.00  0.00    -0.354 N 
ATOM     52  N   UNL A   1      45.230  28.775  29.847  1.00  0.00    -0.248 NA
ATOM     53  C   UNL A   1      47.490  29.175  30.283  1.00  0.00     0.031 C 
ATOM     54  C   UNL A   1      41.975  31.694  30.617  1.00  0.00     0.029 A 
ATOM     55  C   UNL A   1      43.011  30.806  30.378  1.00  0.00     0.049 A 
ATOM     56  H   UNL A   1      42.938  28.868  29.544  1.00  0.00     0.167 HD
ATOM     57  C   UNL A   1      45.371  30.045  30.390  1.00  0.00     0.074 A 
ATOM     58  C   UNL A   1      46.781  30.227  30.667  1.00  0.00     0.031 C 
ATOM     59  C   UNL A   1      44.418  30.977  30.637  1.00  0.00     0.037 A 
BRANCH  46  60
ATOM     60  C   UNL A   1      38.719  29.224  29.023  1.00  0.00     0.057 A 
ATOM     61  C   UNL A   1      38.169  29.642  27.804  1.00  0.00     0.134 A 
ATOM     62  C   UNL A   1      37.855  29.122  30.121  1.00  0.00     0.134 A 
ATOM     63  F   UNL A   1      38.945  29.770  26.717  1.00  0.00    -0.206 F 
ATOM     64  C   UNL A   1      36.816  29.970  27.687  1.00  0.00     0.040 A 
ATOM     65  C   UNL A   1      36.496  29.426  30.011  1.00  0.00     0.040 A 
ATOM     66  F   UNL A   1      38.315  28.722  31.316  1.00  0.00    -0.206 F 
ATOM     67  C   UNL A   1      35.975  29.857  28.792  1.00  0.00     0.006 A 
ENDBRANCH  46  60
BRANCH  47  68
ATOM     68  C   UNL A   1      48.309  26.531  29.345  1.00  0.00     0.057 A 
ATOM     69  C   UNL A   1      48.840  25.839  30.438  1.00  0.00     0.134 A 
ATOM     70  C   UNL A   1      49.172  26.825  28.282  1.00  0.00     0.134 A 
ATOM     71  F   UNL A   1      48.062  25.543  31.490  1.00  0.00    -0.206 F 
ATOM     72  C   UNL A   1      50.183  25.463  30.483  1.00  0.00     0.040 A 
ATOM     73  C   UNL A   1      50.512  26.438  28.304  1.00  0.00     0.040 A 
ATOM     74  F   UNL A   1      48.719  27.478  27.202  1.00  0.00    -0.206 F 
ATOM     75  C   UNL A   1      51.023  25.759  29.410  1.00  0.00     0.006 A 
ENDBRANCH  47  68
BRANCH  59  76
ATOM     76  C   UNL A   1      44.875  32.270  31.241  1.00  0.00     0.057 A 
ATOM     77  C   UNL A   1      44.958  32.443  32.628  1.00  0.00     0.134 A 
ATOM     78  C   UNL A   1      45.252  33.346  30.429  1.00  0.00     0.134 A 
ATOM     79  F   UNL A   1      44.596  31.453  33.460  1.00  0.00    -0.206 F 
ATOM     80  C   UNL A   1      45.377  33.651  33.187  1.00  0.00     0.040 A 
ATOM     81  C   UNL A   1      45.693  34.551  30.976  1.00  0.00     0.040 A 
ATOM     82  F   UNL A   1      45.201  33.242  29.093  1.00  0.00    -0.206 F 
ATOM     83  C   UNL A   1      45.750  34.709  32.359  1.00  0.00     0.006 A 
ENDBRANCH  59  76
ENDBRANCH  33  34
ENDBRANCH  25  28
ENDBRANCH  23  24
ENDBRANCH  22  23
ENDBRANCH   1  22
TORSDOF 14
ENDMDL
MODEL 3
REMARK VINA RESULT:     -11.2      5.170     10.068
REMARK SMILES COc1ccc(CSc2ncccc2C(=O)NCCCNC(=O)c2ccc(-c3c4nc(c(-c5c(F)cccc5F)c5ccc([nH]5)c(-c5c(F)cccc5F)c5nc(c(-c6c(F)cccc6F)c6ccc3[nH]6)C=C5)C=C4)cc2)cc1
REMARK SMILES IDX 18 1 17 2 15 3 16 4 14 6 9 7 10 8 11 9 13 10 12 11 8 12 7 13
REMARK SMILES IDX 6 14 3 15 4 16 79 17 5 18 78 19 2 20 1 21 19 22 20 23 21 24
REMARK SMILES IDX 22 25 23 27 24 28 25 29 77 30 26 31 76 32 27 33 28 34 29 35
REMARK SMILES IDX 70 36 30 37 75 38 69 39 71 40 31 41 74 42 68 43 67 44 32 46
REMARK SMILES IDX 58 47 41 48 57 49 42 50 45 51 56 52 72 53 43 54 44 55 55 57
REMARK SMILES IDX 73 58 46 59 33 60 34 61 39 62 35 63 36 64 38 65 40 66 37 67
REMARK SMILES IDX 59 68 60 69 65 70 61 71 62 72 64 73 66 74 63 75 47 76 48 77
REMARK SMILES IDX 53 78 49 79 50 80 52 81 54 82 51 83
REMARK H PARENT 17 5 21 26 71 45 45 56
REMARK Flexibility Score: inf
ROOT
ATOM      1  C   UNL A   1      31.223  30.220  25.374  1.00  0.00     0.118 C 
ENDROOT
BRANCH   1   2
ATOM      2  N   UNL A   1      32.577  29.995  24.899  1.00  0.00    -0.352 N 
ATOM      3  C   UNL A   1      33.056  28.966  24.117  1.00  0.00     0.254 C 
ATOM      4  O   UNL A   1      33.638  29.273  23.080  1.00  0.00    -0.269 OA
ATOM      5  H   UNL A   1      33.242  30.667  25.173  1.00  0.00     0.163 HD
BRANCH   3   6
ATOM      6  C   UNL A   1      32.994  27.542  24.554  1.00  0.00     0.072 A 
ATOM      7  C   UNL A   1      32.209  26.606  23.858  1.00  0.00     0.109 A 
ATOM      8  N   UNL A   1      32.084  25.307  24.258  1.00  0.00    -0.249 NA
ATOM      9  C   UNL A   1      32.715  24.919  25.381  1.00  0.00     0.112 A 
ATOM     10  C   UNL A   1      33.651  27.082  25.703  1.00  0.00     0.018 A 
ATOM     11  C   UNL A   1      33.509  25.761  26.126  1.00  0.00     0.021 A 
BRANCH   7  12
ATOM     12  S   UNL A   1      31.241  26.921  22.393  1.00  0.00    -0.101 SA
BRANCH  12  13
ATOM     13  C   UNL A   1      29.652  27.354  23.164  1.00  0.00     0.112 C 
BRANCH  13  14
ATOM     14  C   UNL A   1      29.142  28.724  22.786  1.00  0.00    -0.037 A 
ATOM     15  C   UNL A   1      28.193  31.281  22.070  1.00  0.00     0.118 A 
ATOM     16  C   UNL A   1      27.409  30.430  22.846  1.00  0.00     0.047 A 
ATOM     17  C   UNL A   1      29.448  30.851  21.639  1.00  0.00     0.047 A 
ATOM     18  C   UNL A   1      27.867  29.156  23.183  1.00  0.00     0.008 A 
ATOM     19  C   UNL A   1      29.920  29.582  21.997  1.00  0.00     0.008 A 
BRANCH  15  20
ATOM     20  O   UNL A   1      27.653  32.517  21.847  1.00  0.00    -0.497 OA
ATOM     21  C   UNL A   1      27.653  32.971  20.501  1.00  0.00     0.278 C 
ENDBRANCH  15  20
ENDBRANCH  13  14
ENDBRANCH  12  13
ENDBRANCH   7  12
ENDBRANCH   3   6
ENDBRANCH   1   2
BRANCH   1  22
ATOM     22  C   UNL A   1      31.033  31.572  26.051  1.00  0.00     0.042 C 
BRANCH  22  23
ATOM     23  C   UNL A   1      32.230  32.041  26.879  1.00  0.00     0.118 C 
BRANCH  23  24
ATOM     24  N   UNL A   1      32.153  33.449  27.250  1.00  0.00    -0.352 N 
ATOM     25  C   UNL A   1      32.904  34.208  28.107  1.00  0.00     0.251 C 
ATOM     26  H   UNL A   1      31.430  33.943  26.803  1.00  0.00     0.163 HD
ATOM     27  O   UNL A   1      32.528  35.350  28.376  1.00  0.00    -0.269 OA
BRANCH  25  28
ATOM     28  C   UNL A   1      34.144  33.695  28.727  1.00  0.00     0.039 A 
ATOM     29  C   UNL A   1      34.032  32.788  29.787  1.00  0.00     0.014 A 
ATOM     30  C   UNL A   1      35.407  34.151  28.341  1.00  0.00     0.014 A 
ATOM     31  C   UNL A   1      35.180  32.296  30.413  1.00  0.00     0.010 A 
ATOM     32  C   UNL A   1      36.557  33.615  28.925  1.00  0.00     0.010 A 
ATOM     33  C   UNL A   1      36.453  32.682  29.966  1.00  0.00    -0.014 A 
BRANCH  33  34
ATOM     34  C   UNL A   1      37.673  32.082  30.563  1.00  0.00     0.031 A 
ATOM     35  C   UNL A   1      38.258  32.621  31.838  1.00  0.00     0.074 A 
ATOM     36  C   UNL A   1      38.279  31.063  29.924  1.00  0.00     0.049 A 
ATOM     37  N   UNL A   1      39.308  32.208  32.501  1.00  0.00    -0.248 NA
ATOM     38  C   UNL A   1      37.592  33.789  32.433  1.00  0.00     0.031 C 
ATOM     39  C   UNL A   1      37.844  30.492  28.647  1.00  0.00     0.029 A 
ATOM     40  N   UNL A   1      39.388  30.329  30.256  1.00  0.00    -0.354 N 
ATOM     41  C   UNL A   1      39.435  33.067  33.585  1.00  0.00     0.074 A 
ATOM     42  C   UNL A   1      38.380  34.052  33.465  1.00  0.00     0.031 C 
ATOM     43  C   UNL A   1      38.661  29.479  28.320  1.00  0.00     0.029 A 
ATOM     44  C   UNL A   1      39.687  29.343  29.349  1.00  0.00     0.049 A 
ATOM     45  H   UNL A   1      39.920  30.494  31.069  1.00  0.00     0.167 HD
ATOM     46  C   UNL A   1      40.335  33.026  34.597  1.00  0.00     0.037 A 
ATOM     47  C   UNL A   1      40.670  28.426  29.350  1.00  0.00     0.037 A 
ATOM     48  C   UNL A   1      41.367  32.030  34.729  1.00  0.00     0.049 A 
ATOM     49  C   UNL A   1      41.636  28.382  30.499  1.00  0.00     0.074 A 
ATOM     50  C   UNL A   1      42.278  31.863  35.757  1.00  0.00     0.029 A 
ATOM     51  N   UNL A   1      41.627  31.036  33.800  1.00  0.00    -0.354 N 
ATOM     52  N   UNL A   1      41.693  29.151  31.558  1.00  0.00    -0.248 NA
ATOM     53  C   UNL A   1      42.667  27.335  30.456  1.00  0.00     0.031 C 
ATOM     54  C   UNL A   1      43.112  30.785  35.433  1.00  0.00     0.029 A 
ATOM     55  C   UNL A   1      42.697  30.262  34.220  1.00  0.00     0.049 A 
ATOM     56  H   UNL A   1      41.124  30.898  32.964  1.00  0.00     0.167 HD
ATOM     57  C   UNL A   1      42.754  28.675  32.316  1.00  0.00     0.074 A 
ATOM     58  C   UNL A   1      43.299  27.536  31.604  1.00  0.00     0.031 C 
ATOM     59  C   UNL A   1      43.234  29.139  33.495  1.00  0.00     0.037 A 
BRANCH  46  60
ATOM     60  C   UNL A   1      40.235  34.090  35.651  1.00  0.00     0.057 A 
ATOM     61  C   UNL A   1      39.450  33.920  36.799  1.00  0.00     0.134 A 
ATOM     62  C   UNL A   1      40.958  35.284  35.535  1.00  0.00     0.134 A 
ATOM     63  F   UNL A   1      38.725  32.803  36.966  1.00  0.00    -0.206 F 
ATOM     64  C   UNL A   1      39.367  34.909  37.781  1.00  0.00     0.040 A 
ATOM     65  C   UNL A   1      40.901  36.272  36.521  1.00  0.00     0.040 A 
ATOM     66  F   UNL A   1      41.735  35.509  34.464  1.00  0.00    -0.206 F 
ATOM     67  C   UNL A   1      40.098  36.087  37.645  1.00  0.00     0.006 A 
ENDBRANCH  46  60
BRANCH  47  68
ATOM     68  C   UNL A   1      40.763  27.445  28.242  1.00  0.00     0.057 A 
ATOM     69  C   UNL A   1      40.043  26.246  28.280  1.00  0.00     0.134 A 
ATOM     70  C   UNL A   1      41.557  27.690  27.115  1.00  0.00     0.134 A 
ATOM     71  F   UNL A   1      39.278  25.953  29.342  1.00  0.00    -0.206 F 
ATOM     72  C   UNL A   1      40.119  25.316  27.243  1.00  0.00     0.040 A 
ATOM     73  C   UNL A   1      41.627  26.778  26.062  1.00  0.00     0.040 A 
ATOM     74  F   UNL A   1      42.262  28.826  27.017  1.00  0.00    -0.206 F 
ATOM     75  C   UNL A   1      40.909  25.583  26.126  1.00  0.00     0.006 A 
ENDBRANCH  47  68
BRANCH  59  76
ATOM     76  C   UNL A   1      44.401  28.408  34.086  1.00  0.00     0.057 A 
ATOM     77  C   UNL A   1      44.225  27.301  34.925  1.00  0.00     0.134 A 
ATOM     78  C   UNL A   1      45.714  28.804  33.800  1.00  0.00     0.134 A 
ATOM     79  F   UNL A   1      42.992  26.882  35.250  1.00  0.00    -0.206 F 
ATOM     80  C   UNL A   1      45.315  26.627  35.480  1.00  0.00     0.040 A 
ATOM     81  C   UNL A   1      46.811  28.124  34.330  1.00  0.00     0.040 A 
ATOM     82  F   UNL A   1      45.949  29.852  32.998  1.00  0.00    -0.206 F 
ATOM     83  C   UNL A   1      46.613  27.037  35.179  1.00  0.00     0.006 A 
ENDBRANCH  59  76
ENDBRANCH  33  34
ENDBRANCH  25  28
ENDBRANCH  23  24
ENDBRANCH  22  23
ENDBRANCH   1  22
TORSDOF 14
ENDMDL
