MODEL 1
REMARK VINA RESULT:     -13.2      0.000      0.000
REMARK SMILES COc1ccc(N2C(=O)[NH+]=C(NCCCNC(=O)c3ccc(-c4c5nc(c(-c6c(F)cccc6F)c6ccc([nH]6)c(-c6c(F)cccc6F)c6nc(c(-c7c(F)cccc7F)c7ccc4[nH]7)C=C6)C=C5)cc3)/C(=C\c3cc(Cl)c(OCC(=O)[O-])c(Cl)c3)C2=O)cc1
REMARK SMILES IDX 13 1 12 2 7 3 8 4 88 5 9 6 10 7 73 8 89 9 11 10 74 12 6 14
REMARK SMILES IDX 3 15 4 16 91 17 5 18 90 19 2 20 1 21 75 22 76 23 87 24 77 25
REMARK SMILES IDX 85 26 78 27 79 28 86 29 80 30 81 31 82 32 83 33 84 34 14 35
REMARK SMILES IDX 15 36 16 37 17 38 18 40 19 41 20 42 72 43 21 44 71 45 22 46
REMARK SMILES IDX 23 47 24 48 65 49 25 50 70 51 64 52 66 53 26 54 69 55 63 56
REMARK SMILES IDX 62 57 27 59 53 60 36 61 52 62 37 63 40 64 51 65 67 66 38 67
REMARK SMILES IDX 39 68 50 70 68 71 41 72 28 73 29 74 34 75 30 76 31 77 33 78
REMARK SMILES IDX 35 79 32 80 54 81 55 82 60 83 56 84 57 85 59 86 61 87 58 88
REMARK SMILES IDX 42 89 43 90 48 91 44 92 45 93 47 94 49 95 46 96
REMARK H PARENT 10 11 12 13 16 39 66 58 40 69
REMARK Flexibility Score: inf
ROOT
ATOM      1  C   UNL A   1      36.120  23.329  23.794  1.00  0.00     0.195 C 
ENDROOT
BRANCH   1   2
ATOM      2  N   UNL A   1      34.674  23.144  23.762  1.00  0.00    -0.305 N 
ATOM      3  N   UNL A   1      32.172  26.463  23.506  1.00  0.00    -0.155 N 
ATOM      4  C   UNL A   1      33.566  26.526  23.508  1.00  0.00     0.448 C 
ATOM      5  C   UNL A   1      31.467  25.270  23.545  1.00  0.00     0.328 C 
ATOM      6  O   UNL A   1      34.180  27.593  23.453  1.00  0.00    -0.212 OA
ATOM      7  N   UNL A   1      34.292  25.380  23.624  1.00  0.00    -0.209 N 
ATOM      8  C   UNL A   1      32.296  24.024  23.596  1.00  0.00     0.129 C 
ATOM      9  O   UNL A   1      30.237  25.189  23.515  1.00  0.00    -0.249 OA
ATOM     10  C   UNL A   1      33.776  24.189  23.667  1.00  0.00     0.236 C 
ATOM     11  H   UNL A   1      35.272  25.459  23.678  1.00  0.00     0.270 HD
ATOM     12  C   UNL A   1      31.592  22.873  23.583  1.00  0.00     0.030 C 
ATOM     13  H   UNL A   1      34.319  22.227  23.812  1.00  0.00     0.256 HD
BRANCH   3  14
ATOM     14  C   UNL A   1      31.438  27.694  23.495  1.00  0.00     0.111 A 
ATOM     15  C   UNL A   1      29.868  30.021  23.520  1.00  0.00     0.119 A 
ATOM     16  C   UNL A   1      30.654  29.700  24.624  1.00  0.00     0.050 A 
ATOM     17  C   UNL A   1      29.900  29.217  22.383  1.00  0.00     0.050 A 
ATOM     18  C   UNL A   1      31.419  28.531  24.621  1.00  0.00     0.047 A 
ATOM     19  C   UNL A   1      30.691  28.064  22.367  1.00  0.00     0.047 A 
BRANCH  15  20
ATOM     20  O   UNL A   1      29.132  31.171  23.600  1.00  0.00    -0.497 OA
ATOM     21  C   UNL A   1      28.630  31.587  22.331  1.00  0.00     0.278 C 
ENDBRANCH  15  20
ENDBRANCH   3  14
BRANCH  12  22
ATOM     22  C   UNL A   1      32.034  21.485  23.716  1.00  0.00    -0.021 A 
ATOM     23  C   UNL A   1      32.091  20.655  22.591  1.00  0.00     0.032 A 
ATOM     24  C   UNL A   1      32.291  20.956  24.984  1.00  0.00     0.032 A 
ATOM     25  C   UNL A   1      32.420  19.306  22.738  1.00  0.00     0.085 A 
ATOM     26  C   UNL A   1      32.625  19.607  25.128  1.00  0.00     0.085 A 
ATOM     27  Cl  UNL A   1      32.477  18.314  21.324  1.00  0.00    -0.080 Cl
ATOM     28  C   UNL A   1      32.716  18.781  24.004  1.00  0.00     0.157 A 
ATOM     29  Cl  UNL A   1      32.903  19.005  26.721  1.00  0.00    -0.080 Cl
BRANCH  28  30
ATOM     30  O   UNL A   1      33.040  17.457  24.122  1.00  0.00    -0.485 OA
BRANCH  30  31
ATOM     31  C   UNL A   1      34.416  17.220  24.397  1.00  0.00     0.282 C 
BRANCH  31  32
ATOM     32  C   UNL A   1      34.939  16.005  25.182  1.00  0.00     0.079 C 
ATOM     33  O   UNL A   1      36.016  15.901  25.751  1.00  0.00    -0.546 OA
ATOM     34  O   UNL A   1      33.993  15.046  25.282  1.00  0.00    -0.546 OA
ENDBRANCH  31  32
ENDBRANCH  30  31
ENDBRANCH  28  30
ENDBRANCH  12  22
ENDBRANCH   1   2
BRANCH   1  35
ATOM     35  C   UNL A   1      36.861  21.994  23.880  1.00  0.00     0.059 C 
BRANCH  35  36
ATOM     36  C   UNL A   1      36.998  21.448  25.297  1.00  0.00     0.119 C 
BRANCH  36  37
ATOM     37  N   UNL A   1      38.183  20.624  25.477  1.00  0.00    -0.352 N 
ATOM     38  C   UNL A   1      39.369  20.882  26.107  1.00  0.00     0.251 C 
ATOM     39  H   UNL A   1      38.120  19.727  25.077  1.00  0.00     0.163 HD
ATOM     40  O   UNL A   1      40.146  19.945  26.299  1.00  0.00    -0.269 OA
BRANCH  38  41
ATOM     41  C   UNL A   1      39.734  22.233  26.581  1.00  0.00     0.039 A 
ATOM     42  C   UNL A   1      40.739  22.326  27.552  1.00  0.00     0.014 A 
ATOM     43  C   UNL A   1      39.104  23.391  26.123  1.00  0.00     0.014 A 
ATOM     44  C   UNL A   1      41.183  23.578  27.979  1.00  0.00     0.010 A 
ATOM     45  C   UNL A   1      39.576  24.642  26.512  1.00  0.00     0.010 A 
ATOM     46  C   UNL A   1      40.645  24.743  27.412  1.00  0.00    -0.014 A 
BRANCH  46  47
ATOM     47  C   UNL A   1      41.301  26.055  27.621  1.00  0.00     0.031 A 
ATOM     48  C   UNL A   1      42.703  26.310  27.165  1.00  0.00     0.074 A 
ATOM     49  C   UNL A   1      40.627  26.984  28.328  1.00  0.00     0.049 A 
ATOM     50  N   UNL A   1      43.432  27.386  27.313  1.00  0.00    -0.248 NA
ATOM     51  C   UNL A   1      43.387  25.207  26.475  1.00  0.00     0.031 C 
ATOM     52  C   UNL A   1      39.279  26.805  28.879  1.00  0.00     0.029 A 
ATOM     53  N   UNL A   1      40.981  28.246  28.723  1.00  0.00    -0.354 N 
ATOM     54  C   UNL A   1      44.661  27.095  26.735  1.00  0.00     0.074 A 
ATOM     55  C   UNL A   1      44.593  25.724  26.273  1.00  0.00     0.031 C 
ATOM     56  C   UNL A   1      38.918  27.920  29.528  1.00  0.00     0.029 A 
ATOM     57  C   UNL A   1      40.015  28.877  29.471  1.00  0.00     0.049 A 
ATOM     58  H   UNL A   1      41.844  28.662  28.494  1.00  0.00     0.167 HD
ATOM     59  C   UNL A   1      45.737  27.907  26.594  1.00  0.00     0.037 A 
ATOM     60  C   UNL A   1      40.019  30.090  30.053  1.00  0.00     0.037 A 
ATOM     61  C   UNL A   1      45.787  29.266  27.076  1.00  0.00     0.049 A 
ATOM     62  C   UNL A   1      41.223  30.968  29.883  1.00  0.00     0.074 A 
ATOM     63  C   UNL A   1      46.806  30.193  26.940  1.00  0.00     0.029 A 
ATOM     64  N   UNL A   1      44.777  29.886  27.799  1.00  0.00    -0.354 N 
ATOM     65  N   UNL A   1      42.345  30.715  29.251  1.00  0.00    -0.248 NA
ATOM     66  C   UNL A   1      41.162  32.302  30.492  1.00  0.00     0.031 C 
ATOM     67  C   UNL A   1      46.435  31.355  27.626  1.00  0.00     0.029 A 
ATOM     68  C   UNL A   1      45.160  31.175  28.138  1.00  0.00     0.049 A 
ATOM     69  H   UNL A   1      43.917  29.472  28.036  1.00  0.00     0.167 HD
ATOM     70  C   UNL A   1      43.110  31.868  29.359  1.00  0.00     0.074 A 
ATOM     71  C   UNL A   1      42.318  32.824  30.107  1.00  0.00     0.031 C 
ATOM     72  C   UNL A   1      44.353  32.113  28.878  1.00  0.00     0.037 A 
BRANCH  59  73
ATOM     73  C   UNL A   1      46.948  27.348  25.901  1.00  0.00     0.057 A 
ATOM     74  C   UNL A   1      47.170  27.542  24.531  1.00  0.00     0.134 A 
ATOM     75  C   UNL A   1      47.927  26.646  26.616  1.00  0.00     0.134 A 
ATOM     76  F   UNL A   1      46.272  28.202  23.783  1.00  0.00    -0.206 F 
ATOM     77  C   UNL A   1      48.304  27.034  23.892  1.00  0.00     0.040 A 
ATOM     78  C   UNL A   1      49.078  26.156  25.995  1.00  0.00     0.040 A 
ATOM     79  F   UNL A   1      47.786  26.431  27.933  1.00  0.00    -0.206 F 
ATOM     80  C   UNL A   1      49.266  26.345  24.628  1.00  0.00     0.006 A 
ENDBRANCH  59  73
BRANCH  60  81
ATOM     81  C   UNL A   1      38.829  30.547  30.815  1.00  0.00     0.057 A 
ATOM     82  C   UNL A   1      38.697  30.270  32.180  1.00  0.00     0.134 A 
ATOM     83  C   UNL A   1      37.809  31.288  30.207  1.00  0.00     0.134 A 
ATOM     84  F   UNL A   1      39.637  29.556  32.817  1.00  0.00    -0.206 F 
ATOM     85  C   UNL A   1      37.587  30.695  32.910  1.00  0.00     0.040 A 
ATOM     86  C   UNL A   1      36.704  31.743  30.931  1.00  0.00     0.040 A 
ATOM     87  F   UNL A   1      37.882  31.602  28.905  1.00  0.00    -0.206 F 
ATOM     88  C   UNL A   1      36.589  31.440  32.285  1.00  0.00     0.006 A 
ENDBRANCH  60  81
BRANCH  72  89
ATOM     89  C   UNL A   1      44.916  33.484  29.114  1.00  0.00     0.057 A 
ATOM     90  C   UNL A   1      44.675  34.547  28.234  1.00  0.00     0.134 A 
ATOM     91  C   UNL A   1      45.679  33.751  30.258  1.00  0.00     0.134 A 
ATOM     92  F   UNL A   1      43.965  34.355  27.112  1.00  0.00    -0.206 F 
ATOM     93  C   UNL A   1      45.191  35.822  28.474  1.00  0.00     0.040 A 
ATOM     94  C   UNL A   1      46.175  35.027  30.524  1.00  0.00     0.040 A 
ATOM     95  F   UNL A   1      45.940  32.777  31.144  1.00  0.00    -0.206 F 
ATOM     96  C   UNL A   1      45.937  36.065  29.627  1.00  0.00     0.006 A 
ENDBRANCH  72  89
ENDBRANCH  46  47
ENDBRANCH  38  41
ENDBRANCH  36  37
ENDBRANCH  35  36
ENDBRANCH   1  35
TORSDOF 15
ENDMDL
MODEL 2
REMARK VINA RESULT:     -13.2      0.402      5.803
REMARK SMILES COc1ccc(N2C(=O)[NH+]=C(NCCCNC(=O)c3ccc(-c4c5nc(c(-c6c(F)cccc6F)c6ccc([nH]6)c(-c6c(F)cccc6F)c6nc(c(-c7c(F)cccc7F)c7ccc4[nH]7)C=C6)C=C5)cc3)/C(=C\c3cc(Cl)c(OCC(=O)[O-])c(Cl)c3)C2=O)cc1
REMARK SMILES IDX 13 1 12 2 7 3 8 4 88 5 9 6 10 7 73 8 89 9 11 10 74 12 6 14
REMARK SMILES IDX 3 15 4 16 91 17 5 18 90 19 2 20 1 21 75 22 76 23 87 24 77 25
REMARK SMILES IDX 85 26 78 27 79 28 86 29 80 30 81 31 82 32 83 33 84 34 14 35
REMARK SMILES IDX 15 36 16 37 17 38 18 40 19 41 20 42 72 43 21 44 71 45 22 46
REMARK SMILES IDX 23 47 24 48 65 49 25 50 70 51 64 52 66 53 26 54 69 55 63 56
REMARK SMILES IDX 62 57 27 59 53 60 36 61 52 62 37 63 40 64 51 65 67 66 38 67
REMARK SMILES IDX 39 68 50 70 68 71 41 72 28 73 29 74 34 75 30 76 31 77 33 78
REMARK SMILES IDX 35 79 32 80 54 81 55 82 60 83 56 84 57 85 59 86 61 87 58 88
REMARK SMILES IDX 42 89 43 90 48 91 44 92 45 93 47 94 49 95 46 96
REMARK H PARENT 10 11 12 13 16 39 66 58 40 69
REMARK Flexibility Score: inf
ROOT
ATOM      1  C   UNL A   1      35.962  23.512  23.668  1.00  0.00     0.195 C 
ENDROOT
BRANCH   1   2
ATOM      2  N   UNL A   1      34.519  23.297  23.669  1.00  0.00    -0.305 N 
ATOM      3  N   UNL A   1      31.943  26.566  23.530  1.00  0.00    -0.155 N 
ATOM      4  C   UNL A   1      33.335  26.659  23.499  1.00  0.00     0.448 C 
ATOM      5  C   UNL A   1      31.265  25.358  23.566  1.00  0.00     0.328 C 
ATOM      6  O   UNL A   1      33.925  27.739  23.447  1.00  0.00    -0.212 OA
ATOM      7  N   UNL A   1      34.087  25.527  23.577  1.00  0.00    -0.209 N 
ATOM      8  C   UNL A   1      32.120  24.130  23.576  1.00  0.00     0.129 C 
ATOM      9  O   UNL A   1      30.036  25.252  23.565  1.00  0.00    -0.249 OA
ATOM     10  C   UNL A   1      33.598  24.325  23.613  1.00  0.00     0.236 C 
ATOM     11  H   UNL A   1      35.067  25.625  23.609  1.00  0.00     0.270 HD
ATOM     12  C   UNL A   1      31.440  22.963  23.561  1.00  0.00     0.030 C 
ATOM     13  H   UNL A   1      34.185  22.372  23.711  1.00  0.00     0.256 HD
BRANCH   3  14
ATOM     14  C   UNL A   1      31.184  27.782  23.558  1.00  0.00     0.111 A 
ATOM     15  C   UNL A   1      29.831  30.241  23.557  1.00  0.00     0.119 A 
ATOM     16  C   UNL A   1      29.698  29.373  22.476  1.00  0.00     0.050 A 
ATOM     17  C   UNL A   1      30.591  29.868  24.662  1.00  0.00     0.050 A 
ATOM     18  C   UNL A   1      30.389  28.159  22.466  1.00  0.00     0.047 A 
ATOM     19  C   UNL A   1      31.257  28.638  24.667  1.00  0.00     0.047 A 
BRANCH  15  20
ATOM     20  O   UNL A   1      29.140  31.420  23.490  1.00  0.00    -0.497 OA
ATOM     21  C   UNL A   1      27.728  31.222  23.433  1.00  0.00     0.278 C 
ENDBRANCH  15  20
ENDBRANCH   3  14
BRANCH  12  22
ATOM     22  C   UNL A   1      31.914  21.584  23.658  1.00  0.00    -0.021 A 
ATOM     23  C   UNL A   1      31.950  20.770  22.521  1.00  0.00     0.032 A 
ATOM     24  C   UNL A   1      32.224  21.043  24.910  1.00  0.00     0.032 A 
ATOM     25  C   UNL A   1      32.311  19.427  22.638  1.00  0.00     0.085 A 
ATOM     26  C   UNL A   1      32.589  19.700  25.024  1.00  0.00     0.085 A 
ATOM     27  Cl  UNL A   1      32.341  18.455  21.208  1.00  0.00    -0.080 Cl
ATOM     28  C   UNL A   1      32.659  18.890  23.886  1.00  0.00     0.157 A 
ATOM     29  Cl  UNL A   1      32.932  19.081  26.598  1.00  0.00    -0.080 Cl
BRANCH  28  30
ATOM     30  O   UNL A   1      33.013  17.572  23.974  1.00  0.00    -0.485 OA
BRANCH  30  31
ATOM     31  C   UNL A   1      34.351  17.360  24.412  1.00  0.00     0.282 C 
BRANCH  31  32
ATOM     32  C   UNL A   1      34.842  16.064  25.079  1.00  0.00     0.079 C 
ATOM     33  O   UNL A   1      35.932  15.867  25.597  1.00  0.00    -0.546 OA
ATOM     34  O   UNL A   1      33.856  15.143  25.139  1.00  0.00    -0.546 OA
ENDBRANCH  31  32
ENDBRANCH  30  31
ENDBRANCH  28  30
ENDBRANCH  12  22
ENDBRANCH   1   2
BRANCH   1  35
ATOM     35  C   UNL A   1      36.731  22.197  23.796  1.00  0.00     0.059 C 
BRANCH  35  36
ATOM     36  C   UNL A   1      36.998  21.770  25.235  1.00  0.00     0.119 C 
BRANCH  36  37
ATOM     37  N   UNL A   1      38.155  20.898  25.365  1.00  0.00    -0.352 N 
ATOM     38  C   UNL A   1      39.343  21.074  26.020  1.00  0.00     0.251 C 
ATOM     39  H   UNL A   1      38.069  20.034  24.902  1.00  0.00     0.163 HD
ATOM     40  O   UNL A   1      40.089  20.102  26.150  1.00  0.00    -0.269 OA
BRANCH  38  41
ATOM     41  C   UNL A   1      39.744  22.376  26.591  1.00  0.00     0.039 A 
ATOM     42  C   UNL A   1      40.691  22.363  27.624  1.00  0.00     0.014 A 
ATOM     43  C   UNL A   1      39.202  23.589  26.164  1.00  0.00     0.014 A 
ATOM     44  C   UNL A   1      41.170  23.564  28.147  1.00  0.00     0.010 A 
ATOM     45  C   UNL A   1      39.711  24.790  26.651  1.00  0.00     0.010 A 
ATOM     46  C   UNL A   1      40.726  24.786  27.617  1.00  0.00    -0.014 A 
BRANCH  46  47
ATOM     47  C   UNL A   1      41.432  26.048  27.938  1.00  0.00     0.031 A 
ATOM     48  C   UNL A   1      40.747  27.164  28.664  1.00  0.00     0.074 A 
ATOM     49  C   UNL A   1      42.685  26.200  27.467  1.00  0.00     0.049 A 
ATOM     50  N   UNL A   1      41.211  28.345  28.980  1.00  0.00    -0.248 NA
ATOM     51  C   UNL A   1      39.352  26.936  29.067  1.00  0.00     0.031 C 
ATOM     52  C   UNL A   1      43.415  25.197  26.685  1.00  0.00     0.029 A 
ATOM     53  N   UNL A   1      43.557  27.252  27.551  1.00  0.00    -0.354 N 
ATOM     54  C   UNL A   1      40.170  29.004  29.620  1.00  0.00     0.074 A 
ATOM     55  C   UNL A   1      39.034  28.105  29.607  1.00  0.00     0.031 C 
ATOM     56  C   UNL A   1      44.627  25.678  26.375  1.00  0.00     0.029 A 
ATOM     57  C   UNL A   1      44.748  27.031  26.902  1.00  0.00     0.049 A 
ATOM     58  H   UNL A   1      43.352  28.087  28.032  1.00  0.00     0.167 HD
ATOM     59  C   UNL A   1      40.173  30.240  30.175  1.00  0.00     0.037 A 
ATOM     60  C   UNL A   1      45.816  27.833  26.742  1.00  0.00     0.037 A 
ATOM     61  C   UNL A   1      41.313  31.124  30.164  1.00  0.00     0.049 A 
ATOM     62  C   UNL A   1      45.792  29.198  27.366  1.00  0.00     0.074 A 
ATOM     63  C   UNL A   1      41.441  32.375  30.742  1.00  0.00     0.029 A 
ATOM     64  N   UNL A   1      42.516  30.854  29.526  1.00  0.00    -0.354 N 
ATOM     65  N   UNL A   1      44.833  29.774  28.052  1.00  0.00    -0.248 NA
ATOM     66  C   UNL A   1      46.999  30.019  27.210  1.00  0.00     0.031 C 
ATOM     67  C   UNL A   1      42.702  32.883  30.411  1.00  0.00     0.029 A 
ATOM     68  C   UNL A   1      43.383  31.925  29.677  1.00  0.00     0.049 A 
ATOM     69  H   UNL A   1      42.723  30.024  29.039  1.00  0.00     0.167 HD
ATOM     70  C   UNL A   1      45.331  31.011  28.435  1.00  0.00     0.074 A 
ATOM     71  C   UNL A   1      46.682  31.095  27.916  1.00  0.00     0.031 C 
ATOM     72  C   UNL A   1      44.726  31.986  29.156  1.00  0.00     0.037 A 
BRANCH  59  73
ATOM     73  C   UNL A   1      38.907  30.712  30.835  1.00  0.00     0.057 A 
ATOM     74  C   UNL A   1      37.930  31.428  30.130  1.00  0.00     0.134 A 
ATOM     75  C   UNL A   1      38.639  30.412  32.177  1.00  0.00     0.134 A 
ATOM     76  F   UNL A   1      38.121  31.754  28.843  1.00  0.00    -0.206 F 
ATOM     77  C   UNL A   1      36.747  31.852  30.742  1.00  0.00     0.040 A 
ATOM     78  C   UNL A   1      37.449  30.807  32.793  1.00  0.00     0.040 A 
ATOM     79  F   UNL A   1      39.525  29.721  32.911  1.00  0.00    -0.206 F 
ATOM     80  C   UNL A   1      36.502  31.535  32.076  1.00  0.00     0.006 A 
ENDBRANCH  59  73
BRANCH  60  81
ATOM     81  C   UNL A   1      46.999  27.347  25.989  1.00  0.00     0.057 A 
ATOM     82  C   UNL A   1      48.044  26.681  26.639  1.00  0.00     0.134 A 
ATOM     83  C   UNL A   1      47.107  27.516  24.603  1.00  0.00     0.134 A 
ATOM     84  F   UNL A   1      48.004  26.497  27.967  1.00  0.00    -0.206 F 
ATOM     85  C   UNL A   1      49.162  26.217  25.945  1.00  0.00     0.040 A 
ATOM     86  C   UNL A   1      48.207  27.033  23.891  1.00  0.00     0.040 A 
ATOM     87  F   UNL A   1      46.133  28.131  23.917  1.00  0.00    -0.206 F 
ATOM     88  C   UNL A   1      49.241  26.388  24.564  1.00  0.00     0.006 A 
ENDBRANCH  60  81
BRANCH  72  89
ATOM     89  C   UNL A   1      45.537  33.213  29.458  1.00  0.00     0.057 A 
ATOM     90  C   UNL A   1      45.514  34.341  28.629  1.00  0.00     0.134 A 
ATOM     91  C   UNL A   1      46.323  33.276  30.615  1.00  0.00     0.134 A 
ATOM     92  F   UNL A   1      44.793  34.340  27.496  1.00  0.00    -0.206 F 
ATOM     93  C   UNL A   1      46.260  35.482  28.930  1.00  0.00     0.040 A 
ATOM     94  C   UNL A   1      47.050  34.420  30.943  1.00  0.00     0.040 A 
ATOM     95  F   UNL A   1      46.383  32.231  31.455  1.00  0.00    -0.206 F 
ATOM     96  C   UNL A   1      47.025  35.525  30.095  1.00  0.00     0.006 A 
ENDBRANCH  72  89
ENDBRANCH  46  47
ENDBRANCH  38  41
ENDBRANCH  36  37
ENDBRANCH  35  36
ENDBRANCH   1  35
TORSDOF 15
ENDMDL
MODEL 3
REMARK VINA RESULT:     -13.1      2.839      3.814
REMARK SMILES COc1ccc(N2C(=O)[NH+]=C(NCCCNC(=O)c3ccc(-c4c5nc(c(-c6c(F)cccc6F)c6ccc([nH]6)c(-c6c(F)cccc6F)c6nc(c(-c7c(F)cccc7F)c7ccc4[nH]7)C=C6)C=C5)cc3)/C(=C\c3cc(Cl)c(OCC(=O)[O-])c(Cl)c3)C2=O)cc1
REMARK SMILES IDX 13 1 12 2 7 3 8 4 88 5 9 6 10 7 73 8 89 9 11 10 74 12 6 14
REMARK SMILES IDX 3 15 4 16 91 17 5 18 90 19 2 20 1 21 75 22 76 23 87 24 77 25
REMARK SMILES IDX 85 26 78 27 79 28 86 29 80 30 81 31 82 32 83 33 84 34 14 35
REMARK SMILES IDX 15 36 16 37 17 38 18 40 19 41 20 42 72 43 21 44 71 45 22 46
REMARK SMILES IDX 23 47 24 48 65 49 25 50 70 51 64 52 66 53 26 54 69 55 63 56
REMARK SMILES IDX 62 57 27 59 53 60 36 61 52 62 37 63 40 64 51 65 67 66 38 67
REMARK SMILES IDX 39 68 50 70 68 71 41 72 28 73 29 74 34 75 30 76 31 77 33 78
REMARK SMILES IDX 35 79 32 80 54 81 55 82 60 83 56 84 57 85 59 86 61 87 58 88
REMARK SMILES IDX 42 89 43 90 48 91 44 92 45 93 47 94 49 95 46 96
REMARK H PARENT 10 11 12 13 16 39 66 58 40 69
REMARK Flexibility Score: inf
ROOT
ATOM      1  C   UNL A   1      35.929  23.449  23.222  1.00  0.00     0.195 C 
ENDROOT
BRANCH   1   2
ATOM      2  N   UNL A   1      34.493  23.239  23.367  1.00  0.00    -0.305 N 
ATOM      3  N   UNL A   1      31.922  26.514  23.419  1.00  0.00    -0.155 N 
ATOM      4  C   UNL A   1      33.304  26.601  23.251  1.00  0.00     0.448 C 
ATOM      5  C   UNL A   1      31.248  25.309  23.543  1.00  0.00     0.328 C 
ATOM      6  O   UNL A   1      33.888  27.678  23.122  1.00  0.00    -0.212 OA
ATOM      7  N   UNL A   1      34.058  25.468  23.277  1.00  0.00    -0.209 N 
ATOM      8  C   UNL A   1      32.098  24.078  23.492  1.00  0.00     0.129 C 
ATOM      9  O   UNL A   1      30.024  25.207  23.663  1.00  0.00    -0.249 OA
ATOM     10  C   UNL A   1      33.572  24.268  23.382  1.00  0.00     0.236 C 
ATOM     11  H   UNL A   1      35.036  25.563  23.212  1.00  0.00     0.270 HD
ATOM     12  C   UNL A   1      31.417  22.914  23.564  1.00  0.00     0.030 C 
ATOM     13  H   UNL A   1      34.163  22.316  23.459  1.00  0.00     0.256 HD
BRANCH   3  14
ATOM     14  C   UNL A   1      31.171  27.732  23.498  1.00  0.00     0.111 A 
ATOM     15  C   UNL A   1      29.830  30.197  23.588  1.00  0.00     0.119 A 
ATOM     16  C   UNL A   1      29.617  29.327  22.521  1.00  0.00     0.050 A 
ATOM     17  C   UNL A   1      30.666  29.823  24.637  1.00  0.00     0.050 A 
ATOM     18  C   UNL A   1      30.301  28.110  22.465  1.00  0.00     0.047 A 
ATOM     19  C   UNL A   1      31.326  28.590  24.598  1.00  0.00     0.047 A 
BRANCH  15  20
ATOM     20  O   UNL A   1      29.141  31.378  23.568  1.00  0.00    -0.497 OA
ATOM     21  C   UNL A   1      28.876  31.834  22.242  1.00  0.00     0.278 C 
ENDBRANCH  15  20
ENDBRANCH   3  14
BRANCH  12  22
ATOM     22  C   UNL A   1      31.896  21.535  23.641  1.00  0.00    -0.021 A 
ATOM     23  C   UNL A   1      31.950  20.743  22.489  1.00  0.00     0.032 A 
ATOM     24  C   UNL A   1      32.194  20.971  24.886  1.00  0.00     0.032 A 
ATOM     25  C   UNL A   1      32.315  19.399  22.584  1.00  0.00     0.085 A 
ATOM     26  C   UNL A   1      32.563  19.627  24.978  1.00  0.00     0.085 A 
ATOM     27  Cl  UNL A   1      32.366  18.456  21.137  1.00  0.00    -0.080 Cl
ATOM     28  C   UNL A   1      32.650  18.840  23.825  1.00  0.00     0.157 A 
ATOM     29  Cl  UNL A   1      32.890  18.979  26.544  1.00  0.00    -0.080 Cl
BRANCH  28  30
ATOM     30  O   UNL A   1      33.009  17.522  23.892  1.00  0.00    -0.485 OA
BRANCH  30  31
ATOM     31  C   UNL A   1      34.342  17.307  24.343  1.00  0.00     0.282 C 
BRANCH  31  32
ATOM     32  C   UNL A   1      34.808  16.036  25.073  1.00  0.00     0.079 C 
ATOM     33  O   UNL A   1      35.883  15.853  25.625  1.00  0.00    -0.546 OA
ATOM     34  O   UNL A   1      33.815  15.123  25.145  1.00  0.00    -0.546 OA
ENDBRANCH  31  32
ENDBRANCH  30  31
ENDBRANCH  28  30
ENDBRANCH  12  22
ENDBRANCH   1   2
BRANCH   1  35
ATOM     35  C   UNL A   1      36.734  22.480  24.089  1.00  0.00     0.059 C 
BRANCH  35  36
ATOM     36  C   UNL A   1      37.498  23.149  25.226  1.00  0.00     0.119 C 
BRANCH  36  37
ATOM     37  N   UNL A   1      38.781  22.520  25.499  1.00  0.00    -0.352 N 
ATOM     38  C   UNL A   1      39.834  22.924  26.272  1.00  0.00     0.251 C 
ATOM     39  H   UNL A   1      38.914  21.654  25.049  1.00  0.00     0.163 HD
ATOM     40  O   UNL A   1      40.734  22.116  26.504  1.00  0.00    -0.269 OA
BRANCH  38  41
ATOM     41  C   UNL A   1      39.912  24.280  26.854  1.00  0.00     0.039 A 
ATOM     42  C   UNL A   1      39.289  24.488  28.091  1.00  0.00     0.014 A 
ATOM     43  C   UNL A   1      40.548  25.343  26.211  1.00  0.00     0.014 A 
ATOM     44  C   UNL A   1      39.398  25.724  28.728  1.00  0.00     0.010 A 
ATOM     45  C   UNL A   1      40.699  26.563  26.865  1.00  0.00     0.010 A 
ATOM     46  C   UNL A   1      40.159  26.749  28.144  1.00  0.00    -0.014 A 
BRANCH  46  47
ATOM     47  C   UNL A   1      40.538  27.946  28.929  1.00  0.00     0.031 A 
ATOM     48  C   UNL A   1      41.848  28.028  29.649  1.00  0.00     0.074 A 
ATOM     49  C   UNL A   1      39.620  28.925  29.057  1.00  0.00     0.049 A 
ATOM     50  N   UNL A   1      42.307  28.986  30.413  1.00  0.00    -0.248 NA
ATOM     51  C   UNL A   1      42.751  26.876  29.516  1.00  0.00     0.031 C 
ATOM     52  C   UNL A   1      38.284  28.906  28.452  1.00  0.00     0.029 A 
ATOM     53  N   UNL A   1      39.653  30.106  29.748  1.00  0.00    -0.354 N 
ATOM     54  C   UNL A   1      43.552  28.557  30.853  1.00  0.00     0.074 A 
ATOM     55  C   UNL A   1      43.757  27.232  30.305  1.00  0.00     0.031 C 
ATOM     56  C   UNL A   1      37.634  30.029  28.788  1.00  0.00     0.029 A 
ATOM     57  C   UNL A   1      38.487  30.827  29.658  1.00  0.00     0.049 A 
ATOM     58  H   UNL A   1      40.437  30.411  30.261  1.00  0.00     0.167 HD
ATOM     59  C   UNL A   1      44.442  29.219  31.631  1.00  0.00     0.037 A 
ATOM     60  C   UNL A   1      38.142  31.999  30.220  1.00  0.00     0.037 A 
ATOM     61  C   UNL A   1      44.211  30.534  32.177  1.00  0.00     0.049 A 
ATOM     62  C   UNL A   1      39.146  32.711  31.079  1.00  0.00     0.074 A 
ATOM     63  C   UNL A   1      45.066  31.317  32.933  1.00  0.00     0.029 A 
ATOM     64  N   UNL A   1      43.031  31.252  32.036  1.00  0.00    -0.354 N 
ATOM     65  N   UNL A   1      40.359  32.337  31.410  1.00  0.00    -0.248 NA
ATOM     66  C   UNL A   1      38.744  34.011  31.630  1.00  0.00     0.031 C 
ATOM     67  C   UNL A   1      44.385  32.486  33.293  1.00  0.00     0.029 A 
ATOM     68  C   UNL A   1      43.127  32.458  32.713  1.00  0.00     0.049 A 
ATOM     69  H   UNL A   1      42.243  30.949  31.531  1.00  0.00     0.167 HD
ATOM     70  C   UNL A   1      40.876  33.368  32.182  1.00  0.00     0.074 A 
ATOM     71  C   UNL A   1      39.849  34.387  32.258  1.00  0.00     0.031 C 
ATOM     72  C   UNL A   1      42.094  33.462  32.771  1.00  0.00     0.037 A 
BRANCH  59  73
ATOM     73  C   UNL A   1      45.743  28.532  31.944  1.00  0.00     0.057 A 
ATOM     74  C   UNL A   1      45.891  27.710  33.069  1.00  0.00     0.134 A 
ATOM     75  C   UNL A   1      46.846  28.656  31.090  1.00  0.00     0.134 A 
ATOM     76  F   UNL A   1      44.877  27.550  33.933  1.00  0.00    -0.206 F 
ATOM     77  C   UNL A   1      47.097  27.061  33.349  1.00  0.00     0.040 A 
ATOM     78  C   UNL A   1      48.048  27.990  31.344  1.00  0.00     0.040 A 
ATOM     79  F   UNL A   1      46.773  29.418  29.988  1.00  0.00    -0.206 F 
ATOM     80  C   UNL A   1      48.177  27.195  32.480  1.00  0.00     0.006 A 
ENDBRANCH  59  73
BRANCH  60  81
ATOM     81  C   UNL A   1      36.800  32.579  29.957  1.00  0.00     0.057 A 
ATOM     82  C   UNL A   1      35.702  32.250  30.759  1.00  0.00     0.134 A 
ATOM     83  C   UNL A   1      36.586  33.490  28.915  1.00  0.00     0.134 A 
ATOM     84  F   UNL A   1      35.841  31.376  31.767  1.00  0.00    -0.206 F 
ATOM     85  C   UNL A   1      34.436  32.788  30.525  1.00  0.00     0.040 A 
ATOM     86  C   UNL A   1      35.331  34.057  28.685  1.00  0.00     0.040 A 
ATOM     87  F   UNL A   1      37.600  33.860  28.119  1.00  0.00    -0.206 F 
ATOM     88  C   UNL A   1      34.250  33.700  29.488  1.00  0.00     0.006 A 
ENDBRANCH  60  81
BRANCH  72  89
ATOM     89  C   UNL A   1      42.393  34.730  33.515  1.00  0.00     0.057 A 
ATOM     90  C   UNL A   1      42.154  34.859  34.889  1.00  0.00     0.134 A 
ATOM     91  C   UNL A   1      42.964  35.824  32.851  1.00  0.00     0.134 A 
ATOM     92  F   UNL A   1      41.595  33.854  35.581  1.00  0.00    -0.206 F 
ATOM     93  C   UNL A   1      42.453  36.039  35.572  1.00  0.00     0.040 A 
ATOM     94  C   UNL A   1      43.294  36.998  33.529  1.00  0.00     0.040 A 
ATOM     95  F   UNL A   1      43.223  35.763  31.536  1.00  0.00    -0.206 F 
ATOM     96  C   UNL A   1      43.032  37.110  34.892  1.00  0.00     0.006 A 
ENDBRANCH  72  89
ENDBRANCH  46  47
ENDBRANCH  38  41
ENDBRANCH  36  37
ENDBRANCH  35  36
ENDBRANCH   1  35
TORSDOF 15
ENDMDL
