MODEL 1
REMARK VINA RESULT:     -11.8      0.000      0.000
REMARK SMILES O=C(NCCCNC(=O)[C@H]1C=C[C@H](N2C(=O)[C@H]3C[C@H]3C2=O)C1)c1ccc(-c2c3nc(c(-c4c(F)cccc4F)c4ccc([nH]4)c(-c4c(F)cccc4F)c4nc(c(-c5c(F)cccc5F)c5ccc2[nH]5)C=C4)C=C3)cc1
REMARK SMILES IDX 4 1 3 2 1 3 2 4 23 6 24 7 76 8 25 9 75 10 26 11 27 12 28 13
REMARK SMILES IDX 69 14 29 15 74 16 68 17 70 18 30 19 73 20 67 21 66 22 31 24
REMARK SMILES IDX 57 25 40 26 56 27 41 28 44 29 55 30 71 31 42 32 43 33 54 35
REMARK SMILES IDX 72 36 45 37 32 38 33 39 38 40 34 41 35 42 37 43 39 44 36 45
REMARK SMILES IDX 58 46 59 47 64 48 60 49 61 50 63 51 65 52 62 53 46 54 47 55
REMARK SMILES IDX 52 56 48 57 49 58 51 59 53 60 50 61 5 62 6 63 7 64 8 65 9 67
REMARK SMILES IDX 10 68 11 69 22 70 12 71 13 72 14 73 15 74 20 75 16 76 17 77
REMARK SMILES IDX 19 78 21 79 18 80
REMARK H PARENT 3 5 70 23 44 34 7 66
REMARK Flexibility Score: inf
ROOT
ATOM      1  C   UNL A   1      38.705  20.214  25.555  1.00  0.00     0.118 C 
ENDROOT
BRANCH   1   2
ATOM      2  N   UNL A   1      39.804  19.266  25.670  1.00  0.00    -0.352 N 
ATOM      3  O   UNL A   1      41.930  18.569  25.896  1.00  0.00    -0.269 OA
ATOM      4  C   UNL A   1      41.113  19.477  26.022  1.00  0.00     0.251 C 
ATOM      5  H   UNL A   1      39.572  18.331  25.464  1.00  0.00     0.163 HD
BRANCH   4   6
ATOM      6  C   UNL A   1      41.549  20.791  26.542  1.00  0.00     0.039 A 
ATOM      7  C   UNL A   1      42.003  21.791  25.680  1.00  0.00     0.014 A 
ATOM      8  C   UNL A   1      41.445  21.045  27.914  1.00  0.00     0.014 A 
ATOM      9  C   UNL A   1      42.457  23.000  26.197  1.00  0.00     0.010 A 
ATOM     10  C   UNL A   1      41.828  22.289  28.425  1.00  0.00     0.010 A 
ATOM     11  C   UNL A   1      42.350  23.272  27.570  1.00  0.00    -0.014 A 
BRANCH  11  12
ATOM     12  C   UNL A   1      42.685  24.628  28.069  1.00  0.00     0.031 A 
ATOM     13  C   UNL A   1      41.625  25.669  28.287  1.00  0.00     0.074 A 
ATOM     14  C   UNL A   1      43.977  24.909  28.332  1.00  0.00     0.049 A 
ATOM     15  N   UNL A   1      41.758  26.896  28.726  1.00  0.00    -0.248 NA
ATOM     16  C   UNL A   1      40.239  25.294  27.968  1.00  0.00     0.031 C 
ATOM     17  C   UNL A   1      45.096  23.983  28.132  1.00  0.00     0.029 A 
ATOM     18  N   UNL A   1      44.570  26.041  28.828  1.00  0.00    -0.354 N 
ATOM     19  C   UNL A   1      40.482  27.443  28.724  1.00  0.00     0.074 A 
ATOM     20  C   UNL A   1      39.588  26.422  28.221  1.00  0.00     0.031 C 
ATOM     21  C   UNL A   1      46.233  24.573  28.531  1.00  0.00     0.029 A 
ATOM     22  C   UNL A   1      45.933  25.933  28.961  1.00  0.00     0.049 A 
ATOM     23  H   UNL A   1      44.067  26.853  29.067  1.00  0.00     0.167 HD
ATOM     24  C   UNL A   1      40.097  28.682  29.111  1.00  0.00     0.037 A 
ATOM     25  C   UNL A   1      46.846  26.836  29.360  1.00  0.00     0.037 A 
ATOM     26  C   UNL A   1      40.992  29.686  29.631  1.00  0.00     0.049 A 
ATOM     27  C   UNL A   1      46.387  28.205  29.763  1.00  0.00     0.074 A 
ATOM     28  C   UNL A   1      40.683  30.947  30.114  1.00  0.00     0.029 A 
ATOM     29  N   UNL A   1      42.368  29.548  29.727  1.00  0.00    -0.354 N 
ATOM     30  N   UNL A   1      45.169  28.686  29.815  1.00  0.00    -0.248 NA
ATOM     31  C   UNL A   1      47.430  29.162  30.159  1.00  0.00     0.031 C 
ATOM     32  C   UNL A   1      41.876  31.590  30.456  1.00  0.00     0.029 A 
ATOM     33  C   UNL A   1      42.925  30.714  30.230  1.00  0.00     0.049 A 
ATOM     34  H   UNL A   1      42.874  28.742  29.477  1.00  0.00     0.167 HD
ATOM     35  C   UNL A   1      45.296  29.995  30.255  1.00  0.00     0.074 A 
ATOM     36  C   UNL A   1      46.708  30.225  30.485  1.00  0.00     0.031 C 
ATOM     37  C   UNL A   1      44.333  30.927  30.445  1.00  0.00     0.037 A 
BRANCH  24  38
ATOM     38  C   UNL A   1      38.647  29.044  28.986  1.00  0.00     0.057 A 
ATOM     39  C   UNL A   1      37.772  28.975  30.076  1.00  0.00     0.134 A 
ATOM     40  C   UNL A   1      38.144  29.561  27.785  1.00  0.00     0.134 A 
ATOM     41  F   UNL A   1      38.188  28.484  31.253  1.00  0.00    -0.206 F 
ATOM     42  C   UNL A   1      36.447  29.404  29.975  1.00  0.00     0.040 A 
ATOM     43  C   UNL A   1      36.827  30.010  27.677  1.00  0.00     0.040 A 
ATOM     44  F   UNL A   1      38.934  29.662  26.705  1.00  0.00    -0.206 F 
ATOM     45  C   UNL A   1      35.974  29.933  28.775  1.00  0.00     0.006 A 
ENDBRANCH  24  38
BRANCH  25  46
ATOM     46  C   UNL A   1      48.287  26.480  29.371  1.00  0.00     0.057 A 
ATOM     47  C   UNL A   1      48.879  25.874  30.484  1.00  0.00     0.134 A 
ATOM     48  C   UNL A   1      49.109  26.751  28.270  1.00  0.00     0.134 A 
ATOM     49  F   UNL A   1      48.146  25.607  31.576  1.00  0.00    -0.206 F 
ATOM     50  C   UNL A   1      50.240  25.570  30.512  1.00  0.00     0.040 A 
ATOM     51  C   UNL A   1      50.465  26.426  28.273  1.00  0.00     0.040 A 
ATOM     52  F   UNL A   1      48.600  27.325  27.169  1.00  0.00    -0.206 F 
ATOM     53  C   UNL A   1      51.036  25.841  29.401  1.00  0.00     0.006 A 
ENDBRANCH  25  46
BRANCH  37  54
ATOM     54  C   UNL A   1      44.778  32.273  30.933  1.00  0.00     0.057 A 
ATOM     55  C   UNL A   1      45.082  33.311  30.044  1.00  0.00     0.134 A 
ATOM     56  C   UNL A   1      44.885  32.539  32.303  1.00  0.00     0.134 A 
ATOM     57  F   UNL A   1      45.014  33.113  28.718  1.00  0.00    -0.206 F 
ATOM     58  C   UNL A   1      45.503  34.561  30.501  1.00  0.00     0.040 A 
ATOM     59  C   UNL A   1      45.280  33.792  32.772  1.00  0.00     0.040 A 
ATOM     60  F   UNL A   1      44.602  31.589  33.206  1.00  0.00    -0.206 F 
ATOM     61  C   UNL A   1      45.596  34.805  31.869  1.00  0.00     0.006 A 
ENDBRANCH  37  54
ENDBRANCH  11  12
ENDBRANCH   4   6
ENDBRANCH   1   2
BRANCH   1  62
ATOM     62  C   UNL A   1      37.455  19.596  24.937  1.00  0.00     0.042 C 
BRANCH  62  63
ATOM     63  C   UNL A   1      36.221  20.487  25.031  1.00  0.00     0.117 C 
BRANCH  63  64
ATOM     64  N   UNL A   1      34.998  19.703  25.059  1.00  0.00    -0.356 N 
ATOM     65  C   UNL A   1      33.709  20.117  25.264  1.00  0.00     0.227 C 
ATOM     66  H   UNL A   1      35.112  18.736  24.911  1.00  0.00     0.163 HD
ATOM     67  O   UNL A   1      32.829  19.260  25.336  1.00  0.00    -0.274 OA
BRANCH  65  68
ATOM     68  C   UNL A   1      33.431  21.616  25.324  1.00  0.00     0.103 C 
ATOM     69  C   UNL A   1      32.039  21.859  24.807  1.00  0.00    -0.016 C 
ATOM     70  C   UNL A   1      33.327  22.188  26.750  1.00  0.00     0.047 C 
ATOM     71  C   UNL A   1      31.382  22.735  25.572  1.00  0.00    -0.005 C 
ATOM     72  C   UNL A   1      32.245  23.279  26.679  1.00  0.00     0.117 C 
BRANCH  72  73
ATOM     73  N   UNL A   1      32.640  24.624  26.281  1.00  0.00    -0.275 N 
ATOM     74  C   UNL A   1      31.732  25.658  26.323  1.00  0.00     0.233 C 
ATOM     75  C   UNL A   1      33.859  25.025  25.807  1.00  0.00     0.233 C 
ATOM     76  O   UNL A   1      30.595  25.661  26.753  1.00  0.00    -0.274 OA
ATOM     77  C   UNL A   1      32.344  26.857  25.698  1.00  0.00     0.092 C 
ATOM     78  C   UNL A   1      33.771  26.449  25.381  1.00  0.00     0.092 C 
ATOM     79  O   UNL A   1      34.898  24.397  25.684  1.00  0.00    -0.274 OA
ATOM     80  C   UNL A   1      33.494  27.582  26.332  1.00  0.00     0.028 C 
ENDBRANCH  72  73
ENDBRANCH  65  68
ENDBRANCH  63  64
ENDBRANCH  62  63
ENDBRANCH   1  62
TORSDOF 11
ENDMDL
MODEL 2
REMARK VINA RESULT:     -11.8      0.253      6.437
REMARK SMILES O=C(NCCCNC(=O)[C@H]1C=C[C@H](N2C(=O)[C@H]3C[C@H]3C2=O)C1)c1ccc(-c2c3nc(c(-c4c(F)cccc4F)c4ccc([nH]4)c(-c4c(F)cccc4F)c4nc(c(-c5c(F)cccc5F)c5ccc2[nH]5)C=C4)C=C3)cc1
REMARK SMILES IDX 4 1 3 2 1 3 2 4 23 6 24 7 76 8 25 9 75 10 26 11 27 12 28 13
REMARK SMILES IDX 69 14 29 15 74 16 68 17 70 18 30 19 73 20 67 21 66 22 31 24
REMARK SMILES IDX 57 25 40 26 56 27 41 28 44 29 55 30 71 31 42 32 43 33 54 35
REMARK SMILES IDX 72 36 45 37 32 38 33 39 38 40 34 41 35 42 37 43 39 44 36 45
REMARK SMILES IDX 58 46 59 47 64 48 60 49 61 50 63 51 65 52 62 53 46 54 47 55
REMARK SMILES IDX 52 56 48 57 49 58 51 59 53 60 50 61 5 62 6 63 7 64 8 65 9 67
REMARK SMILES IDX 10 68 11 69 22 70 12 71 13 72 14 73 15 74 20 75 16 76 17 77
REMARK SMILES IDX 19 78 21 79 18 80
REMARK H PARENT 3 5 70 23 44 34 7 66
REMARK Flexibility Score: inf
ROOT
ATOM      1  C   UNL A   1      38.701  20.335  25.546  1.00  0.00     0.118 C 
ENDROOT
BRANCH   1   2
ATOM      2  N   UNL A   1      39.786  19.372  25.670  1.00  0.00    -0.352 N 
ATOM      3  O   UNL A   1      41.901  18.646  25.920  1.00  0.00    -0.269 OA
ATOM      4  C   UNL A   1      41.094  19.563  26.040  1.00  0.00     0.251 C 
ATOM      5  H   UNL A   1      39.545  18.440  25.456  1.00  0.00     0.163 HD
BRANCH   4   6
ATOM      6  C   UNL A   1      41.539  20.868  26.574  1.00  0.00     0.039 A 
ATOM      7  C   UNL A   1      42.031  21.863  25.725  1.00  0.00     0.014 A 
ATOM      8  C   UNL A   1      41.407  21.121  27.943  1.00  0.00     0.014 A 
ATOM      9  C   UNL A   1      42.493  23.062  26.255  1.00  0.00     0.010 A 
ATOM     10  C   UNL A   1      41.800  22.357  28.466  1.00  0.00     0.010 A 
ATOM     11  C   UNL A   1      42.359  23.333  27.626  1.00  0.00    -0.014 A 
BRANCH  11  12
ATOM     12  C   UNL A   1      42.705  24.683  28.136  1.00  0.00     0.031 A 
ATOM     13  C   UNL A   1      44.119  25.051  28.484  1.00  0.00     0.074 A 
ATOM     14  C   UNL A   1      41.715  25.585  28.274  1.00  0.00     0.049 A 
ATOM     15  N   UNL A   1      44.583  26.191  28.932  1.00  0.00    -0.248 NA
ATOM     16  C   UNL A   1      45.145  24.011  28.317  1.00  0.00     0.031 C 
ATOM     17  C   UNL A   1      40.298  25.330  27.991  1.00  0.00     0.029 A 
ATOM     18  N   UNL A   1      41.739  26.895  28.678  1.00  0.00    -0.354 N 
ATOM     19  C   UNL A   1      45.946  26.004  29.113  1.00  0.00     0.074 A 
ATOM     20  C   UNL A   1      46.235  24.634  28.746  1.00  0.00     0.031 C 
ATOM     21  C   UNL A   1      39.598  26.455  28.199  1.00  0.00     0.029 A 
ATOM     22  C   UNL A   1      40.501  27.491  28.683  1.00  0.00     0.049 A 
ATOM     23  H   UNL A   1      42.565  27.363  28.939  1.00  0.00     0.167 HD
ATOM     24  C   UNL A   1      46.868  26.897  29.543  1.00  0.00     0.037 A 
ATOM     25  C   UNL A   1      40.128  28.728  29.058  1.00  0.00     0.037 A 
ATOM     26  C   UNL A   1      46.575  28.267  29.887  1.00  0.00     0.049 A 
ATOM     27  C   UNL A   1      41.172  29.686  29.547  1.00  0.00     0.074 A 
ATOM     28  C   UNL A   1      47.456  29.266  30.266  1.00  0.00     0.029 A 
ATOM     29  N   UNL A   1      45.307  28.826  29.902  1.00  0.00    -0.354 N 
ATOM     30  N   UNL A   1      42.467  29.512  29.653  1.00  0.00    -0.248 NA
ATOM     31  C   UNL A   1      40.705  31.011  29.976  1.00  0.00     0.031 C 
ATOM     32  C   UNL A   1      46.716  30.415  30.558  1.00  0.00     0.029 A 
ATOM     33  C   UNL A   1      45.379  30.147  30.317  1.00  0.00     0.049 A 
ATOM     34  H   UNL A   1      44.479  28.355  29.654  1.00  0.00     0.167 HD
ATOM     35  C   UNL A   1      42.970  30.705  30.151  1.00  0.00     0.074 A 
ATOM     36  C   UNL A   1      41.845  31.605  30.299  1.00  0.00     0.031 C 
ATOM     37  C   UNL A   1      44.248  31.026  30.466  1.00  0.00     0.037 A 
BRANCH  24  38
ATOM     38  C   UNL A   1      48.290  26.438  29.681  1.00  0.00     0.057 A 
ATOM     39  C   UNL A   1      49.236  26.651  28.672  1.00  0.00     0.134 A 
ATOM     40  C   UNL A   1      48.738  25.862  30.877  1.00  0.00     0.134 A 
ATOM     41  F   UNL A   1      48.871  27.192  27.499  1.00  0.00    -0.206 F 
ATOM     42  C   UNL A   1      50.578  26.305  28.846  1.00  0.00     0.040 A 
ATOM     43  C   UNL A   1      50.080  25.530  31.070  1.00  0.00     0.040 A 
ATOM     44  F   UNL A   1      47.883  25.639  31.886  1.00  0.00    -0.206 F 
ATOM     45  C   UNL A   1      51.004  25.752  30.052  1.00  0.00     0.006 A 
ENDBRANCH  24  38
BRANCH  25  46
ATOM     46  C   UNL A   1      38.697  29.118  29.011  1.00  0.00     0.057 A 
ATOM     47  C   UNL A   1      37.882  29.034  30.145  1.00  0.00     0.134 A 
ATOM     48  C   UNL A   1      38.108  29.571  27.825  1.00  0.00     0.134 A 
ATOM     49  F   UNL A   1      38.386  28.588  31.307  1.00  0.00    -0.206 F 
ATOM     50  C   UNL A   1      36.528  29.366  30.097  1.00  0.00     0.040 A 
ATOM     51  C   UNL A   1      36.762  29.934  27.769  1.00  0.00     0.040 A 
ATOM     52  F   UNL A   1      38.837  29.680  26.704  1.00  0.00    -0.206 F 
ATOM     53  C   UNL A   1      35.966  29.823  28.907  1.00  0.00     0.006 A 
ENDBRANCH  25  46
BRANCH  37  54
ATOM     54  C   UNL A   1      44.490  32.408  30.991  1.00  0.00     0.057 A 
ATOM     55  C   UNL A   1      44.478  32.684  32.364  1.00  0.00     0.134 A 
ATOM     56  C   UNL A   1      44.757  33.469  30.118  1.00  0.00     0.134 A 
ATOM     57  F   UNL A   1      44.212  31.712  33.250  1.00  0.00    -0.206 F 
ATOM     58  C   UNL A   1      44.697  33.974  32.849  1.00  0.00     0.040 A 
ATOM     59  C   UNL A   1      45.003  34.758  30.593  1.00  0.00     0.040 A 
ATOM     60  F   UNL A   1      44.789  33.270  28.792  1.00  0.00    -0.206 F 
ATOM     61  C   UNL A   1      44.967  35.014  31.962  1.00  0.00     0.006 A 
ENDBRANCH  37  54
ENDBRANCH  11  12
ENDBRANCH   4   6
ENDBRANCH   1   2
BRANCH   1  62
ATOM     62  C   UNL A   1      37.448  19.733  24.920  1.00  0.00     0.042 C 
BRANCH  62  63
ATOM     63  C   UNL A   1      36.210  20.610  25.065  1.00  0.00     0.117 C 
BRANCH  63  64
ATOM     64  N   UNL A   1      34.989  19.821  25.038  1.00  0.00    -0.356 N 
ATOM     65  C   UNL A   1      33.693  20.226  25.209  1.00  0.00     0.227 C 
ATOM     66  H   UNL A   1      35.113  18.858  24.873  1.00  0.00     0.163 HD
ATOM     67  O   UNL A   1      32.815  19.364  25.235  1.00  0.00    -0.274 OA
BRANCH  65  68
ATOM     68  C   UNL A   1      33.406  21.722  25.290  1.00  0.00     0.103 C 
ATOM     69  C   UNL A   1      32.011  21.963  24.783  1.00  0.00    -0.016 C 
ATOM     70  C   UNL A   1      33.305  22.274  26.725  1.00  0.00     0.047 C 
ATOM     71  C   UNL A   1      31.351  22.825  25.563  1.00  0.00    -0.005 C 
ATOM     72  C   UNL A   1      32.216  23.359  26.674  1.00  0.00     0.117 C 
BRANCH  72  73
ATOM     73  N   UNL A   1      32.601  24.711  26.292  1.00  0.00    -0.275 N 
ATOM     74  C   UNL A   1      31.680  25.734  26.328  1.00  0.00     0.233 C 
ATOM     75  C   UNL A   1      33.822  25.131  25.840  1.00  0.00     0.233 C 
ATOM     76  O   UNL A   1      30.537  25.721  26.740  1.00  0.00    -0.274 OA
ATOM     77  C   UNL A   1      32.287  26.946  25.722  1.00  0.00     0.092 C 
ATOM     78  C   UNL A   1      33.724  26.557  25.423  1.00  0.00     0.092 C 
ATOM     79  O   UNL A   1      34.871  24.516  25.728  1.00  0.00    -0.274 OA
ATOM     80  C   UNL A   1      33.420  27.679  26.379  1.00  0.00     0.028 C 
ENDBRANCH  72  73
ENDBRANCH  65  68
ENDBRANCH  63  64
ENDBRANCH  62  63
ENDBRANCH   1  62
TORSDOF 11
ENDMDL
MODEL 3
REMARK VINA RESULT:     -11.8      0.341      6.437
REMARK SMILES O=C(NCCCNC(=O)[C@H]1C=C[C@H](N2C(=O)[C@H]3C[C@H]3C2=O)C1)c1ccc(-c2c3nc(c(-c4c(F)cccc4F)c4ccc([nH]4)c(-c4c(F)cccc4F)c4nc(c(-c5c(F)cccc5F)c5ccc2[nH]5)C=C4)C=C3)cc1
REMARK SMILES IDX 4 1 3 2 1 3 2 4 23 6 24 7 76 8 25 9 75 10 26 11 27 12 28 13
REMARK SMILES IDX 69 14 29 15 74 16 68 17 70 18 30 19 73 20 67 21 66 22 31 24
REMARK SMILES IDX 57 25 40 26 56 27 41 28 44 29 55 30 71 31 42 32 43 33 54 35
REMARK SMILES IDX 72 36 45 37 32 38 33 39 38 40 34 41 35 42 37 43 39 44 36 45
REMARK SMILES IDX 58 46 59 47 64 48 60 49 61 50 63 51 65 52 62 53 46 54 47 55
REMARK SMILES IDX 52 56 48 57 49 58 51 59 53 60 50 61 5 62 6 63 7 64 8 65 9 67
REMARK SMILES IDX 10 68 11 69 22 70 12 71 13 72 14 73 15 74 20 75 16 76 17 77
REMARK SMILES IDX 19 78 21 79 18 80
REMARK H PARENT 3 5 70 23 44 34 7 66
REMARK Flexibility Score: inf
ROOT
ATOM      1  C   UNL A   1      38.694  20.321  25.576  1.00  0.00     0.118 C 
ENDROOT
BRANCH   1   2
ATOM      2  N   UNL A   1      39.797  19.376  25.677  1.00  0.00    -0.352 N 
ATOM      3  O   UNL A   1      41.926  18.684  25.896  1.00  0.00    -0.269 OA
ATOM      4  C   UNL A   1      41.105  19.585  26.036  1.00  0.00     0.251 C 
ATOM      5  H   UNL A   1      39.570  18.443  25.454  1.00  0.00     0.163 HD
BRANCH   4   6
ATOM      6  C   UNL A   1      41.533  20.892  26.581  1.00  0.00     0.039 A 
ATOM      7  C   UNL A   1      42.000  21.904  25.739  1.00  0.00     0.014 A 
ATOM      8  C   UNL A   1      41.410  21.126  27.955  1.00  0.00     0.014 A 
ATOM      9  C   UNL A   1      42.446  23.105  26.280  1.00  0.00     0.010 A 
ATOM     10  C   UNL A   1      41.787  22.363  28.488  1.00  0.00     0.010 A 
ATOM     11  C   UNL A   1      42.320  23.358  27.655  1.00  0.00    -0.014 A 
BRANCH  11  12
ATOM     12  C   UNL A   1      42.649  24.707  28.177  1.00  0.00     0.031 A 
ATOM     13  C   UNL A   1      44.051  25.078  28.564  1.00  0.00     0.074 A 
ATOM     14  C   UNL A   1      41.652  25.606  28.292  1.00  0.00     0.049 A 
ATOM     15  N   UNL A   1      44.499  26.219  29.028  1.00  0.00    -0.248 NA
ATOM     16  C   UNL A   1      45.085  24.043  28.422  1.00  0.00     0.031 C 
ATOM     17  C   UNL A   1      40.244  25.347  27.970  1.00  0.00     0.029 A 
ATOM     18  N   UNL A   1      41.661  26.915  28.699  1.00  0.00    -0.354 N 
ATOM     19  C   UNL A   1      45.858  26.036  29.245  1.00  0.00     0.074 A 
ATOM     20  C   UNL A   1      46.161  24.668  28.882  1.00  0.00     0.031 C 
ATOM     21  C   UNL A   1      39.535  26.469  28.162  1.00  0.00     0.029 A 
ATOM     22  C   UNL A   1      40.421  27.507  28.672  1.00  0.00     0.049 A 
ATOM     23  H   UNL A   1      42.478  27.385  28.983  1.00  0.00     0.167 HD
ATOM     24  C   UNL A   1      46.765  26.931  29.702  1.00  0.00     0.037 A 
ATOM     25  C   UNL A   1      40.034  28.741  29.041  1.00  0.00     0.037 A 
ATOM     26  C   UNL A   1      46.458  28.298  30.042  1.00  0.00     0.049 A 
ATOM     27  C   UNL A   1      41.062  29.701  29.561  1.00  0.00     0.074 A 
ATOM     28  C   UNL A   1      47.326  29.299  30.447  1.00  0.00     0.029 A 
ATOM     29  N   UNL A   1      45.189  28.853  30.024  1.00  0.00    -0.354 N 
ATOM     30  N   UNL A   1      42.355  29.532  29.701  1.00  0.00    -0.248 NA
ATOM     31  C   UNL A   1      40.579  31.024  29.981  1.00  0.00     0.031 C 
ATOM     32  C   UNL A   1      46.574  30.445  30.722  1.00  0.00     0.029 A 
ATOM     33  C   UNL A   1      45.245  30.173  30.445  1.00  0.00     0.049 A 
ATOM     34  H   UNL A   1      44.369  28.381  29.752  1.00  0.00     0.167 HD
ATOM     35  C   UNL A   1      42.840  30.724  30.215  1.00  0.00     0.074 A 
ATOM     36  C   UNL A   1      41.708  31.621  30.335  1.00  0.00     0.031 C 
ATOM     37  C   UNL A   1      44.108  31.048  30.565  1.00  0.00     0.037 A 
BRANCH  24  38
ATOM     38  C   UNL A   1      48.184  26.475  29.877  1.00  0.00     0.057 A 
ATOM     39  C   UNL A   1      48.616  25.836  31.044  1.00  0.00     0.134 A 
ATOM     40  C   UNL A   1      49.101  26.590  28.825  1.00  0.00     0.134 A 
ATOM     41  F   UNL A   1      47.789  25.699  32.092  1.00  0.00    -0.206 F 
ATOM     42  C   UNL A   1      49.913  25.330  31.161  1.00  0.00     0.040 A 
ATOM     43  C   UNL A   1      50.394  26.072  28.922  1.00  0.00     0.040 A 
ATOM     44  F   UNL A   1      48.747  27.185  27.675  1.00  0.00    -0.206 F 
ATOM     45  C   UNL A   1      50.802  25.439  30.094  1.00  0.00     0.006 A 
ENDBRANCH  24  38
BRANCH  25  46
ATOM     46  C   UNL A   1      38.604  29.127  28.957  1.00  0.00     0.057 A 
ATOM     47  C   UNL A   1      38.046  29.598  27.764  1.00  0.00     0.134 A 
ATOM     48  C   UNL A   1      37.764  29.045  30.074  1.00  0.00     0.134 A 
ATOM     49  F   UNL A   1      38.806  29.716  26.664  1.00  0.00    -0.206 F 
ATOM     50  C   UNL A   1      36.710  29.995  27.689  1.00  0.00     0.040 A 
ATOM     51  C   UNL A   1      36.420  29.411  30.007  1.00  0.00     0.040 A 
ATOM     52  F   UNL A   1      38.237  28.595  31.246  1.00  0.00    -0.206 F 
ATOM     53  C   UNL A   1      35.892  29.896  28.812  1.00  0.00     0.006 A 
ENDBRANCH  25  46
BRANCH  37  54
ATOM     54  C   UNL A   1      44.331  32.430  31.100  1.00  0.00     0.057 A 
ATOM     55  C   UNL A   1      44.287  32.701  32.473  1.00  0.00     0.134 A 
ATOM     56  C   UNL A   1      44.612  33.496  30.237  1.00  0.00     0.134 A 
ATOM     57  F   UNL A   1      44.006  31.724  33.350  1.00  0.00    -0.206 F 
ATOM     58  C   UNL A   1      44.489  33.990  32.968  1.00  0.00     0.040 A 
ATOM     59  C   UNL A   1      44.841  34.784  30.722  1.00  0.00     0.040 A 
ATOM     60  F   UNL A   1      44.675  33.302  28.912  1.00  0.00    -0.206 F 
ATOM     61  C   UNL A   1      44.774  35.034  32.091  1.00  0.00     0.006 A 
ENDBRANCH  37  54
ENDBRANCH  11  12
ENDBRANCH   4   6
ENDBRANCH   1   2
BRANCH   1  62
ATOM     62  C   UNL A   1      37.441  19.702  24.965  1.00  0.00     0.042 C 
BRANCH  62  63
ATOM     63  C   UNL A   1      36.209  20.593  25.062  1.00  0.00     0.117 C 
BRANCH  63  64
ATOM     64  N   UNL A   1      34.983  19.812  25.062  1.00  0.00    -0.356 N 
ATOM     65  C   UNL A   1      33.692  20.227  25.248  1.00  0.00     0.227 C 
ATOM     66  H   UNL A   1      35.098  18.846  24.907  1.00  0.00     0.163 HD
ATOM     67  O   UNL A   1      32.809  19.372  25.296  1.00  0.00    -0.274 OA
BRANCH  65  68
ATOM     68  C   UNL A   1      33.416  21.726  25.315  1.00  0.00     0.103 C 
ATOM     69  C   UNL A   1      32.065  21.985  24.706  1.00  0.00    -0.016 C 
ATOM     70  C   UNL A   1      33.215  22.273  26.741  1.00  0.00     0.047 C 
ATOM     71  C   UNL A   1      31.359  22.850  25.440  1.00  0.00    -0.005 C 
ATOM     72  C   UNL A   1      32.144  23.370  26.614  1.00  0.00     0.117 C 
BRANCH  72  73
ATOM     73  N   UNL A   1      32.571  24.720  26.270  1.00  0.00    -0.275 N 
ATOM     74  C   UNL A   1      31.680  25.768  26.328  1.00  0.00     0.233 C 
ATOM     75  C   UNL A   1      33.806  25.115  25.834  1.00  0.00     0.233 C 
ATOM     76  O   UNL A   1      30.535  25.778  26.735  1.00  0.00    -0.274 OA
ATOM     77  C   UNL A   1      32.326  26.976  25.756  1.00  0.00     0.092 C 
ATOM     78  C   UNL A   1      33.752  26.553  25.454  1.00  0.00     0.092 C 
ATOM     79  O   UNL A   1      34.837  24.472  25.710  1.00  0.00    -0.274 OA
ATOM     80  C   UNL A   1      33.476  27.659  26.437  1.00  0.00     0.028 C 
ENDBRANCH  72  73
ENDBRANCH  65  68
ENDBRANCH  63  64
ENDBRANCH  62  63
ENDBRANCH   1  62
TORSDOF 11
ENDMDL
