MODEL 1
REMARK VINA RESULT:     -11.3      0.000      0.000
REMARK SMILES O=C(NCCCNC(=O)[C@@H]1CSCN1C(=O)COc1ccc(Cl)cc1Cl)c1ccc(-c2c3nc(c(-c4c(F)cccc4F)c4ccc([nH]4)c(-c4c(F)cccc4F)c4nc(c(-c5c(F)cccc5F)c5ccc2[nH]5)C=C4)C=C3)cc1
REMARK SMILES IDX 6 1 5 2 4 3 3 4 1 5 2 6 27 8 28 9 80 10 29 11 79 12 30 13
REMARK SMILES IDX 31 14 32 15 73 16 33 17 78 18 72 19 74 20 34 21 77 22 71 23
REMARK SMILES IDX 70 24 35 26 61 27 44 28 60 29 45 30 48 31 59 32 75 33 46 34
REMARK SMILES IDX 47 35 58 37 76 38 49 39 36 40 37 41 42 42 38 43 39 44 41 45
REMARK SMILES IDX 43 46 40 47 62 48 63 49 68 50 64 51 65 52 67 53 69 54 66 55
REMARK SMILES IDX 50 56 51 57 56 58 52 59 53 60 55 61 57 62 54 63 7 64 8 65
REMARK SMILES IDX 9 67 10 68 11 69 14 70 12 71 13 72 15 73 16 74 17 75 18 76
REMARK SMILES IDX 19 77 20 78 25 79 21 80 24 81 26 82 22 83 23 84
REMARK H PARENT 3 7 74 25 48 36 7 66
REMARK Flexibility Score: inf
ROOT
ATOM      1  C   UNL A   1      31.390  30.464  25.803  1.00  0.00     0.117 C 
ENDROOT
BRANCH   1   2
ATOM      2  C   UNL A   1      31.298  31.913  26.266  1.00  0.00     0.042 C 
BRANCH   2   3
ATOM      3  C   UNL A   1      32.566  32.431  26.937  1.00  0.00     0.118 C 
BRANCH   3   4
ATOM      4  N   UNL A   1      32.417  33.781  27.463  1.00  0.00    -0.352 N 
ATOM      5  O   UNL A   1      32.679  35.522  28.859  1.00  0.00    -0.269 OA
ATOM      6  C   UNL A   1      33.097  34.433  28.457  1.00  0.00     0.251 C 
ATOM      7  H   UNL A   1      31.711  34.314  27.032  1.00  0.00     0.163 HD
BRANCH   6   8
ATOM      8  C   UNL A   1      34.307  33.848  29.073  1.00  0.00     0.039 A 
ATOM      9  C   UNL A   1      35.587  34.281  28.719  1.00  0.00     0.014 A 
ATOM     10  C   UNL A   1      34.150  32.879  30.070  1.00  0.00     0.014 A 
ATOM     11  C   UNL A   1      36.708  33.653  29.258  1.00  0.00     0.010 A 
ATOM     12  C   UNL A   1      35.276  32.305  30.667  1.00  0.00     0.010 A 
ATOM     13  C   UNL A   1      36.564  32.665  30.243  1.00  0.00    -0.014 A 
BRANCH  13  14
ATOM     14  C   UNL A   1      37.761  32.034  30.853  1.00  0.00     0.031 A 
ATOM     15  C   UNL A   1      38.503  30.943  30.133  1.00  0.00     0.074 A 
ATOM     16  C   UNL A   1      38.170  32.433  32.072  1.00  0.00     0.049 A 
ATOM     17  N   UNL A   1      39.526  30.232  30.538  1.00  0.00    -0.248 NA
ATOM     18  C   UNL A   1      38.028  30.600  28.785  1.00  0.00     0.031 C 
ATOM     19  C   UNL A   1      37.533  33.481  32.873  1.00  0.00     0.029 A 
ATOM     20  N   UNL A   1      39.210  32.001  32.854  1.00  0.00    -0.354 N 
ATOM     21  C   UNL A   1      39.802  29.343  29.506  1.00  0.00     0.074 A 
ATOM     22  C   UNL A   1      38.822  29.587  28.468  1.00  0.00     0.031 C 
ATOM     23  C   UNL A   1      38.203  33.619  34.026  1.00  0.00     0.029 A 
ATOM     24  C   UNL A   1      39.277  32.633  34.072  1.00  0.00     0.049 A 
ATOM     25  H   UNL A   1      39.847  31.306  32.572  1.00  0.00     0.167 HD
ATOM     26  C   UNL A   1      40.786  28.415  29.430  1.00  0.00     0.037 A 
ATOM     27  C   UNL A   1      40.092  32.423  35.122  1.00  0.00     0.037 A 
ATOM     28  C   UNL A   1      41.761  28.180  30.465  1.00  0.00     0.049 A 
ATOM     29  C   UNL A   1      41.148  31.361  35.033  1.00  0.00     0.074 A 
ATOM     30  C   UNL A   1      42.817  27.287  30.468  1.00  0.00     0.029 A 
ATOM     31  N   UNL A   1      41.790  28.837  31.687  1.00  0.00    -0.354 N 
ATOM     32  N   UNL A   1      41.422  30.551  34.039  1.00  0.00    -0.248 NA
ATOM     33  C   UNL A   1      42.009  31.181  36.210  1.00  0.00     0.031 C 
ATOM     34  C   UNL A   1      43.454  27.365  31.712  1.00  0.00     0.029 A 
ATOM     35  C   UNL A   1      42.831  28.349  32.462  1.00  0.00     0.049 A 
ATOM     36  H   UNL A   1      41.163  29.544  31.964  1.00  0.00     0.167 HD
ATOM     37  C   UNL A   1      42.502  29.786  34.457  1.00  0.00     0.074 A 
ATOM     38  C   UNL A   1      42.838  30.233  35.795  1.00  0.00     0.031 C 
ATOM     39  C   UNL A   1      43.161  28.809  33.788  1.00  0.00     0.037 A 
BRANCH  26  40
ATOM     40  C   UNL A   1      40.836  27.561  28.194  1.00  0.00     0.057 A 
ATOM     41  C   UNL A   1      40.140  26.350  28.097  1.00  0.00     0.134 A 
ATOM     42  C   UNL A   1      41.575  27.970  27.076  1.00  0.00     0.134 A 
ATOM     43  F   UNL A   1      39.421  25.893  29.134  1.00  0.00    -0.206 F 
ATOM     44  C   UNL A   1      40.205  25.559  26.948  1.00  0.00     0.040 A 
ATOM     45  C   UNL A   1      41.625  27.202  25.912  1.00  0.00     0.040 A 
ATOM     46  F   UNL A   1      42.259  29.124  27.095  1.00  0.00    -0.206 F 
ATOM     47  C   UNL A   1      40.946  25.988  25.848  1.00  0.00     0.006 A 
ENDBRANCH  26  40
BRANCH  27  48
ATOM     48  C   UNL A   1      39.927  33.244  36.348  1.00  0.00     0.057 A 
ATOM     49  C   UNL A   1      39.076  32.838  37.381  1.00  0.00     0.134 A 
ATOM     50  C   UNL A   1      40.644  34.434  36.529  1.00  0.00     0.134 A 
ATOM     51  F   UNL A   1      38.353  31.717  37.258  1.00  0.00    -0.206 F 
ATOM     52  C   UNL A   1      38.938  33.591  38.549  1.00  0.00     0.040 A 
ATOM     53  C   UNL A   1      40.534  35.182  37.701  1.00  0.00     0.040 A 
ATOM     54  F   UNL A   1      41.484  34.870  35.577  1.00  0.00    -0.206 F 
ATOM     55  C   UNL A   1      39.675  34.762  38.714  1.00  0.00     0.006 A 
ENDBRANCH  27  48
BRANCH  39  56
ATOM     56  C   UNL A   1      44.342  28.182  34.469  1.00  0.00     0.057 A 
ATOM     57  C   UNL A   1      45.629  28.728  34.380  1.00  0.00     0.134 A 
ATOM     58  C   UNL A   1      44.176  27.045  35.270  1.00  0.00     0.134 A 
ATOM     59  F   UNL A   1      45.858  29.808  33.616  1.00  0.00    -0.206 F 
ATOM     60  C   UNL A   1      46.711  28.155  35.051  1.00  0.00     0.040 A 
ATOM     61  C   UNL A   1      45.244  26.480  35.968  1.00  0.00     0.040 A 
ATOM     62  F   UNL A   1      42.968  26.477  35.404  1.00  0.00    -0.206 F 
ATOM     63  C   UNL A   1      46.518  27.034  35.855  1.00  0.00     0.006 A 
ENDBRANCH  39  56
ENDBRANCH  13  14
ENDBRANCH   6   8
ENDBRANCH   3   4
ENDBRANCH   2   3
ENDBRANCH   1   2
BRANCH   1  64
ATOM     64  N   UNL A   1      30.842  30.275  24.471  1.00  0.00    -0.354 N 
ATOM     65  C   UNL A   1      31.047  29.270  23.573  1.00  0.00     0.243 C 
ATOM     66  H   UNL A   1      30.225  30.981  24.171  1.00  0.00     0.163 HD
ATOM     67  O   UNL A   1      30.380  29.300  22.534  1.00  0.00    -0.273 OA
BRANCH  65  68
ATOM     68  C   UNL A   1      32.001  28.100  23.890  1.00  0.00     0.185 C 
ATOM     69  C   UNL A   1      33.094  28.061  22.815  1.00  0.00     0.106 C 
ATOM     70  N   UNL A   1      31.217  26.857  23.850  1.00  0.00    -0.318 N 
ATOM     71  S   UNL A   1      32.984  26.448  21.998  1.00  0.00    -0.138 SA
ATOM     72  C   UNL A   1      31.323  26.120  22.612  1.00  0.00     0.190 C 
BRANCH  70  73
ATOM     73  C   UNL A   1      30.396  26.513  24.904  1.00  0.00     0.261 C 
ATOM     74  O   UNL A   1      29.225  26.169  24.725  1.00  0.00    -0.271 OA
BRANCH  73  75
ATOM     75  C   UNL A   1      30.978  26.532  26.323  1.00  0.00     0.329 C 
BRANCH  75  76
ATOM     76  O   UNL A   1      31.544  25.312  26.786  1.00  0.00    -0.482 OA
BRANCH  76  77
ATOM     77  C   UNL A   1      32.522  24.778  25.985  1.00  0.00     0.138 A 
ATOM     78  C   UNL A   1      33.766  25.394  25.823  1.00  0.00     0.049 A 
ATOM     79  C   UNL A   1      32.309  23.515  25.417  1.00  0.00     0.084 A 
ATOM     80  C   UNL A   1      34.777  24.766  25.093  1.00  0.00     0.024 A 
ATOM     81  C   UNL A   1      33.316  22.887  24.680  1.00  0.00     0.045 A 
ATOM     82  Cl  UNL A   1      30.796  22.699  25.597  1.00  0.00    -0.080 Cl
ATOM     83  C   UNL A   1      34.548  23.516  24.525  1.00  0.00     0.042 A 
ATOM     84  Cl  UNL A   1      35.806  22.739  23.646  1.00  0.00    -0.084 Cl
ENDBRANCH  76  77
ENDBRANCH  75  76
ENDBRANCH  73  75
ENDBRANCH  70  73
ENDBRANCH  65  68
ENDBRANCH   1  64
TORSDOF 14
ENDMDL
MODEL 2
REMARK VINA RESULT:     -11.3      4.539      8.820
REMARK SMILES O=C(NCCCNC(=O)[C@@H]1CSCN1C(=O)COc1ccc(Cl)cc1Cl)c1ccc(-c2c3nc(c(-c4c(F)cccc4F)c4ccc([nH]4)c(-c4c(F)cccc4F)c4nc(c(-c5c(F)cccc5F)c5ccc2[nH]5)C=C4)C=C3)cc1
REMARK SMILES IDX 6 1 5 2 4 3 3 4 1 5 2 6 27 8 28 9 80 10 29 11 79 12 30 13
REMARK SMILES IDX 31 14 32 15 73 16 33 17 78 18 72 19 74 20 34 21 77 22 71 23
REMARK SMILES IDX 70 24 35 26 61 27 44 28 60 29 45 30 48 31 59 32 75 33 46 34
REMARK SMILES IDX 47 35 58 37 76 38 49 39 36 40 37 41 42 42 38 43 39 44 41 45
REMARK SMILES IDX 43 46 40 47 62 48 63 49 68 50 64 51 65 52 67 53 69 54 66 55
REMARK SMILES IDX 50 56 51 57 56 58 52 59 53 60 55 61 57 62 54 63 7 64 8 65
REMARK SMILES IDX 9 67 10 68 11 69 14 70 12 71 13 72 15 73 16 74 17 75 18 76
REMARK SMILES IDX 19 77 20 78 25 79 21 80 24 81 26 82 22 83 23 84
REMARK H PARENT 3 7 74 25 48 36 7 66
REMARK Flexibility Score: inf
ROOT
ATOM      1  C   UNL A   1      36.393  20.327  24.700  1.00  0.00     0.117 C 
ENDROOT
BRANCH   1   2
ATOM      2  C   UNL A   1      37.581  19.420  24.994  1.00  0.00     0.042 C 
BRANCH   2   3
ATOM      3  C   UNL A   1      38.795  20.152  25.557  1.00  0.00     0.118 C 
BRANCH   3   4
ATOM      4  N   UNL A   1      39.954  19.285  25.715  1.00  0.00    -0.352 N 
ATOM      5  O   UNL A   1      42.107  18.701  25.995  1.00  0.00    -0.269 OA
ATOM      6  C   UNL A   1      41.238  19.569  26.103  1.00  0.00     0.251 C 
ATOM      7  H   UNL A   1      39.789  18.337  25.511  1.00  0.00     0.163 HD
BRANCH   6   8
ATOM      8  C   UNL A   1      41.604  20.902  26.627  1.00  0.00     0.039 A 
ATOM      9  C   UNL A   1      41.551  21.188  27.994  1.00  0.00     0.014 A 
ATOM     10  C   UNL A   1      42.065  21.871  25.731  1.00  0.00     0.014 A 
ATOM     11  C   UNL A   1      41.825  22.477  28.447  1.00  0.00     0.010 A 
ATOM     12  C   UNL A   1      42.416  23.142  26.196  1.00  0.00     0.010 A 
ATOM     13  C   UNL A   1      42.268  23.464  27.554  1.00  0.00    -0.014 A 
BRANCH  13  14
ATOM     14  C   UNL A   1      42.609  24.822  28.048  1.00  0.00     0.031 A 
ATOM     15  C   UNL A   1      44.022  25.169  28.421  1.00  0.00     0.074 A 
ATOM     16  C   UNL A   1      41.633  25.740  28.181  1.00  0.00     0.049 A 
ATOM     17  N   UNL A   1      44.494  26.278  28.932  1.00  0.00    -0.248 NA
ATOM     18  C   UNL A   1      45.038  24.130  28.198  1.00  0.00     0.031 C 
ATOM     19  C   UNL A   1      40.222  25.524  27.855  1.00  0.00     0.029 A 
ATOM     20  N   UNL A   1      41.677  27.034  28.633  1.00  0.00    -0.354 N 
ATOM     21  C   UNL A   1      45.855  26.064  29.114  1.00  0.00     0.074 A 
ATOM     22  C   UNL A   1      46.128  24.709  28.683  1.00  0.00     0.031 C 
ATOM     23  C   UNL A   1      39.538  26.650  28.104  1.00  0.00     0.029 A 
ATOM     24  C   UNL A   1      40.447  27.645  28.663  1.00  0.00     0.049 A 
ATOM     25  H   UNL A   1      42.508  27.483  28.909  1.00  0.00     0.167 HD
ATOM     26  C   UNL A   1      46.791  26.921  29.591  1.00  0.00     0.037 A 
ATOM     27  C   UNL A   1      40.084  28.859  29.116  1.00  0.00     0.037 A 
ATOM     28  C   UNL A   1      46.513  28.270  30.015  1.00  0.00     0.049 A 
ATOM     29  C   UNL A   1      41.129  29.777  29.679  1.00  0.00     0.074 A 
ATOM     30  C   UNL A   1      47.397  29.227  30.480  1.00  0.00     0.029 A 
ATOM     31  N   UNL A   1      45.251  28.849  30.036  1.00  0.00    -0.354 N 
ATOM     32  N   UNL A   1      42.418  29.575  29.813  1.00  0.00    -0.248 NA
ATOM     33  C   UNL A   1      40.672  31.089  30.155  1.00  0.00     0.031 C 
ATOM     34  C   UNL A   1      46.664  30.367  30.832  1.00  0.00     0.029 A 
ATOM     35  C   UNL A   1      45.331  30.141  30.531  1.00  0.00     0.049 A 
ATOM     36  H   UNL A   1      44.421  28.406  29.743  1.00  0.00     0.167 HD
ATOM     37  C   UNL A   1      42.931  30.744  30.360  1.00  0.00     0.074 A 
ATOM     38  C   UNL A   1      41.814  31.652  30.530  1.00  0.00     0.031 C 
ATOM     39  C   UNL A   1      44.213  31.038  30.685  1.00  0.00     0.037 A 
BRANCH  26  40
ATOM     40  C   UNL A   1      48.199  26.411  29.707  1.00  0.00     0.057 A 
ATOM     41  C   UNL A   1      48.660  25.750  30.853  1.00  0.00     0.134 A 
ATOM     42  C   UNL A   1      49.102  26.565  28.647  1.00  0.00     0.134 A 
ATOM     43  F   UNL A   1      47.851  25.577  31.910  1.00  0.00    -0.206 F 
ATOM     44  C   UNL A   1      49.975  25.292  30.954  1.00  0.00     0.040 A 
ATOM     45  C   UNL A   1      50.410  26.086  28.725  1.00  0.00     0.040 A 
ATOM     46  F   UNL A   1      48.726  27.180  27.515  1.00  0.00    -0.206 F 
ATOM     47  C   UNL A   1      50.854  25.456  29.885  1.00  0.00     0.006 A 
ENDBRANCH  26  40
BRANCH  27  48
ATOM     48  C   UNL A   1      38.658  29.263  29.053  1.00  0.00     0.057 A 
ATOM     49  C   UNL A   1      38.088  29.727  27.863  1.00  0.00     0.134 A 
ATOM     50  C   UNL A   1      37.823  29.162  30.174  1.00  0.00     0.134 A 
ATOM     51  F   UNL A   1      38.841  29.860  26.762  1.00  0.00    -0.206 F 
ATOM     52  C   UNL A   1      36.740  30.082  27.790  1.00  0.00     0.040 A 
ATOM     53  C   UNL A   1      36.468  29.489  30.108  1.00  0.00     0.040 A 
ATOM     54  F   UNL A   1      38.309  28.715  31.342  1.00  0.00    -0.206 F 
ATOM     55  C   UNL A   1      35.925  29.955  28.913  1.00  0.00     0.006 A 
ENDBRANCH  27  48
BRANCH  39  56
ATOM     56  C   UNL A   1      44.492  32.415  31.213  1.00  0.00     0.057 A 
ATOM     57  C   UNL A   1      44.765  33.496  30.367  1.00  0.00     0.134 A 
ATOM     58  C   UNL A   1      44.432  32.669  32.590  1.00  0.00     0.134 A 
ATOM     59  F   UNL A   1      44.851  33.317  29.040  1.00  0.00    -0.206 F 
ATOM     60  C   UNL A   1      44.984  34.779  30.873  1.00  0.00     0.040 A 
ATOM     61  C   UNL A   1      44.623  33.952  33.105  1.00  0.00     0.040 A 
ATOM     62  F   UNL A   1      44.169  31.679  33.455  1.00  0.00    -0.206 F 
ATOM     63  C   UNL A   1      44.903  35.012  32.244  1.00  0.00     0.006 A 
ENDBRANCH  39  56
ENDBRANCH  13  14
ENDBRANCH   6   8
ENDBRANCH   3   4
ENDBRANCH   2   3
ENDBRANCH   1   2
BRANCH   1  64
ATOM     64  N   UNL A   1      35.125  19.705  25.041  1.00  0.00    -0.354 N 
ATOM     65  C   UNL A   1      33.951  20.269  25.444  1.00  0.00     0.243 C 
ATOM     66  H   UNL A   1      35.111  18.723  24.969  1.00  0.00     0.163 HD
ATOM     67  O   UNL A   1      32.984  19.514  25.583  1.00  0.00    -0.273 OA
BRANCH  65  68
ATOM     68  C   UNL A   1      33.820  21.795  25.621  1.00  0.00     0.185 C 
ATOM     69  C   UNL A   1      33.321  22.076  27.044  1.00  0.00     0.106 C 
ATOM     70  N   UNL A   1      32.836  22.278  24.642  1.00  0.00    -0.318 N 
ATOM     71  S   UNL A   1      31.745  22.956  26.894  1.00  0.00    -0.138 SA
ATOM     72  C   UNL A   1      31.507  22.477  25.175  1.00  0.00     0.190 C 
BRANCH  70  73
ATOM     73  C   UNL A   1      33.184  22.432  23.316  1.00  0.00     0.261 C 
ATOM     74  O   UNL A   1      32.504  21.948  22.409  1.00  0.00    -0.271 OA
BRANCH  73  75
ATOM     75  C   UNL A   1      34.432  23.257  22.977  1.00  0.00     0.329 C 
BRANCH  75  76
ATOM     76  O   UNL A   1      34.220  24.637  22.706  1.00  0.00    -0.482 OA
BRANCH  76  77
ATOM     77  C   UNL A   1      33.604  25.343  23.707  1.00  0.00     0.138 A 
ATOM     78  C   UNL A   1      34.204  25.540  24.954  1.00  0.00     0.049 A 
ATOM     79  C   UNL A   1      32.394  25.992  23.425  1.00  0.00     0.084 A 
ATOM     80  C   UNL A   1      33.600  26.359  25.910  1.00  0.00     0.024 A 
ATOM     81  C   UNL A   1      31.783  26.808  24.381  1.00  0.00     0.045 A 
ATOM     82  Cl  UNL A   1      31.613  25.798  21.896  1.00  0.00    -0.080 Cl
ATOM     83  C   UNL A   1      32.394  26.989  25.620  1.00  0.00     0.042 A 
ATOM     84  Cl  UNL A   1      31.666  28.014  26.794  1.00  0.00    -0.084 Cl
ENDBRANCH  76  77
ENDBRANCH  75  76
ENDBRANCH  73  75
ENDBRANCH  70  73
ENDBRANCH  65  68
ENDBRANCH   1  64
TORSDOF 14
ENDMDL
MODEL 3
REMARK VINA RESULT:     -11.2      5.243     10.081
REMARK SMILES O=C(NCCCNC(=O)[C@@H]1CSCN1C(=O)COc1ccc(Cl)cc1Cl)c1ccc(-c2c3nc(c(-c4c(F)cccc4F)c4ccc([nH]4)c(-c4c(F)cccc4F)c4nc(c(-c5c(F)cccc5F)c5ccc2[nH]5)C=C4)C=C3)cc1
REMARK SMILES IDX 6 1 5 2 4 3 3 4 1 5 2 6 27 8 28 9 80 10 29 11 79 12 30 13
REMARK SMILES IDX 31 14 32 15 73 16 33 17 78 18 72 19 74 20 34 21 77 22 71 23
REMARK SMILES IDX 70 24 35 26 61 27 44 28 60 29 45 30 48 31 59 32 75 33 46 34
REMARK SMILES IDX 47 35 58 37 76 38 49 39 36 40 37 41 42 42 38 43 39 44 41 45
REMARK SMILES IDX 43 46 40 47 62 48 63 49 68 50 64 51 65 52 67 53 69 54 66 55
REMARK SMILES IDX 50 56 51 57 56 58 52 59 53 60 55 61 57 62 54 63 7 64 8 65
REMARK SMILES IDX 9 67 10 68 11 69 14 70 12 71 13 72 15 73 16 74 17 75 18 76
REMARK SMILES IDX 19 77 20 78 25 79 21 80 24 81 26 82 22 83 23 84
REMARK H PARENT 3 7 74 25 48 36 7 66
REMARK Flexibility Score: inf
ROOT
ATOM      1  C   UNL A   1      36.602  20.480  24.855  1.00  0.00     0.117 C 
ENDROOT
BRANCH   1   2
ATOM      2  C   UNL A   1      37.768  19.505  24.946  1.00  0.00     0.042 C 
BRANCH   2   3
ATOM      3  C   UNL A   1      38.953  20.028  25.751  1.00  0.00     0.118 C 
BRANCH   3   4
ATOM      4  N   UNL A   1      40.064  19.088  25.798  1.00  0.00    -0.352 N 
ATOM      5  O   UNL A   1      42.192  18.364  25.811  1.00  0.00    -0.269 OA
ATOM      6  C   UNL A   1      41.405  19.297  25.989  1.00  0.00     0.251 C 
ATOM      7  H   UNL A   1      39.811  18.145  25.673  1.00  0.00     0.163 HD
BRANCH   6   8
ATOM      8  C   UNL A   1      41.928  20.623  26.380  1.00  0.00     0.039 A 
ATOM      9  C   UNL A   1      42.198  20.935  27.715  1.00  0.00     0.014 A 
ATOM     10  C   UNL A   1      42.206  21.557  25.377  1.00  0.00     0.014 A 
ATOM     11  C   UNL A   1      42.613  22.220  28.059  1.00  0.00     0.010 A 
ATOM     12  C   UNL A   1      42.697  22.820  25.717  1.00  0.00     0.010 A 
ATOM     13  C   UNL A   1      42.874  23.173  27.063  1.00  0.00    -0.014 A 
BRANCH  13  14
ATOM     14  C   UNL A   1      43.366  24.524  27.431  1.00  0.00     0.031 A 
ATOM     15  C   UNL A   1      42.408  25.593  27.879  1.00  0.00     0.074 A 
ATOM     16  C   UNL A   1      44.681  24.797  27.338  1.00  0.00     0.049 A 
ATOM     17  N   UNL A   1      42.647  26.846  28.174  1.00  0.00    -0.248 NA
ATOM     18  C   UNL A   1      40.996  25.203  28.004  1.00  0.00     0.031 C 
ATOM     19  C   UNL A   1      45.711  23.846  26.913  1.00  0.00     0.029 A 
ATOM     20  N   UNL A   1      45.377  25.952  27.587  1.00  0.00    -0.354 N 
ATOM     21  C   UNL A   1      41.414  27.400  28.497  1.00  0.00     0.074 A 
ATOM     22  C   UNL A   1      40.427  26.353  28.336  1.00  0.00     0.031 C 
ATOM     23  C   UNL A   1      46.906  24.452  26.943  1.00  0.00     0.029 A 
ATOM     24  C   UNL A   1      46.722  25.846  27.331  1.00  0.00     0.049 A 
ATOM     25  H   UNL A   1      44.954  26.778  27.916  1.00  0.00     0.167 HD
ATOM     26  C   UNL A   1      41.134  28.665  28.897  1.00  0.00     0.037 A 
ATOM     27  C   UNL A   1      47.696  26.775  27.374  1.00  0.00     0.037 A 
ATOM     28  C   UNL A   1      42.121  29.701  29.059  1.00  0.00     0.049 A 
ATOM     29  C   UNL A   1      47.356  28.179  27.778  1.00  0.00     0.074 A 
ATOM     30  C   UNL A   1      41.942  31.003  29.493  1.00  0.00     0.029 A 
ATOM     31  N   UNL A   1      43.474  29.555  28.782  1.00  0.00    -0.354 N 
ATOM     32  N   UNL A   1      46.193  28.682  28.115  1.00  0.00    -0.248 NA
ATOM     33  C   UNL A   1      48.462  29.146  27.809  1.00  0.00     0.031 C 
ATOM     34  C   UNL A   1      43.176  31.660  29.428  1.00  0.00     0.029 A 
ATOM     35  C   UNL A   1      44.135  30.751  29.012  1.00  0.00     0.049 A 
ATOM     36  H   UNL A   1      43.900  28.725  28.469  1.00  0.00     0.167 HD
ATOM     37  C   UNL A   1      46.431  30.014  28.425  1.00  0.00     0.074 A 
ATOM     38  C   UNL A   1      47.850  30.240  28.241  1.00  0.00     0.031 C 
ATOM     39  C   UNL A   1      45.551  30.961  28.834  1.00  0.00     0.037 A 
BRANCH  26  40
ATOM     40  C   UNL A   1      39.693  29.003  29.157  1.00  0.00     0.057 A 
ATOM     41  C   UNL A   1      38.827  29.409  28.134  1.00  0.00     0.134 A 
ATOM     42  C   UNL A   1      39.159  28.899  30.448  1.00  0.00     0.134 A 
ATOM     43  F   UNL A   1      39.274  29.540  26.876  1.00  0.00    -0.206 F 
ATOM     44  C   UNL A   1      37.493  29.734  28.391  1.00  0.00     0.040 A 
ATOM     45  C   UNL A   1      37.821  29.193  30.713  1.00  0.00     0.040 A 
ATOM     46  F   UNL A   1      39.929  28.506  31.475  1.00  0.00    -0.206 F 
ATOM     47  C   UNL A   1      36.985  29.621  29.684  1.00  0.00     0.006 A 
ENDBRANCH  26  40
BRANCH  27  48
ATOM     48  C   UNL A   1      49.084  26.391  27.016  1.00  0.00     0.057 A 
ATOM     49  C   UNL A   1      49.565  26.548  25.712  1.00  0.00     0.134 A 
ATOM     50  C   UNL A   1      49.972  25.891  27.977  1.00  0.00     0.134 A 
ATOM     51  F   UNL A   1      48.757  27.007  24.746  1.00  0.00    -0.206 F 
ATOM     52  C   UNL A   1      50.878  26.216  25.374  1.00  0.00     0.040 A 
ATOM     53  C   UNL A   1      51.294  25.579  27.659  1.00  0.00     0.040 A 
ATOM     54  F   UNL A   1      49.572  25.727  29.247  1.00  0.00    -0.206 F 
ATOM     55  C   UNL A   1      51.748  25.738  26.352  1.00  0.00     0.006 A 
ENDBRANCH  27  48
BRANCH  39  56
ATOM     56  C   UNL A   1      46.100  32.319  29.157  1.00  0.00     0.057 A 
ATOM     57  C   UNL A   1      46.592  32.641  30.428  1.00  0.00     0.134 A 
ATOM     58  C   UNL A   1      46.187  33.302  28.161  1.00  0.00     0.134 A 
ATOM     59  F   UNL A   1      46.524  31.750  31.429  1.00  0.00    -0.206 F 
ATOM     60  C   UNL A   1      47.136  33.898  30.702  1.00  0.00     0.040 A 
ATOM     61  C   UNL A   1      46.753  34.552  28.416  1.00  0.00     0.040 A 
ATOM     62  F   UNL A   1      45.741  33.056  26.921  1.00  0.00    -0.206 F 
ATOM     63  C   UNL A   1      47.226  34.853  29.692  1.00  0.00     0.006 A 
ENDBRANCH  39  56
ENDBRANCH  13  14
ENDBRANCH   6   8
ENDBRANCH   3   4
ENDBRANCH   2   3
ENDBRANCH   1   2
BRANCH   1  64
ATOM     64  N   UNL A   1      35.316  19.820  25.004  1.00  0.00    -0.354 N 
ATOM     65  C   UNL A   1      34.083  20.346  25.249  1.00  0.00     0.243 C 
ATOM     66  H   UNL A   1      35.339  18.840  24.913  1.00  0.00     0.163 HD
ATOM     67  O   UNL A   1      33.127  19.565  25.238  1.00  0.00    -0.273 OA
BRANCH  65  68
ATOM     68  C   UNL A   1      33.887  21.865  25.434  1.00  0.00     0.185 C 
ATOM     69  C   UNL A   1      33.766  22.159  26.934  1.00  0.00     0.106 C 
ATOM     70  N   UNL A   1      32.643  22.244  24.748  1.00  0.00    -0.318 N 
ATOM     71  S   UNL A   1      32.144  22.920  27.201  1.00  0.00    -0.138 SA
ATOM     72  C   UNL A   1      31.493  22.367  25.616  1.00  0.00     0.190 C 
BRANCH  70  73
ATOM     73  C   UNL A   1      32.612  22.377  23.376  1.00  0.00     0.261 C 
ATOM     74  O   UNL A   1      32.154  21.490  22.651  1.00  0.00    -0.271 OA
BRANCH  73  75
ATOM     75  C   UNL A   1      33.132  23.679  22.753  1.00  0.00     0.329 C 
BRANCH  75  76
ATOM     76  O   UNL A   1      32.268  24.806  22.839  1.00  0.00    -0.482 OA
BRANCH  76  77
ATOM     77  C   UNL A   1      32.360  25.528  24.001  1.00  0.00     0.138 A 
ATOM     78  C   UNL A   1      33.584  25.765  24.633  1.00  0.00     0.049 A 
ATOM     79  C   UNL A   1      31.206  26.150  24.498  1.00  0.00     0.084 A 
ATOM     80  C   UNL A   1      33.654  26.599  25.751  1.00  0.00     0.024 A 
ATOM     81  C   UNL A   1      31.271  26.980  25.620  1.00  0.00     0.045 A 
ATOM     82  Cl  UNL A   1      29.668  25.905  23.750  1.00  0.00    -0.080 Cl
ATOM     83  C   UNL A   1      32.499  27.202  26.239  1.00  0.00     0.042 A 
ATOM     84  Cl  UNL A   1      32.597  28.245  27.603  1.00  0.00    -0.084 Cl
ENDBRANCH  76  77
ENDBRANCH  75  76
ENDBRANCH  73  75
ENDBRANCH  70  73
ENDBRANCH  65  68
ENDBRANCH   1  64
TORSDOF 14
ENDMDL
