MODEL 1
REMARK VINA RESULT:     -10.8      0.000      0.000
REMARK SMILES C[C@@H]1SC[C@H](C(=O)NCCCNC(=O)c2ccc(-c3c4nc(c(-c5c(F)cccc5F)c5ccc([nH]5)c(-c5c(F)cccc5F)c5nc(c(-c6c(F)cccc6F)c6ccc3[nH]6)C=C5)C=C4)cc2)N1C(=O)N(C)[C@@H](C)Cc1cccs1
REMARK SMILES IDX 6 1 7 2 8 3 5 5 1 6 2 7 3 8 69 9 4 10 70 11 71 12 72 13
REMARK SMILES IDX 73 14 74 15 75 16 76 17 77 18 78 19 81 20 79 21 80 22 9 23
REMARK SMILES IDX 10 24 11 25 12 26 13 27 14 29 15 30 16 31 68 32 17 33 67 34
REMARK SMILES IDX 18 35 19 36 20 37 61 38 21 39 66 40 60 41 62 42 22 43 65 44
REMARK SMILES IDX 59 45 58 46 23 48 49 49 32 50 48 51 33 52 36 53 47 54 63 55
REMARK SMILES IDX 34 56 35 57 46 59 64 60 37 61 24 62 25 63 30 64 26 65 27 66
REMARK SMILES IDX 29 67 31 68 28 69 50 70 51 71 56 72 52 73 53 74 55 75 57 76
REMARK SMILES IDX 54 77 38 78 39 79 44 80 40 81 41 82 43 83 45 84 42 85
REMARK H PARENT 8 4 12 28 62 47 36 58
REMARK Flexibility Score: inf
ROOT
ATOM      1  C   UNL A   1      35.694  22.355  25.631  1.00  0.00     0.243 C 
ATOM      2  O   UNL A   1      35.553  23.301  26.416  1.00  0.00    -0.273 OA
ATOM      3  N   UNL A   1      36.974  21.986  25.357  1.00  0.00    -0.354 N 
ATOM      4  H   UNL A   1      37.657  22.404  25.930  1.00  0.00     0.163 HD
ENDROOT
BRANCH   1   5
ATOM      5  C   UNL A   1      34.483  21.812  24.843  1.00  0.00     0.187 C 
ATOM      6  C   UNL A   1      31.098  23.111  24.601  1.00  0.00     0.043 C 
ATOM      7  C   UNL A   1      32.197  22.204  24.042  1.00  0.00     0.142 C 
ATOM      8  S   UNL A   1      32.154  20.644  24.997  1.00  0.00    -0.135 SA
ATOM      9  N   UNL A   1      33.565  22.732  24.118  1.00  0.00    -0.300 N 
ATOM     10  C   UNL A   1      33.682  21.005  25.857  1.00  0.00     0.107 C 
BRANCH   9  11
ATOM     11  C   UNL A   1      34.201  23.667  23.322  1.00  0.00     0.321 C 
ATOM     12  O   UNL A   1      35.329  23.396  22.894  1.00  0.00    -0.248 OA
BRANCH  11  13
ATOM     13  N   UNL A   1      33.689  24.920  23.061  1.00  0.00    -0.325 N 
ATOM     14  C   UNL A   1      32.896  25.349  21.924  1.00  0.00     0.149 C 
BRANCH  13  15
ATOM     15  C   UNL A   1      34.027  26.024  24.009  1.00  0.00     0.088 C 
ATOM     16  C   UNL A   1      33.637  27.406  23.462  1.00  0.00     0.031 C 
BRANCH  15  17
ATOM     17  C   UNL A   1      33.501  25.820  25.455  1.00  0.00     0.071 C 
BRANCH  17  18
ATOM     18  C   UNL A   1      33.091  27.108  26.121  1.00  0.00     0.007 A 
ATOM     19  C   UNL A   1      33.886  28.139  26.586  1.00  0.00     0.015 A 
ATOM     20  S   UNL A   1      31.429  27.433  26.397  1.00  0.00    -0.149 S 
ATOM     21  C   UNL A   1      33.132  29.152  27.245  1.00  0.00     0.012 A 
ATOM     22  C   UNL A   1      31.781  28.898  27.201  1.00  0.00     0.065 A 
ENDBRANCH  17  18
ENDBRANCH  15  17
ENDBRANCH  13  15
ENDBRANCH  11  13
ENDBRANCH   9  11
ENDBRANCH   1   5
BRANCH   3  23
ATOM     23  C   UNL A   1      37.495  21.080  24.359  1.00  0.00     0.117 C 
BRANCH  23  24
ATOM     24  C   UNL A   1      38.048  19.816  25.001  1.00  0.00     0.042 C 
BRANCH  24  25
ATOM     25  C   UNL A   1      39.073  20.080  26.096  1.00  0.00     0.118 C 
BRANCH  25  26
ATOM     26  N   UNL A   1      40.230  19.200  26.003  1.00  0.00    -0.352 N 
ATOM     27  C   UNL A   1      41.566  19.499  26.081  1.00  0.00     0.251 C 
ATOM     28  H   UNL A   1      40.021  18.248  25.861  1.00  0.00     0.163 HD
ATOM     29  O   UNL A   1      42.404  18.652  25.773  1.00  0.00    -0.269 OA
BRANCH  27  30
ATOM     30  C   UNL A   1      42.003  20.842  26.514  1.00  0.00     0.039 A 
ATOM     31  C   UNL A   1      42.317  21.798  25.544  1.00  0.00     0.014 A 
ATOM     32  C   UNL A   1      42.107  21.159  27.870  1.00  0.00     0.014 A 
ATOM     33  C   UNL A   1      42.670  23.090  25.936  1.00  0.00     0.010 A 
ATOM     34  C   UNL A   1      42.367  22.470  28.257  1.00  0.00     0.010 A 
ATOM     35  C   UNL A   1      42.659  23.448  27.295  1.00  0.00    -0.014 A 
BRANCH  35  36
ATOM     36  C   UNL A   1      42.960  24.834  27.730  1.00  0.00     0.031 A 
ATOM     37  C   UNL A   1      44.386  25.273  27.921  1.00  0.00     0.074 A 
ATOM     38  C   UNL A   1      41.951  25.677  28.019  1.00  0.00     0.049 A 
ATOM     39  N   UNL A   1      44.850  26.418  28.354  1.00  0.00    -0.248 NA
ATOM     40  C   UNL A   1      45.431  24.283  27.609  1.00  0.00     0.031 C 
ATOM     41  C   UNL A   1      40.525  25.358  27.919  1.00  0.00     0.029 A 
ATOM     42  N   UNL A   1      41.969  26.976  28.460  1.00  0.00    -0.354 N 
ATOM     43  C   UNL A   1      46.232  26.279  28.382  1.00  0.00     0.074 A 
ATOM     44  C   UNL A   1      46.529  24.922  27.981  1.00  0.00     0.031 C 
ATOM     45  C   UNL A   1      39.808  26.442  28.256  1.00  0.00     0.029 A 
ATOM     46  C   UNL A   1      40.718  27.516  28.637  1.00  0.00     0.049 A 
ATOM     47  H   UNL A   1      42.800  27.474  28.635  1.00  0.00     0.167 HD
ATOM     48  C   UNL A   1      47.171  27.206  28.689  1.00  0.00     0.037 A 
ATOM     49  C   UNL A   1      40.348  28.738  29.063  1.00  0.00     0.037 A 
ATOM     50  C   UNL A   1      46.872  28.561  29.068  1.00  0.00     0.049 A 
ATOM     51  C   UNL A   1      41.409  29.743  29.420  1.00  0.00     0.074 A 
ATOM     52  C   UNL A   1      47.752  29.595  29.340  1.00  0.00     0.029 A 
ATOM     53  N   UNL A   1      45.593  29.070  29.235  1.00  0.00    -0.354 N 
ATOM     54  N   UNL A   1      42.713  29.623  29.372  1.00  0.00    -0.248 NA
ATOM     55  C   UNL A   1      40.944  31.056  29.889  1.00  0.00     0.031 C 
ATOM     56  C   UNL A   1      47.004  30.715  29.720  1.00  0.00     0.029 A 
ATOM     57  C   UNL A   1      45.659  30.396  29.633  1.00  0.00     0.049 A 
ATOM     58  H   UNL A   1      44.760  28.565  29.091  1.00  0.00     0.167 HD
ATOM     59  C   UNL A   1      43.225  30.850  29.770  1.00  0.00     0.074 A 
ATOM     60  C   UNL A   1      42.088  31.706  30.045  1.00  0.00     0.031 C 
ATOM     61  C   UNL A   1      44.518  31.237  29.894  1.00  0.00     0.037 A 
BRANCH  48  62
ATOM     62  C   UNL A   1      48.610  26.776  28.630  1.00  0.00     0.057 A 
ATOM     63  C   UNL A   1      49.392  26.965  27.482  1.00  0.00     0.134 A 
ATOM     64  C   UNL A   1      49.225  26.179  29.737  1.00  0.00     0.134 A 
ATOM     65  F   UNL A   1      48.863  27.521  26.382  1.00  0.00    -0.206 F 
ATOM     66  C   UNL A   1      50.722  26.544  27.427  1.00  0.00     0.040 A 
ATOM     67  C   UNL A   1      50.563  25.782  29.704  1.00  0.00     0.040 A 
ATOM     68  F   UNL A   1      48.538  25.974  30.871  1.00  0.00    -0.206 F 
ATOM     69  C   UNL A   1      51.312  25.955  28.542  1.00  0.00     0.006 A 
ENDBRANCH  48  62
BRANCH  49  70
ATOM     70  C   UNL A   1      38.909  29.095  29.146  1.00  0.00     0.057 A 
ATOM     71  C   UNL A   1      38.219  29.562  28.019  1.00  0.00     0.134 A 
ATOM     72  C   UNL A   1      38.192  28.989  30.342  1.00  0.00     0.134 A 
ATOM     73  F   UNL A   1      38.857  29.702  26.848  1.00  0.00    -0.206 F 
ATOM     74  C   UNL A   1      36.875  29.930  28.085  1.00  0.00     0.040 A 
ATOM     75  C   UNL A   1      36.840  29.329  30.417  1.00  0.00     0.040 A 
ATOM     76  F   UNL A   1      38.792  28.540  31.454  1.00  0.00    -0.206 F 
ATOM     77  C   UNL A   1      36.179  29.809  29.286  1.00  0.00     0.006 A 
ENDBRANCH  49  70
BRANCH  61  78
ATOM     78  C   UNL A   1      44.774  32.657  30.307  1.00  0.00     0.057 A 
ATOM     79  C   UNL A   1      44.954  33.020  31.647  1.00  0.00     0.134 A 
ATOM     80  C   UNL A   1      44.875  33.669  29.344  1.00  0.00     0.134 A 
ATOM     81  F   UNL A   1      44.856  32.101  32.620  1.00  0.00    -0.206 F 
ATOM     82  C   UNL A   1      45.203  34.343  32.017  1.00  0.00     0.040 A 
ATOM     83  C   UNL A   1      45.151  34.990  29.699  1.00  0.00     0.040 A 
ATOM     84  F   UNL A   1      44.720  33.389  28.041  1.00  0.00    -0.206 F 
ATOM     85  C   UNL A   1      45.309  35.331  31.040  1.00  0.00     0.006 A 
ENDBRANCH  61  78
ENDBRANCH  35  36
ENDBRANCH  27  30
ENDBRANCH  25  26
ENDBRANCH  24  25
ENDBRANCH  23  24
ENDBRANCH   3  23
TORSDOF 15
ENDMDL
MODEL 2
REMARK VINA RESULT:     -10.8      4.665      9.303
REMARK SMILES C[C@@H]1SC[C@H](C(=O)NCCCNC(=O)c2ccc(-c3c4nc(c(-c5c(F)cccc5F)c5ccc([nH]5)c(-c5c(F)cccc5F)c5nc(c(-c6c(F)cccc6F)c6ccc3[nH]6)C=C5)C=C4)cc2)N1C(=O)N(C)[C@@H](C)Cc1cccs1
REMARK SMILES IDX 6 1 7 2 8 3 5 5 1 6 2 7 3 8 69 9 4 10 70 11 71 12 72 13
REMARK SMILES IDX 73 14 74 15 75 16 76 17 77 18 78 19 81 20 79 21 80 22 9 23
REMARK SMILES IDX 10 24 11 25 12 26 13 27 14 29 15 30 16 31 68 32 17 33 67 34
REMARK SMILES IDX 18 35 19 36 20 37 61 38 21 39 66 40 60 41 62 42 22 43 65 44
REMARK SMILES IDX 59 45 58 46 23 48 49 49 32 50 48 51 33 52 36 53 47 54 63 55
REMARK SMILES IDX 34 56 35 57 46 59 64 60 37 61 24 62 25 63 30 64 26 65 27 66
REMARK SMILES IDX 29 67 31 68 28 69 50 70 51 71 56 72 52 73 53 74 55 75 57 76
REMARK SMILES IDX 54 77 38 78 39 79 44 80 40 81 41 82 43 83 45 84 42 85
REMARK H PARENT 8 4 12 28 62 47 36 58
REMARK Flexibility Score: inf
ROOT
ATOM      1  C   UNL A   1      31.890  29.294  24.443  1.00  0.00     0.243 C 
ATOM      2  O   UNL A   1      32.682  29.097  23.512  1.00  0.00    -0.273 OA
ATOM      3  N   UNL A   1      32.281  30.190  25.387  1.00  0.00    -0.354 N 
ATOM      4  H   UNL A   1      33.085  30.710  25.156  1.00  0.00     0.163 HD
ENDROOT
BRANCH   1   5
ATOM      5  C   UNL A   1      30.656  28.382  24.618  1.00  0.00     0.187 C 
ATOM      6  C   UNL A   1      30.176  24.912  23.655  1.00  0.00     0.043 C 
ATOM      7  C   UNL A   1      29.729  26.113  24.491  1.00  0.00     0.142 C 
ATOM      8  S   UNL A   1      28.684  27.164  23.418  1.00  0.00    -0.135 SA
ATOM      9  N   UNL A   1      30.805  26.959  25.025  1.00  0.00    -0.300 N 
ATOM     10  C   UNL A   1      29.926  28.445  23.281  1.00  0.00     0.107 C 
BRANCH   9  11
ATOM     11  C   UNL A   1      31.636  26.757  26.112  1.00  0.00     0.321 C 
ATOM     12  O   UNL A   1      31.192  27.012  27.238  1.00  0.00    -0.248 OA
BRANCH  11  13
ATOM     13  N   UNL A   1      32.958  26.383  26.002  1.00  0.00    -0.325 N 
ATOM     14  C   UNL A   1      34.143  27.201  26.185  1.00  0.00     0.149 C 
BRANCH  13  15
ATOM     15  C   UNL A   1      33.253  24.983  25.573  1.00  0.00     0.088 C 
ATOM     16  C   UNL A   1      34.749  24.758  25.297  1.00  0.00     0.031 C 
BRANCH  15  17
ATOM     17  C   UNL A   1      32.681  23.884  26.507  1.00  0.00     0.071 C 
BRANCH  17  18
ATOM     18  C   UNL A   1      32.773  22.500  25.918  1.00  0.00     0.007 A 
ATOM     19  C   UNL A   1      32.205  22.009  24.757  1.00  0.00     0.015 A 
ATOM     20  S   UNL A   1      33.677  21.289  26.728  1.00  0.00    -0.149 S 
ATOM     21  C   UNL A   1      32.443  20.615  24.583  1.00  0.00     0.012 A 
ATOM     22  C   UNL A   1      33.244  20.103  25.578  1.00  0.00     0.065 A 
ENDBRANCH  17  18
ENDBRANCH  15  17
ENDBRANCH  13  15
ENDBRANCH  11  13
ENDBRANCH   9  11
ENDBRANCH   1   5
BRANCH   3  23
ATOM     23  C   UNL A   1      31.709  30.502  26.678  1.00  0.00     0.117 C 
BRANCH  23  24
ATOM     24  C   UNL A   1      31.491  32.000  26.832  1.00  0.00     0.042 C 
BRANCH  24  25
ATOM     25  C   UNL A   1      32.757  32.774  27.174  1.00  0.00     0.118 C 
BRANCH  25  26
ATOM     26  N   UNL A   1      32.479  34.135  27.611  1.00  0.00    -0.352 N 
ATOM     27  C   UNL A   1      33.058  34.868  28.615  1.00  0.00     0.251 C 
ATOM     28  H   UNL A   1      31.768  34.598  27.111  1.00  0.00     0.163 HD
ATOM     29  O   UNL A   1      32.549  35.930  28.973  1.00  0.00    -0.269 OA
BRANCH  27  30
ATOM     30  C   UNL A   1      34.279  34.376  29.285  1.00  0.00     0.039 A 
ATOM     31  C   UNL A   1      34.157  33.672  30.486  1.00  0.00     0.014 A 
ATOM     32  C   UNL A   1      35.542  34.609  28.735  1.00  0.00     0.014 A 
ATOM     33  C   UNL A   1      35.295  33.146  31.098  1.00  0.00     0.010 A 
ATOM     34  C   UNL A   1      36.663  34.006  29.294  1.00  0.00     0.010 A 
ATOM     35  C   UNL A   1      36.554  33.274  30.486  1.00  0.00    -0.014 A 
BRANCH  35  36
ATOM     36  C   UNL A   1      37.768  32.661  31.081  1.00  0.00     0.031 A 
ATOM     37  C   UNL A   1      38.382  31.440  30.453  1.00  0.00     0.074 A 
ATOM     38  C   UNL A   1      38.277  33.162  32.222  1.00  0.00     0.049 A 
ATOM     39  N   UNL A   1      39.402  30.725  30.858  1.00  0.00    -0.248 NA
ATOM     40  C   UNL A   1      37.750  30.939  29.222  1.00  0.00     0.031 C 
ATOM     41  C   UNL A   1      37.746  34.314  32.953  1.00  0.00     0.029 A 
ATOM     42  N   UNL A   1      39.355  32.763  32.971  1.00  0.00    -0.354 N 
ATOM     43  C   UNL A   1      39.520  29.686  29.943  1.00  0.00     0.074 A 
ATOM     44  C   UNL A   1      38.434  29.828  28.998  1.00  0.00     0.031 C 
ATOM     45  C   UNL A   1      38.519  34.548  34.027  1.00  0.00     0.029 A 
ATOM     46  C   UNL A   1      39.571  33.540  34.084  1.00  0.00     0.049 A 
ATOM     47  H   UNL A   1      39.919  31.992  32.735  1.00  0.00     0.167 HD
ATOM     48  C   UNL A   1      40.464  28.716  29.880  1.00  0.00     0.037 A 
ATOM     49  C   UNL A   1      40.510  33.446  35.044  1.00  0.00     0.037 A 
ATOM     50  C   UNL A   1      41.554  28.590  30.809  1.00  0.00     0.049 A 
ATOM     51  C   UNL A   1      41.533  32.346  34.964  1.00  0.00     0.074 A 
ATOM     52  C   UNL A   1      42.597  27.680  30.798  1.00  0.00     0.029 A 
ATOM     53  N   UNL A   1      41.740  29.397  31.922  1.00  0.00    -0.354 N 
ATOM     54  N   UNL A   1      41.678  31.415  34.054  1.00  0.00    -0.248 NA
ATOM     55  C   UNL A   1      42.526  32.288  36.046  1.00  0.00     0.031 C 
ATOM     56  C   UNL A   1      43.385  27.906  31.932  1.00  0.00     0.029 A 
ATOM     57  C   UNL A   1      42.865  28.990  32.620  1.00  0.00     0.049 A 
ATOM     58  H   UNL A   1      41.159  30.150  32.178  1.00  0.00     0.167 HD
ATOM     59  C   UNL A   1      42.795  30.681  34.433  1.00  0.00     0.074 A 
ATOM     60  C   UNL A   1      43.296  31.285  35.650  1.00  0.00     0.031 C 
ATOM     61  C   UNL A   1      43.357  29.606  33.827  1.00  0.00     0.037 A 
BRANCH  48  62
ATOM     62  C   UNL A   1      40.349  27.714  28.766  1.00  0.00     0.057 A 
ATOM     63  C   UNL A   1      39.575  26.551  28.892  1.00  0.00     0.134 A 
ATOM     64  C   UNL A   1      41.007  27.919  27.548  1.00  0.00     0.134 A 
ATOM     65  F   UNL A   1      38.927  26.286  30.036  1.00  0.00    -0.206 F 
ATOM     66  C   UNL A   1      39.490  25.614  27.861  1.00  0.00     0.040 A 
ATOM     67  C   UNL A   1      40.904  27.005  26.498  1.00  0.00     0.040 A 
ATOM     68  F   UNL A   1      41.759  29.013  27.355  1.00  0.00    -0.206 F 
ATOM     69  C   UNL A   1      40.152  25.843  26.657  1.00  0.00     0.006 A 
ENDBRANCH  48  62
BRANCH  49  70
ATOM     70  C   UNL A   1      40.550  34.438  36.147  1.00  0.00     0.057 A 
ATOM     71  C   UNL A   1      39.799  34.247  37.314  1.00  0.00     0.134 A 
ATOM     72  C   UNL A   1      41.328  35.599  36.065  1.00  0.00     0.134 A 
ATOM     73  F   UNL A   1      39.021  33.162  37.444  1.00  0.00    -0.206 F 
ATOM     74  C   UNL A   1      39.803  35.183  38.349  1.00  0.00     0.040 A 
ATOM     75  C   UNL A   1      41.362  36.531  37.104  1.00  0.00     0.040 A 
ATOM     76  F   UNL A   1      42.077  35.837  34.979  1.00  0.00    -0.206 F 
ATOM     77  C   UNL A   1      40.590  36.327  38.248  1.00  0.00     0.006 A 
ENDBRANCH  49  70
BRANCH  61  78
ATOM     78  C   UNL A   1      44.600  29.040  34.448  1.00  0.00     0.057 A 
ATOM     79  C   UNL A   1      45.876  29.513  34.118  1.00  0.00     0.134 A 
ATOM     80  C   UNL A   1      44.514  28.030  35.415  1.00  0.00     0.134 A 
ATOM     81  F   UNL A   1      46.029  30.469  33.189  1.00  0.00    -0.206 F 
ATOM     82  C   UNL A   1      47.025  28.985  34.711  1.00  0.00     0.040 A 
ATOM     83  C   UNL A   1      45.653  27.515  36.035  1.00  0.00     0.040 A 
ATOM     84  F   UNL A   1      43.322  27.537  35.782  1.00  0.00    -0.206 F 
ATOM     85  C   UNL A   1      46.913  27.988  35.678  1.00  0.00     0.006 A 
ENDBRANCH  61  78
ENDBRANCH  35  36
ENDBRANCH  27  30
ENDBRANCH  25  26
ENDBRANCH  24  25
ENDBRANCH  23  24
ENDBRANCH   3  23
TORSDOF 15
ENDMDL
MODEL 3
REMARK VINA RESULT:     -10.7      4.149      9.229
REMARK SMILES C[C@@H]1SC[C@H](C(=O)NCCCNC(=O)c2ccc(-c3c4nc(c(-c5c(F)cccc5F)c5ccc([nH]5)c(-c5c(F)cccc5F)c5nc(c(-c6c(F)cccc6F)c6ccc3[nH]6)C=C5)C=C4)cc2)N1C(=O)N(C)[C@@H](C)Cc1cccs1
REMARK SMILES IDX 6 1 7 2 8 3 5 5 1 6 2 7 3 8 69 9 4 10 70 11 71 12 72 13
REMARK SMILES IDX 73 14 74 15 75 16 76 17 77 18 78 19 81 20 79 21 80 22 9 23
REMARK SMILES IDX 10 24 11 25 12 26 13 27 14 29 15 30 16 31 68 32 17 33 67 34
REMARK SMILES IDX 18 35 19 36 20 37 61 38 21 39 66 40 60 41 62 42 22 43 65 44
REMARK SMILES IDX 59 45 58 46 23 48 49 49 32 50 48 51 33 52 36 53 47 54 63 55
REMARK SMILES IDX 34 56 35 57 46 59 64 60 37 61 24 62 25 63 30 64 26 65 27 66
REMARK SMILES IDX 29 67 31 68 28 69 50 70 51 71 56 72 52 73 53 74 55 75 57 76
REMARK SMILES IDX 54 77 38 78 39 79 44 80 40 81 41 82 43 83 45 84 42 85
REMARK H PARENT 8 4 12 28 62 47 36 58
REMARK Flexibility Score: inf
ROOT
ATOM      1  C   UNL A   1      31.700  29.278  24.322  1.00  0.00     0.243 C 
ATOM      2  O   UNL A   1      32.497  29.077  23.396  1.00  0.00    -0.273 OA
ATOM      3  N   UNL A   1      32.021  30.278  25.186  1.00  0.00    -0.354 N 
ATOM      4  H   UNL A   1      32.773  30.846  24.900  1.00  0.00     0.163 HD
ENDROOT
BRANCH   1   5
ATOM      5  C   UNL A   1      30.554  28.279  24.591  1.00  0.00     0.187 C 
ATOM      6  C   UNL A   1      30.269  24.771  23.685  1.00  0.00     0.043 C 
ATOM      7  C   UNL A   1      29.794  25.946  24.545  1.00  0.00     0.142 C 
ATOM      8  S   UNL A   1      28.599  26.903  23.545  1.00  0.00    -0.135 SA
ATOM      9  N   UNL A   1      30.839  26.875  24.994  1.00  0.00    -0.300 N 
ATOM     10  C   UNL A   1      29.728  28.272  23.311  1.00  0.00     0.107 C 
BRANCH   9  11
ATOM     11  C   UNL A   1      31.759  26.748  26.020  1.00  0.00     0.321 C 
ATOM     12  O   UNL A   1      31.354  26.874  27.182  1.00  0.00    -0.248 OA
BRANCH  11  13
ATOM     13  N   UNL A   1      33.112  26.586  25.814  1.00  0.00    -0.325 N 
ATOM     14  C   UNL A   1      34.198  27.437  26.263  1.00  0.00     0.149 C 
BRANCH  13  15
ATOM     15  C   UNL A   1      33.557  25.439  24.967  1.00  0.00     0.088 C 
ATOM     16  C   UNL A   1      34.049  25.890  23.583  1.00  0.00     0.031 C 
BRANCH  15  17
ATOM     17  C   UNL A   1      34.578  24.489  25.647  1.00  0.00     0.071 C 
BRANCH  17  18
ATOM     18  C   UNL A   1      34.366  23.040  25.289  1.00  0.00     0.007 A 
ATOM     19  C   UNL A   1      33.468  22.486  24.397  1.00  0.00     0.015 A 
ATOM     20  S   UNL A   1      35.317  21.829  26.046  1.00  0.00    -0.149 S 
ATOM     21  C   UNL A   1      33.503  21.062  24.402  1.00  0.00     0.012 A 
ATOM     22  C   UNL A   1      34.476  20.576  25.246  1.00  0.00     0.065 A 
ENDBRANCH  17  18
ENDBRANCH  15  17
ENDBRANCH  13  15
ENDBRANCH  11  13
ENDBRANCH   9  11
ENDBRANCH   1   5
BRANCH   3  23
ATOM     23  C   UNL A   1      31.437  30.642  26.457  1.00  0.00     0.117 C 
BRANCH  23  24
ATOM     24  C   UNL A   1      31.392  32.153  26.627  1.00  0.00     0.042 C 
BRANCH  24  25
ATOM     25  C   UNL A   1      32.682  32.750  27.173  1.00  0.00     0.118 C 
BRANCH  25  26
ATOM     26  N   UNL A   1      32.491  34.084  27.724  1.00  0.00    -0.352 N 
ATOM     27  C   UNL A   1      33.173  34.724  28.728  1.00  0.00     0.251 C 
ATOM     28  H   UNL A   1      31.761  34.605  27.316  1.00  0.00     0.163 HD
ATOM     29  O   UNL A   1      32.735  35.773  29.198  1.00  0.00    -0.269 OA
BRANCH  27  30
ATOM     30  C   UNL A   1      34.423  34.144  29.262  1.00  0.00     0.039 A 
ATOM     31  C   UNL A   1      34.371  33.385  30.434  1.00  0.00     0.014 A 
ATOM     32  C   UNL A   1      35.643  34.351  28.615  1.00  0.00     0.014 A 
ATOM     33  C   UNL A   1      35.531  32.778  30.917  1.00  0.00     0.010 A 
ATOM     34  C   UNL A   1      36.778  33.672  29.043  1.00  0.00     0.010 A 
ATOM     35  C   UNL A   1      36.737  32.884  30.203  1.00  0.00    -0.014 A 
BRANCH  35  36
ATOM     36  C   UNL A   1      37.967  32.188  30.658  1.00  0.00     0.031 A 
ATOM     37  C   UNL A   1      38.792  32.767  31.774  1.00  0.00     0.074 A 
ATOM     38  C   UNL A   1      38.377  31.074  30.023  1.00  0.00     0.049 A 
ATOM     39  N   UNL A   1      39.927  32.343  32.270  1.00  0.00    -0.248 NA
ATOM     40  C   UNL A   1      38.289  34.002  32.398  1.00  0.00     0.031 C 
ATOM     41  C   UNL A   1      37.690  30.439  28.896  1.00  0.00     0.029 A 
ATOM     42  N   UNL A   1      39.475  30.279  30.231  1.00  0.00    -0.354 N 
ATOM     43  C   UNL A   1      40.279  33.265  33.248  1.00  0.00     0.074 A 
ATOM     44  C   UNL A   1      39.271  34.302  33.235  1.00  0.00     0.031 C 
ATOM     45  C   UNL A   1      38.365  29.335  28.536  1.00  0.00     0.029 A 
ATOM     46  C   UNL A   1      39.552  29.209  29.373  1.00  0.00     0.049 A 
ATOM     47  H   UNL A   1      40.147  30.459  30.929  1.00  0.00     0.167 HD
ATOM     48  C   UNL A   1      41.333  33.238  34.098  1.00  0.00     0.037 A 
ATOM     49  C   UNL A   1      40.478  28.237  29.272  1.00  0.00     0.037 A 
ATOM     50  C   UNL A   1      42.323  32.195  34.123  1.00  0.00     0.049 A 
ATOM     51  C   UNL A   1      41.652  28.241  30.213  1.00  0.00     0.074 A 
ATOM     52  C   UNL A   1      43.395  32.043  34.985  1.00  0.00     0.029 A 
ATOM     53  N   UNL A   1      42.366  31.127  33.239  1.00  0.00    -0.354 N 
ATOM     54  N   UNL A   1      41.933  29.078  31.182  1.00  0.00    -0.248 NA
ATOM     55  C   UNL A   1      42.635  27.161  30.047  1.00  0.00     0.031 C 
ATOM     56  C   UNL A   1      44.115  30.909  34.590  1.00  0.00     0.029 A 
ATOM     57  C   UNL A   1      43.461  30.325  33.517  1.00  0.00     0.049 A 
ATOM     58  H   UNL A   1      41.713  30.961  32.521  1.00  0.00     0.167 HD
ATOM     59  C   UNL A   1      43.105  28.610  31.762  1.00  0.00     0.074 A 
ATOM     60  C   UNL A   1      43.474  27.407  31.043  1.00  0.00     0.031 C 
ATOM     61  C   UNL A   1      43.811  29.126  32.798  1.00  0.00     0.037 A 
BRANCH  48  62
ATOM     62  C   UNL A   1      41.466  34.378  35.069  1.00  0.00     0.057 A 
ATOM     63  C   UNL A   1      42.205  35.529  34.764  1.00  0.00     0.134 A 
ATOM     64  C   UNL A   1      40.835  34.331  36.318  1.00  0.00     0.134 A 
ATOM     65  F   UNL A   1      42.845  35.635  33.590  1.00  0.00    -0.206 F 
ATOM     66  C   UNL A   1      42.341  36.575  35.679  1.00  0.00     0.040 A 
ATOM     67  C   UNL A   1      40.938  35.384  37.229  1.00  0.00     0.040 A 
ATOM     68  F   UNL A   1      40.104  33.263  36.674  1.00  0.00    -0.206 F 
ATOM     69  C   UNL A   1      41.702  36.505  36.914  1.00  0.00     0.006 A 
ENDBRANCH  48  62
BRANCH  49  70
ATOM     70  C   UNL A   1      40.321  27.158  28.264  1.00  0.00     0.057 A 
ATOM     71  C   UNL A   1      39.570  26.011  28.551  1.00  0.00     0.134 A 
ATOM     72  C   UNL A   1      40.917  27.239  27.001  1.00  0.00     0.134 A 
ATOM     73  F   UNL A   1      38.989  25.868  29.751  1.00  0.00    -0.206 F 
ATOM     74  C   UNL A   1      39.436  24.974  27.627  1.00  0.00     0.040 A 
ATOM     75  C   UNL A   1      40.768  26.222  26.056  1.00  0.00     0.040 A 
ATOM     76  F   UNL A   1      41.640  28.315  26.661  1.00  0.00    -0.206 F 
ATOM     77  C   UNL A   1      40.032  25.080  26.372  1.00  0.00     0.006 A 
ENDBRANCH  49  70
BRANCH  61  78
ATOM     78  C   UNL A   1      45.030  28.371  33.243  1.00  0.00     0.057 A 
ATOM     79  C   UNL A   1      46.305  28.662  32.746  1.00  0.00     0.134 A 
ATOM     80  C   UNL A   1      44.926  27.362  34.209  1.00  0.00     0.134 A 
ATOM     81  F   UNL A   1      46.471  29.608  31.808  1.00  0.00    -0.206 F 
ATOM     82  C   UNL A   1      47.433  27.960  33.176  1.00  0.00     0.040 A 
ATOM     83  C   UNL A   1      46.049  26.673  34.667  1.00  0.00     0.040 A 
ATOM     84  F   UNL A   1      43.734  27.038  34.732  1.00  0.00    -0.206 F 
ATOM     85  C   UNL A   1      47.306  26.967  34.145  1.00  0.00     0.006 A 
ENDBRANCH  61  78
ENDBRANCH  35  36
ENDBRANCH  27  30
ENDBRANCH  25  26
ENDBRANCH  24  25
ENDBRANCH  23  24
ENDBRANCH   3  23
TORSDOF 15
ENDMDL
