MODEL 1
REMARK VINA RESULT:     -10.3      0.000      0.000
REMARK SMILES O=C(CNC(=O)CNC(=O)OCc1ccccc1)NCCCNC(=O)c1ccc(-c2c3nc(c(-c4c(F)cccc4F)c4ccc([nH]4)c(-c4c(F)cccc4F)c4nc(c(-c5c(F)cccc5F)c5ccc2[nH]5)C=C4)C=C3)cc1
REMARK SMILES IDX 1 1 2 2 19 3 3 5 4 6 5 7 6 9 7 10 8 11 9 12 10 14 11 15
REMARK SMILES IDX 12 16 13 17 14 18 18 19 15 20 17 21 16 22 20 23 21 24 22 25
REMARK SMILES IDX 23 26 24 27 25 29 26 30 27 31 79 32 28 33 78 34 29 35 30 36
REMARK SMILES IDX 31 37 72 38 32 39 77 40 71 41 73 42 33 43 76 44 70 45 69 46
REMARK SMILES IDX 34 48 60 49 43 50 59 51 44 52 47 53 58 54 74 55 45 56 46 57
REMARK SMILES IDX 57 59 75 60 48 61 35 62 36 63 41 64 37 65 38 66 40 67 42 68
REMARK SMILES IDX 39 69 61 70 62 71 67 72 63 73 64 74 66 75 68 76 65 77 49 78
REMARK SMILES IDX 50 79 55 80 51 81 52 82 54 83 56 84 53 85
REMARK H PARENT 19 4 4 8 8 13 23 28 73 47 47 58
REMARK Flexibility Score: inf
ROOT
ATOM      1  O   UNL A   1      41.643  18.612  25.752  1.00  0.00    -0.273 OA
ATOM      2  C   UNL A   1      42.576  19.117  26.371  1.00  0.00     0.239 C 
ATOM      3  N   UNL A   1      42.406  20.103  27.320  1.00  0.00    -0.355 N 
ATOM      4  H   UNL A   1      43.180  20.372  27.866  1.00  0.00     0.163 HD
ENDROOT
BRANCH   2   5
ATOM      5  C   UNL A   1      44.013  18.603  26.213  1.00  0.00     0.216 C 
BRANCH   5   6
ATOM      6  N   UNL A   1      44.389  18.318  24.833  1.00  0.00    -0.346 N 
ATOM      7  C   UNL A   1      45.177  19.026  23.975  1.00  0.00     0.239 C 
ATOM      8  H   UNL A   1      44.014  17.486  24.463  1.00  0.00     0.164 HD
ATOM      9  O   UNL A   1      45.388  18.555  22.856  1.00  0.00    -0.273 OA
BRANCH   7  10
ATOM     10  C   UNL A   1      45.763  20.373  24.391  1.00  0.00     0.219 C 
BRANCH  10  11
ATOM     11  N   UNL A   1      44.973  21.442  23.810  1.00  0.00    -0.312 N 
ATOM     12  C   UNL A   1      44.176  22.311  24.486  1.00  0.00     0.407 C 
ATOM     13  H   UNL A   1      45.019  21.549  22.831  1.00  0.00     0.167 HD
ATOM     14  O   UNL A   1      43.400  23.050  23.889  1.00  0.00    -0.225 OA
BRANCH  12  15
ATOM     15  O   UNL A   1      44.320  22.221  25.826  1.00  0.00    -0.445 OA
BRANCH  15  16
ATOM     16  C   UNL A   1      45.256  23.136  26.416  1.00  0.00     0.270 C 
BRANCH  16  17
ATOM     17  C   UNL A   1      44.758  23.716  27.715  1.00  0.00    -0.011 A 
ATOM     18  C   UNL A   1      45.100  25.019  28.105  1.00  0.00     0.007 A 
ATOM     19  C   UNL A   1      43.938  22.947  28.552  1.00  0.00     0.007 A 
ATOM     20  C   UNL A   1      44.607  25.549  29.298  1.00  0.00     0.000 A 
ATOM     21  C   UNL A   1      43.448  23.478  29.744  1.00  0.00     0.000 A 
ATOM     22  C   UNL A   1      43.778  24.780  30.114  1.00  0.00     0.000 A 
ENDBRANCH  16  17
ENDBRANCH  15  16
ENDBRANCH  12  15
ENDBRANCH  10  11
ENDBRANCH   7  10
ENDBRANCH   5   6
ENDBRANCH   2   5
BRANCH   3  23
ATOM     23  C   UNL A   1      41.132  20.758  27.546  1.00  0.00     0.117 C 
BRANCH  23  24
ATOM     24  C   UNL A   1      40.761  21.775  26.471  1.00  0.00     0.042 C 
BRANCH  24  25
ATOM     25  C   UNL A   1      40.870  23.235  26.900  1.00  0.00     0.118 C 
BRANCH  25  26
ATOM     26  N   UNL A   1      41.521  24.085  25.912  1.00  0.00    -0.352 N 
ATOM     27  C   UNL A   1      41.834  25.420  25.936  1.00  0.00     0.251 C 
ATOM     28  H   UNL A   1      41.782  23.620  25.084  1.00  0.00     0.163 HD
ATOM     29  O   UNL A   1      42.308  25.936  24.925  1.00  0.00    -0.269 OA
BRANCH  27  30
ATOM     30  C   UNL A   1      41.594  26.260  27.133  1.00  0.00     0.039 A 
ATOM     31  C   UNL A   1      42.306  27.460  27.252  1.00  0.00     0.014 A 
ATOM     32  C   UNL A   1      40.730  25.871  28.160  1.00  0.00     0.014 A 
ATOM     33  C   UNL A   1      42.114  28.287  28.362  1.00  0.00     0.010 A 
ATOM     34  C   UNL A   1      40.480  26.733  29.228  1.00  0.00     0.010 A 
ATOM     35  C   UNL A   1      41.175  27.945  29.348  1.00  0.00    -0.014 A 
BRANCH  35  36
ATOM     36  C   UNL A   1      40.929  28.835  30.515  1.00  0.00     0.031 A 
ATOM     37  C   UNL A   1      39.828  29.862  30.469  1.00  0.00     0.074 A 
ATOM     38  C   UNL A   1      41.719  28.752  31.602  1.00  0.00     0.049 A 
ATOM     39  N   UNL A   1      39.491  30.756  31.364  1.00  0.00    -0.248 NA
ATOM     40  C   UNL A   1      39.013  29.905  29.245  1.00  0.00     0.031 C 
ATOM     41  C   UNL A   1      42.844  27.828  31.763  1.00  0.00     0.029 A 
ATOM     42  N   UNL A   1      41.704  29.461  32.778  1.00  0.00    -0.354 N 
ATOM     43  C   UNL A   1      38.439  31.473  30.809  1.00  0.00     0.074 A 
ATOM     44  C   UNL A   1      38.228  30.947  29.477  1.00  0.00     0.031 C 
ATOM     45  C   UNL A   1      43.394  28.010  32.973  1.00  0.00     0.029 A 
ATOM     46  C   UNL A   1      42.690  29.090  33.660  1.00  0.00     0.049 A 
ATOM     47  H   UNL A   1      41.047  30.169  32.971  1.00  0.00     0.167 HD
ATOM     48  C   UNL A   1      37.697  32.463  31.363  1.00  0.00     0.037 A 
ATOM     49  C   UNL A   1      42.998  29.568  34.881  1.00  0.00     0.037 A 
ATOM     50  C   UNL A   1      37.894  32.975  32.694  1.00  0.00     0.049 A 
ATOM     51  C   UNL A   1      42.172  30.680  35.467  1.00  0.00     0.074 A 
ATOM     52  C   UNL A   1      37.162  33.940  33.363  1.00  0.00     0.029 A 
ATOM     53  N   UNL A   1      38.898  32.564  33.558  1.00  0.00    -0.354 N 
ATOM     54  N   UNL A   1      41.139  31.303  34.955  1.00  0.00    -0.248 NA
ATOM     55  C   UNL A   1      42.550  31.150  36.807  1.00  0.00     0.031 C 
ATOM     56  C   UNL A   1      37.754  34.153  34.612  1.00  0.00     0.029 A 
ATOM     57  C   UNL A   1      38.819  33.275  34.745  1.00  0.00     0.049 A 
ATOM     58  H   UNL A   1      39.568  31.870  33.359  1.00  0.00     0.167 HD
ATOM     59  C   UNL A   1      40.724  32.212  35.921  1.00  0.00     0.074 A 
ATOM     60  C   UNL A   1      41.609  32.050  37.054  1.00  0.00     0.031 C 
ATOM     61  C   UNL A   1      39.699  33.098  35.873  1.00  0.00     0.037 A 
BRANCH  48  62
ATOM     62  C   UNL A   1      36.601  33.059  30.526  1.00  0.00     0.057 A 
ATOM     63  C   UNL A   1      36.865  33.998  29.519  1.00  0.00     0.134 A 
ATOM     64  C   UNL A   1      35.269  32.666  30.705  1.00  0.00     0.134 A 
ATOM     65  F   UNL A   1      38.117  34.427  29.301  1.00  0.00    -0.206 F 
ATOM     66  C   UNL A   1      35.842  34.547  28.744  1.00  0.00     0.040 A 
ATOM     67  C   UNL A   1      34.241  33.184  29.915  1.00  0.00     0.040 A 
ATOM     68  F   UNL A   1      34.944  31.763  31.643  1.00  0.00    -0.206 F 
ATOM     69  C   UNL A   1      34.525  34.133  28.937  1.00  0.00     0.006 A 
ENDBRANCH  48  62
BRANCH  49  70
ATOM     70  C   UNL A   1      44.130  28.984  35.646  1.00  0.00     0.057 A 
ATOM     71  C   UNL A   1      45.435  29.462  35.485  1.00  0.00     0.134 A 
ATOM     72  C   UNL A   1      43.939  27.925  36.542  1.00  0.00     0.134 A 
ATOM     73  F   UNL A   1      45.687  30.462  34.627  1.00  0.00    -0.206 F 
ATOM     74  C   UNL A   1      46.512  28.895  36.166  1.00  0.00     0.040 A 
ATOM     75  C   UNL A   1      45.002  27.366  37.252  1.00  0.00     0.040 A 
ATOM     76  F   UNL A   1      42.711  27.424  36.747  1.00  0.00    -0.206 F 
ATOM     77  C   UNL A   1      46.296  27.846  37.058  1.00  0.00     0.006 A 
ENDBRANCH  49  70
BRANCH  61  78
ATOM     78  C   UNL A   1      39.447  33.929  37.099  1.00  0.00     0.057 A 
ATOM     79  C   UNL A   1      39.953  35.228  37.235  1.00  0.00     0.134 A 
ATOM     80  C   UNL A   1      38.656  33.432  38.143  1.00  0.00     0.134 A 
ATOM     81  F   UNL A   1      40.729  35.759  36.278  1.00  0.00    -0.206 F 
ATOM     82  C   UNL A   1      39.703  35.992  38.376  1.00  0.00     0.040 A 
ATOM     83  C   UNL A   1      38.373  34.198  39.274  1.00  0.00     0.040 A 
ATOM     84  F   UNL A   1      38.131  32.200  38.073  1.00  0.00    -0.206 F 
ATOM     85  C   UNL A   1      38.904  35.480  39.397  1.00  0.00     0.006 A 
ENDBRANCH  61  78
ENDBRANCH  35  36
ENDBRANCH  27  30
ENDBRANCH  25  26
ENDBRANCH  24  25
ENDBRANCH  23  24
ENDBRANCH   3  23
TORSDOF 16
ENDMDL
MODEL 2
REMARK VINA RESULT:     -10.2      0.713      6.346
REMARK SMILES O=C(CNC(=O)CNC(=O)OCc1ccccc1)NCCCNC(=O)c1ccc(-c2c3nc(c(-c4c(F)cccc4F)c4ccc([nH]4)c(-c4c(F)cccc4F)c4nc(c(-c5c(F)cccc5F)c5ccc2[nH]5)C=C4)C=C3)cc1
REMARK SMILES IDX 1 1 2 2 19 3 3 5 4 6 5 7 6 9 7 10 8 11 9 12 10 14 11 15
REMARK SMILES IDX 12 16 13 17 14 18 18 19 15 20 17 21 16 22 20 23 21 24 22 25
REMARK SMILES IDX 23 26 24 27 25 29 26 30 27 31 79 32 28 33 78 34 29 35 30 36
REMARK SMILES IDX 31 37 72 38 32 39 77 40 71 41 73 42 33 43 76 44 70 45 69 46
REMARK SMILES IDX 34 48 60 49 43 50 59 51 44 52 47 53 58 54 74 55 45 56 46 57
REMARK SMILES IDX 57 59 75 60 48 61 35 62 36 63 41 64 37 65 38 66 40 67 42 68
REMARK SMILES IDX 39 69 61 70 62 71 67 72 63 73 64 74 66 75 68 76 65 77 49 78
REMARK SMILES IDX 50 79 55 80 51 81 52 82 54 83 56 84 53 85
REMARK H PARENT 19 4 4 8 8 13 23 28 73 47 47 58
REMARK Flexibility Score: inf
ROOT
ATOM      1  O   UNL A   1      41.577  18.447  25.758  1.00  0.00    -0.273 OA
ATOM      2  C   UNL A   1      42.498  18.974  26.376  1.00  0.00     0.239 C 
ATOM      3  N   UNL A   1      42.306  19.955  27.326  1.00  0.00    -0.355 N 
ATOM      4  H   UNL A   1      43.075  20.243  27.870  1.00  0.00     0.163 HD
ENDROOT
BRANCH   2   5
ATOM      5  C   UNL A   1      43.948  18.497  26.213  1.00  0.00     0.216 C 
BRANCH   5   6
ATOM      6  N   UNL A   1      44.401  18.450  24.827  1.00  0.00    -0.346 N 
ATOM      7  C   UNL A   1      45.457  19.070  24.229  1.00  0.00     0.239 C 
ATOM      8  H   UNL A   1      43.859  17.884  24.231  1.00  0.00     0.164 HD
ATOM      9  O   UNL A   1      45.669  18.839  23.038  1.00  0.00    -0.273 OA
BRANCH   7  10
ATOM     10  C   UNL A   1      46.338  20.037  25.017  1.00  0.00     0.219 C 
BRANCH  10  11
ATOM     11  N   UNL A   1      46.534  21.249  24.244  1.00  0.00    -0.312 N 
ATOM     12  C   UNL A   1      46.264  22.517  24.654  1.00  0.00     0.407 C 
ATOM     13  H   UNL A   1      46.899  21.143  23.335  1.00  0.00     0.167 HD
ATOM     14  O   UNL A   1      46.279  23.453  23.861  1.00  0.00    -0.225 OA
BRANCH  12  15
ATOM     15  O   UNL A   1      45.955  22.588  25.967  1.00  0.00    -0.445 OA
BRANCH  15  16
ATOM     16  C   UNL A   1      45.815  23.912  26.504  1.00  0.00     0.270 C 
BRANCH  16  17
ATOM     17  C   UNL A   1      45.122  23.924  27.842  1.00  0.00    -0.011 A 
ATOM     18  C   UNL A   1      45.414  24.904  28.801  1.00  0.00     0.007 A 
ATOM     19  C   UNL A   1      44.167  22.942  28.140  1.00  0.00     0.007 A 
ATOM     20  C   UNL A   1      44.742  24.916  30.024  1.00  0.00     0.000 A 
ATOM     21  C   UNL A   1      43.497  22.954  29.363  1.00  0.00     0.000 A 
ATOM     22  C   UNL A   1      43.782  23.944  30.303  1.00  0.00     0.000 A 
ENDBRANCH  16  17
ENDBRANCH  15  16
ENDBRANCH  12  15
ENDBRANCH  10  11
ENDBRANCH   7  10
ENDBRANCH   5   6
ENDBRANCH   2   5
BRANCH   3  23
ATOM     23  C   UNL A   1      41.017  20.577  27.556  1.00  0.00     0.117 C 
BRANCH  23  24
ATOM     24  C   UNL A   1      40.546  21.464  26.408  1.00  0.00     0.042 C 
BRANCH  24  25
ATOM     25  C   UNL A   1      40.636  22.964  26.673  1.00  0.00     0.118 C 
BRANCH  25  26
ATOM     26  N   UNL A   1      41.599  23.649  25.821  1.00  0.00    -0.352 N 
ATOM     27  C   UNL A   1      42.157  24.899  25.912  1.00  0.00     0.251 C 
ATOM     28  H   UNL A   1      41.902  23.123  25.045  1.00  0.00     0.163 HD
ATOM     29  O   UNL A   1      42.887  25.289  25.003  1.00  0.00    -0.269 OA
BRANCH  27  30
ATOM     30  C   UNL A   1      41.885  25.797  27.059  1.00  0.00     0.039 A 
ATOM     31  C   UNL A   1      42.634  26.975  27.168  1.00  0.00     0.014 A 
ATOM     32  C   UNL A   1      40.954  25.482  28.051  1.00  0.00     0.014 A 
ATOM     33  C   UNL A   1      42.413  27.854  28.232  1.00  0.00     0.010 A 
ATOM     34  C   UNL A   1      40.679  26.397  29.069  1.00  0.00     0.010 A 
ATOM     35  C   UNL A   1      41.412  27.588  29.178  1.00  0.00    -0.014 A 
BRANCH  35  36
ATOM     36  C   UNL A   1      41.136  28.535  30.292  1.00  0.00     0.031 A 
ATOM     37  C   UNL A   1      41.940  28.468  31.564  1.00  0.00     0.074 A 
ATOM     38  C   UNL A   1      40.136  29.431  30.180  1.00  0.00     0.049 A 
ATOM     39  N   UNL A   1      41.817  29.174  32.659  1.00  0.00    -0.248 NA
ATOM     40  C   UNL A   1      43.007  27.456  31.620  1.00  0.00     0.031 C 
ATOM     41  C   UNL A   1      39.257  29.578  29.018  1.00  0.00     0.029 A 
ATOM     42  N   UNL A   1      39.684  30.383  31.059  1.00  0.00    -0.354 N 
ATOM     43  C   UNL A   1      42.778  28.686  33.536  1.00  0.00     0.074 A 
ATOM     44  C   UNL A   1      43.439  27.586  32.866  1.00  0.00     0.031 C 
ATOM     45  C   UNL A   1      38.390  30.576  29.247  1.00  0.00     0.029 A 
ATOM     46  C   UNL A   1      38.621  31.113  30.585  1.00  0.00     0.049 A 
ATOM     47  H   UNL A   1      40.085  30.530  31.947  1.00  0.00     0.167 HD
ATOM     48  C   UNL A   1      43.100  29.125  34.777  1.00  0.00     0.037 A 
ATOM     49  C   UNL A   1      37.909  32.099  31.163  1.00  0.00     0.037 A 
ATOM     50  C   UNL A   1      42.455  30.231  35.438  1.00  0.00     0.049 A 
ATOM     51  C   UNL A   1      38.273  32.558  32.548  1.00  0.00     0.074 A 
ATOM     52  C   UNL A   1      42.744  30.783  36.673  1.00  0.00     0.029 A 
ATOM     53  N   UNL A   1      41.389  30.949  34.918  1.00  0.00    -0.354 N 
ATOM     54  N   UNL A   1      39.226  32.129  33.339  1.00  0.00    -0.248 NA
ATOM     55  C   UNL A   1      37.465  33.645  33.120  1.00  0.00     0.031 C 
ATOM     56  C   UNL A   1      41.820  31.802  36.925  1.00  0.00     0.029 A 
ATOM     57  C   UNL A   1      40.993  31.925  35.819  1.00  0.00     0.049 A 
ATOM     58  H   UNL A   1      40.974  30.791  34.039  1.00  0.00     0.167 HD
ATOM     59  C   UNL A   1      39.156  32.915  34.483  1.00  0.00     0.074 A 
ATOM     60  C   UNL A   1      38.073  33.854  34.278  1.00  0.00     0.031 C 
ATOM     61  C   UNL A   1      39.921  32.863  35.601  1.00  0.00     0.037 A 
BRANCH  48  62
ATOM     62  C   UNL A   1      44.202  28.407  35.503  1.00  0.00     0.057 A 
ATOM     63  C   UNL A   1      43.945  27.321  36.350  1.00  0.00     0.134 A 
ATOM     64  C   UNL A   1      45.539  28.784  35.327  1.00  0.00     0.134 A 
ATOM     65  F   UNL A   1      42.686  26.914  36.572  1.00  0.00    -0.206 F 
ATOM     66  C   UNL A   1      44.974  26.656  37.021  1.00  0.00     0.040 A 
ATOM     67  C   UNL A   1      46.579  28.108  35.967  1.00  0.00     0.040 A 
ATOM     68  F   UNL A   1      45.860  29.808  34.522  1.00  0.00    -0.206 F 
ATOM     69  C   UNL A   1      46.297  27.046  36.823  1.00  0.00     0.006 A 
ENDBRANCH  48  62
BRANCH  49  70
ATOM     70  C   UNL A   1      36.788  32.740  30.426  1.00  0.00     0.057 A 
ATOM     71  C   UNL A   1      37.028  33.691  29.428  1.00  0.00     0.134 A 
ATOM     72  C   UNL A   1      35.452  32.432  30.714  1.00  0.00     0.134 A 
ATOM     73  F   UNL A   1      38.285  34.044  29.120  1.00  0.00    -0.206 F 
ATOM     74  C   UNL A   1      35.984  34.330  28.759  1.00  0.00     0.040 A 
ATOM     75  C   UNL A   1      34.398  33.043  30.033  1.00  0.00     0.040 A 
ATOM     76  F   UNL A   1      35.154  31.525  31.655  1.00  0.00    -0.206 F 
ATOM     77  C   UNL A   1      34.663  34.002  29.058  1.00  0.00     0.006 A 
ENDBRANCH  49  70
BRANCH  61  78
ATOM     78  C   UNL A   1      39.649  33.881  36.671  1.00  0.00     0.057 A 
ATOM     79  C   UNL A   1      38.807  33.614  37.757  1.00  0.00     0.134 A 
ATOM     80  C   UNL A   1      40.270  35.137  36.630  1.00  0.00     0.134 A 
ATOM     81  F   UNL A   1      38.171  32.436  37.851  1.00  0.00    -0.206 F 
ATOM     82  C   UNL A   1      38.571  34.567  38.750  1.00  0.00     0.040 A 
ATOM     83  C   UNL A   1      40.066  36.087  37.632  1.00  0.00     0.040 A 
ATOM     84  F   UNL A   1      41.097  35.456  35.623  1.00  0.00    -0.206 F 
ATOM     85  C   UNL A   1      39.208  35.805  38.693  1.00  0.00     0.006 A 
ENDBRANCH  61  78
ENDBRANCH  35  36
ENDBRANCH  27  30
ENDBRANCH  25  26
ENDBRANCH  24  25
ENDBRANCH  23  24
ENDBRANCH   3  23
TORSDOF 16
ENDMDL
MODEL 3
REMARK VINA RESULT:     -10.1      4.928     11.851
REMARK SMILES O=C(CNC(=O)CNC(=O)OCc1ccccc1)NCCCNC(=O)c1ccc(-c2c3nc(c(-c4c(F)cccc4F)c4ccc([nH]4)c(-c4c(F)cccc4F)c4nc(c(-c5c(F)cccc5F)c5ccc2[nH]5)C=C4)C=C3)cc1
REMARK SMILES IDX 1 1 2 2 19 3 3 5 4 6 5 7 6 9 7 10 8 11 9 12 10 14 11 15
REMARK SMILES IDX 12 16 13 17 14 18 18 19 15 20 17 21 16 22 20 23 21 24 22 25
REMARK SMILES IDX 23 26 24 27 25 29 26 30 27 31 79 32 28 33 78 34 29 35 30 36
REMARK SMILES IDX 31 37 72 38 32 39 77 40 71 41 73 42 33 43 76 44 70 45 69 46
REMARK SMILES IDX 34 48 60 49 43 50 59 51 44 52 47 53 58 54 74 55 45 56 46 57
REMARK SMILES IDX 57 59 75 60 48 61 35 62 36 63 41 64 37 65 38 66 40 67 42 68
REMARK SMILES IDX 39 69 61 70 62 71 67 72 63 73 64 74 66 75 68 76 65 77 49 78
REMARK SMILES IDX 50 79 55 80 51 81 52 82 54 83 56 84 53 85
REMARK H PARENT 19 4 4 8 8 13 23 28 73 47 47 58
REMARK Flexibility Score: inf
ROOT
ATOM      1  O   UNL A   1      32.243  36.436  28.906  1.00  0.00    -0.273 OA
ATOM      2  C   UNL A   1      33.004  35.975  29.753  1.00  0.00     0.239 C 
ATOM      3  N   UNL A   1      34.190  35.346  29.440  1.00  0.00    -0.355 N 
ATOM      4  H   UNL A   1      34.809  35.114  30.170  1.00  0.00     0.163 HD
ENDROOT
BRANCH   2   5
ATOM      5  C   UNL A   1      32.740  36.165  31.253  1.00  0.00     0.216 C 
BRANCH   5   6
ATOM      6  N   UNL A   1      32.818  34.930  32.026  1.00  0.00    -0.346 N 
ATOM      7  C   UNL A   1      33.784  34.491  32.881  1.00  0.00     0.239 C 
ATOM      8  H   UNL A   1      32.055  34.318  31.911  1.00  0.00     0.164 HD
ATOM      9  O   UNL A   1      33.605  33.418  33.460  1.00  0.00    -0.273 OA
BRANCH   7  10
ATOM     10  C   UNL A   1      35.059  35.303  33.096  1.00  0.00     0.219 C 
BRANCH  10  11
ATOM     11  N   UNL A   1      36.052  34.911  32.113  1.00  0.00    -0.312 N 
ATOM     12  C   UNL A   1      37.198  34.222  32.358  1.00  0.00     0.407 C 
ATOM     13  H   UNL A   1      35.878  35.167  31.178  1.00  0.00     0.167 HD
ATOM     14  O   UNL A   1      38.063  34.110  31.496  1.00  0.00    -0.225 OA
BRANCH  12  15
ATOM     15  O   UNL A   1      37.262  33.745  33.620  1.00  0.00    -0.445 OA
BRANCH  15  16
ATOM     16  C   UNL A   1      36.942  32.354  33.778  1.00  0.00     0.270 C 
BRANCH  16  17
ATOM     17  C   UNL A   1      38.160  31.469  33.712  1.00  0.00    -0.011 A 
ATOM     18  C   UNL A   1      39.403  31.909  34.186  1.00  0.00     0.007 A 
ATOM     19  C   UNL A   1      38.055  30.180  33.170  1.00  0.00     0.007 A 
ATOM     20  C   UNL A   1      40.513  31.065  34.143  1.00  0.00     0.000 A 
ATOM     21  C   UNL A   1      39.165  29.339  33.126  1.00  0.00     0.000 A 
ATOM     22  C   UNL A   1      40.393  29.780  33.616  1.00  0.00     0.000 A 
ENDBRANCH  16  17
ENDBRANCH  15  16
ENDBRANCH  12  15
ENDBRANCH  10  11
ENDBRANCH   7  10
ENDBRANCH   5   6
ENDBRANCH   2   5
BRANCH   3  23
ATOM     23  C   UNL A   1      34.563  35.014  28.078  1.00  0.00     0.117 C 
BRANCH  23  24
ATOM     24  C   UNL A   1      35.121  33.603  27.917  1.00  0.00     0.042 C 
BRANCH  24  25
ATOM     25  C   UNL A   1      34.625  32.592  28.947  1.00  0.00     0.118 C 
BRANCH  25  26
ATOM     26  N   UNL A   1      34.013  31.410  28.353  1.00  0.00    -0.352 N 
ATOM     27  C   UNL A   1      34.554  30.207  27.977  1.00  0.00     0.251 C 
ATOM     28  H   UNL A   1      33.045  31.489  28.195  1.00  0.00     0.163 HD
ATOM     29  O   UNL A   1      33.837  29.389  27.404  1.00  0.00    -0.269 OA
BRANCH  27  30
ATOM     30  C   UNL A   1      35.979  29.878  28.220  1.00  0.00     0.039 A 
ATOM     31  C   UNL A   1      36.331  29.343  29.465  1.00  0.00     0.014 A 
ATOM     32  C   UNL A   1      36.977  30.132  27.275  1.00  0.00     0.014 A 
ATOM     33  C   UNL A   1      37.662  29.016  29.740  1.00  0.00     0.010 A 
ATOM     34  C   UNL A   1      38.291  29.733  27.521  1.00  0.00     0.010 A 
ATOM     35  C   UNL A   1      38.652  29.180  28.759  1.00  0.00    -0.014 A 
BRANCH  35  36
ATOM     36  C   UNL A   1      40.065  28.797  29.023  1.00  0.00     0.031 A 
ATOM     37  C   UNL A   1      40.997  29.756  29.715  1.00  0.00     0.074 A 
ATOM     38  C   UNL A   1      40.526  27.602  28.604  1.00  0.00     0.049 A 
ATOM     39  N   UNL A   1      42.270  29.621  29.990  1.00  0.00    -0.248 NA
ATOM     40  C   UNL A   1      40.427  31.047  30.133  1.00  0.00     0.031 C 
ATOM     41  C   UNL A   1      39.740  26.594  27.890  1.00  0.00     0.029 A 
ATOM     42  N   UNL A   1      41.772  27.035  28.712  1.00  0.00    -0.354 N 
ATOM     43  C   UNL A   1      42.655  30.810  30.598  1.00  0.00     0.074 A 
ATOM     44  C   UNL A   1      41.495  31.676  30.602  1.00  0.00     0.031 C 
ATOM     45  C   UNL A   1      40.514  25.526  27.645  1.00  0.00     0.029 A 
ATOM     46  C   UNL A   1      41.861  25.785  28.147  1.00  0.00     0.049 A 
ATOM     47  H   UNL A   1      42.530  27.482  29.154  1.00  0.00     0.167 HD
ATOM     48  C   UNL A   1      43.857  31.144  31.127  1.00  0.00     0.037 A 
ATOM     49  C   UNL A   1      42.908  24.946  28.039  1.00  0.00     0.037 A 
ATOM     50  C   UNL A   1      45.007  30.277  31.139  1.00  0.00     0.049 A 
ATOM     51  C   UNL A   1      44.238  25.348  28.617  1.00  0.00     0.074 A 
ATOM     52  C   UNL A   1      46.253  30.506  31.696  1.00  0.00     0.029 A 
ATOM     53  N   UNL A   1      45.052  29.016  30.565  1.00  0.00    -0.354 N 
ATOM     54  N   UNL A   1      44.569  26.448  29.247  1.00  0.00    -0.248 NA
ATOM     55  C   UNL A   1      45.339  24.384  28.477  1.00  0.00     0.031 C 
ATOM     56  C   UNL A   1      47.069  29.406  31.414  1.00  0.00     0.029 A 
ATOM     57  C   UNL A   1      46.312  28.465  30.733  1.00  0.00     0.049 A 
ATOM     58  H   UNL A   1      44.300  28.576  30.105  1.00  0.00     0.167 HD
ATOM     59  C   UNL A   1      45.902  26.296  29.607  1.00  0.00     0.074 A 
ATOM     60  C   UNL A   1      46.315  24.991  29.137  1.00  0.00     0.031 C 
ATOM     61  C   UNL A   1      46.710  27.159  30.271  1.00  0.00     0.037 A 
BRANCH  48  62
ATOM     62  C   UNL A   1      43.990  32.511  31.737  1.00  0.00     0.057 A 
ATOM     63  C   UNL A   1      43.880  32.719  33.119  1.00  0.00     0.134 A 
ATOM     64  C   UNL A   1      44.263  33.628  30.938  1.00  0.00     0.134 A 
ATOM     65  F   UNL A   1      43.609  31.694  33.941  1.00  0.00    -0.206 F 
ATOM     66  C   UNL A   1      44.006  33.991  33.680  1.00  0.00     0.040 A 
ATOM     67  C   UNL A   1      44.422  34.901  31.491  1.00  0.00     0.040 A 
ATOM     68  F   UNL A   1      44.390  33.502  29.609  1.00  0.00    -0.206 F 
ATOM     69  C   UNL A   1      44.286  35.086  32.864  1.00  0.00     0.006 A 
ENDBRANCH  48  62
BRANCH  49  70
ATOM     70  C   UNL A   1      42.742  23.628  27.372  1.00  0.00     0.057 A 
ATOM     71  C   UNL A   1      42.417  22.482  28.107  1.00  0.00     0.134 A 
ATOM     72  C   UNL A   1      42.923  23.478  25.992  1.00  0.00     0.134 A 
ATOM     73  F   UNL A   1      42.251  22.557  29.436  1.00  0.00    -0.206 F 
ATOM     74  C   UNL A   1      42.300  21.232  27.499  1.00  0.00     0.040 A 
ATOM     75  C   UNL A   1      42.781  22.239  25.366  1.00  0.00     0.040 A 
ATOM     76  F   UNL A   1      43.229  24.538  25.229  1.00  0.00    -0.206 F 
ATOM     77  C   UNL A   1      42.477  21.109  26.122  1.00  0.00     0.006 A 
ENDBRANCH  49  70
BRANCH  61  78
ATOM     78  C   UNL A   1      48.109  26.703  30.572  1.00  0.00     0.057 A 
ATOM     79  C   UNL A   1      48.410  25.909  31.686  1.00  0.00     0.134 A 
ATOM     80  C   UNL A   1      49.165  27.035  29.713  1.00  0.00     0.134 A 
ATOM     81  F   UNL A   1      47.447  25.565  32.556  1.00  0.00    -0.206 F 
ATOM     82  C   UNL A   1      49.713  25.484  31.948  1.00  0.00     0.040 A 
ATOM     83  C   UNL A   1      50.466  26.591  29.948  1.00  0.00     0.040 A 
ATOM     84  F   UNL A   1      48.945  27.784  28.622  1.00  0.00    -0.206 F 
ATOM     85  C   UNL A   1      50.745  25.819  31.073  1.00  0.00     0.006 A 
ENDBRANCH  61  78
ENDBRANCH  35  36
ENDBRANCH  27  30
ENDBRANCH  25  26
ENDBRANCH  24  25
ENDBRANCH  23  24
ENDBRANCH   3  23
TORSDOF 16
ENDMDL
