MODEL 1
REMARK VINA RESULT:     -10.6      0.000      0.000
REMARK SMILES CN(CC(N)=O)C(=O)c1csc(/C=C/C(=O)NCCCNC(=O)c2ccc(-c3c4nc(c(-c5c(F)cccc5F)c5ccc([nH]5)c(-c5c(F)cccc5F)c5nc(c(-c6c(F)cccc6F)c6ccc3[nH]6)C=C5)C=C4)cc2)c1
REMARK SMILES IDX 15 1 16 2 17 3 14 5 13 6 12 7 9 8 10 9 78 10 11 11 7 12 8 13
REMARK SMILES IDX 2 14 1 15 3 16 4 17 5 18 6 19 18 22 19 23 20 24 21 25 22 26
REMARK SMILES IDX 23 28 24 29 25 30 77 31 26 32 76 33 27 34 28 35 29 36 70 37
REMARK SMILES IDX 30 38 75 39 69 40 71 41 31 42 74 43 68 44 67 45 32 47 58 48
REMARK SMILES IDX 41 49 57 50 42 51 45 52 56 53 72 54 43 55 44 56 55 58 73 59
REMARK SMILES IDX 46 60 33 61 34 62 39 63 35 64 36 65 38 66 40 67 37 68 59 69
REMARK SMILES IDX 60 70 65 71 61 72 62 73 64 74 66 75 63 76 47 77 48 78 53 79
REMARK SMILES IDX 49 80 50 81 52 82 54 83 51 84
REMARK H PARENT 17 4 5 20 5 21 21 27 71 46 45 57
REMARK Flexibility Score: inf
ROOT
ATOM      1  C   UNL A   1      37.528  23.385  25.759  1.00  0.00     0.244 C 
ATOM      2  O   UNL A   1      38.137  24.164  26.483  1.00  0.00    -0.270 OA
ATOM      3  N   UNL A   1      38.105  22.223  25.342  1.00  0.00    -0.352 N 
ATOM      4  H   UNL A   1      39.057  22.121  25.571  1.00  0.00     0.163 HD
ENDROOT
BRANCH   1   5
ATOM      5  C   UNL A   1      36.135  23.669  25.369  1.00  0.00     0.072 C 
ATOM      6  C   UNL A   1      35.132  23.315  26.186  1.00  0.00     0.024 C 
BRANCH   6   7
ATOM      7  C   UNL A   1      33.756  23.555  25.896  1.00  0.00     0.028 A 
ATOM      8  C   UNL A   1      31.819  24.324  24.789  1.00  0.00     0.051 A 
ATOM      9  C   UNL A   1      31.279  23.721  25.907  1.00  0.00     0.079 A 
ATOM     10  C   UNL A   1      33.246  24.202  24.783  1.00  0.00     0.033 A 
ATOM     11  S   UNL A   1      32.475  23.093  26.949  1.00  0.00    -0.144 S 
BRANCH   8  12
ATOM     12  C   UNL A   1      31.017  24.933  23.734  1.00  0.00     0.254 C 
ATOM     13  O   UNL A   1      30.202  24.255  23.116  1.00  0.00    -0.269 OA
BRANCH  12  14
ATOM     14  N   UNL A   1      31.250  26.278  23.460  1.00  0.00    -0.332 N 
ATOM     15  C   UNL A   1      31.256  27.228  24.559  1.00  0.00     0.147 C 
BRANCH  14  16
ATOM     16  C   UNL A   1      31.479  26.820  22.119  1.00  0.00     0.219 C 
BRANCH  16  17
ATOM     17  C   UNL A   1      32.553  26.054  21.340  1.00  0.00     0.237 C 
ATOM     18  N   UNL A   1      32.147  25.526  20.147  1.00  0.00    -0.368 N 
ATOM     19  O   UNL A   1      33.716  25.929  21.709  1.00  0.00    -0.273 OA
ATOM     20  H   UNL A   1      31.212  25.629  19.856  1.00  0.00     0.159 HD
ATOM     21  H   UNL A   1      32.790  25.045  19.579  1.00  0.00     0.159 HD
ENDBRANCH  16  17
ENDBRANCH  14  16
ENDBRANCH  12  14
ENDBRANCH   8  12
ENDBRANCH   6   7
ENDBRANCH   1   5
BRANCH   3  22
ATOM     22  C   UNL A   1      37.520  21.114  24.606  1.00  0.00     0.118 C 
BRANCH  22  23
ATOM     23  C   UNL A   1      38.191  19.778  24.926  1.00  0.00     0.042 C 
BRANCH  23  24
ATOM     24  C   UNL A   1      39.163  19.829  26.105  1.00  0.00     0.118 C 
BRANCH  24  25
ATOM     25  N   UNL A   1      40.422  19.160  25.815  1.00  0.00    -0.352 N 
ATOM     26  C   UNL A   1      41.706  19.634  25.900  1.00  0.00     0.251 C 
ATOM     27  H   UNL A   1      40.339  18.228  25.513  1.00  0.00     0.163 HD
ATOM     28  O   UNL A   1      42.631  18.953  25.464  1.00  0.00    -0.269 OA
BRANCH  26  29
ATOM     29  C   UNL A   1      41.999  20.958  26.496  1.00  0.00     0.039 A 
ATOM     30  C   UNL A   1      42.403  21.993  25.644  1.00  0.00     0.014 A 
ATOM     31  C   UNL A   1      41.964  21.166  27.879  1.00  0.00     0.014 A 
ATOM     32  C   UNL A   1      42.739  23.243  26.170  1.00  0.00     0.010 A 
ATOM     33  C   UNL A   1      42.280  22.423  28.402  1.00  0.00     0.010 A 
ATOM     34  C   UNL A   1      42.674  23.467  27.552  1.00  0.00    -0.014 A 
BRANCH  34  35
ATOM     35  C   UNL A   1      43.043  24.784  28.123  1.00  0.00     0.031 A 
ATOM     36  C   UNL A   1      41.985  25.810  28.405  1.00  0.00     0.074 A 
ATOM     37  C   UNL A   1      44.336  25.073  28.359  1.00  0.00     0.049 A 
ATOM     38  N   UNL A   1      42.121  27.042  28.825  1.00  0.00    -0.248 NA
ATOM     39  C   UNL A   1      40.591  25.400  28.174  1.00  0.00     0.031 C 
ATOM     40  C   UNL A   1      45.463  24.171  28.124  1.00  0.00     0.029 A 
ATOM     41  N   UNL A   1      44.917  26.216  28.846  1.00  0.00    -0.354 N 
ATOM     42  C   UNL A   1      40.838  27.566  28.878  1.00  0.00     0.074 A 
ATOM     43  C   UNL A   1      39.933  26.516  28.456  1.00  0.00     0.031 C 
ATOM     44  C   UNL A   1      46.601  24.793  28.473  1.00  0.00     0.029 A 
ATOM     45  C   UNL A   1      46.283  26.142  28.937  1.00  0.00     0.049 A 
ATOM     46  H   UNL A   1      44.401  27.015  29.103  1.00  0.00     0.167 HD
ATOM     47  C   UNL A   1      40.446  28.809  29.245  1.00  0.00     0.037 A 
ATOM     48  C   UNL A   1      47.179  27.058  29.346  1.00  0.00     0.037 A 
ATOM     49  C   UNL A   1      41.327  29.848  29.704  1.00  0.00     0.049 A 
ATOM     50  C   UNL A   1      46.717  28.415  29.786  1.00  0.00     0.074 A 
ATOM     51  C   UNL A   1      41.009  31.128  30.126  1.00  0.00     0.029 A 
ATOM     52  N   UNL A   1      42.702  29.721  29.811  1.00  0.00    -0.354 N 
ATOM     53  N   UNL A   1      45.500  28.896  29.829  1.00  0.00    -0.248 NA
ATOM     54  C   UNL A   1      47.755  29.357  30.228  1.00  0.00     0.031 C 
ATOM     55  C   UNL A   1      42.197  31.778  30.487  1.00  0.00     0.029 A 
ATOM     56  C   UNL A   1      43.248  30.898  30.292  1.00  0.00     0.049 A 
ATOM     57  H   UNL A   1      43.214  28.913  29.579  1.00  0.00     0.167 HD
ATOM     58  C   UNL A   1      45.622  30.193  30.307  1.00  0.00     0.074 A 
ATOM     59  C   UNL A   1      47.032  30.424  30.544  1.00  0.00     0.031 C 
ATOM     60  C   UNL A   1      44.651  31.110  30.527  1.00  0.00     0.037 A 
BRANCH  47  61
ATOM     61  C   UNL A   1      38.987  29.115  29.146  1.00  0.00     0.057 A 
ATOM     62  C   UNL A   1      38.399  29.487  27.932  1.00  0.00     0.134 A 
ATOM     63  C   UNL A   1      38.162  29.020  30.273  1.00  0.00     0.134 A 
ATOM     64  F   UNL A   1      39.145  29.607  26.824  1.00  0.00    -0.206 F 
ATOM     65  C   UNL A   1      37.034  29.761  27.844  1.00  0.00     0.040 A 
ATOM     66  C   UNL A   1      36.796  29.286  30.196  1.00  0.00     0.040 A 
ATOM     67  F   UNL A   1      38.674  28.674  31.464  1.00  0.00    -0.206 F 
ATOM     68  C   UNL A   1      36.228  29.659  28.978  1.00  0.00     0.006 A 
ENDBRANCH  47  61
BRANCH  48  69
ATOM     69  C   UNL A   1      48.617  26.716  29.363  1.00  0.00     0.057 A 
ATOM     70  C   UNL A   1      49.433  26.998  28.264  1.00  0.00     0.134 A 
ATOM     71  C   UNL A   1      49.204  26.109  30.477  1.00  0.00     0.134 A 
ATOM     72  F   UNL A   1      48.914  27.565  27.165  1.00  0.00    -0.206 F 
ATOM     73  C   UNL A   1      50.791  26.682  28.269  1.00  0.00     0.040 A 
ATOM     74  C   UNL A   1      50.562  25.793  30.499  1.00  0.00     0.040 A 
ATOM     75  F   UNL A   1      48.464  25.816  31.556  1.00  0.00    -0.206 F 
ATOM     76  C   UNL A   1      51.360  26.080  29.391  1.00  0.00     0.006 A 
ENDBRANCH  48  69
BRANCH  60  77
ATOM     77  C   UNL A   1      45.083  32.438  31.057  1.00  0.00     0.057 A 
ATOM     78  C   UNL A   1      45.180  32.672  32.433  1.00  0.00     0.134 A 
ATOM     79  C   UNL A   1      45.428  33.480  30.189  1.00  0.00     0.134 A 
ATOM     80  F   UNL A   1      44.850  31.712  33.310  1.00  0.00    -0.206 F 
ATOM     81  C   UNL A   1      45.603  33.905  32.930  1.00  0.00     0.040 A 
ATOM     82  C   UNL A   1      45.857  34.716  30.674  1.00  0.00     0.040 A 
ATOM     83  F   UNL A   1      45.348  33.313  28.860  1.00  0.00    -0.206 F 
ATOM     84  C   UNL A   1      45.945  34.930  32.049  1.00  0.00     0.006 A 
ENDBRANCH  60  77
ENDBRANCH  34  35
ENDBRANCH  26  29
ENDBRANCH  24  25
ENDBRANCH  23  24
ENDBRANCH  22  23
ENDBRANCH   3  22
TORSDOF 15
ENDMDL
MODEL 2
REMARK VINA RESULT:     -10.5      1.494      2.325
REMARK SMILES CN(CC(N)=O)C(=O)c1csc(/C=C/C(=O)NCCCNC(=O)c2ccc(-c3c4nc(c(-c5c(F)cccc5F)c5ccc([nH]5)c(-c5c(F)cccc5F)c5nc(c(-c6c(F)cccc6F)c6ccc3[nH]6)C=C5)C=C4)cc2)c1
REMARK SMILES IDX 15 1 16 2 17 3 14 5 13 6 12 7 9 8 10 9 78 10 11 11 7 12 8 13
REMARK SMILES IDX 2 14 1 15 3 16 4 17 5 18 6 19 18 22 19 23 20 24 21 25 22 26
REMARK SMILES IDX 23 28 24 29 25 30 77 31 26 32 76 33 27 34 28 35 29 36 70 37
REMARK SMILES IDX 30 38 75 39 69 40 71 41 31 42 74 43 68 44 67 45 32 47 58 48
REMARK SMILES IDX 41 49 57 50 42 51 45 52 56 53 72 54 43 55 44 56 55 58 73 59
REMARK SMILES IDX 46 60 33 61 34 62 39 63 35 64 36 65 38 66 40 67 37 68 59 69
REMARK SMILES IDX 60 70 65 71 61 72 62 73 64 74 66 75 63 76 47 77 48 78 53 79
REMARK SMILES IDX 49 80 50 81 52 82 54 83 51 84
REMARK H PARENT 17 4 5 20 5 21 21 27 71 46 45 57
REMARK Flexibility Score: inf
ROOT
ATOM      1  C   UNL A   1      33.898  20.453  25.371  1.00  0.00     0.244 C 
ATOM      2  O   UNL A   1      32.984  19.660  25.567  1.00  0.00    -0.270 OA
ATOM      3  N   UNL A   1      35.179  20.017  25.214  1.00  0.00    -0.352 N 
ATOM      4  H   UNL A   1      35.319  19.056  25.377  1.00  0.00     0.163 HD
ENDROOT
BRANCH   1   5
ATOM      5  C   UNL A   1      33.616  21.895  25.249  1.00  0.00     0.072 C 
ATOM      6  C   UNL A   1      32.636  22.445  25.980  1.00  0.00     0.024 C 
BRANCH   6   7
ATOM      7  C   UNL A   1      32.298  23.829  25.935  1.00  0.00     0.028 A 
ATOM      8  C   UNL A   1      32.540  26.174  25.804  1.00  0.00     0.051 A 
ATOM      9  C   UNL A   1      31.174  26.043  25.951  1.00  0.00     0.079 A 
ATOM     10  C   UNL A   1      33.174  24.889  25.773  1.00  0.00     0.033 A 
ATOM     11  S   UNL A   1      30.690  24.416  26.120  1.00  0.00    -0.144 S 
BRANCH   8  12
ATOM     12  C   UNL A   1      33.214  27.455  25.631  1.00  0.00     0.254 C 
ATOM     13  O   UNL A   1      33.901  27.912  26.539  1.00  0.00    -0.269 OA
BRANCH  12  14
ATOM     14  N   UNL A   1      33.008  28.120  24.425  1.00  0.00    -0.332 N 
ATOM     15  C   UNL A   1      33.805  27.743  23.271  1.00  0.00     0.147 C 
BRANCH  14  16
ATOM     16  C   UNL A   1      32.040  29.202  24.233  1.00  0.00     0.219 C 
BRANCH  16  17
ATOM     17  C   UNL A   1      31.076  28.942  23.072  1.00  0.00     0.237 C 
ATOM     18  N   UNL A   1      31.262  29.727  21.969  1.00  0.00    -0.368 N 
ATOM     19  O   UNL A   1      30.207  28.076  23.077  1.00  0.00    -0.273 OA
ATOM     20  H   UNL A   1      31.961  30.420  21.971  1.00  0.00     0.159 HD
ATOM     21  H   UNL A   1      30.698  29.598  21.173  1.00  0.00     0.159 HD
ENDBRANCH  16  17
ENDBRANCH  14  16
ENDBRANCH  12  14
ENDBRANCH   8  12
ENDBRANCH   6   7
ENDBRANCH   1   5
BRANCH   3  22
ATOM     22  C   UNL A   1      36.370  20.764  24.843  1.00  0.00     0.118 C 
BRANCH  22  23
ATOM     23  C   UNL A   1      37.623  19.888  24.799  1.00  0.00     0.042 C 
BRANCH  23  24
ATOM     24  C   UNL A   1      38.727  20.321  25.765  1.00  0.00     0.118 C 
BRANCH  24  25
ATOM     25  N   UNL A   1      39.847  19.394  25.777  1.00  0.00    -0.352 N 
ATOM     26  C   UNL A   1      41.169  19.621  26.065  1.00  0.00     0.251 C 
ATOM     27  H   UNL A   1      39.623  18.465  25.544  1.00  0.00     0.163 HD
ATOM     28  O   UNL A   1      41.991  18.728  25.871  1.00  0.00    -0.269 OA
BRANCH  26  29
ATOM     29  C   UNL A   1      41.628  20.927  26.591  1.00  0.00     0.039 A 
ATOM     30  C   UNL A   1      41.618  21.122  27.978  1.00  0.00     0.014 A 
ATOM     31  C   UNL A   1      41.980  21.980  25.741  1.00  0.00     0.014 A 
ATOM     32  C   UNL A   1      41.993  22.356  28.515  1.00  0.00     0.010 A 
ATOM     33  C   UNL A   1      42.375  23.207  26.280  1.00  0.00     0.010 A 
ATOM     34  C   UNL A   1      42.379  23.405  27.669  1.00  0.00    -0.014 A 
BRANCH  34  35
ATOM     35  C   UNL A   1      42.764  24.723  28.226  1.00  0.00     0.031 A 
ATOM     36  C   UNL A   1      41.722  25.777  28.467  1.00  0.00     0.074 A 
ATOM     37  C   UNL A   1      44.057  24.989  28.487  1.00  0.00     0.049 A 
ATOM     38  N   UNL A   1      41.876  27.013  28.869  1.00  0.00    -0.248 NA
ATOM     39  C   UNL A   1      40.325  25.392  28.211  1.00  0.00     0.031 C 
ATOM     40  C   UNL A   1      45.170  24.058  28.292  1.00  0.00     0.029 A 
ATOM     41  N   UNL A   1      44.652  26.127  28.967  1.00  0.00    -0.354 N 
ATOM     42  C   UNL A   1      40.603  27.564  28.885  1.00  0.00     0.074 A 
ATOM     43  C   UNL A   1      39.686  26.528  28.459  1.00  0.00     0.031 C 
ATOM     44  C   UNL A   1      46.313  24.662  28.656  1.00  0.00     0.029 A 
ATOM     45  C   UNL A   1      46.014  26.025  29.090  1.00  0.00     0.049 A 
ATOM     46  H   UNL A   1      44.148  26.942  29.199  1.00  0.00     0.167 HD
ATOM     47  C   UNL A   1      40.231  28.822  29.221  1.00  0.00     0.037 A 
ATOM     48  C   UNL A   1      46.920  26.929  29.503  1.00  0.00     0.037 A 
ATOM     49  C   UNL A   1      41.125  29.850  29.682  1.00  0.00     0.049 A 
ATOM     50  C   UNL A   1      46.478  28.303  29.910  1.00  0.00     0.074 A 
ATOM     51  C   UNL A   1      40.825  31.144  30.076  1.00  0.00     0.029 A 
ATOM     52  N   UNL A   1      42.493  29.695  29.823  1.00  0.00    -0.354 N 
ATOM     53  N   UNL A   1      45.271  28.811  29.918  1.00  0.00    -0.248 NA
ATOM     54  C   UNL A   1      47.527  29.230  30.360  1.00  0.00     0.031 C 
ATOM     55  C   UNL A   1      42.018  31.774  30.452  1.00  0.00     0.029 A 
ATOM     56  C   UNL A   1      43.054  30.868  30.297  1.00  0.00     0.049 A 
ATOM     57  H   UNL A   1      42.993  28.872  29.616  1.00  0.00     0.167 HD
ATOM     58  C   UNL A   1      45.411  30.112  30.377  1.00  0.00     0.074 A 
ATOM     59  C   UNL A   1      46.820  30.318  30.642  1.00  0.00     0.031 C 
ATOM     60  C   UNL A   1      44.456  31.054  30.559  1.00  0.00     0.037 A 
BRANCH  47  61
ATOM     61  C   UNL A   1      38.782  29.157  29.085  1.00  0.00     0.057 A 
ATOM     62  C   UNL A   1      37.911  29.092  30.177  1.00  0.00     0.134 A 
ATOM     63  C   UNL A   1      38.258  29.566  27.851  1.00  0.00     0.134 A 
ATOM     64  F   UNL A   1      38.355  28.694  31.379  1.00  0.00    -0.206 F 
ATOM     65  C   UNL A   1      36.560  29.416  30.046  1.00  0.00     0.040 A 
ATOM     66  C   UNL A   1      36.912  29.898  27.710  1.00  0.00     0.040 A 
ATOM     67  F   UNL A   1      39.047  29.639  26.768  1.00  0.00    -0.206 F 
ATOM     68  C   UNL A   1      36.057  29.823  28.810  1.00  0.00     0.006 A 
ENDBRANCH  47  61
BRANCH  48  69
ATOM     69  C   UNL A   1      48.349  26.557  29.559  1.00  0.00     0.057 A 
ATOM     70  C   UNL A   1      49.195  26.800  28.473  1.00  0.00     0.134 A 
ATOM     71  C   UNL A   1      48.899  25.959  30.697  1.00  0.00     0.134 A 
ATOM     72  F   UNL A   1      48.712  27.356  27.352  1.00  0.00    -0.206 F 
ATOM     73  C   UNL A   1      50.546  26.455  28.514  1.00  0.00     0.040 A 
ATOM     74  C   UNL A   1      50.249  25.614  30.755  1.00  0.00     0.040 A 
ATOM     75  F   UNL A   1      48.130  25.703  31.765  1.00  0.00    -0.206 F 
ATOM     76  C   UNL A   1      51.077  25.863  29.660  1.00  0.00     0.006 A 
ENDBRANCH  48  69
BRANCH  60  77
ATOM     77  C   UNL A   1      44.905  32.382  31.076  1.00  0.00     0.057 A 
ATOM     78  C   UNL A   1      45.319  33.396  30.207  1.00  0.00     0.134 A 
ATOM     79  C   UNL A   1      44.900  32.656  32.448  1.00  0.00     0.134 A 
ATOM     80  F   UNL A   1      45.355  33.183  28.882  1.00  0.00    -0.206 F 
ATOM     81  C   UNL A   1      45.720  34.643  30.686  1.00  0.00     0.040 A 
ATOM     82  C   UNL A   1      45.294  33.900  32.940  1.00  0.00     0.040 A 
ATOM     83  F   UNL A   1      44.518  31.718  33.329  1.00  0.00    -0.206 F 
ATOM     84  C   UNL A   1      45.705  34.898  32.057  1.00  0.00     0.006 A 
ENDBRANCH  60  77
ENDBRANCH  34  35
ENDBRANCH  26  29
ENDBRANCH  24  25
ENDBRANCH  23  24
ENDBRANCH  22  23
ENDBRANCH   3  22
TORSDOF 15
ENDMDL
MODEL 3
REMARK VINA RESULT:     -10.5      1.623      2.454
REMARK SMILES CN(CC(N)=O)C(=O)c1csc(/C=C/C(=O)NCCCNC(=O)c2ccc(-c3c4nc(c(-c5c(F)cccc5F)c5ccc([nH]5)c(-c5c(F)cccc5F)c5nc(c(-c6c(F)cccc6F)c6ccc3[nH]6)C=C5)C=C4)cc2)c1
REMARK SMILES IDX 15 1 16 2 17 3 14 5 13 6 12 7 9 8 10 9 78 10 11 11 7 12 8 13
REMARK SMILES IDX 2 14 1 15 3 16 4 17 5 18 6 19 18 22 19 23 20 24 21 25 22 26
REMARK SMILES IDX 23 28 24 29 25 30 77 31 26 32 76 33 27 34 28 35 29 36 70 37
REMARK SMILES IDX 30 38 75 39 69 40 71 41 31 42 74 43 68 44 67 45 32 47 58 48
REMARK SMILES IDX 41 49 57 50 42 51 45 52 56 53 72 54 43 55 44 56 55 58 73 59
REMARK SMILES IDX 46 60 33 61 34 62 39 63 35 64 36 65 38 66 40 67 37 68 59 69
REMARK SMILES IDX 60 70 65 71 61 72 62 73 64 74 66 75 63 76 47 77 48 78 53 79
REMARK SMILES IDX 49 80 50 81 52 82 54 83 51 84
REMARK H PARENT 17 4 5 20 5 21 21 27 71 46 45 57
REMARK Flexibility Score: inf
ROOT
ATOM      1  C   UNL A   1      33.995  20.370  24.968  1.00  0.00     0.244 C 
ATOM      2  O   UNL A   1      33.065  19.629  25.264  1.00  0.00    -0.270 OA
ATOM      3  N   UNL A   1      35.278  20.043  25.293  1.00  0.00    -0.352 N 
ATOM      4  H   UNL A   1      35.378  19.246  25.861  1.00  0.00     0.163 HD
ENDROOT
BRANCH   1   5
ATOM      5  C   UNL A   1      33.746  21.607  24.206  1.00  0.00     0.072 C 
ATOM      6  C   UNL A   1      33.857  22.796  24.816  1.00  0.00     0.024 C 
BRANCH   6   7
ATOM      7  C   UNL A   1      33.643  24.043  24.160  1.00  0.00     0.028 A 
ATOM      8  C   UNL A   1      33.501  26.373  23.804  1.00  0.00     0.051 A 
ATOM      9  C   UNL A   1      33.094  25.880  22.582  1.00  0.00     0.079 A 
ATOM     10  C   UNL A   1      33.837  25.305  24.698  1.00  0.00     0.033 A 
ATOM     11  S   UNL A   1      33.052  24.174  22.548  1.00  0.00    -0.144 S 
BRANCH   8  12
ATOM     12  C   UNL A   1      33.632  27.795  24.097  1.00  0.00     0.254 C 
ATOM     13  O   UNL A   1      34.285  28.516  23.349  1.00  0.00    -0.269 OA
BRANCH  12  14
ATOM     14  N   UNL A   1      33.019  28.260  25.258  1.00  0.00    -0.332 N 
ATOM     15  C   UNL A   1      33.830  28.933  26.259  1.00  0.00     0.147 C 
BRANCH  14  16
ATOM     16  C   UNL A   1      31.594  28.106  25.558  1.00  0.00     0.219 C 
BRANCH  16  17
ATOM     17  C   UNL A   1      31.334  27.267  26.812  1.00  0.00     0.237 C 
ATOM     18  N   UNL A   1      31.134  27.978  27.962  1.00  0.00    -0.368 N 
ATOM     19  O   UNL A   1      31.267  26.042  26.822  1.00  0.00    -0.273 OA
ATOM     20  H   UNL A   1      31.190  28.961  27.948  1.00  0.00     0.159 HD
ATOM     21  H   UNL A   1      30.933  27.508  28.802  1.00  0.00     0.159 HD
ENDBRANCH  16  17
ENDBRANCH  14  16
ENDBRANCH  12  14
ENDBRANCH   8  12
ENDBRANCH   6   7
ENDBRANCH   1   5
BRANCH   3  22
ATOM     22  C   UNL A   1      36.520  20.702  24.922  1.00  0.00     0.118 C 
BRANCH  22  23
ATOM     23  C   UNL A   1      37.722  19.757  24.968  1.00  0.00     0.042 C 
BRANCH  23  24
ATOM     24  C   UNL A   1      38.925  20.307  25.737  1.00  0.00     0.118 C 
BRANCH  24  25
ATOM     25  N   UNL A   1      40.030  19.363  25.785  1.00  0.00    -0.352 N 
ATOM     26  C   UNL A   1      41.355  19.579  26.069  1.00  0.00     0.251 C 
ATOM     27  H   UNL A   1      39.792  18.430  25.584  1.00  0.00     0.163 HD
ATOM     28  O   UNL A   1      42.163  18.667  25.909  1.00  0.00    -0.269 OA
BRANCH  26  29
ATOM     29  C   UNL A   1      41.832  20.894  26.552  1.00  0.00     0.039 A 
ATOM     30  C   UNL A   1      41.805  21.144  27.929  1.00  0.00     0.014 A 
ATOM     31  C   UNL A   1      42.221  21.906  25.667  1.00  0.00     0.014 A 
ATOM     32  C   UNL A   1      42.198  22.390  28.424  1.00  0.00     0.010 A 
ATOM     33  C   UNL A   1      42.633  23.145  26.164  1.00  0.00     0.010 A 
ATOM     34  C   UNL A   1      42.619  23.397  27.544  1.00  0.00    -0.014 A 
BRANCH  34  35
ATOM     35  C   UNL A   1      43.024  24.728  28.056  1.00  0.00     0.031 A 
ATOM     36  C   UNL A   1      41.986  25.768  28.363  1.00  0.00     0.074 A 
ATOM     37  C   UNL A   1      44.328  25.017  28.215  1.00  0.00     0.049 A 
ATOM     38  N   UNL A   1      42.150  27.011  28.738  1.00  0.00    -0.248 NA
ATOM     39  C   UNL A   1      40.580  25.359  28.218  1.00  0.00     0.031 C 
ATOM     40  C   UNL A   1      45.438  24.101  27.947  1.00  0.00     0.029 A 
ATOM     41  N   UNL A   1      44.938  26.170  28.635  1.00  0.00    -0.354 N 
ATOM     42  C   UNL A   1      40.873  27.543  28.844  1.00  0.00     0.074 A 
ATOM     43  C   UNL A   1      39.942  26.487  28.501  1.00  0.00     0.031 C 
ATOM     44  C   UNL A   1      46.595  24.728  28.216  1.00  0.00     0.029 A 
ATOM     45  C   UNL A   1      46.308  26.091  28.657  1.00  0.00     0.049 A 
ATOM     46  H   UNL A   1      44.441  26.980  28.896  1.00  0.00     0.167 HD
ATOM     47  C   UNL A   1      40.506  28.799  29.193  1.00  0.00     0.037 A 
ATOM     48  C   UNL A   1      47.227  27.014  28.990  1.00  0.00     0.037 A 
ATOM     49  C   UNL A   1      41.415  29.846  29.574  1.00  0.00     0.049 A 
ATOM     50  C   UNL A   1      46.795  28.386  29.413  1.00  0.00     0.074 A 
ATOM     51  C   UNL A   1      41.125  31.140  29.974  1.00  0.00     0.029 A 
ATOM     52  N   UNL A   1      42.793  29.715  29.612  1.00  0.00    -0.354 N 
ATOM     53  N   UNL A   1      45.584  28.875  29.507  1.00  0.00    -0.248 NA
ATOM     54  C   UNL A   1      47.860  29.335  29.772  1.00  0.00     0.031 C 
ATOM     55  C   UNL A   1      42.332  31.794  30.252  1.00  0.00     0.029 A 
ATOM     56  C   UNL A   1      43.368  30.902  30.029  1.00  0.00     0.049 A 
ATOM     57  H   UNL A   1      43.289  28.897  29.378  1.00  0.00     0.167 HD
ATOM     58  C   UNL A   1      45.737  30.184  29.939  1.00  0.00     0.074 A 
ATOM     59  C   UNL A   1      47.158  30.415  30.094  1.00  0.00     0.031 C 
ATOM     60  C   UNL A   1      44.782  31.113  30.182  1.00  0.00     0.037 A 
BRANCH  47  61
ATOM     61  C   UNL A   1      39.046  29.110  29.163  1.00  0.00     0.057 A 
ATOM     62  C   UNL A   1      38.402  29.483  27.978  1.00  0.00     0.134 A 
ATOM     63  C   UNL A   1      38.273  29.020  30.328  1.00  0.00     0.134 A 
ATOM     64  F   UNL A   1      39.096  29.600  26.835  1.00  0.00    -0.206 F 
ATOM     65  C   UNL A   1      37.036  29.763  27.953  1.00  0.00     0.040 A 
ATOM     66  C   UNL A   1      36.906  29.290  30.314  1.00  0.00     0.040 A 
ATOM     67  F   UNL A   1      38.840  28.674  31.494  1.00  0.00    -0.206 F 
ATOM     68  C   UNL A   1      36.283  29.664  29.124  1.00  0.00     0.006 A 
ENDBRANCH  47  61
BRANCH  48  69
ATOM     69  C   UNL A   1      48.663  26.665  28.941  1.00  0.00     0.057 A 
ATOM     70  C   UNL A   1      49.323  26.192  30.079  1.00  0.00     0.134 A 
ATOM     71  C   UNL A   1      49.399  26.790  27.760  1.00  0.00     0.134 A 
ATOM     72  F   UNL A   1      48.664  26.069  31.240  1.00  0.00    -0.206 F 
ATOM     73  C   UNL A   1      50.677  25.857  30.045  1.00  0.00     0.040 A 
ATOM     74  C   UNL A   1      50.752  26.453  27.710  1.00  0.00     0.040 A 
ATOM     75  F   UNL A   1      48.814  27.241  26.641  1.00  0.00    -0.206 F 
ATOM     76  C   UNL A   1      51.394  25.985  28.856  1.00  0.00     0.006 A 
ENDBRANCH  48  69
BRANCH  60  77
ATOM     77  C   UNL A   1      45.248  32.454  30.649  1.00  0.00     0.057 A 
ATOM     78  C   UNL A   1      45.427  32.725  32.010  1.00  0.00     0.134 A 
ATOM     79  C   UNL A   1      45.541  33.471  29.734  1.00  0.00     0.134 A 
ATOM     80  F   UNL A   1      45.150  31.790  32.932  1.00  0.00    -0.206 F 
ATOM     81  C   UNL A   1      45.881  33.969  32.447  1.00  0.00     0.040 A 
ATOM     82  C   UNL A   1      46.000  34.718  30.159  1.00  0.00     0.040 A 
ATOM     83  F   UNL A   1      45.382  33.268  28.417  1.00  0.00    -0.206 F 
ATOM     84  C   UNL A   1      46.171  34.969  31.520  1.00  0.00     0.006 A 
ENDBRANCH  60  77
ENDBRANCH  34  35
ENDBRANCH  26  29
ENDBRANCH  24  25
ENDBRANCH  23  24
ENDBRANCH  22  23
ENDBRANCH   3  22
TORSDOF 15
ENDMDL
