MODEL 1
REMARK VINA RESULT:      -9.7      0.000      0.000
REMARK SMILES O=C(CSc1ccc(Br)cn1)NCCCNC(=O)c1ccc(-c2c3nc(c(-c4c(F)cccc4F)c4ccc([nH]4)c(-c4c(F)cccc4F)c4nc(c(-c5c(F)cccc5F)c5ccc2[nH]5)C=C4)C=C3)cc1
REMARK SMILES IDX 14 1 13 2 12 3 1 4 2 5 3 7 4 8 5 9 6 10 11 11 7 12 10 13
REMARK SMILES IDX 8 14 9 15 15 16 16 17 17 18 18 20 19 21 20 22 72 23 21 24
REMARK SMILES IDX 71 25 22 26 23 27 24 28 65 29 25 30 70 31 64 32 66 33 26 34
REMARK SMILES IDX 69 35 63 36 62 37 27 39 53 40 36 41 52 42 37 43 40 44 51 45
REMARK SMILES IDX 67 46 38 47 39 48 50 50 68 51 41 52 28 53 29 54 34 55 30 56
REMARK SMILES IDX 31 57 33 58 35 59 32 60 54 61 55 62 60 63 56 64 57 65 59 66
REMARK SMILES IDX 61 67 58 68 42 69 43 70 48 71 44 72 45 73 47 74 49 75 46 76
REMARK H PARENT 12 6 16 19 66 38 40 49
REMARK Flexibility Score: inf
ROOT
ATOM      1  C   UNL A   1      32.935  36.879  30.577  1.00  0.00     0.042 C 
ENDROOT
BRANCH   1   2
ATOM      2  C   UNL A   1      33.108  35.700  31.528  1.00  0.00     0.117 C 
BRANCH   2   3
ATOM      3  N   UNL A   1      34.454  35.585  32.049  1.00  0.00    -0.355 N 
ATOM      4  O   UNL A   1      34.045  33.777  33.393  1.00  0.00    -0.274 OA
ATOM      5  C   UNL A   1      34.843  34.574  32.906  1.00  0.00     0.230 C 
ATOM      6  H   UNL A   1      35.121  36.257  31.780  1.00  0.00     0.163 HD
BRANCH   5   7
ATOM      7  C   UNL A   1      36.312  34.593  33.308  1.00  0.00     0.176 C 
BRANCH   7   8
ATOM      8  S   UNL A   1      36.620  33.709  34.879  1.00  0.00    -0.096 SA
BRANCH   8   9
ATOM      9  C   UNL A   1      37.362  32.220  34.244  1.00  0.00     0.097 A 
ATOM     10  C   UNL A   1      36.685  31.471  33.287  1.00  0.00     0.037 A 
ATOM     11  N   UNL A   1      38.585  31.882  34.707  1.00  0.00    -0.249 NA
ATOM     12  C   UNL A   1      37.282  30.311  32.793  1.00  0.00     0.020 A 
ATOM     13  C   UNL A   1      39.146  30.754  34.207  1.00  0.00     0.128 A 
ATOM     14  C   UNL A   1      38.537  29.946  33.262  1.00  0.00     0.036 A 
ATOM     15  Br  UNL A   1      39.388  28.392  32.621  1.00  0.00    -0.049 Br
ENDBRANCH   8   9
ENDBRANCH   7   8
ENDBRANCH   5   7
ENDBRANCH   2   3
ENDBRANCH   1   2
BRANCH   1  16
ATOM     16  C   UNL A   1      33.372  36.622  29.136  1.00  0.00     0.118 C 
BRANCH  16  17
ATOM     17  N   UNL A   1      32.672  35.512  28.506  1.00  0.00    -0.352 N 
ATOM     18  C   UNL A   1      33.083  34.239  28.203  1.00  0.00     0.251 C 
ATOM     19  H   UNL A   1      31.742  35.710  28.253  1.00  0.00     0.163 HD
ATOM     20  O   UNL A   1      32.320  33.510  27.569  1.00  0.00    -0.269 OA
BRANCH  18  21
ATOM     21  C   UNL A   1      34.417  33.725  28.594  1.00  0.00     0.039 A 
ATOM     22  C   UNL A   1      34.483  32.809  29.651  1.00  0.00     0.014 A 
ATOM     23  C   UNL A   1      35.601  34.162  27.993  1.00  0.00     0.014 A 
ATOM     24  C   UNL A   1      35.715  32.297  30.066  1.00  0.00     0.010 A 
ATOM     25  C   UNL A   1      36.827  33.602  28.365  1.00  0.00     0.010 A 
ATOM     26  C   UNL A   1      36.898  32.666  29.407  1.00  0.00    -0.014 A 
BRANCH  26  27
ATOM     27  C   UNL A   1      38.199  32.064  29.798  1.00  0.00     0.031 A 
ATOM     28  C   UNL A   1      39.137  32.783  30.729  1.00  0.00     0.074 A 
ATOM     29  C   UNL A   1      38.555  30.868  29.290  1.00  0.00     0.049 A 
ATOM     30  N   UNL A   1      40.305  32.401  31.183  1.00  0.00    -0.248 NA
ATOM     31  C   UNL A   1      38.722  34.115  31.191  1.00  0.00     0.031 C 
ATOM     32  C   UNL A   1      37.767  30.088  28.333  1.00  0.00     0.029 A 
ATOM     33  N   UNL A   1      39.672  30.099  29.505  1.00  0.00    -0.354 N 
ATOM     34  C   UNL A   1      40.768  33.445  31.973  1.00  0.00     0.074 A 
ATOM     35  C   UNL A   1      39.774  34.496  31.902  1.00  0.00     0.031 C 
ATOM     36  C   UNL A   1      38.409  28.939  28.069  1.00  0.00     0.029 A 
ATOM     37  C   UNL A   1      39.662  28.911  28.817  1.00  0.00     0.049 A 
ATOM     38  H   UNL A   1      40.409  30.373  30.097  1.00  0.00     0.167 HD
ATOM     39  C   UNL A   1      41.904  33.517  32.708  1.00  0.00     0.037 A 
ATOM     40  C   UNL A   1      40.556  27.904  28.797  1.00  0.00     0.037 A 
ATOM     41  C   UNL A   1      42.882  32.464  32.805  1.00  0.00     0.049 A 
ATOM     42  C   UNL A   1      41.789  27.992  29.650  1.00  0.00     0.074 A 
ATOM     43  C   UNL A   1      44.035  32.425  33.571  1.00  0.00     0.029 A 
ATOM     44  N   UNL A   1      42.821  31.264  32.116  1.00  0.00    -0.354 N 
ATOM     45  N   UNL A   1      42.178  28.958  30.445  1.00  0.00    -0.248 NA
ATOM     46  C   UNL A   1      42.704  26.841  29.610  1.00  0.00     0.031 C 
ATOM     47  C   UNL A   1      44.687  31.211  33.323  1.00  0.00     0.029 A 
ATOM     48  C   UNL A   1      43.921  30.480  32.430  1.00  0.00     0.049 A 
ATOM     49  H   UNL A   1      42.101  31.004  31.495  1.00  0.00     0.167 HD
ATOM     50  C   UNL A   1      43.365  28.523  31.018  1.00  0.00     0.074 A 
ATOM     51  C   UNL A   1      43.626  27.200  30.492  1.00  0.00     0.031 C 
ATOM     52  C   UNL A   1      44.167  29.164  31.903  1.00  0.00     0.037 A 
BRANCH  39  53
ATOM     53  C   UNL A   1      42.148  34.781  33.479  1.00  0.00     0.057 A 
ATOM     54  C   UNL A   1      42.891  35.838  32.940  1.00  0.00     0.134 A 
ATOM     55  C   UNL A   1      41.605  34.957  34.758  1.00  0.00     0.134 A 
ATOM     56  F   UNL A   1      43.447  35.728  31.724  1.00  0.00    -0.206 F 
ATOM     57  C   UNL A   1      43.106  37.019  33.654  1.00  0.00     0.040 A 
ATOM     58  C   UNL A   1      41.793  36.142  35.473  1.00  0.00     0.040 A 
ATOM     59  F   UNL A   1      40.877  33.986  35.329  1.00  0.00    -0.206 F 
ATOM     60  C   UNL A   1      42.550  37.174  34.923  1.00  0.00     0.006 A 
ENDBRANCH  39  53
BRANCH  40  61
ATOM     61  C   UNL A   1      40.294  26.700  27.973  1.00  0.00     0.057 A 
ATOM     62  C   UNL A   1      39.478  25.667  28.449  1.00  0.00     0.134 A 
ATOM     63  C   UNL A   1      40.854  26.550  26.699  1.00  0.00     0.134 A 
ATOM     64  F   UNL A   1      38.930  25.748  29.669  1.00  0.00    -0.206 F 
ATOM     65  C   UNL A   1      39.240  24.518  27.693  1.00  0.00     0.040 A 
ATOM     66  C   UNL A   1      40.608  25.415  25.925  1.00  0.00     0.040 A 
ATOM     67  F   UNL A   1      41.639  27.509  26.188  1.00  0.00    -0.206 F 
ATOM     68  C   UNL A   1      39.803  24.393  26.425  1.00  0.00     0.006 A 
ENDBRANCH  40  61
BRANCH  52  69
ATOM     69  C   UNL A   1      45.386  28.428  32.374  1.00  0.00     0.057 A 
ATOM     70  C   UNL A   1      45.349  27.571  33.481  1.00  0.00     0.134 A 
ATOM     71  C   UNL A   1      46.608  28.571  31.705  1.00  0.00     0.134 A 
ATOM     72  F   UNL A   1      44.212  27.403  34.172  1.00  0.00    -0.206 F 
ATOM     73  C   UNL A   1      46.491  26.901  33.922  1.00  0.00     0.040 A 
ATOM     74  C   UNL A   1      47.752  27.890  32.123  1.00  0.00     0.040 A 
ATOM     75  F   UNL A   1      46.709  29.373  30.634  1.00  0.00    -0.206 F 
ATOM     76  C   UNL A   1      47.696  27.057  33.239  1.00  0.00     0.006 A 
ENDBRANCH  52  69
ENDBRANCH  26  27
ENDBRANCH  18  21
ENDBRANCH  16  17
ENDBRANCH   1  16
TORSDOF 12
ENDMDL
MODEL 2
REMARK VINA RESULT:      -9.3      0.701      6.606
REMARK SMILES O=C(CSc1ccc(Br)cn1)NCCCNC(=O)c1ccc(-c2c3nc(c(-c4c(F)cccc4F)c4ccc([nH]4)c(-c4c(F)cccc4F)c4nc(c(-c5c(F)cccc5F)c5ccc2[nH]5)C=C4)C=C3)cc1
REMARK SMILES IDX 14 1 13 2 12 3 1 4 2 5 3 7 4 8 5 9 6 10 11 11 7 12 10 13
REMARK SMILES IDX 8 14 9 15 15 16 16 17 17 18 18 20 19 21 20 22 72 23 21 24
REMARK SMILES IDX 71 25 22 26 23 27 24 28 65 29 25 30 70 31 64 32 66 33 26 34
REMARK SMILES IDX 69 35 63 36 62 37 27 39 53 40 36 41 52 42 37 43 40 44 51 45
REMARK SMILES IDX 67 46 38 47 39 48 50 50 68 51 41 52 28 53 29 54 34 55 30 56
REMARK SMILES IDX 31 57 33 58 35 59 32 60 54 61 55 62 60 63 56 64 57 65 59 66
REMARK SMILES IDX 61 67 58 68 42 69 43 70 48 71 44 72 45 73 47 74 49 75 46 76
REMARK H PARENT 12 6 16 19 66 38 40 49
REMARK Flexibility Score: inf
ROOT
ATOM      1  C   UNL A   1      32.921  36.734  31.459  1.00  0.00     0.042 C 
ENDROOT
BRANCH   1   2
ATOM      2  C   UNL A   1      33.186  35.512  32.334  1.00  0.00     0.117 C 
BRANCH   2   3
ATOM      3  N   UNL A   1      34.541  35.461  32.841  1.00  0.00    -0.355 N 
ATOM      4  O   UNL A   1      34.365  33.393  33.807  1.00  0.00    -0.274 OA
ATOM      5  C   UNL A   1      35.057  34.359  33.494  1.00  0.00     0.230 C 
ATOM      6  H   UNL A   1      35.120  36.248  32.715  1.00  0.00     0.163 HD
BRANCH   5   7
ATOM      7  C   UNL A   1      36.517  34.476  33.912  1.00  0.00     0.176 C 
BRANCH   7   8
ATOM      8  S   UNL A   1      36.891  33.518  35.425  1.00  0.00    -0.096 SA
BRANCH   8   9
ATOM      9  C   UNL A   1      37.787  32.159  34.703  1.00  0.00     0.097 A 
ATOM     10  C   UNL A   1      39.090  31.900  35.119  1.00  0.00     0.037 A 
ATOM     11  N   UNL A   1      37.149  31.405  33.783  1.00  0.00    -0.249 NA
ATOM     12  C   UNL A   1      39.777  30.828  34.551  1.00  0.00     0.020 A 
ATOM     13  C   UNL A   1      37.836  30.365  33.251  1.00  0.00     0.128 A 
ATOM     14  C   UNL A   1      39.138  30.045  33.599  1.00  0.00     0.036 A 
ATOM     15  Br  UNL A   1      40.022  28.581  32.807  1.00  0.00    -0.049 Br
ENDBRANCH   8   9
ENDBRANCH   7   8
ENDBRANCH   5   7
ENDBRANCH   2   3
ENDBRANCH   1   2
BRANCH   1  16
ATOM     16  C   UNL A   1      33.490  36.656  30.044  1.00  0.00     0.118 C 
BRANCH  16  17
ATOM     17  N   UNL A   1      32.790  35.708  29.189  1.00  0.00    -0.352 N 
ATOM     18  C   UNL A   1      33.170  34.489  28.688  1.00  0.00     0.251 C 
ATOM     19  H   UNL A   1      31.886  35.992  28.922  1.00  0.00     0.163 HD
ATOM     20  O   UNL A   1      32.422  33.921  27.892  1.00  0.00    -0.269 OA
BRANCH  18  21
ATOM     21  C   UNL A   1      34.456  33.851  29.056  1.00  0.00     0.039 A 
ATOM     22  C   UNL A   1      35.574  34.119  28.256  1.00  0.00     0.014 A 
ATOM     23  C   UNL A   1      34.577  32.954  30.121  1.00  0.00     0.014 A 
ATOM     24  C   UNL A   1      36.810  33.538  28.552  1.00  0.00     0.010 A 
ATOM     25  C   UNL A   1      35.827  32.423  30.456  1.00  0.00     0.010 A 
ATOM     26  C   UNL A   1      36.956  32.707  29.674  1.00  0.00    -0.014 A 
BRANCH  26  27
ATOM     27  C   UNL A   1      38.287  32.151  30.033  1.00  0.00     0.031 A 
ATOM     28  C   UNL A   1      38.743  30.824  29.490  1.00  0.00     0.074 A 
ATOM     29  C   UNL A   1      39.084  32.833  30.878  1.00  0.00     0.049 A 
ATOM     30  N   UNL A   1      39.875  30.195  29.690  1.00  0.00    -0.248 NA
ATOM     31  C   UNL A   1      37.798  30.097  28.630  1.00  0.00     0.031 C 
ATOM     32  C   UNL A   1      38.742  34.103  31.522  1.00  0.00     0.029 A 
ATOM     33  N   UNL A   1      40.345  32.554  31.342  1.00  0.00    -0.354 N 
ATOM     34  C   UNL A   1      39.774  28.998  28.993  1.00  0.00     0.074 A 
ATOM     35  C   UNL A   1      38.454  28.968  28.400  1.00  0.00     0.031 C 
ATOM     36  C   UNL A   1      39.779  34.508  32.272  1.00  0.00     0.029 A 
ATOM     37  C   UNL A   1      40.848  33.519  32.181  1.00  0.00     0.049 A 
ATOM     38  H   UNL A   1      40.842  31.741  31.097  1.00  0.00     0.167 HD
ATOM     39  C   UNL A   1      40.702  28.022  28.841  1.00  0.00     0.037 A 
ATOM     40  C   UNL A   1      42.041  33.603  32.800  1.00  0.00     0.037 A 
ATOM     41  C   UNL A   1      42.026  28.059  29.405  1.00  0.00     0.049 A 
ATOM     42  C   UNL A   1      43.065  32.526  32.585  1.00  0.00     0.074 A 
ATOM     43  C   UNL A   1      43.054  27.142  29.256  1.00  0.00     0.029 A 
ATOM     44  N   UNL A   1      42.509  29.067  30.224  1.00  0.00    -0.354 N 
ATOM     45  N   UNL A   1      42.979  31.434  31.866  1.00  0.00    -0.248 NA
ATOM     46  C   UNL A   1      44.360  32.701  33.260  1.00  0.00     0.031 C 
ATOM     47  C   UNL A   1      44.149  27.582  30.009  1.00  0.00     0.029 A 
ATOM     48  C   UNL A   1      43.815  28.791  30.597  1.00  0.00     0.049 A 
ATOM     49  H   UNL A   1      41.999  29.864  30.499  1.00  0.00     0.167 HD
ATOM     50  C   UNL A   1      44.211  30.806  31.982  1.00  0.00     0.074 A 
ATOM     51  C   UNL A   1      45.034  31.646  32.827  1.00  0.00     0.031 C 
ATOM     52  C   UNL A   1      44.624  29.636  31.435  1.00  0.00     0.037 A 
BRANCH  39  53
ATOM     53  C   UNL A   1      40.317  26.827  28.019  1.00  0.00     0.057 A 
ATOM     54  C   UNL A   1      40.779  26.658  26.708  1.00  0.00     0.134 A 
ATOM     55  C   UNL A   1      39.505  25.820  28.554  1.00  0.00     0.134 A 
ATOM     56  F   UNL A   1      41.550  27.592  26.133  1.00  0.00    -0.206 F 
ATOM     57  C   UNL A   1      40.429  25.539  25.949  1.00  0.00     0.040 A 
ATOM     58  C   UNL A   1      39.168  24.685  27.814  1.00  0.00     0.040 A 
ATOM     59  F   UNL A   1      39.035  25.918  29.806  1.00  0.00    -0.206 F 
ATOM     60  C   UNL A   1      39.626  24.546  26.506  1.00  0.00     0.006 A 
ENDBRANCH  39  53
BRANCH  40  61
ATOM     61  C   UNL A   1      42.350  34.778  33.648  1.00  0.00     0.057 A 
ATOM     62  C   UNL A   1      42.851  35.959  33.087  1.00  0.00     0.134 A 
ATOM     63  C   UNL A   1      42.159  34.751  35.034  1.00  0.00     0.134 A 
ATOM     64  F   UNL A   1      43.071  36.036  31.766  1.00  0.00    -0.206 F 
ATOM     65  C   UNL A   1      43.167  37.066  33.875  1.00  0.00     0.040 A 
ATOM     66  C   UNL A   1      42.452  35.857  35.832  1.00  0.00     0.040 A 
ATOM     67  F   UNL A   1      41.677  33.650  35.629  1.00  0.00    -0.206 F 
ATOM     68  C   UNL A   1      42.963  37.017  35.252  1.00  0.00     0.006 A 
ENDBRANCH  40  61
BRANCH  52  69
ATOM     69  C   UNL A   1      46.036  29.215  31.715  1.00  0.00     0.057 A 
ATOM     70  C   UNL A   1      46.362  28.413  32.816  1.00  0.00     0.134 A 
ATOM     71  C   UNL A   1      47.078  29.607  30.868  1.00  0.00     0.134 A 
ATOM     72  F   UNL A   1      45.410  28.016  33.674  1.00  0.00    -0.206 F 
ATOM     73  C   UNL A   1      47.680  28.037  33.079  1.00  0.00     0.040 A 
ATOM     74  C   UNL A   1      48.398  29.220  31.107  1.00  0.00     0.040 A 
ATOM     75  F   UNL A   1      46.832  30.372  29.792  1.00  0.00    -0.206 F 
ATOM     76  C   UNL A   1      48.702  28.439  32.220  1.00  0.00     0.006 A 
ENDBRANCH  52  69
ENDBRANCH  26  27
ENDBRANCH  18  21
ENDBRANCH  16  17
ENDBRANCH   1  16
TORSDOF 12
ENDMDL
MODEL 3
REMARK VINA RESULT:      -9.3      5.208     10.982
REMARK SMILES O=C(CSc1ccc(Br)cn1)NCCCNC(=O)c1ccc(-c2c3nc(c(-c4c(F)cccc4F)c4ccc([nH]4)c(-c4c(F)cccc4F)c4nc(c(-c5c(F)cccc5F)c5ccc2[nH]5)C=C4)C=C3)cc1
REMARK SMILES IDX 14 1 13 2 12 3 1 4 2 5 3 7 4 8 5 9 6 10 11 11 7 12 10 13
REMARK SMILES IDX 8 14 9 15 15 16 16 17 17 18 18 20 19 21 20 22 72 23 21 24
REMARK SMILES IDX 71 25 22 26 23 27 24 28 65 29 25 30 70 31 64 32 66 33 26 34
REMARK SMILES IDX 69 35 63 36 62 37 27 39 53 40 36 41 52 42 37 43 40 44 51 45
REMARK SMILES IDX 67 46 38 47 39 48 50 50 68 51 41 52 28 53 29 54 34 55 30 56
REMARK SMILES IDX 31 57 33 58 35 59 32 60 54 61 55 62 60 63 56 64 57 65 59 66
REMARK SMILES IDX 61 67 58 68 42 69 43 70 48 71 44 72 45 73 47 74 49 75 46 76
REMARK H PARENT 12 6 16 19 66 38 40 49
REMARK Flexibility Score: inf
ROOT
ATOM      1  C   UNL A   1      45.136  19.030  25.333  1.00  0.00     0.042 C 
ENDROOT
BRANCH   1   2
ATOM      2  C   UNL A   1      46.447  19.733  24.998  1.00  0.00     0.117 C 
BRANCH   2   3
ATOM      3  N   UNL A   1      46.253  21.044  24.413  1.00  0.00    -0.355 N 
ATOM      4  O   UNL A   1      45.846  22.135  26.385  1.00  0.00    -0.274 OA
ATOM      5  C   UNL A   1      46.028  22.177  25.171  1.00  0.00     0.230 C 
ATOM      6  H   UNL A   1      46.283  21.131  23.433  1.00  0.00     0.163 HD
BRANCH   5   7
ATOM      7  C   UNL A   1      45.896  23.472  24.379  1.00  0.00     0.176 C 
BRANCH   7   8
ATOM      8  S   UNL A   1      46.989  24.794  25.011  1.00  0.00    -0.096 SA
BRANCH   8   9
ATOM      9  C   UNL A   1      45.768  26.033  25.396  1.00  0.00     0.097 A 
ATOM     10  C   UNL A   1      44.439  25.816  25.047  1.00  0.00     0.037 A 
ATOM     11  N   UNL A   1      46.183  27.143  26.041  1.00  0.00    -0.249 NA
ATOM     12  C   UNL A   1      43.492  26.791  25.361  1.00  0.00     0.020 A 
ATOM     13  C   UNL A   1      45.244  28.073  26.341  1.00  0.00     0.128 A 
ATOM     14  C   UNL A   1      43.902  27.941  26.021  1.00  0.00     0.036 A 
ATOM     15  Br  UNL A   1      42.661  29.286  26.473  1.00  0.00    -0.049 Br
ENDBRANCH   8   9
ENDBRANCH   7   8
ENDBRANCH   5   7
ENDBRANCH   2   3
ENDBRANCH   1   2
BRANCH   1  16
ATOM     16  C   UNL A   1      43.911  19.543  24.579  1.00  0.00     0.118 C 
BRANCH  16  17
ATOM     17  N   UNL A   1      42.650  19.062  25.124  1.00  0.00    -0.352 N 
ATOM     18  C   UNL A   1      41.780  19.624  26.024  1.00  0.00     0.251 C 
ATOM     19  H   UNL A   1      42.373  18.179  24.790  1.00  0.00     0.163 HD
ATOM     20  O   UNL A   1      40.817  18.959  26.405  1.00  0.00    -0.269 OA
BRANCH  18  21
ATOM     21  C   UNL A   1      41.976  20.990  26.564  1.00  0.00     0.039 A 
ATOM     22  C   UNL A   1      41.985  21.149  27.955  1.00  0.00     0.014 A 
ATOM     23  C   UNL A   1      42.088  22.118  25.746  1.00  0.00     0.014 A 
ATOM     24  C   UNL A   1      42.159  22.416  28.520  1.00  0.00     0.010 A 
ATOM     25  C   UNL A   1      42.326  23.375  26.309  1.00  0.00     0.010 A 
ATOM     26  C   UNL A   1      42.361  23.539  27.702  1.00  0.00    -0.014 A 
BRANCH  26  27
ATOM     27  C   UNL A   1      42.622  24.873  28.303  1.00  0.00     0.031 A 
ATOM     28  C   UNL A   1      44.003  25.261  28.758  1.00  0.00     0.074 A 
ATOM     29  C   UNL A   1      41.601  25.736  28.468  1.00  0.00     0.049 A 
ATOM     30  N   UNL A   1      44.410  26.385  29.294  1.00  0.00    -0.248 NA
ATOM     31  C   UNL A   1      45.058  24.247  28.616  1.00  0.00     0.031 C 
ATOM     32  C   UNL A   1      40.203  25.468  28.124  1.00  0.00     0.029 A 
ATOM     33  N   UNL A   1      41.580  27.015  28.968  1.00  0.00    -0.354 N 
ATOM     34  C   UNL A   1      45.762  26.210  29.561  1.00  0.00     0.074 A 
ATOM     35  C   UNL A   1      46.096  24.857  29.170  1.00  0.00     0.031 C 
ATOM     36  C   UNL A   1      39.468  26.558  28.393  1.00  0.00     0.029 A 
ATOM     37  C   UNL A   1      40.334  27.592  28.948  1.00  0.00     0.049 A 
ATOM     38  H   UNL A   1      42.382  27.474  29.306  1.00  0.00     0.167 HD
ATOM     39  C   UNL A   1      46.651  27.100  30.067  1.00  0.00     0.037 A 
ATOM     40  C   UNL A   1      39.934  28.821  29.326  1.00  0.00     0.037 A 
ATOM     41  C   UNL A   1      46.331  28.456  30.431  1.00  0.00     0.049 A 
ATOM     42  C   UNL A   1      40.945  29.802  29.848  1.00  0.00     0.074 A 
ATOM     43  C   UNL A   1      47.178  29.448  30.897  1.00  0.00     0.029 A 
ATOM     44  N   UNL A   1      45.063  29.013  30.369  1.00  0.00    -0.354 N 
ATOM     45  N   UNL A   1      42.234  29.643  30.031  1.00  0.00    -0.248 NA
ATOM     46  C   UNL A   1      40.447  31.138  30.206  1.00  0.00     0.031 C 
ATOM     47  C   UNL A   1      46.418  30.597  31.144  1.00  0.00     0.029 A 
ATOM     48  C   UNL A   1      45.103  30.331  30.798  1.00  0.00     0.049 A 
ATOM     49  H   UNL A   1      44.253  28.542  30.064  1.00  0.00     0.167 HD
ATOM     50  C   UNL A   1      42.702  30.863  30.499  1.00  0.00     0.074 A 
ATOM     51  C   UNL A   1      41.565  31.756  30.559  1.00  0.00     0.031 C 
ATOM     52  C   UNL A   1      43.965  31.211  30.849  1.00  0.00     0.037 A 
BRANCH  39  53
ATOM     53  C   UNL A   1      48.066  26.636  30.246  1.00  0.00     0.057 A 
ATOM     54  C   UNL A   1      48.475  25.957  31.401  1.00  0.00     0.134 A 
ATOM     55  C   UNL A   1      49.020  26.837  29.241  1.00  0.00     0.134 A 
ATOM     56  F   UNL A   1      47.612  25.743  32.406  1.00  0.00    -0.206 F 
ATOM     57  C   UNL A   1      49.790  25.515  31.561  1.00  0.00     0.040 A 
ATOM     58  C   UNL A   1      50.332  26.378  29.379  1.00  0.00     0.040 A 
ATOM     59  F   UNL A   1      48.691  27.474  28.108  1.00  0.00    -0.206 F 
ATOM     60  C   UNL A   1      50.720  25.720  30.544  1.00  0.00     0.006 A 
ENDBRANCH  39  53
BRANCH  40  61
ATOM     61  C   UNL A   1      38.512  29.212  29.181  1.00  0.00     0.057 A 
ATOM     62  C   UNL A   1      38.005  29.634  27.946  1.00  0.00     0.134 A 
ATOM     63  C   UNL A   1      37.630  29.178  30.267  1.00  0.00     0.134 A 
ATOM     64  F   UNL A   1      38.809  29.703  26.876  1.00  0.00    -0.206 F 
ATOM     65  C   UNL A   1      36.674  30.025  27.799  1.00  0.00     0.040 A 
ATOM     66  C   UNL A   1      36.291  29.548  30.129  1.00  0.00     0.040 A 
ATOM     67  F   UNL A   1      38.056  28.778  31.473  1.00  0.00    -0.206 F 
ATOM     68  C   UNL A   1      35.812  29.978  28.893  1.00  0.00     0.006 A 
ENDBRANCH  40  61
BRANCH  52  69
ATOM     69  C   UNL A   1      44.181  32.625  31.300  1.00  0.00     0.057 A 
ATOM     70  C   UNL A   1      44.474  33.652  30.394  1.00  0.00     0.134 A 
ATOM     71  C   UNL A   1      44.085  32.963  32.655  1.00  0.00     0.134 A 
ATOM     72  F   UNL A   1      44.595  33.389  29.084  1.00  0.00    -0.206 F 
ATOM     73  C   UNL A   1      44.689  34.962  30.823  1.00  0.00     0.040 A 
ATOM     74  C   UNL A   1      44.276  34.274  33.094  1.00  0.00     0.040 A 
ATOM     75  F   UNL A   1      43.802  32.027  33.573  1.00  0.00    -0.206 F 
ATOM     76  C   UNL A   1      44.586  35.276  32.177  1.00  0.00     0.006 A 
ENDBRANCH  52  69
ENDBRANCH  26  27
ENDBRANCH  18  21
ENDBRANCH  16  17
ENDBRANCH   1  16
TORSDOF 12
ENDMDL
