MODEL 1
REMARK VINA RESULT:     -12.2      0.000      0.000
REMARK SMILES CC(C)(C)c1ccc(C(=O)N/C(=C/c2ccc(O)cc2)C(=O)NCCCNC(=O)c2ccc(-c3c4nc(c(-c5c(F)cccc5F)c5ccc([nH]5)c(-c5c(F)cccc5F)c5nc(c(-c6c(F)cccc6F)c6ccc3[nH]6)C=C5)C=C4)cc2)cc1
REMARK SMILES IDX 24 1 23 2 21 3 22 4 12 6 13 7 11 8 9 9 10 10 8 12 5 13 6 14
REMARK SMILES IDX 85 15 7 16 84 17 2 18 1 19 3 20 4 21 14 22 15 23 20 24 16 25
REMARK SMILES IDX 19 26 17 27 18 28 25 30 26 31 27 32 28 33 29 35 30 36 31 37
REMARK SMILES IDX 83 38 32 39 82 40 33 41 34 42 35 43 76 44 36 45 81 46 75 47
REMARK SMILES IDX 77 48 37 49 80 50 74 51 73 52 38 54 64 55 47 56 63 57 48 58
REMARK SMILES IDX 51 59 62 60 78 61 49 62 50 63 61 65 79 66 52 67 39 68 40 69
REMARK SMILES IDX 45 70 41 71 42 72 44 73 46 74 43 75 65 76 66 77 71 78 67 79
REMARK SMILES IDX 68 80 70 81 72 82 69 83 53 84 54 85 59 86 55 87 56 88 58 89
REMARK SMILES IDX 60 90 57 91
REMARK H PARENT 23 5 11 11 18 29 27 34 77 53 51 64
REMARK Flexibility Score: inf
ROOT
ATOM      1  C   UNL A   1      33.648  27.938  24.926  1.00  0.00     0.118 C 
ENDROOT
BRANCH   1   2
ATOM      2  N   UNL A   1      33.956  26.847  25.803  1.00  0.00    -0.351 N 
ATOM      3  C   UNL A   1      33.393  25.607  25.743  1.00  0.00     0.267 C 
ATOM      4  O   UNL A   1      32.988  25.133  26.808  1.00  0.00    -0.268 OA
ATOM      5  H   UNL A   1      34.627  27.005  26.505  1.00  0.00     0.163 HD
BRANCH   3   6
ATOM      6  C   UNL A   1      33.449  24.709  24.500  1.00  0.00     0.107 C 
ATOM      7  C   UNL A   1      34.471  23.999  23.958  1.00  0.00     0.040 C 
BRANCH   6   8
ATOM      8  N   UNL A   1      32.268  24.674  23.754  1.00  0.00    -0.317 N 
ATOM      9  C   UNL A   1      31.375  23.655  23.472  1.00  0.00     0.255 C 
ATOM     10  O   UNL A   1      30.280  23.949  22.993  1.00  0.00    -0.269 OA
ATOM     11  H   UNL A   1      32.025  25.540  23.353  1.00  0.00     0.170 HD
BRANCH   9  12
ATOM     12  C   UNL A   1      31.727  22.215  23.620  1.00  0.00     0.040 A 
ATOM     13  C   UNL A   1      32.630  19.551  24.006  1.00  0.00    -0.043 A 
ATOM     14  C   UNL A   1      32.282  20.370  25.095  1.00  0.00     0.005 A 
ATOM     15  C   UNL A   1      32.364  20.053  22.720  1.00  0.00     0.005 A 
ATOM     16  C   UNL A   1      31.846  21.688  24.907  1.00  0.00     0.014 A 
ATOM     17  C   UNL A   1      31.896  21.361  22.529  1.00  0.00     0.014 A 
BRANCH  13  18
ATOM     18  C   UNL A   1      33.272  18.166  24.217  1.00  0.00    -0.013 C 
ATOM     19  C   UNL A   1      32.603  17.386  25.376  1.00  0.00     0.016 C 
ATOM     20  C   UNL A   1      34.766  18.342  24.538  1.00  0.00     0.016 C 
ATOM     21  C   UNL A   1      33.136  17.264  22.965  1.00  0.00     0.016 C 
ENDBRANCH  13  18
ENDBRANCH   9  12
ENDBRANCH   6   8
BRANCH   7  22
ATOM     22  C   UNL A   1      35.784  23.616  24.487  1.00  0.00    -0.023 A 
ATOM     23  C   UNL A   1      36.438  24.320  25.506  1.00  0.00     0.012 A 
ATOM     24  C   UNL A   1      36.340  22.415  24.012  1.00  0.00     0.012 A 
ATOM     25  C   UNL A   1      37.539  23.738  26.150  1.00  0.00     0.047 A 
ATOM     26  C   UNL A   1      37.435  21.836  24.658  1.00  0.00     0.047 A 
ATOM     27  C   UNL A   1      37.988  22.478  25.759  1.00  0.00     0.115 A 
BRANCH  27  28
ATOM     28  O   UNL A   1      38.935  21.864  26.523  1.00  0.00    -0.508 OA
ATOM     29  H   UNL A   1      38.681  21.376  27.282  1.00  0.00     0.293 HD
ENDBRANCH  27  28
ENDBRANCH   7  22
ENDBRANCH   3   6
ENDBRANCH   1   2
BRANCH   1  30
ATOM     30  C   UNL A   1      33.433  29.261  25.632  1.00  0.00     0.042 C 
BRANCH  30  31
ATOM     31  C   UNL A   1      33.606  29.141  27.131  1.00  0.00     0.118 C 
BRANCH  31  32
ATOM     32  N   UNL A   1      33.835  30.444  27.759  1.00  0.00    -0.352 N 
ATOM     33  C   UNL A   1      34.853  30.894  28.573  1.00  0.00     0.251 C 
ATOM     34  H   UNL A   1      33.142  31.115  27.567  1.00  0.00     0.163 HD
ATOM     35  O   UNL A   1      34.649  31.868  29.292  1.00  0.00    -0.269 OA
BRANCH  33  36
ATOM     36  C   UNL A   1      36.156  30.186  28.623  1.00  0.00     0.039 A 
ATOM     37  C   UNL A   1      37.025  30.247  27.530  1.00  0.00     0.014 A 
ATOM     38  C   UNL A   1      36.539  29.468  29.752  1.00  0.00     0.014 A 
ATOM     39  C   UNL A   1      38.310  29.703  27.630  1.00  0.00     0.010 A 
ATOM     40  C   UNL A   1      37.861  29.084  29.916  1.00  0.00     0.010 A 
ATOM     41  C   UNL A   1      38.767  29.190  28.854  1.00  0.00    -0.014 A 
BRANCH  41  42
ATOM     42  C   UNL A   1      40.177  28.770  29.069  1.00  0.00     0.031 A 
ATOM     43  C   UNL A   1      41.175  29.732  29.661  1.00  0.00     0.074 A 
ATOM     44  C   UNL A   1      40.588  27.565  28.625  1.00  0.00     0.049 A 
ATOM     45  N   UNL A   1      42.469  29.601  29.807  1.00  0.00    -0.248 NA
ATOM     46  C   UNL A   1      40.657  31.038  30.101  1.00  0.00     0.031 C 
ATOM     47  C   UNL A   1      39.740  26.568  27.966  1.00  0.00     0.029 A 
ATOM     48  N   UNL A   1      41.827  26.977  28.649  1.00  0.00    -0.354 N 
ATOM     49  C   UNL A   1      42.917  30.812  30.319  1.00  0.00     0.074 A 
ATOM     50  C   UNL A   1      41.771  31.691  30.386  1.00  0.00     0.031 C 
ATOM     51  C   UNL A   1      40.470  25.477  27.694  1.00  0.00     0.029 A 
ATOM     52  C   UNL A   1      41.849  25.715  28.107  1.00  0.00     0.049 A 
ATOM     53  H   UNL A   1      42.625  27.418  29.019  1.00  0.00     0.167 HD
ATOM     54  C   UNL A   1      44.161  31.154  30.731  1.00  0.00     0.037 A 
ATOM     55  C   UNL A   1      42.866  24.847  27.954  1.00  0.00     0.037 A 
ATOM     56  C   UNL A   1      45.288  30.261  30.698  1.00  0.00     0.049 A 
ATOM     57  C   UNL A   1      44.239  25.244  28.416  1.00  0.00     0.074 A 
ATOM     58  C   UNL A   1      46.571  30.471  31.169  1.00  0.00     0.029 A 
ATOM     59  N   UNL A   1      45.265  28.984  30.154  1.00  0.00    -0.354 N 
ATOM     60  N   UNL A   1      44.631  26.361  28.980  1.00  0.00    -0.248 NA
ATOM     61  C   UNL A   1      45.312  24.259  28.219  1.00  0.00     0.031 C 
ATOM     62  C   UNL A   1      47.339  29.343  30.862  1.00  0.00     0.029 A 
ATOM     63  C   UNL A   1      46.521  28.408  30.248  1.00  0.00     0.049 A 
ATOM     64  H   UNL A   1      44.472  28.552  29.760  1.00  0.00     0.167 HD
ATOM     65  C   UNL A   1      45.989  26.209  29.223  1.00  0.00     0.074 A 
ATOM     66  C   UNL A   1      46.349  24.882  28.763  1.00  0.00     0.031 C 
ATOM     67  C   UNL A   1      46.861  27.087  29.776  1.00  0.00     0.037 A 
BRANCH  54  68
ATOM     68  C   UNL A   1      44.355  32.552  31.252  1.00  0.00     0.057 A 
ATOM     69  C   UNL A   1      44.198  32.868  32.610  1.00  0.00     0.134 A 
ATOM     70  C   UNL A   1      44.692  33.598  30.384  1.00  0.00     0.134 A 
ATOM     71  F   UNL A   1      43.863  31.918  33.495  1.00  0.00    -0.206 F 
ATOM     72  C   UNL A   1      44.321  34.179  33.076  1.00  0.00     0.040 A 
ATOM     73  C   UNL A   1      44.853  34.906  30.845  1.00  0.00     0.040 A 
ATOM     74  F   UNL A   1      44.867  33.369  29.075  1.00  0.00    -0.206 F 
ATOM     75  C   UNL A   1      44.653  35.202  32.192  1.00  0.00     0.006 A 
ENDBRANCH  54  68
BRANCH  55  76
ATOM     76  C   UNL A   1      42.610  23.503  27.375  1.00  0.00     0.057 A 
ATOM     77  C   UNL A   1      42.676  23.296  25.993  1.00  0.00     0.134 A 
ATOM     78  C   UNL A   1      42.323  22.395  28.180  1.00  0.00     0.134 A 
ATOM     79  F   UNL A   1      42.931  24.323  25.168  1.00  0.00    -0.206 F 
ATOM     80  C   UNL A   1      42.457  22.038  25.430  1.00  0.00     0.040 A 
ATOM     81  C   UNL A   1      42.126  21.125  27.633  1.00  0.00     0.040 A 
ATOM     82  F   UNL A   1      42.255  22.524  29.513  1.00  0.00    -0.206 F 
ATOM     83  C   UNL A   1      42.189  20.945  26.252  1.00  0.00     0.006 A 
ENDBRANCH  55  76
BRANCH  67  84
ATOM     84  C   UNL A   1      48.284  26.636  29.928  1.00  0.00     0.057 A 
ATOM     85  C   UNL A   1      49.264  26.952  28.979  1.00  0.00     0.134 A 
ATOM     86  C   UNL A   1      48.687  25.914  31.060  1.00  0.00     0.134 A 
ATOM     87  F   UNL A   1      48.940  27.629  27.866  1.00  0.00    -0.206 F 
ATOM     88  C   UNL A   1      50.590  26.548  29.139  1.00  0.00     0.040 A 
ATOM     89  C   UNL A   1      50.015  25.531  31.244  1.00  0.00     0.040 A 
ATOM     90  F   UNL A   1      47.800  25.587  32.010  1.00  0.00    -0.206 F 
ATOM     91  C   UNL A   1      50.970  25.843  30.280  1.00  0.00     0.006 A 
ENDBRANCH  67  84
ENDBRANCH  41  42
ENDBRANCH  33  36
ENDBRANCH  31  32
ENDBRANCH  30  31
ENDBRANCH   1  30
TORSDOF 15
ENDMDL
MODEL 2
REMARK VINA RESULT:     -12.2      2.651      4.330
REMARK SMILES CC(C)(C)c1ccc(C(=O)N/C(=C/c2ccc(O)cc2)C(=O)NCCCNC(=O)c2ccc(-c3c4nc(c(-c5c(F)cccc5F)c5ccc([nH]5)c(-c5c(F)cccc5F)c5nc(c(-c6c(F)cccc6F)c6ccc3[nH]6)C=C5)C=C4)cc2)cc1
REMARK SMILES IDX 24 1 23 2 21 3 22 4 12 6 13 7 11 8 9 9 10 10 8 12 5 13 6 14
REMARK SMILES IDX 85 15 7 16 84 17 2 18 1 19 3 20 4 21 14 22 15 23 20 24 16 25
REMARK SMILES IDX 19 26 17 27 18 28 25 30 26 31 27 32 28 33 29 35 30 36 31 37
REMARK SMILES IDX 83 38 32 39 82 40 33 41 34 42 35 43 76 44 36 45 81 46 75 47
REMARK SMILES IDX 77 48 37 49 80 50 74 51 73 52 38 54 64 55 47 56 63 57 48 58
REMARK SMILES IDX 51 59 62 60 78 61 49 62 50 63 61 65 79 66 52 67 39 68 40 69
REMARK SMILES IDX 45 70 41 71 42 72 44 73 46 74 43 75 65 76 66 77 71 78 67 79
REMARK SMILES IDX 68 80 70 81 72 82 69 83 53 84 54 85 59 86 55 87 56 88 58 89
REMARK SMILES IDX 60 90 57 91
REMARK H PARENT 23 5 11 11 18 29 27 34 77 53 51 64
REMARK Flexibility Score: inf
ROOT
ATOM      1  C   UNL A   1      33.071  26.548  25.094  1.00  0.00     0.118 C 
ENDROOT
BRANCH   1   2
ATOM      2  N   UNL A   1      32.408  26.420  26.358  1.00  0.00    -0.351 N 
ATOM      3  C   UNL A   1      31.070  26.585  26.565  1.00  0.00     0.267 C 
ATOM      4  O   UNL A   1      30.744  27.303  27.515  1.00  0.00    -0.268 OA
ATOM      5  H   UNL A   1      32.961  26.196  27.141  1.00  0.00     0.163 HD
BRANCH   3   6
ATOM      6  C   UNL A   1      29.993  25.766  25.843  1.00  0.00     0.107 C 
ATOM      7  C   UNL A   1      29.284  26.022  24.714  1.00  0.00     0.040 C 
BRANCH   6   8
ATOM      8  N   UNL A   1      29.622  24.588  26.497  1.00  0.00    -0.317 N 
ATOM      9  C   UNL A   1      30.346  23.478  26.896  1.00  0.00     0.255 C 
ATOM     10  O   UNL A   1      29.821  22.683  27.677  1.00  0.00    -0.269 OA
ATOM     11  H   UNL A   1      28.663  24.539  26.716  1.00  0.00     0.170 HD
BRANCH   9  12
ATOM     12  C   UNL A   1      31.686  23.149  26.337  1.00  0.00     0.040 A 
ATOM     13  C   UNL A   1      34.321  22.765  25.349  1.00  0.00    -0.043 A 
ATOM     14  C   UNL A   1      34.056  22.804  26.730  1.00  0.00     0.005 A 
ATOM     15  C   UNL A   1      33.210  22.766  24.487  1.00  0.00     0.005 A 
ATOM     16  C   UNL A   1      32.759  23.005  27.219  1.00  0.00     0.014 A 
ATOM     17  C   UNL A   1      31.906  22.933  24.976  1.00  0.00     0.014 A 
BRANCH  13  18
ATOM     18  C   UNL A   1      35.764  22.719  24.810  1.00  0.00    -0.013 C 
ATOM     19  C   UNL A   1      35.832  23.073  23.304  1.00  0.00     0.016 C 
ATOM     20  C   UNL A   1      36.336  21.306  25.011  1.00  0.00     0.016 C 
ATOM     21  C   UNL A   1      36.686  23.736  25.527  1.00  0.00     0.016 C 
ENDBRANCH  13  18
ENDBRANCH   9  12
ENDBRANCH   6   8
BRANCH   7  22
ATOM     22  C   UNL A   1      29.468  27.013  23.649  1.00  0.00    -0.023 A 
ATOM     23  C   UNL A   1      28.557  28.047  23.395  1.00  0.00     0.012 A 
ATOM     24  C   UNL A   1      30.679  26.971  22.936  1.00  0.00     0.012 A 
ATOM     25  C   UNL A   1      28.935  29.111  22.562  1.00  0.00     0.047 A 
ATOM     26  C   UNL A   1      31.054  28.034  22.111  1.00  0.00     0.047 A 
ATOM     27  C   UNL A   1      30.200  29.121  21.978  1.00  0.00     0.115 A 
BRANCH  27  28
ATOM     28  O   UNL A   1      30.603  30.252  21.331  1.00  0.00    -0.508 OA
ATOM     29  H   UNL A   1      31.022  30.941  21.808  1.00  0.00     0.293 HD
ENDBRANCH  27  28
ENDBRANCH   7  22
ENDBRANCH   3   6
ENDBRANCH   1   2
BRANCH   1  30
ATOM     30  C   UNL A   1      33.776  27.874  24.895  1.00  0.00     0.042 C 
BRANCH  30  31
ATOM     31  C   UNL A   1      34.447  28.359  26.162  1.00  0.00     0.118 C 
BRANCH  31  32
ATOM     32  N   UNL A   1      34.139  29.763  26.439  1.00  0.00    -0.352 N 
ATOM     33  C   UNL A   1      34.592  30.616  27.422  1.00  0.00     0.251 C 
ATOM     34  H   UNL A   1      33.496  30.169  25.815  1.00  0.00     0.163 HD
ATOM     35  O   UNL A   1      33.921  31.605  27.704  1.00  0.00    -0.269 OA
BRANCH  33  36
ATOM     36  C   UNL A   1      35.841  30.322  28.168  1.00  0.00     0.039 A 
ATOM     37  C   UNL A   1      35.780  29.654  29.394  1.00  0.00     0.014 A 
ATOM     38  C   UNL A   1      37.083  30.690  27.660  1.00  0.00     0.014 A 
ATOM     39  C   UNL A   1      36.960  29.249  30.027  1.00  0.00     0.010 A 
ATOM     40  C   UNL A   1      38.241  30.143  28.192  1.00  0.00     0.010 A 
ATOM     41  C   UNL A   1      38.198  29.418  29.388  1.00  0.00    -0.014 A 
BRANCH  41  42
ATOM     42  C   UNL A   1      39.461  28.846  29.926  1.00  0.00     0.031 A 
ATOM     43  C   UNL A   1      40.119  29.459  31.135  1.00  0.00     0.074 A 
ATOM     44  C   UNL A   1      40.078  27.850  29.258  1.00  0.00     0.049 A 
ATOM     45  N   UNL A   1      41.281  29.189  31.675  1.00  0.00    -0.248 NA
ATOM     46  C   UNL A   1      39.398  30.559  31.797  1.00  0.00     0.031 C 
ATOM     47  C   UNL A   1      39.586  27.217  28.032  1.00  0.00     0.029 A 
ATOM     48  N   UNL A   1      41.260  27.201  29.510  1.00  0.00    -0.354 N 
ATOM     49  C   UNL A   1      41.439  30.103  32.709  1.00  0.00     0.074 A 
ATOM     50  C   UNL A   1      40.293  30.984  32.672  1.00  0.00     0.031 C 
ATOM     51  C   UNL A   1      40.432  26.242  27.668  1.00  0.00     0.029 A 
ATOM     52  C   UNL A   1      41.553  26.215  28.600  1.00  0.00     0.049 A 
ATOM     53  H   UNL A   1      41.844  27.423  30.272  1.00  0.00     0.167 HD
ATOM     54  C   UNL A   1      42.429  30.185  33.630  1.00  0.00     0.037 A 
ATOM     55  C   UNL A   1      42.609  25.385  28.521  1.00  0.00     0.037 A 
ATOM     56  C   UNL A   1      43.547  29.280  33.683  1.00  0.00     0.049 A 
ATOM     57  C   UNL A   1      43.699  25.490  29.550  1.00  0.00     0.074 A 
ATOM     58  C   UNL A   1      44.559  29.214  34.622  1.00  0.00     0.029 A 
ATOM     59  N   UNL A   1      43.800  28.284  32.750  1.00  0.00    -0.354 N 
ATOM     60  N   UNL A   1      43.792  26.303  30.575  1.00  0.00    -0.248 NA
ATOM     61  C   UNL A   1      44.829  24.562  29.411  1.00  0.00     0.031 C 
ATOM     62  C   UNL A   1      45.455  28.214  34.228  1.00  0.00     0.029 A 
ATOM     63  C   UNL A   1      44.971  27.621  33.073  1.00  0.00     0.049 A 
ATOM     64  H   UNL A   1      43.229  28.080  31.974  1.00  0.00     0.167 HD
ATOM     65  C   UNL A   1      44.980  25.974  31.214  1.00  0.00     0.074 A 
ATOM     66  C   UNL A   1      45.562  24.873  30.471  1.00  0.00     0.031 C 
ATOM     67  C   UNL A   1      45.539  26.532  32.316  1.00  0.00     0.037 A 
BRANCH  54  68
ATOM     68  C   UNL A   1      42.336  31.288  34.647  1.00  0.00     0.057 A 
ATOM     69  C   UNL A   1      41.648  31.127  35.859  1.00  0.00     0.134 A 
ATOM     70  C   UNL A   1      42.933  32.533  34.409  1.00  0.00     0.134 A 
ATOM     71  F   UNL A   1      41.042  29.965  36.148  1.00  0.00    -0.206 F 
ATOM     72  C   UNL A   1      41.516  32.176  36.772  1.00  0.00     0.040 A 
ATOM     73  C   UNL A   1      42.837  33.577  35.331  1.00  0.00     0.040 A 
ATOM     74  F   UNL A   1      43.614  32.757  33.276  1.00  0.00    -0.206 F 
ATOM     75  C   UNL A   1      42.114  33.404  36.510  1.00  0.00     0.006 A 
ENDBRANCH  54  68
BRANCH  55  76
ATOM     76  C   UNL A   1      42.662  24.357  27.450  1.00  0.00     0.057 A 
ATOM     77  C   UNL A   1      42.162  23.069  27.672  1.00  0.00     0.134 A 
ATOM     78  C   UNL A   1      43.181  24.637  26.181  1.00  0.00     0.134 A 
ATOM     79  F   UNL A   1      41.666  22.735  28.873  1.00  0.00    -0.206 F 
ATOM     80  C   UNL A   1      42.184  22.093  26.674  1.00  0.00     0.040 A 
ATOM     81  C   UNL A   1      43.187  23.678  25.165  1.00  0.00     0.040 A 
ATOM     82  F   UNL A   1      43.666  25.855  25.900  1.00  0.00    -0.206 F 
ATOM     83  C   UNL A   1      42.690  22.399  25.413  1.00  0.00     0.006 A 
ENDBRANCH  55  76
BRANCH  67  84
ATOM     84  C   UNL A   1      46.838  25.952  32.792  1.00  0.00     0.057 A 
ATOM     85  C   UNL A   1      46.883  24.905  33.721  1.00  0.00     0.134 A 
ATOM     86  C   UNL A   1      48.058  26.417  32.281  1.00  0.00     0.134 A 
ATOM     87  F   UNL A   1      45.751  24.424  34.259  1.00  0.00    -0.206 F 
ATOM     88  C   UNL A   1      48.095  24.355  34.142  1.00  0.00     0.040 A 
ATOM     89  C   UNL A   1      49.273  25.855  32.671  1.00  0.00     0.040 A 
ATOM     90  F   UNL A   1      48.084  27.411  31.382  1.00  0.00    -0.206 F 
ATOM     91  C   UNL A   1      49.294  24.825  33.609  1.00  0.00     0.006 A 
ENDBRANCH  67  84
ENDBRANCH  41  42
ENDBRANCH  33  36
ENDBRANCH  31  32
ENDBRANCH  30  31
ENDBRANCH   1  30
TORSDOF 15
ENDMDL
MODEL 3
REMARK VINA RESULT:     -12.1      2.876      6.658
REMARK SMILES CC(C)(C)c1ccc(C(=O)N/C(=C/c2ccc(O)cc2)C(=O)NCCCNC(=O)c2ccc(-c3c4nc(c(-c5c(F)cccc5F)c5ccc([nH]5)c(-c5c(F)cccc5F)c5nc(c(-c6c(F)cccc6F)c6ccc3[nH]6)C=C5)C=C4)cc2)cc1
REMARK SMILES IDX 24 1 23 2 21 3 22 4 12 6 13 7 11 8 9 9 10 10 8 12 5 13 6 14
REMARK SMILES IDX 85 15 7 16 84 17 2 18 1 19 3 20 4 21 14 22 15 23 20 24 16 25
REMARK SMILES IDX 19 26 17 27 18 28 25 30 26 31 27 32 28 33 29 35 30 36 31 37
REMARK SMILES IDX 83 38 32 39 82 40 33 41 34 42 35 43 76 44 36 45 81 46 75 47
REMARK SMILES IDX 77 48 37 49 80 50 74 51 73 52 38 54 64 55 47 56 63 57 48 58
REMARK SMILES IDX 51 59 62 60 78 61 49 62 50 63 61 65 79 66 52 67 39 68 40 69
REMARK SMILES IDX 45 70 41 71 42 72 44 73 46 74 43 75 65 76 66 77 71 78 67 79
REMARK SMILES IDX 68 80 70 81 72 82 69 83 53 84 54 85 59 86 55 87 56 88 58 89
REMARK SMILES IDX 60 90 57 91
REMARK H PARENT 23 5 11 11 18 29 27 34 77 53 51 64
REMARK Flexibility Score: inf
ROOT
ATOM      1  C   UNL A   1      34.948  23.253  25.045  1.00  0.00     0.118 C 
ENDROOT
BRANCH   1   2
ATOM      2  N   UNL A   1      34.901  22.191  26.006  1.00  0.00    -0.351 N 
ATOM      3  C   UNL A   1      33.832  21.897  26.801  1.00  0.00     0.267 C 
ATOM      4  O   UNL A   1      34.069  21.722  28.000  1.00  0.00    -0.268 OA
ATOM      5  H   UNL A   1      35.703  21.628  26.100  1.00  0.00     0.163 HD
BRANCH   3   6
ATOM      6  C   UNL A   1      32.439  21.557  26.257  1.00  0.00     0.107 C 
ATOM      7  C   UNL A   1      32.052  20.749  25.237  1.00  0.00     0.040 C 
BRANCH   6   8
ATOM      8  N   UNL A   1      31.391  22.254  26.864  1.00  0.00    -0.317 N 
ATOM      9  C   UNL A   1      30.769  23.452  26.558  1.00  0.00     0.255 C 
ATOM     10  O   UNL A   1      29.704  23.720  27.115  1.00  0.00    -0.269 OA
ATOM     11  H   UNL A   1      31.027  21.808  27.663  1.00  0.00     0.170 HD
BRANCH   9  12
ATOM     12  C   UNL A   1      31.388  24.475  25.670  1.00  0.00     0.040 A 
ATOM     13  C   UNL A   1      32.409  26.606  24.096  1.00  0.00    -0.043 A 
ATOM     14  C   UNL A   1      32.700  26.506  25.469  1.00  0.00     0.005 A 
ATOM     15  C   UNL A   1      31.725  25.527  23.509  1.00  0.00     0.005 A 
ATOM     16  C   UNL A   1      32.188  25.461  26.248  1.00  0.00     0.014 A 
ATOM     17  C   UNL A   1      31.239  24.462  24.283  1.00  0.00     0.014 A 
BRANCH  13  18
ATOM     18  C   UNL A   1      32.824  27.843  23.276  1.00  0.00    -0.013 C 
ATOM     19  C   UNL A   1      33.642  27.457  22.018  1.00  0.00     0.016 C 
ATOM     20  C   UNL A   1      33.680  28.771  24.155  1.00  0.00     0.016 C 
ATOM     21  C   UNL A   1      31.600  28.637  22.759  1.00  0.00     0.016 C 
ENDBRANCH  13  18
ENDBRANCH   9  12
ENDBRANCH   6   8
BRANCH   7  22
ATOM     22  C   UNL A   1      32.772  19.723  24.476  1.00  0.00    -0.023 A 
ATOM     23  C   UNL A   1      33.967  19.137  24.914  1.00  0.00     0.012 A 
ATOM     24  C   UNL A   1      32.153  19.238  23.310  1.00  0.00     0.012 A 
ATOM     25  C   UNL A   1      34.437  17.976  24.284  1.00  0.00     0.047 A 
ATOM     26  C   UNL A   1      32.623  18.079  22.687  1.00  0.00     0.047 A 
ATOM     27  C   UNL A   1      33.728  17.427  23.217  1.00  0.00     0.115 A 
BRANCH  27  28
ATOM     28  O   UNL A   1      34.107  16.203  22.751  1.00  0.00    -0.508 OA
ATOM     29  H   UNL A   1      34.631  15.639  23.286  1.00  0.00     0.293 HD
ENDBRANCH  27  28
ENDBRANCH   7  22
ENDBRANCH   3   6
ENDBRANCH   1   2
BRANCH   1  30
ATOM     30  C   UNL A   1      35.523  22.850  23.702  1.00  0.00     0.042 C 
BRANCH  30  31
ATOM     31  C   UNL A   1      37.024  22.665  23.756  1.00  0.00     0.118 C 
BRANCH  31  32
ATOM     32  N   UNL A   1      37.399  21.467  24.510  1.00  0.00    -0.352 N 
ATOM     33  C   UNL A   1      38.393  21.252  25.440  1.00  0.00     0.251 C 
ATOM     34  H   UNL A   1      36.844  20.677  24.319  1.00  0.00     0.163 HD
ATOM     35  O   UNL A   1      38.774  20.103  25.644  1.00  0.00    -0.269 OA
BRANCH  33  36
ATOM     36  C   UNL A   1      39.033  22.389  26.146  1.00  0.00     0.039 A 
ATOM     37  C   UNL A   1      40.230  22.195  26.840  1.00  0.00     0.014 A 
ATOM     38  C   UNL A   1      38.465  23.660  26.120  1.00  0.00     0.014 A 
ATOM     39  C   UNL A   1      40.908  23.292  27.383  1.00  0.00     0.010 A 
ATOM     40  C   UNL A   1      39.214  24.763  26.502  1.00  0.00     0.010 A 
ATOM     41  C   UNL A   1      40.445  24.596  27.145  1.00  0.00    -0.014 A 
BRANCH  41  42
ATOM     42  C   UNL A   1      41.219  25.804  27.538  1.00  0.00     0.031 A 
ATOM     43  C   UNL A   1      40.570  26.889  28.358  1.00  0.00     0.074 A 
ATOM     44  C   UNL A   1      42.467  25.979  27.060  1.00  0.00     0.049 A 
ATOM     45  N   UNL A   1      41.031  28.068  28.690  1.00  0.00    -0.248 NA
ATOM     46  C   UNL A   1      39.196  26.636  28.824  1.00  0.00     0.031 C 
ATOM     47  C   UNL A   1      43.185  25.041  26.194  1.00  0.00     0.029 A 
ATOM     48  N   UNL A   1      43.351  27.015  27.223  1.00  0.00    -0.354 N 
ATOM     49  C   UNL A   1      39.998  28.702  29.368  1.00  0.00     0.074 A 
ATOM     50  C   UNL A   1      38.861  27.810  29.333  1.00  0.00     0.031 C 
ATOM     51  C   UNL A   1      44.412  25.519  25.945  1.00  0.00     0.029 A 
ATOM     52  C   UNL A   1      44.552  26.822  26.584  1.00  0.00     0.049 A 
ATOM     53  H   UNL A   1      43.144  27.822  27.749  1.00  0.00     0.167 HD
ATOM     54  C   UNL A   1      40.002  29.903  29.995  1.00  0.00     0.037 A 
ATOM     55  C   UNL A   1      45.641  27.609  26.516  1.00  0.00     0.037 A 
ATOM     56  C   UNL A   1      41.150  30.768  30.059  1.00  0.00     0.049 A 
ATOM     57  C   UNL A   1      45.628  28.938  27.217  1.00  0.00     0.074 A 
ATOM     58  C   UNL A   1      41.294  31.963  30.739  1.00  0.00     0.029 A 
ATOM     59  N   UNL A   1      42.353  30.529  29.409  1.00  0.00    -0.354 N 
ATOM     60  N   UNL A   1      44.673  29.486  27.929  1.00  0.00    -0.248 NA
ATOM     61  C   UNL A   1      46.843  29.756  27.103  1.00  0.00     0.031 C 
ATOM     62  C   UNL A   1      42.565  32.475  30.457  1.00  0.00     0.029 A 
ATOM     63  C   UNL A   1      43.233  31.572  29.646  1.00  0.00     0.049 A 
ATOM     64  H   UNL A   1      42.551  29.734  28.862  1.00  0.00     0.167 HD
ATOM     65  C   UNL A   1      45.176  30.705  28.364  1.00  0.00     0.074 A 
ATOM     66  C   UNL A   1      46.529  30.805  27.852  1.00  0.00     0.031 C 
ATOM     67  C   UNL A   1      44.574  31.656  29.120  1.00  0.00     0.037 A 
BRANCH  54  68
ATOM     68  C   UNL A   1      38.725  30.338  30.659  1.00  0.00     0.057 A 
ATOM     69  C   UNL A   1      38.392  29.944  31.963  1.00  0.00     0.134 A 
ATOM     70  C   UNL A   1      37.809  31.154  29.982  1.00  0.00     0.134 A 
ATOM     71  F   UNL A   1      39.216  29.152  32.666  1.00  0.00    -0.206 F 
ATOM     72  C   UNL A   1      37.177  30.303  32.550  1.00  0.00     0.040 A 
ATOM     73  C   UNL A   1      36.607  31.549  30.573  1.00  0.00     0.040 A 
ATOM     74  F   UNL A   1      38.064  31.577  28.736  1.00  0.00    -0.206 F 
ATOM     75  C   UNL A   1      36.282  31.111  31.855  1.00  0.00     0.006 A 
ENDBRANCH  54  68
BRANCH  55  76
ATOM     76  C   UNL A   1      46.848  27.137  25.790  1.00  0.00     0.057 A 
ATOM     77  C   UNL A   1      47.055  27.478  24.449  1.00  0.00     0.134 A 
ATOM     78  C   UNL A   1      47.832  26.363  26.417  1.00  0.00     0.134 A 
ATOM     79  F   UNL A   1      46.141  28.204  23.788  1.00  0.00    -0.206 F 
ATOM     80  C   UNL A   1      48.192  27.061  23.754  1.00  0.00     0.040 A 
ATOM     81  C   UNL A   1      48.986  25.959  25.741  1.00  0.00     0.040 A 
ATOM     82  F   UNL A   1      47.699  26.010  27.704  1.00  0.00    -0.206 F 
ATOM     83  C   UNL A   1      49.165  26.306  24.403  1.00  0.00     0.006 A 
ENDBRANCH  55  76
BRANCH  67  84
ATOM     84  C   UNL A   1      45.378  32.879  29.449  1.00  0.00     0.057 A 
ATOM     85  C   UNL A   1      46.253  32.915  30.542  1.00  0.00     0.134 A 
ATOM     86  C   UNL A   1      45.309  34.019  28.637  1.00  0.00     0.134 A 
ATOM     87  F   UNL A   1      46.354  31.861  31.367  1.00  0.00    -0.206 F 
ATOM     88  C   UNL A   1      47.015  34.048  30.829  1.00  0.00     0.040 A 
ATOM     89  C   UNL A   1      46.089  35.146  28.896  1.00  0.00     0.040 A 
ATOM     90  F   UNL A   1      44.498  34.047  27.569  1.00  0.00    -0.206 F 
ATOM     91  C   UNL A   1      46.940  35.165  29.998  1.00  0.00     0.006 A 
ENDBRANCH  67  84
ENDBRANCH  41  42
ENDBRANCH  33  36
ENDBRANCH  31  32
ENDBRANCH  30  31
ENDBRANCH   1  30
TORSDOF 15
ENDMDL
