MODEL 1
REMARK VINA RESULT:     -13.1      0.000      0.000
REMARK SMILES Cc1ccc2nc3c(c(C(=O)NCCCNC(=O)c4ccc(-c5c6nc(c(-c7c(F)cccc7F)c7ccc([nH]7)c(-c7c(F)cccc7F)c7nc(c(-c8c(F)cccc8F)c8ccc5[nH]8)C=C7)C=C6)cc4)c2c1)C[C@H](C)CC3
REMARK SMILES IDX 15 1 14 2 13 3 12 4 10 5 11 6 9 8 1 9 2 10 3 11 74 12 4 13
REMARK SMILES IDX 73 14 5 15 6 16 8 17 7 18 75 19 79 20 76 21 78 22 77 23
REMARK SMILES IDX 16 24 17 25 18 27 19 28 20 29 72 30 21 31 71 32 22 33 23 34
REMARK SMILES IDX 24 35 65 36 25 37 70 38 64 39 66 40 26 41 69 42 63 43 62 44
REMARK SMILES IDX 27 46 53 47 36 48 52 49 37 50 40 51 51 52 67 53 38 54 39 55
REMARK SMILES IDX 50 57 68 58 41 59 28 60 29 61 34 62 30 63 31 64 33 65 35 66
REMARK SMILES IDX 32 67 54 68 55 69 60 70 56 71 57 72 59 73 61 74 58 75 42 76
REMARK SMILES IDX 43 77 48 78 44 79 45 80 47 81 49 82 46 83
REMARK H PARENT 12 7 16 26 66 45 40 56
REMARK Flexibility Score: inf
ROOT
ATOM      1  C   UNL A   1      38.276  24.086  26.204  1.00  0.00     0.118 C 
ENDROOT
BRANCH   1   2
ATOM      2  C   UNL A   1      37.519  23.370  25.100  1.00  0.00     0.042 C 
BRANCH   2   3
ATOM      3  C   UNL A   1      37.535  21.838  25.214  1.00  0.00     0.118 C 
BRANCH   3   4
ATOM      4  N   UNL A   1      36.486  21.418  26.125  1.00  0.00    -0.352 N 
ATOM      5  C   UNL A   1      35.112  21.455  26.126  1.00  0.00     0.252 C 
ATOM      6  O   UNL A   1      34.658  21.545  27.271  1.00  0.00    -0.269 OA
ATOM      7  H   UNL A   1      36.848  21.007  26.942  1.00  0.00     0.163 HD
BRANCH   5   8
ATOM      8  C   UNL A   1      34.168  21.270  24.946  1.00  0.00     0.054 A 
ATOM      9  C   UNL A   1      34.456  16.237  24.654  1.00  0.00     0.044 C 
ATOM     10  C   UNL A   1      33.879  17.539  24.185  1.00  0.00    -0.050 A 
ATOM     11  C   UNL A   1      32.751  17.562  23.386  1.00  0.00     0.005 A 
ATOM     12  C   UNL A   1      34.451  18.765  24.549  1.00  0.00     0.014 A 
ATOM     13  C   UNL A   1      32.221  18.787  22.996  1.00  0.00     0.029 A 
ATOM     14  C   UNL A   1      33.811  20.011  24.361  1.00  0.00     0.013 A 
ATOM     15  C   UNL A   1      32.725  19.992  23.468  1.00  0.00     0.071 A 
ATOM     16  N   UNL A   1      32.132  21.095  23.021  1.00  0.00    -0.253 NA
ATOM     17  C   UNL A   1      33.556  22.454  24.421  1.00  0.00    -0.013 A 
ATOM     18  C   UNL A   1      32.560  22.298  23.451  1.00  0.00     0.045 A 
ATOM     19  C   UNL A   1      33.870  23.858  24.912  1.00  0.00     0.041 C 
ATOM     20  C   UNL A   1      31.910  23.463  22.754  1.00  0.00     0.057 C 
ATOM     21  C   UNL A   1      33.373  25.010  24.023  1.00  0.00    -0.009 C 
ATOM     22  C   UNL A   1      31.946  24.749  23.560  1.00  0.00     0.010 C 
ATOM     23  C   UNL A   1      33.479  26.346  24.758  1.00  0.00     0.008 C 
ENDBRANCH   5   8
ENDBRANCH   3   4
ENDBRANCH   2   3
ENDBRANCH   1   2
BRANCH   1  24
ATOM     24  N   UNL A   1      39.717  23.934  26.052  1.00  0.00    -0.352 N 
ATOM     25  C   UNL A   1      40.763  24.709  26.487  1.00  0.00     0.251 C 
ATOM     26  H   UNL A   1      39.989  23.134  25.546  1.00  0.00     0.163 HD
ATOM     27  O   UNL A   1      41.881  24.521  26.002  1.00  0.00    -0.269 OA
BRANCH  25  28
ATOM     28  C   UNL A   1      40.581  25.776  27.501  1.00  0.00     0.039 A 
ATOM     29  C   UNL A   1      41.292  26.972  27.435  1.00  0.00     0.014 A 
ATOM     30  C   UNL A   1      39.636  25.603  28.521  1.00  0.00     0.014 A 
ATOM     31  C   UNL A   1      41.228  27.882  28.481  1.00  0.00     0.010 A 
ATOM     32  C   UNL A   1      39.466  26.590  29.499  1.00  0.00     0.010 A 
ATOM     33  C   UNL A   1      40.297  27.720  29.517  1.00  0.00    -0.014 A 
BRANCH  33  34
ATOM     34  C   UNL A   1      40.204  28.762  30.576  1.00  0.00     0.031 A 
ATOM     35  C   UNL A   1      39.172  29.855  30.500  1.00  0.00     0.074 A 
ATOM     36  C   UNL A   1      41.025  28.684  31.643  1.00  0.00     0.049 A 
ATOM     37  N   UNL A   1      38.944  30.836  31.339  1.00  0.00    -0.248 NA
ATOM     38  C   UNL A   1      38.282  29.857  29.328  1.00  0.00     0.031 C 
ATOM     39  C   UNL A   1      42.070  27.673  31.835  1.00  0.00     0.029 A 
ATOM     40  N   UNL A   1      41.098  29.447  32.781  1.00  0.00    -0.354 N 
ATOM     41  C   UNL A   1      37.910  31.581  30.786  1.00  0.00     0.074 A 
ATOM     42  C   UNL A   1      37.573  30.959  29.524  1.00  0.00     0.031 C 
ATOM     43  C   UNL A   1      42.634  27.841  33.039  1.00  0.00     0.029 A 
ATOM     44  C   UNL A   1      42.055  29.019  33.670  1.00  0.00     0.049 A 
ATOM     45  H   UNL A   1      40.520  30.227  32.946  1.00  0.00     0.167 HD
ATOM     46  C   UNL A   1      37.292  32.678  31.288  1.00  0.00     0.037 A 
ATOM     47  C   UNL A   1      42.448  29.533  34.849  1.00  0.00     0.037 A 
ATOM     48  C   UNL A   1      37.619  33.282  32.555  1.00  0.00     0.049 A 
ATOM     49  C   UNL A   1      41.773  30.775  35.356  1.00  0.00     0.074 A 
ATOM     50  C   UNL A   1      37.030  34.374  33.168  1.00  0.00     0.029 A 
ATOM     51  N   UNL A   1      38.627  32.846  33.402  1.00  0.00    -0.354 N 
ATOM     52  N   UNL A   1      40.781  31.451  34.832  1.00  0.00    -0.248 NA
ATOM     53  C   UNL A   1      42.283  31.329  36.617  1.00  0.00     0.031 C 
ATOM     54  C   UNL A   1      37.720  34.634  34.358  1.00  0.00     0.029 A 
ATOM     55  C   UNL A   1      38.698  33.667  34.516  1.00  0.00     0.049 A 
ATOM     56  H   UNL A   1      39.209  32.069  33.235  1.00  0.00     0.167 HD
ATOM     57  C   UNL A   1      40.536  32.501  35.705  1.00  0.00     0.074 A 
ATOM     58  C   UNL A   1      41.462  32.350  36.809  1.00  0.00     0.031 C 
ATOM     59  C   UNL A   1      39.630  33.505  35.603  1.00  0.00     0.037 A 
BRANCH  46  60
ATOM     60  C   UNL A   1      36.216  33.316  30.454  1.00  0.00     0.057 A 
ATOM     61  C   UNL A   1      34.865  33.097  30.751  1.00  0.00     0.134 A 
ATOM     62  C   UNL A   1      36.509  34.114  29.340  1.00  0.00     0.134 A 
ATOM     63  F   UNL A   1      34.511  32.338  31.799  1.00  0.00    -0.206 F 
ATOM     64  C   UNL A   1      33.845  33.645  29.970  1.00  0.00     0.040 A 
ATOM     65  C   UNL A   1      35.497  34.691  28.568  1.00  0.00     0.040 A 
ATOM     66  F   UNL A   1      37.781  34.376  29.005  1.00  0.00    -0.206 F 
ATOM     67  C   UNL A   1      34.160  34.450  28.879  1.00  0.00     0.006 A 
ENDBRANCH  46  60
BRANCH  47  68
ATOM     68  C   UNL A   1      43.558  28.906  35.612  1.00  0.00     0.057 A 
ATOM     69  C   UNL A   1      43.322  27.851  36.504  1.00  0.00     0.134 A 
ATOM     70  C   UNL A   1      44.885  29.315  35.439  1.00  0.00     0.134 A 
ATOM     71  F   UNL A   1      42.073  27.414  36.723  1.00  0.00    -0.206 F 
ATOM     72  C   UNL A   1      44.363  27.229  37.195  1.00  0.00     0.040 A 
ATOM     73  C   UNL A   1      45.939  28.679  36.097  1.00  0.00     0.040 A 
ATOM     74  F   UNL A   1      45.179  30.308  34.585  1.00  0.00    -0.206 F 
ATOM     75  C   UNL A   1      45.677  27.635  36.981  1.00  0.00     0.006 A 
ENDBRANCH  47  68
BRANCH  59  76
ATOM     76  C   UNL A   1      39.587  34.492  36.734  1.00  0.00     0.057 A 
ATOM     77  C   UNL A   1      38.872  34.204  37.903  1.00  0.00     0.134 A 
ATOM     78  C   UNL A   1      40.257  35.721  36.670  1.00  0.00     0.134 A 
ATOM     79  F   UNL A   1      38.202  33.049  38.025  1.00  0.00    -0.206 F 
ATOM     80  C   UNL A   1      38.830  35.099  38.971  1.00  0.00     0.040 A 
ATOM     81  C   UNL A   1      40.250  36.610  37.746  1.00  0.00     0.040 A 
ATOM     82  F   UNL A   1      40.974  36.050  35.585  1.00  0.00    -0.206 F 
ATOM     83  C   UNL A   1      39.532  36.302  38.900  1.00  0.00     0.006 A 
ENDBRANCH  59  76
ENDBRANCH  33  34
ENDBRANCH  25  28
ENDBRANCH   1  24
TORSDOF 10
ENDMDL
MODEL 2
REMARK VINA RESULT:     -13.0      0.492      2.823
REMARK SMILES Cc1ccc2nc3c(c(C(=O)NCCCNC(=O)c4ccc(-c5c6nc(c(-c7c(F)cccc7F)c7ccc([nH]7)c(-c7c(F)cccc7F)c7nc(c(-c8c(F)cccc8F)c8ccc5[nH]8)C=C7)C=C6)cc4)c2c1)C[C@H](C)CC3
REMARK SMILES IDX 15 1 14 2 13 3 12 4 10 5 11 6 9 8 1 9 2 10 3 11 74 12 4 13
REMARK SMILES IDX 73 14 5 15 6 16 8 17 7 18 75 19 79 20 76 21 78 22 77 23
REMARK SMILES IDX 16 24 17 25 18 27 19 28 20 29 72 30 21 31 71 32 22 33 23 34
REMARK SMILES IDX 24 35 65 36 25 37 70 38 64 39 66 40 26 41 69 42 63 43 62 44
REMARK SMILES IDX 27 46 53 47 36 48 52 49 37 50 40 51 51 52 67 53 38 54 39 55
REMARK SMILES IDX 50 57 68 58 41 59 28 60 29 61 34 62 30 63 31 64 33 65 35 66
REMARK SMILES IDX 32 67 54 68 55 69 60 70 56 71 57 72 59 73 61 74 58 75 42 76
REMARK SMILES IDX 43 77 48 78 44 79 45 80 47 81 49 82 46 83
REMARK H PARENT 12 7 16 26 66 45 40 56
REMARK Flexibility Score: inf
ROOT
ATOM      1  C   UNL A   1      38.086  23.947  26.349  1.00  0.00     0.118 C 
ENDROOT
BRANCH   1   2
ATOM      2  C   UNL A   1      37.292  23.300  25.229  1.00  0.00     0.042 C 
BRANCH   2   3
ATOM      3  C   UNL A   1      37.251  21.766  25.289  1.00  0.00     0.118 C 
BRANCH   3   4
ATOM      4  N   UNL A   1      36.140  21.352  26.127  1.00  0.00    -0.352 N 
ATOM      5  C   UNL A   1      34.819  21.710  26.258  1.00  0.00     0.252 C 
ATOM      6  O   UNL A   1      34.417  21.558  27.415  1.00  0.00    -0.269 OA
ATOM      7  H   UNL A   1      36.396  20.641  26.757  1.00  0.00     0.163 HD
BRANCH   5   8
ATOM      8  C   UNL A   1      33.845  22.117  25.161  1.00  0.00     0.054 A 
ATOM      9  C   UNL A   1      34.014  27.102  25.945  1.00  0.00     0.044 C 
ATOM     10  C   UNL A   1      33.524  25.922  25.161  1.00  0.00    -0.050 A 
ATOM     11  C   UNL A   1      32.934  26.096  23.922  1.00  0.00     0.005 A 
ATOM     12  C   UNL A   1      33.659  24.616  25.648  1.00  0.00     0.014 A 
ATOM     13  C   UNL A   1      32.521  24.977  23.206  1.00  0.00     0.029 A 
ATOM     14  C   UNL A   1      33.460  23.463  24.854  1.00  0.00     0.013 A 
ATOM     15  C   UNL A   1      32.775  23.684  23.646  1.00  0.00     0.071 A 
ATOM     16  N   UNL A   1      32.329  22.700  22.871  1.00  0.00    -0.253 NA
ATOM     17  C   UNL A   1      33.318  21.063  24.347  1.00  0.00    -0.013 A 
ATOM     18  C   UNL A   1      32.556  21.421  23.230  1.00  0.00     0.045 A 
ATOM     19  C   UNL A   1      33.604  19.589  24.582  1.00  0.00     0.041 C 
ATOM     20  C   UNL A   1      31.868  20.410  22.352  1.00  0.00     0.057 C 
ATOM     21  C   UNL A   1      32.703  18.598  23.824  1.00  0.00    -0.009 C 
ATOM     22  C   UNL A   1      32.523  19.040  22.379  1.00  0.00     0.010 C 
ATOM     23  C   UNL A   1      33.271  17.181  23.902  1.00  0.00     0.008 C 
ENDBRANCH   5   8
ENDBRANCH   3   4
ENDBRANCH   2   3
ENDBRANCH   1   2
BRANCH   1  24
ATOM     24  N   UNL A   1      39.521  23.833  26.124  1.00  0.00    -0.352 N 
ATOM     25  C   UNL A   1      40.565  24.643  26.494  1.00  0.00     0.251 C 
ATOM     26  H   UNL A   1      39.789  23.033  25.616  1.00  0.00     0.163 HD
ATOM     27  O   UNL A   1      41.662  24.477  25.953  1.00  0.00    -0.269 OA
BRANCH  25  28
ATOM     28  C   UNL A   1      40.406  25.720  27.500  1.00  0.00     0.039 A 
ATOM     29  C   UNL A   1      41.075  26.935  27.378  1.00  0.00     0.014 A 
ATOM     30  C   UNL A   1      39.524  25.534  28.573  1.00  0.00     0.014 A 
ATOM     31  C   UNL A   1      41.040  27.860  28.414  1.00  0.00     0.010 A 
ATOM     32  C   UNL A   1      39.377  26.531  29.545  1.00  0.00     0.010 A 
ATOM     33  C   UNL A   1      40.172  27.686  29.501  1.00  0.00    -0.014 A 
BRANCH  33  34
ATOM     34  C   UNL A   1      40.105  28.741  30.549  1.00  0.00     0.031 A 
ATOM     35  C   UNL A   1      39.078  29.840  30.479  1.00  0.00     0.074 A 
ATOM     36  C   UNL A   1      40.945  28.671  31.603  1.00  0.00     0.049 A 
ATOM     37  N   UNL A   1      38.872  30.832  31.309  1.00  0.00    -0.248 NA
ATOM     38  C   UNL A   1      38.168  29.833  29.323  1.00  0.00     0.031 C 
ATOM     39  C   UNL A   1      41.987  27.655  31.787  1.00  0.00     0.029 A 
ATOM     40  N   UNL A   1      41.043  29.447  32.730  1.00  0.00    -0.354 N 
ATOM     41  C   UNL A   1      37.833  31.577  30.766  1.00  0.00     0.074 A 
ATOM     42  C   UNL A   1      37.469  30.942  29.518  1.00  0.00     0.031 C 
ATOM     43  C   UNL A   1      42.573  27.833  32.980  1.00  0.00     0.029 A 
ATOM     44  C   UNL A   1      42.013  29.023  33.606  1.00  0.00     0.049 A 
ATOM     45  H   UNL A   1      40.473  30.232  32.895  1.00  0.00     0.167 HD
ATOM     46  C   UNL A   1      37.231  32.684  31.266  1.00  0.00     0.037 A 
ATOM     47  C   UNL A   1      42.430  29.549  34.772  1.00  0.00     0.037 A 
ATOM     48  C   UNL A   1      37.584  33.301  32.519  1.00  0.00     0.049 A 
ATOM     49  C   UNL A   1      41.773  30.801  35.276  1.00  0.00     0.074 A 
ATOM     50  C   UNL A   1      37.013  34.405  33.129  1.00  0.00     0.029 A 
ATOM     51  N   UNL A   1      38.605  32.869  33.353  1.00  0.00    -0.354 N 
ATOM     52  N   UNL A   1      40.776  31.477  34.761  1.00  0.00    -0.248 NA
ATOM     53  C   UNL A   1      42.308  31.367  36.520  1.00  0.00     0.031 C 
ATOM     54  C   UNL A   1      37.726  34.675  34.303  1.00  0.00     0.029 A 
ATOM     55  C   UNL A   1      38.701  33.703  34.456  1.00  0.00     0.049 A 
ATOM     56  H   UNL A   1      39.179  32.086  33.185  1.00  0.00     0.167 HD
ATOM     57  C   UNL A   1      40.552  32.539  35.626  1.00  0.00     0.074 A 
ATOM     58  C   UNL A   1      41.497  32.396  36.715  1.00  0.00     0.031 C 
ATOM     59  C   UNL A   1      39.651  33.548  35.527  1.00  0.00     0.037 A 
BRANCH  46  60
ATOM     60  C   UNL A   1      36.144  33.319  30.443  1.00  0.00     0.057 A 
ATOM     61  C   UNL A   1      36.465  34.122  29.342  1.00  0.00     0.134 A 
ATOM     62  C   UNL A   1      34.787  33.169  30.755  1.00  0.00     0.134 A 
ATOM     63  F   UNL A   1      37.746  34.315  28.988  1.00  0.00    -0.206 F 
ATOM     64  C   UNL A   1      35.478  34.755  28.583  1.00  0.00     0.040 A 
ATOM     65  C   UNL A   1      33.788  33.773  29.987  1.00  0.00     0.040 A 
ATOM     66  F   UNL A   1      34.407  32.403  31.790  1.00  0.00    -0.206 F 
ATOM     67  C   UNL A   1      34.134  34.575  28.902  1.00  0.00     0.006 A 
ENDBRANCH  46  60
BRANCH  47  68
ATOM     68  C   UNL A   1      43.550  28.924  35.522  1.00  0.00     0.057 A 
ATOM     69  C   UNL A   1      43.319  27.910  36.461  1.00  0.00     0.134 A 
ATOM     70  C   UNL A   1      44.880  29.294  35.291  1.00  0.00     0.134 A 
ATOM     71  F   UNL A   1      42.068  27.512  36.737  1.00  0.00    -0.206 F 
ATOM     72  C   UNL A   1      44.367  27.289  37.142  1.00  0.00     0.040 A 
ATOM     73  C   UNL A   1      45.940  28.657  35.939  1.00  0.00     0.040 A 
ATOM     74  F   UNL A   1      45.169  30.246  34.391  1.00  0.00    -0.206 F 
ATOM     75  C   UNL A   1      45.683  27.654  36.870  1.00  0.00     0.006 A 
ENDBRANCH  47  68
BRANCH  59  76
ATOM     76  C   UNL A   1      39.635  34.549  36.647  1.00  0.00     0.057 A 
ATOM     77  C   UNL A   1      38.919  34.290  37.822  1.00  0.00     0.134 A 
ATOM     78  C   UNL A   1      40.332  35.762  36.566  1.00  0.00     0.134 A 
ATOM     79  F   UNL A   1      38.224  33.151  37.961  1.00  0.00    -0.206 F 
ATOM     80  C   UNL A   1      38.902  35.199  38.880  1.00  0.00     0.040 A 
ATOM     81  C   UNL A   1      40.349  36.663  37.631  1.00  0.00     0.040 A 
ATOM     82  F   UNL A   1      41.051  36.062  35.474  1.00  0.00    -0.206 F 
ATOM     83  C   UNL A   1      39.629  36.385  38.792  1.00  0.00     0.006 A 
ENDBRANCH  59  76
ENDBRANCH  33  34
ENDBRANCH  25  28
ENDBRANCH   1  24
TORSDOF 10
ENDMDL
MODEL 3
REMARK VINA RESULT:     -13.0      5.959     10.934
REMARK SMILES Cc1ccc2nc3c(c(C(=O)NCCCNC(=O)c4ccc(-c5c6nc(c(-c7c(F)cccc7F)c7ccc([nH]7)c(-c7c(F)cccc7F)c7nc(c(-c8c(F)cccc8F)c8ccc5[nH]8)C=C7)C=C6)cc4)c2c1)C[C@H](C)CC3
REMARK SMILES IDX 15 1 14 2 13 3 12 4 10 5 11 6 9 8 1 9 2 10 3 11 74 12 4 13
REMARK SMILES IDX 73 14 5 15 6 16 8 17 7 18 75 19 79 20 76 21 78 22 77 23
REMARK SMILES IDX 16 24 17 25 18 27 19 28 20 29 72 30 21 31 71 32 22 33 23 34
REMARK SMILES IDX 24 35 65 36 25 37 70 38 64 39 66 40 26 41 69 42 63 43 62 44
REMARK SMILES IDX 27 46 53 47 36 48 52 49 37 50 40 51 51 52 67 53 38 54 39 55
REMARK SMILES IDX 50 57 68 58 41 59 28 60 29 61 34 62 30 63 31 64 33 65 35 66
REMARK SMILES IDX 32 67 54 68 55 69 60 70 56 71 57 72 59 73 61 74 58 75 42 76
REMARK SMILES IDX 43 77 48 78 44 79 45 80 47 81 49 82 46 83
REMARK H PARENT 12 7 16 26 66 45 40 56
REMARK Flexibility Score: inf
ROOT
ATOM      1  C   UNL A   1      35.103  29.068  27.635  1.00  0.00     0.118 C 
ENDROOT
BRANCH   1   2
ATOM      2  C   UNL A   1      33.685  28.891  27.125  1.00  0.00     0.042 C 
BRANCH   2   3
ATOM      3  C   UNL A   1      33.073  30.157  26.507  1.00  0.00     0.118 C 
BRANCH   3   4
ATOM      4  N   UNL A   1      33.175  30.078  25.062  1.00  0.00    -0.352 N 
ATOM      5  C   UNL A   1      32.798  29.174  24.097  1.00  0.00     0.252 C 
ATOM      6  O   UNL A   1      33.559  29.198  23.125  1.00  0.00    -0.269 OA
ATOM      7  H   UNL A   1      33.626  30.864  24.678  1.00  0.00     0.163 HD
BRANCH   5   8
ATOM      8  C   UNL A   1      31.545  28.311  24.060  1.00  0.00     0.054 A 
ATOM      9  C   UNL A   1      28.261  31.963  22.892  1.00  0.00     0.044 C 
ATOM     10  C   UNL A   1      28.565  30.519  23.154  1.00  0.00    -0.050 A 
ATOM     11  C   UNL A   1      27.653  29.535  22.816  1.00  0.00     0.005 A 
ATOM     12  C   UNL A   1      29.776  30.121  23.733  1.00  0.00     0.014 A 
ATOM     13  C   UNL A   1      27.980  28.202  23.042  1.00  0.00     0.029 A 
ATOM     14  C   UNL A   1      30.224  28.781  23.763  1.00  0.00     0.013 A 
ATOM     15  C   UNL A   1      29.234  27.817  23.500  1.00  0.00     0.071 A 
ATOM     16  N   UNL A   1      29.423  26.513  23.676  1.00  0.00    -0.253 NA
ATOM     17  C   UNL A   1      31.723  26.909  24.295  1.00  0.00    -0.013 A 
ATOM     18  C   UNL A   1      30.621  26.069  24.102  1.00  0.00     0.045 A 
ATOM     19  C   UNL A   1      33.056  26.275  24.663  1.00  0.00     0.041 C 
ATOM     20  C   UNL A   1      30.653  24.596  24.408  1.00  0.00     0.057 C 
ATOM     21  C   UNL A   1      32.993  24.832  25.193  1.00  0.00    -0.009 C 
ATOM     22  C   UNL A   1      32.046  23.994  24.345  1.00  0.00     0.010 C 
ATOM     23  C   UNL A   1      34.389  24.211  25.239  1.00  0.00     0.008 C 
ENDBRANCH   5   8
ENDBRANCH   3   4
ENDBRANCH   2   3
ENDBRANCH   1   2
BRANCH   1  24
ATOM     24  N   UNL A   1      35.160  30.007  28.749  1.00  0.00    -0.352 N 
ATOM     25  C   UNL A   1      36.180  30.343  29.603  1.00  0.00     0.251 C 
ATOM     26  H   UNL A   1      34.315  30.485  28.918  1.00  0.00     0.163 HD
ATOM     27  O   UNL A   1      35.908  30.962  30.635  1.00  0.00    -0.269 OA
BRANCH  25  28
ATOM     28  C   UNL A   1      37.588  29.963  29.333  1.00  0.00     0.039 A 
ATOM     29  C   UNL A   1      38.139  30.069  28.058  1.00  0.00     0.014 A 
ATOM     30  C   UNL A   1      38.401  29.537  30.391  1.00  0.00     0.014 A 
ATOM     31  C   UNL A   1      39.402  29.555  27.797  1.00  0.00     0.010 A 
ATOM     32  C   UNL A   1      39.726  29.155  30.152  1.00  0.00     0.010 A 
ATOM     33  C   UNL A   1      40.226  29.113  28.842  1.00  0.00    -0.014 A 
BRANCH  33  34
ATOM     34  C   UNL A   1      41.604  28.645  28.528  1.00  0.00     0.031 A 
ATOM     35  C   UNL A   1      41.867  27.216  28.136  1.00  0.00     0.074 A 
ATOM     36  C   UNL A   1      42.616  29.537  28.542  1.00  0.00     0.049 A 
ATOM     37  N   UNL A   1      43.002  26.642  27.820  1.00  0.00    -0.248 NA
ATOM     38  C   UNL A   1      40.711  26.306  28.102  1.00  0.00     0.031 C 
ATOM     39  C   UNL A   1      42.491  30.952  28.906  1.00  0.00     0.029 A 
ATOM     40  N   UNL A   1      43.942  29.399  28.220  1.00  0.00    -0.354 N 
ATOM     41  C   UNL A   1      42.702  25.307  27.577  1.00  0.00     0.074 A 
ATOM     42  C   UNL A   1      41.283  25.146  27.811  1.00  0.00     0.031 C 
ATOM     43  C   UNL A   1      43.672  31.561  28.728  1.00  0.00     0.029 A 
ATOM     44  C   UNL A   1      44.657  30.569  28.323  1.00  0.00     0.049 A 
ATOM     45  H   UNL A   1      44.343  28.545  27.941  1.00  0.00     0.167 HD
ATOM     46  C   UNL A   1      43.531  24.309  27.186  1.00  0.00     0.037 A 
ATOM     47  C   UNL A   1      45.967  30.813  28.141  1.00  0.00     0.037 A 
ATOM     48  C   UNL A   1      44.939  24.478  26.934  1.00  0.00     0.049 A 
ATOM     49  C   UNL A   1      46.867  29.676  27.751  1.00  0.00     0.074 A 
ATOM     50  C   UNL A   1      45.859  23.538  26.502  1.00  0.00     0.029 A 
ATOM     51  N   UNL A   1      45.634  25.668  27.097  1.00  0.00    -0.354 N 
ATOM     52  N   UNL A   1      46.561  28.426  27.502  1.00  0.00    -0.248 NA
ATOM     53  C   UNL A   1      48.297  29.984  27.627  1.00  0.00     0.031 C 
ATOM     54  C   UNL A   1      47.120  24.145  26.460  1.00  0.00     0.029 A 
ATOM     55  C   UNL A   1      46.975  25.478  26.805  1.00  0.00     0.049 A 
ATOM     56  H   UNL A   1      45.233  26.522  27.380  1.00  0.00     0.167 HD
ATOM     57  C   UNL A   1      47.757  27.802  27.175  1.00  0.00     0.074 A 
ATOM     58  C   UNL A   1      48.786  28.821  27.226  1.00  0.00     0.031 C 
ATOM     59  C   UNL A   1      47.987  26.502  26.867  1.00  0.00     0.037 A 
BRANCH  46  60
ATOM     60  C   UNL A   1      42.943  22.934  27.030  1.00  0.00     0.057 A 
ATOM     61  C   UNL A   1      42.699  22.406  25.756  1.00  0.00     0.134 A 
ATOM     62  C   UNL A   1      42.584  22.146  28.132  1.00  0.00     0.134 A 
ATOM     63  F   UNL A   1      43.012  23.108  24.656  1.00  0.00    -0.206 F 
ATOM     64  C   UNL A   1      42.118  21.148  25.582  1.00  0.00     0.040 A 
ATOM     65  C   UNL A   1      42.028  20.874  27.971  1.00  0.00     0.040 A 
ATOM     66  F   UNL A   1      42.801  22.583  29.381  1.00  0.00    -0.206 F 
ATOM     67  C   UNL A   1      41.787  20.375  26.693  1.00  0.00     0.006 A 
ENDBRANCH  46  60
BRANCH  47  68
ATOM     68  C   UNL A   1      46.518  32.174  28.365  1.00  0.00     0.057 A 
ATOM     69  C   UNL A   1      46.511  33.138  27.348  1.00  0.00     0.134 A 
ATOM     70  C   UNL A   1      47.025  32.560  29.611  1.00  0.00     0.134 A 
ATOM     71  F   UNL A   1      46.046  32.833  26.127  1.00  0.00    -0.206 F 
ATOM     72  C   UNL A   1      46.989  34.432  27.560  1.00  0.00     0.040 A 
ATOM     73  C   UNL A   1      47.475  33.861  29.848  1.00  0.00     0.040 A 
ATOM     74  F   UNL A   1      47.043  31.690  30.632  1.00  0.00    -0.206 F 
ATOM     75  C   UNL A   1      47.460  34.799  28.818  1.00  0.00     0.006 A 
ENDBRANCH  47  68
BRANCH  59  76
ATOM     76  C   UNL A   1      49.402  26.129  26.533  1.00  0.00     0.057 A 
ATOM     77  C   UNL A   1      49.906  26.330  25.242  1.00  0.00     0.134 A 
ATOM     78  C   UNL A   1      50.268  25.578  27.487  1.00  0.00     0.134 A 
ATOM     79  F   UNL A   1      49.127  26.846  24.279  1.00  0.00    -0.206 F 
ATOM     80  C   UNL A   1      51.222  26.005  24.913  1.00  0.00     0.040 A 
ATOM     81  C   UNL A   1      51.596  25.280  27.179  1.00  0.00     0.040 A 
ATOM     82  F   UNL A   1      49.853  25.376  28.746  1.00  0.00    -0.206 F 
ATOM     83  C   UNL A   1      52.075  25.489  25.887  1.00  0.00     0.006 A 
ENDBRANCH  59  76
ENDBRANCH  33  34
ENDBRANCH  25  28
ENDBRANCH   1  24
TORSDOF 10
ENDMDL
