MODEL 1
REMARK VINA RESULT:     -10.8      0.000      0.000
REMARK SMILES NC(=O)C[C@H](NC(=O)[C@@H]1CCC[NH2+]1)C(=O)NCCCNC(=O)c1ccc(-c2c3nc(c(-c4c(F)cccc4F)c4ccc([nH]4)c(-c4c(F)cccc4F)c4nc(c(-c5c(F)cccc5F)c5ccc2[nH]5)C=C4)C=C3)cc1
REMARK SMILES IDX 18 1 17 2 16 3 14 4 15 5 5 7 4 8 2 9 1 10 3 13 6 14 7 15
REMARK SMILES IDX 8 17 9 18 10 19 13 20 11 21 12 22 19 25 20 26 21 27 22 29
REMARK SMILES IDX 23 30 24 31 76 32 25 33 75 34 26 35 27 36 28 37 69 38 29 39
REMARK SMILES IDX 74 40 68 41 70 42 30 43 73 44 67 45 66 46 31 48 57 49 40 50
REMARK SMILES IDX 56 51 41 52 44 53 55 54 71 55 42 56 43 57 54 59 72 60 45 61
REMARK SMILES IDX 32 62 33 63 38 64 34 65 35 66 37 67 39 68 36 69 58 70 59 71
REMARK SMILES IDX 64 72 60 73 61 74 63 75 65 76 62 77 46 78 47 79 52 80 48 81
REMARK SMILES IDX 49 82 51 83 53 84 50 85
REMARK H PARENT 16 6 1 11 1 12 6 16 13 23 13 24 20 28 70 47 44 58
REMARK Flexibility Score: inf
ROOT
ATOM      1  C   UNL A   1      38.074  19.858  24.704  1.00  0.00     0.042 C 
ENDROOT
BRANCH   1   2
ATOM      2  C   UNL A   1      36.636  20.217  25.042  1.00  0.00     0.117 C 
BRANCH   2   3
ATOM      3  N   UNL A   1      36.485  21.575  25.531  1.00  0.00    -0.354 N 
ATOM      4  C   UNL A   1      35.586  22.537  25.157  1.00  0.00     0.243 C 
ATOM      5  O   UNL A   1      35.512  23.552  25.856  1.00  0.00    -0.273 OA
ATOM      6  H   UNL A   1      37.120  21.842  26.233  1.00  0.00     0.163 HD
BRANCH   4   7
ATOM      7  C   UNL A   1      34.548  22.283  24.031  1.00  0.00     0.180 C 
BRANCH   7   8
ATOM      8  C   UNL A   1      34.549  23.528  23.161  1.00  0.00     0.134 C 
BRANCH   8   9
ATOM      9  C   UNL A   1      33.202  24.201  23.100  1.00  0.00     0.220 C 
ATOM     10  N   UNL A   1      32.594  24.223  21.883  1.00  0.00    -0.370 N 
ATOM     11  H   UNL A   1      31.712  24.648  21.780  1.00  0.00     0.159 HD
ATOM     12  H   UNL A   1      33.037  23.813  21.105  1.00  0.00     0.159 HD
ATOM     13  O   UNL A   1      32.677  24.743  24.065  1.00  0.00    -0.275 OA
ENDBRANCH   8   9
ENDBRANCH   7   8
BRANCH   7  14
ATOM     14  N   UNL A   1      33.310  21.753  24.643  1.00  0.00    -0.339 N 
ATOM     15  C   UNL A   1      32.692  20.616  25.024  1.00  0.00     0.278 C 
ATOM     16  H   UNL A   1      32.716  22.512  24.848  1.00  0.00     0.164 HD
ATOM     17  O   UNL A   1      31.513  20.799  25.369  1.00  0.00    -0.268 OA
BRANCH  15  18
ATOM     18  C   UNL A   1      33.257  19.191  25.088  1.00  0.00     0.272 C 
ATOM     19  C   UNL A   1      33.132  18.371  23.826  1.00  0.00     0.081 C 
ATOM     20  N   UNL A   1      32.802  18.359  26.219  1.00  0.00    -0.336 N 
ATOM     21  C   UNL A   1      33.166  16.941  24.331  1.00  0.00     0.068 C 
ATOM     22  C   UNL A   1      32.558  17.003  25.718  1.00  0.00     0.261 C 
ATOM     23  H   UNL A   1      31.942  18.744  26.608  1.00  0.00     0.346 HD
ATOM     24  H   UNL A   1      33.511  18.342  26.953  1.00  0.00     0.346 HD
ENDBRANCH  15  18
ENDBRANCH   7  14
ENDBRANCH   4   7
ENDBRANCH   2   3
ENDBRANCH   1   2
BRANCH   1  25
ATOM     25  C   UNL A   1      39.036  20.134  25.850  1.00  0.00     0.118 C 
BRANCH  25  26
ATOM     26  N   UNL A   1      40.198  19.251  25.831  1.00  0.00    -0.352 N 
ATOM     27  C   UNL A   1      41.520  19.523  26.072  1.00  0.00     0.251 C 
ATOM     28  H   UNL A   1      40.002  18.312  25.611  1.00  0.00     0.163 HD
ATOM     29  O   UNL A   1      42.370  18.664  25.839  1.00  0.00    -0.269 OA
BRANCH  27  30
ATOM     30  C   UNL A   1      41.932  20.843  26.591  1.00  0.00     0.039 A 
ATOM     31  C   UNL A   1      42.331  21.831  25.687  1.00  0.00     0.014 A 
ATOM     32  C   UNL A   1      41.935  21.108  27.963  1.00  0.00     0.014 A 
ATOM     33  C   UNL A   1      42.668  23.102  26.155  1.00  0.00     0.010 A 
ATOM     34  C   UNL A   1      42.176  22.400  28.417  1.00  0.00     0.010 A 
ATOM     35  C   UNL A   1      42.553  23.409  27.520  1.00  0.00    -0.014 A 
BRANCH  35  36
ATOM     36  C   UNL A   1      42.828  24.775  28.030  1.00  0.00     0.031 A 
ATOM     37  C   UNL A   1      44.224  25.168  28.429  1.00  0.00     0.074 A 
ATOM     38  C   UNL A   1      41.809  25.641  28.196  1.00  0.00     0.049 A 
ATOM     39  N   UNL A   1      44.650  26.287  28.956  1.00  0.00    -0.248 NA
ATOM     40  C   UNL A   1      45.278  24.157  28.238  1.00  0.00     0.031 C 
ATOM     41  C   UNL A   1      40.403  25.362  27.897  1.00  0.00     0.029 A 
ATOM     42  N   UNL A   1      41.799  26.930  28.667  1.00  0.00    -0.354 N 
ATOM     43  C   UNL A   1      46.012  26.110  29.171  1.00  0.00     0.074 A 
ATOM     44  C   UNL A   1      46.330  24.756  28.776  1.00  0.00     0.031 C 
ATOM     45  C   UNL A   1      39.671  26.456  28.165  1.00  0.00     0.029 A 
ATOM     46  C   UNL A   1      40.547  27.496  28.694  1.00  0.00     0.049 A 
ATOM     47  H   UNL A   1      42.611  27.404  28.959  1.00  0.00     0.167 HD
ATOM     48  C   UNL A   1      46.919  27.003  29.631  1.00  0.00     0.037 A 
ATOM     49  C   UNL A   1      40.150  28.715  29.107  1.00  0.00     0.037 A 
ATOM     50  C   UNL A   1      46.603  28.357  30.003  1.00  0.00     0.049 A 
ATOM     51  C   UNL A   1      41.176  29.683  29.624  1.00  0.00     0.074 A 
ATOM     52  C   UNL A   1      47.460  29.358  30.426  1.00  0.00     0.029 A 
ATOM     53  N   UNL A   1      45.325  28.898  30.002  1.00  0.00    -0.354 N 
ATOM     54  N   UNL A   1      42.470  29.528  29.754  1.00  0.00    -0.248 NA
ATOM     55  C   UNL A   1      40.685  31.003  30.046  1.00  0.00     0.031 C 
ATOM     56  C   UNL A   1      46.695  30.488  30.731  1.00  0.00     0.029 A 
ATOM     57  C   UNL A   1      45.369  30.211  30.441  1.00  0.00     0.049 A 
ATOM     58  H   UNL A   1      44.509  28.420  29.730  1.00  0.00     0.167 HD
ATOM     59  C   UNL A   1      42.953  30.735  30.242  1.00  0.00     0.074 A 
ATOM     60  C   UNL A   1      41.813  31.619  30.369  1.00  0.00     0.031 C 
ATOM     61  C   UNL A   1      44.226  31.082  30.556  1.00  0.00     0.037 A 
BRANCH  48  62
ATOM     62  C   UNL A   1      48.344  26.542  29.755  1.00  0.00     0.057 A 
ATOM     63  C   UNL A   1      49.284  26.758  28.737  1.00  0.00     0.134 A 
ATOM     64  C   UNL A   1      48.792  25.905  30.919  1.00  0.00     0.134 A 
ATOM     65  F   UNL A   1      48.920  27.353  27.590  1.00  0.00    -0.206 F 
ATOM     66  C   UNL A   1      50.607  26.331  28.861  1.00  0.00     0.040 A 
ATOM     67  C   UNL A   1      50.120  25.500  31.066  1.00  0.00     0.040 A 
ATOM     68  F   UNL A   1      47.948  25.671  31.936  1.00  0.00    -0.206 F 
ATOM     69  C   UNL A   1      51.030  25.706  30.032  1.00  0.00     0.006 A 
ENDBRANCH  48  62
BRANCH  49  70
ATOM     70  C   UNL A   1      38.716  29.096  29.030  1.00  0.00     0.057 A 
ATOM     71  C   UNL A   1      38.154  29.556  27.833  1.00  0.00     0.134 A 
ATOM     72  C   UNL A   1      37.876  29.021  30.147  1.00  0.00     0.134 A 
ATOM     73  F   UNL A   1      38.912  29.667  26.731  1.00  0.00    -0.206 F 
ATOM     74  C   UNL A   1      36.818  29.950  27.755  1.00  0.00     0.040 A 
ATOM     75  C   UNL A   1      36.531  29.385  30.077  1.00  0.00     0.040 A 
ATOM     76  F   UNL A   1      38.350  28.582  31.322  1.00  0.00    -0.206 F 
ATOM     77  C   UNL A   1      36.000  29.860  28.879  1.00  0.00     0.006 A 
ENDBRANCH  49  70
BRANCH  61  78
ATOM     78  C   UNL A   1      44.459  32.489  31.026  1.00  0.00     0.057 A 
ATOM     79  C   UNL A   1      44.447  32.830  32.385  1.00  0.00     0.134 A 
ATOM     80  C   UNL A   1      44.735  33.509  30.107  1.00  0.00     0.134 A 
ATOM     81  F   UNL A   1      44.177  31.904  33.316  1.00  0.00    -0.206 F 
ATOM     82  C   UNL A   1      44.672  34.141  32.809  1.00  0.00     0.040 A 
ATOM     83  C   UNL A   1      44.994  34.816  30.521  1.00  0.00     0.040 A 
ATOM     84  F   UNL A   1      44.774  33.249  28.791  1.00  0.00    -0.206 F 
ATOM     85  C   UNL A   1      44.955  35.136  31.875  1.00  0.00     0.006 A 
ENDBRANCH  61  78
ENDBRANCH  35  36
ENDBRANCH  27  30
ENDBRANCH  25  26
ENDBRANCH   1  25
TORSDOF 14
ENDMDL
MODEL 2
REMARK VINA RESULT:     -10.8      1.523      6.501
REMARK SMILES NC(=O)C[C@H](NC(=O)[C@@H]1CCC[NH2+]1)C(=O)NCCCNC(=O)c1ccc(-c2c3nc(c(-c4c(F)cccc4F)c4ccc([nH]4)c(-c4c(F)cccc4F)c4nc(c(-c5c(F)cccc5F)c5ccc2[nH]5)C=C4)C=C3)cc1
REMARK SMILES IDX 18 1 17 2 16 3 14 4 15 5 5 7 4 8 2 9 1 10 3 13 6 14 7 15
REMARK SMILES IDX 8 17 9 18 10 19 13 20 11 21 12 22 19 25 20 26 21 27 22 29
REMARK SMILES IDX 23 30 24 31 76 32 25 33 75 34 26 35 27 36 28 37 69 38 29 39
REMARK SMILES IDX 74 40 68 41 70 42 30 43 73 44 67 45 66 46 31 48 57 49 40 50
REMARK SMILES IDX 56 51 41 52 44 53 55 54 71 55 42 56 43 57 54 59 72 60 45 61
REMARK SMILES IDX 32 62 33 63 38 64 34 65 35 66 37 67 39 68 36 69 58 70 59 71
REMARK SMILES IDX 64 72 60 73 61 74 63 75 65 76 62 77 46 78 47 79 52 80 48 81
REMARK SMILES IDX 49 82 51 83 53 84 50 85
REMARK H PARENT 16 6 1 11 1 12 6 16 13 23 13 24 20 28 70 47 44 58
REMARK Flexibility Score: inf
ROOT
ATOM      1  C   UNL A   1      37.572  19.811  24.996  1.00  0.00     0.042 C 
ENDROOT
BRANCH   1   2
ATOM      2  C   UNL A   1      36.514  20.896  24.876  1.00  0.00     0.117 C 
BRANCH   2   3
ATOM      3  N   UNL A   1      35.605  20.936  26.005  1.00  0.00    -0.354 N 
ATOM      4  C   UNL A   1      34.295  21.334  26.052  1.00  0.00     0.243 C 
ATOM      5  O   UNL A   1      33.660  21.088  27.081  1.00  0.00    -0.273 OA
ATOM      6  H   UNL A   1      35.983  20.633  26.862  1.00  0.00     0.163 HD
BRANCH   4   7
ATOM      7  C   UNL A   1      33.569  21.880  24.792  1.00  0.00     0.180 C 
BRANCH   7   8
ATOM      8  C   UNL A   1      32.817  23.123  25.239  1.00  0.00     0.134 C 
BRANCH   8   9
ATOM      9  C   UNL A   1      31.321  22.940  25.220  1.00  0.00     0.220 C 
ATOM     10  N   UNL A   1      30.614  23.837  24.482  1.00  0.00    -0.370 N 
ATOM     11  H   UNL A   1      29.633  23.769  24.431  1.00  0.00     0.159 HD
ATOM     12  H   UNL A   1      31.084  24.555  23.998  1.00  0.00     0.159 HD
ATOM     13  O   UNL A   1      30.743  22.067  25.857  1.00  0.00    -0.275 OA
ENDBRANCH   8   9
ENDBRANCH   7   8
BRANCH   7  14
ATOM     14  N   UNL A   1      32.892  20.753  24.115  1.00  0.00    -0.339 N 
ATOM     15  C   UNL A   1      32.904  19.412  23.973  1.00  0.00     0.278 C 
ATOM     16  H   UNL A   1      32.162  21.116  23.562  1.00  0.00     0.164 HD
ATOM     17  O   UNL A   1      32.128  19.012  23.089  1.00  0.00    -0.268 OA
BRANCH  15  18
ATOM     18  C   UNL A   1      33.720  18.370  24.752  1.00  0.00     0.272 C 
ATOM     19  C   UNL A   1      34.425  17.326  23.921  1.00  0.00     0.081 C 
ATOM     20  N   UNL A   1      33.016  17.680  25.851  1.00  0.00    -0.336 N 
ATOM     21  C   UNL A   1      34.586  16.163  24.881  1.00  0.00     0.068 C 
ATOM     22  C   UNL A   1      33.401  16.266  25.819  1.00  0.00     0.261 C 
ATOM     23  H   UNL A   1      32.007  17.767  25.725  1.00  0.00     0.346 HD
ATOM     24  H   UNL A   1      33.268  18.096  26.748  1.00  0.00     0.346 HD
ENDBRANCH  15  18
ENDBRANCH   7  14
ENDBRANCH   4   7
ENDBRANCH   2   3
ENDBRANCH   1   2
BRANCH   1  25
ATOM     25  C   UNL A   1      38.828  20.287  25.710  1.00  0.00     0.118 C 
BRANCH  25  26
ATOM     26  N   UNL A   1      39.844  19.245  25.814  1.00  0.00    -0.352 N 
ATOM     27  C   UNL A   1      41.188  19.342  26.067  1.00  0.00     0.251 C 
ATOM     28  H   UNL A   1      39.512  18.328  25.680  1.00  0.00     0.163 HD
ATOM     29  O   UNL A   1      41.902  18.348  25.945  1.00  0.00    -0.269 OA
BRANCH  27  30
ATOM     30  C   UNL A   1      41.786  20.633  26.466  1.00  0.00     0.039 A 
ATOM     31  C   UNL A   1      42.170  21.535  25.471  1.00  0.00     0.014 A 
ATOM     32  C   UNL A   1      41.976  20.951  27.812  1.00  0.00     0.014 A 
ATOM     33  C   UNL A   1      42.682  22.783  25.831  1.00  0.00     0.010 A 
ATOM     34  C   UNL A   1      42.394  22.228  28.169  1.00  0.00     0.010 A 
ATOM     35  C   UNL A   1      42.760  23.156  27.183  1.00  0.00    -0.014 A 
BRANCH  35  36
ATOM     36  C   UNL A   1      43.226  24.506  27.586  1.00  0.00     0.031 A 
ATOM     37  C   UNL A   1      42.232  25.559  27.993  1.00  0.00     0.074 A 
ATOM     38  C   UNL A   1      44.538  24.804  27.522  1.00  0.00     0.049 A 
ATOM     39  N   UNL A   1      42.438  26.812  28.313  1.00  0.00    -0.248 NA
ATOM     40  C   UNL A   1      40.814  25.161  28.015  1.00  0.00     0.031 C 
ATOM     41  C   UNL A   1      45.595  23.887  27.092  1.00  0.00     0.029 A 
ATOM     42  N   UNL A   1      45.206  25.968  27.811  1.00  0.00    -0.354 N 
ATOM     43  C   UNL A   1      41.180  27.350  28.559  1.00  0.00     0.074 A 
ATOM     44  C   UNL A   1      40.214  26.308  28.292  1.00  0.00     0.031 C 
ATOM     45  C   UNL A   1      46.781  24.513  27.173  1.00  0.00     0.029 A 
ATOM     46  C   UNL A   1      46.564  25.886  27.617  1.00  0.00     0.049 A 
ATOM     47  H   UNL A   1      44.755  26.784  28.127  1.00  0.00     0.167 HD
ATOM     48  C   UNL A   1      40.862  28.592  28.993  1.00  0.00     0.037 A 
ATOM     49  C   UNL A   1      47.525  26.817  27.772  1.00  0.00     0.037 A 
ATOM     50  C   UNL A   1      41.828  29.620  29.279  1.00  0.00     0.049 A 
ATOM     51  C   UNL A   1      47.143  28.192  28.244  1.00  0.00     0.074 A 
ATOM     52  C   UNL A   1      41.612  30.892  29.779  1.00  0.00     0.029 A 
ATOM     53  N   UNL A   1      43.196  29.494  29.084  1.00  0.00    -0.354 N 
ATOM     54  N   UNL A   1      45.958  28.666  28.542  1.00  0.00    -0.248 NA
ATOM     55  C   UNL A   1      48.236  29.160  28.410  1.00  0.00     0.031 C 
ATOM     56  C   UNL A   1      42.843  31.554  29.837  1.00  0.00     0.029 A 
ATOM     57  C   UNL A   1      43.833  30.674  29.430  1.00  0.00     0.049 A 
ATOM     58  H   UNL A   1      43.648  28.686  28.749  1.00  0.00     0.167 HD
ATOM     59  C   UNL A   1      46.165  29.975  28.959  1.00  0.00     0.074 A 
ATOM     60  C   UNL A   1      47.591  30.214  28.891  1.00  0.00     0.031 C 
ATOM     61  C   UNL A   1      45.255  30.896  29.363  1.00  0.00     0.037 A 
BRANCH  48  62
ATOM     62  C   UNL A   1      39.406  28.906  29.188  1.00  0.00     0.057 A 
ATOM     63  C   UNL A   1      38.606  29.389  28.143  1.00  0.00     0.134 A 
ATOM     64  C   UNL A   1      38.787  28.693  30.427  1.00  0.00     0.134 A 
ATOM     65  F   UNL A   1      39.136  29.627  26.934  1.00  0.00    -0.206 F 
ATOM     66  C   UNL A   1      37.252  29.675  28.330  1.00  0.00     0.040 A 
ATOM     67  C   UNL A   1      37.427  28.947  30.618  1.00  0.00     0.040 A 
ATOM     68  F   UNL A   1      39.491  28.227  31.470  1.00  0.00    -0.206 F 
ATOM     69  C   UNL A   1      36.658  29.447  29.569  1.00  0.00     0.006 A 
ENDBRANCH  48  62
BRANCH  49  70
ATOM     70  C   UNL A   1      48.943  26.474  27.497  1.00  0.00     0.057 A 
ATOM     71  C   UNL A   1      49.504  26.678  26.230  1.00  0.00     0.134 A 
ATOM     72  C   UNL A   1      49.770  25.926  28.485  1.00  0.00     0.134 A 
ATOM     73  F   UNL A   1      48.758  27.183  25.236  1.00  0.00    -0.206 F 
ATOM     74  C   UNL A   1      50.825  26.328  25.949  1.00  0.00     0.040 A 
ATOM     75  C   UNL A   1      51.101  25.599  28.227  1.00  0.00     0.040 A 
ATOM     76  F   UNL A   1      49.296  25.713  29.722  1.00  0.00    -0.206 F 
ATOM     77  C   UNL A   1      51.630  25.791  26.952  1.00  0.00     0.006 A 
ENDBRANCH  49  70
BRANCH  61  78
ATOM     78  C   UNL A   1      45.780  32.232  29.803  1.00  0.00     0.057 A 
ATOM     79  C   UNL A   1      45.904  33.310  28.916  1.00  0.00     0.134 A 
ATOM     80  C   UNL A   1      46.131  32.453  31.141  1.00  0.00     0.134 A 
ATOM     81  F   UNL A   1      45.597  33.163  27.619  1.00  0.00    -0.206 F 
ATOM     82  C   UNL A   1      46.387  34.550  29.340  1.00  0.00     0.040 A 
ATOM     83  C   UNL A   1      46.583  33.696  31.582  1.00  0.00     0.040 A 
ATOM     84  F   UNL A   1      46.024  31.467  32.045  1.00  0.00    -0.206 F 
ATOM     85  C   UNL A   1      46.720  34.747  30.678  1.00  0.00     0.006 A 
ENDBRANCH  61  78
ENDBRANCH  35  36
ENDBRANCH  27  30
ENDBRANCH  25  26
ENDBRANCH   1  25
TORSDOF 14
ENDMDL
MODEL 3
REMARK VINA RESULT:     -10.8      5.023      9.906
REMARK SMILES NC(=O)C[C@H](NC(=O)[C@@H]1CCC[NH2+]1)C(=O)NCCCNC(=O)c1ccc(-c2c3nc(c(-c4c(F)cccc4F)c4ccc([nH]4)c(-c4c(F)cccc4F)c4nc(c(-c5c(F)cccc5F)c5ccc2[nH]5)C=C4)C=C3)cc1
REMARK SMILES IDX 18 1 17 2 16 3 14 4 15 5 5 7 4 8 2 9 1 10 3 13 6 14 7 15
REMARK SMILES IDX 8 17 9 18 10 19 13 20 11 21 12 22 19 25 20 26 21 27 22 29
REMARK SMILES IDX 23 30 24 31 76 32 25 33 75 34 26 35 27 36 28 37 69 38 29 39
REMARK SMILES IDX 74 40 68 41 70 42 30 43 73 44 67 45 66 46 31 48 57 49 40 50
REMARK SMILES IDX 56 51 41 52 44 53 55 54 71 55 42 56 43 57 54 59 72 60 45 61
REMARK SMILES IDX 32 62 33 63 38 64 34 65 35 66 37 67 39 68 36 69 58 70 59 71
REMARK SMILES IDX 64 72 60 73 61 74 63 75 65 76 62 77 46 78 47 79 52 80 48 81
REMARK SMILES IDX 49 82 51 83 53 84 50 85
REMARK H PARENT 16 6 1 11 1 12 6 16 13 23 13 24 20 28 70 47 44 58
REMARK Flexibility Score: inf
ROOT
ATOM      1  C   UNL A   1      31.239  31.947  26.757  1.00  0.00     0.042 C 
ENDROOT
BRANCH   1   2
ATOM      2  C   UNL A   1      31.320  30.841  25.717  1.00  0.00     0.117 C 
BRANCH   2   3
ATOM      3  N   UNL A   1      32.569  30.104  25.763  1.00  0.00    -0.354 N 
ATOM      4  C   UNL A   1      32.790  28.761  25.608  1.00  0.00     0.243 C 
ATOM      5  O   UNL A   1      33.959  28.386  25.480  1.00  0.00    -0.273 OA
ATOM      6  H   UNL A   1      33.373  30.646  25.928  1.00  0.00     0.163 HD
BRANCH   4   7
ATOM      7  C   UNL A   1      31.618  27.767  25.385  1.00  0.00     0.180 C 
BRANCH   7   8
ATOM      8  C   UNL A   1      31.897  26.572  26.280  1.00  0.00     0.134 C 
BRANCH   8   9
ATOM      9  C   UNL A   1      30.848  25.496  26.163  1.00  0.00     0.220 C 
ATOM     10  N   UNL A   1      31.078  24.353  26.865  1.00  0.00    -0.370 N 
ATOM     11  H   UNL A   1      30.428  23.614  26.828  1.00  0.00     0.159 HD
ATOM     12  H   UNL A   1      31.893  24.266  27.410  1.00  0.00     0.159 HD
ATOM     13  O   UNL A   1      29.857  25.598  25.451  1.00  0.00    -0.275 OA
ENDBRANCH   8   9
ENDBRANCH   7   8
BRANCH   7  14
ATOM     14  N   UNL A   1      31.393  27.624  23.930  1.00  0.00    -0.339 N 
ATOM     15  C   UNL A   1      30.694  28.122  22.889  1.00  0.00     0.278 C 
ATOM     16  H   UNL A   1      31.965  26.895  23.598  1.00  0.00     0.164 HD
ATOM     17  O   UNL A   1      30.825  27.450  21.853  1.00  0.00    -0.268 OA
BRANCH  15  18
ATOM     18  C   UNL A   1      29.807  29.373  22.839  1.00  0.00     0.272 C 
ATOM     19  C   UNL A   1      28.318  29.132  22.903  1.00  0.00     0.081 C 
ATOM     20  N   UNL A   1      30.069  30.314  21.732  1.00  0.00    -0.336 N 
ATOM     21  C   UNL A   1      27.733  30.360  22.232  1.00  0.00     0.068 C 
ATOM     22  C   UNL A   1      28.778  30.787  21.221  1.00  0.00     0.261 C 
ATOM     23  H   UNL A   1      30.583  29.840  20.989  1.00  0.00     0.346 HD
ATOM     24  H   UNL A   1      30.628  31.101  22.062  1.00  0.00     0.346 HD
ENDBRANCH  15  18
ENDBRANCH   7  14
ENDBRANCH   4   7
ENDBRANCH   2   3
ENDBRANCH   1   2
BRANCH   1  25
ATOM     25  C   UNL A   1      32.600  32.534  27.103  1.00  0.00     0.118 C 
BRANCH  25  26
ATOM     26  N   UNL A   1      32.517  33.925  27.534  1.00  0.00    -0.352 N 
ATOM     27  C   UNL A   1      33.220  34.595  28.504  1.00  0.00     0.251 C 
ATOM     28  H   UNL A   1      31.852  34.470  27.054  1.00  0.00     0.163 HD
ATOM     29  O   UNL A   1      32.877  35.731  28.827  1.00  0.00    -0.269 OA
BRANCH  27  30
ATOM     30  C   UNL A   1      34.370  33.954  29.174  1.00  0.00     0.039 A 
ATOM     31  C   UNL A   1      34.129  33.011  30.176  1.00  0.00     0.014 A 
ATOM     32  C   UNL A   1      35.681  34.286  28.825  1.00  0.00     0.014 A 
ATOM     33  C   UNL A   1      35.202  32.354  30.779  1.00  0.00     0.010 A 
ATOM     34  C   UNL A   1      36.742  33.562  29.357  1.00  0.00     0.010 A 
ATOM     35  C   UNL A   1      36.516  32.594  30.346  1.00  0.00    -0.014 A 
BRANCH  35  36
ATOM     36  C   UNL A   1      37.666  31.849  30.916  1.00  0.00     0.031 A 
ATOM     37  C   UNL A   1      38.167  32.172  32.297  1.00  0.00     0.074 A 
ATOM     38  C   UNL A   1      38.300  30.927  30.165  1.00  0.00     0.049 A 
ATOM     39  N   UNL A   1      39.196  31.680  32.940  1.00  0.00    -0.248 NA
ATOM     40  C   UNL A   1      37.434  33.208  33.044  1.00  0.00     0.031 C 
ATOM     41  C   UNL A   1      37.944  30.561  28.793  1.00  0.00     0.029 A 
ATOM     42  N   UNL A   1      39.384  30.136  30.449  1.00  0.00    -0.354 N 
ATOM     43  C   UNL A   1      39.240  32.353  34.155  1.00  0.00     0.074 A 
ATOM     44  C   UNL A   1      38.174  33.331  34.135  1.00  0.00     0.031 C 
ATOM     45  C   UNL A   1      38.776  29.598  28.365  1.00  0.00     0.029 A 
ATOM     46  C   UNL A   1      39.748  29.309  29.413  1.00  0.00     0.049 A 
ATOM     47  H   UNL A   1      39.858  30.158  31.312  1.00  0.00     0.167 HD
ATOM     48  C   UNL A   1      40.075  32.157  35.202  1.00  0.00     0.037 A 
ATOM     49  C   UNL A   1      40.760  28.425  29.316  1.00  0.00     0.037 A 
ATOM     50  C   UNL A   1      41.120  31.168  35.226  1.00  0.00     0.049 A 
ATOM     51  C   UNL A   1      41.680  28.234  30.489  1.00  0.00     0.074 A 
ATOM     52  C   UNL A   1      41.983  30.850  36.261  1.00  0.00     0.029 A 
ATOM     53  N   UNL A   1      41.449  30.339  34.162  1.00  0.00    -0.354 N 
ATOM     54  N   UNL A   1      41.666  28.825  31.658  1.00  0.00    -0.248 NA
ATOM     55  C   UNL A   1      42.755  27.243  30.331  1.00  0.00     0.031 C 
ATOM     56  C   UNL A   1      42.867  29.867  35.805  1.00  0.00     0.029 A 
ATOM     57  C   UNL A   1      42.517  29.529  34.508  1.00  0.00     0.049 A 
ATOM     58  H   UNL A   1      40.990  30.329  33.291  1.00  0.00     0.167 HD
ATOM     59  C   UNL A   1      42.705  28.260  32.385  1.00  0.00     0.074 A 
ATOM     60  C   UNL A   1      43.320  27.266  31.530  1.00  0.00     0.031 C 
ATOM     61  C   UNL A   1      43.114  28.538  33.648  1.00  0.00     0.037 A 
BRANCH  48  62
ATOM     62  C   UNL A   1      39.889  33.030  36.411  1.00  0.00     0.057 A 
ATOM     63  C   UNL A   1      40.612  34.218  36.584  1.00  0.00     0.134 A 
ATOM     64  C   UNL A   1      38.953  32.696  37.397  1.00  0.00     0.134 A 
ATOM     65  F   UNL A   1      41.534  34.592  35.684  1.00  0.00    -0.206 F 
ATOM     66  C   UNL A   1      40.431  35.027  37.708  1.00  0.00     0.040 A 
ATOM     67  C   UNL A   1      38.741  33.512  38.510  1.00  0.00     0.040 A 
ATOM     68  F   UNL A   1      38.222  31.576  37.292  1.00  0.00    -0.206 F 
ATOM     69  C   UNL A   1      39.488  34.678  38.671  1.00  0.00     0.006 A 
ENDBRANCH  48  62
BRANCH  49  70
ATOM     70  C   UNL A   1      40.942  27.637  28.071  1.00  0.00     0.057 A 
ATOM     71  C   UNL A   1      41.690  28.141  27.000  1.00  0.00     0.134 A 
ATOM     72  C   UNL A   1      40.367  26.370  27.914  1.00  0.00     0.134 A 
ATOM     73  F   UNL A   1      42.252  29.356  27.082  1.00  0.00    -0.206 F 
ATOM     74  C   UNL A   1      41.841  27.425  25.811  1.00  0.00     0.040 A 
ATOM     75  C   UNL A   1      40.533  25.631  26.742  1.00  0.00     0.040 A 
ATOM     76  F   UNL A   1      39.645  25.827  28.905  1.00  0.00    -0.206 F 
ATOM     77  C   UNL A   1      41.265  26.163  25.682  1.00  0.00     0.006 A 
ENDBRANCH  49  70
BRANCH  61  78
ATOM     78  C   UNL A   1      44.253  27.727  34.195  1.00  0.00     0.057 A 
ATOM     79  C   UNL A   1      44.053  26.484  34.809  1.00  0.00     0.134 A 
ATOM     80  C   UNL A   1      45.573  28.182  34.074  1.00  0.00     0.134 A 
ATOM     81  F   UNL A   1      42.814  25.996  34.969  1.00  0.00    -0.206 F 
ATOM     82  C   UNL A   1      45.121  25.737  35.308  1.00  0.00     0.040 A 
ATOM     83  C   UNL A   1      46.651  27.429  34.539  1.00  0.00     0.040 A 
ATOM     84  F   UNL A   1      45.836  29.359  33.486  1.00  0.00    -0.206 F 
ATOM     85  C   UNL A   1      46.426  26.206  35.165  1.00  0.00     0.006 A 
ENDBRANCH  61  78
ENDBRANCH  35  36
ENDBRANCH  27  30
ENDBRANCH  25  26
ENDBRANCH   1  25
TORSDOF 14
ENDMDL
