MODEL 1
REMARK VINA RESULT:     -12.5      0.000      0.000
REMARK SMILES Cc1ccc(C(=O)NCCCNC(=O)c2ccc(-c3c4nc(c(-c5c(F)cccc5F)c5ccc([nH]5)c(-c5c(F)cccc5F)c5nc(c(-c6c(F)cccc6F)c6ccc3[nH]6)C=C5)C=C4)cc2)c(Oc2cccc(F)c2C(N)=O)c1
REMARK SMILES IDX 9 1 8 2 6 3 7 4 5 6 1 7 2 8 3 9 81 10 4 11 69 12 70 13 71 14
REMARK SMILES IDX 72 15 77 16 73 17 75 18 74 19 76 20 78 21 79 22 80 23 10 26
REMARK SMILES IDX 11 27 12 28 13 29 14 31 15 32 16 33 68 34 17 35 67 36 18 37
REMARK SMILES IDX 19 38 20 39 61 40 21 41 66 42 60 43 62 44 22 45 65 46 59 47
REMARK SMILES IDX 58 48 23 50 49 51 32 52 48 53 33 54 36 55 47 56 63 57 34 58
REMARK SMILES IDX 35 59 46 61 64 62 37 63 24 64 25 65 30 66 26 67 27 68 29 69
REMARK SMILES IDX 31 70 28 71 50 72 51 73 56 74 52 75 53 76 55 77 57 78 54 79
REMARK SMILES IDX 38 80 39 81 44 82 40 83 41 84 43 85 45 86 42 87
REMARK H PARENT 8 5 79 24 79 25 12 30 62 49 36 60
REMARK Flexibility Score: inf
ROOT
ATOM      1  C   UNL A   1      32.223  27.319  26.811  1.00  0.00     0.118 C 
ENDROOT
BRANCH   1   2
ATOM      2  N   UNL A   1      30.917  26.692  26.723  1.00  0.00    -0.352 N 
ATOM      3  C   UNL A   1      30.364  25.504  26.333  1.00  0.00     0.255 C 
ATOM      4  O   UNL A   1      29.155  25.418  26.582  1.00  0.00    -0.269 OA
ATOM      5  H   UNL A   1      30.218  27.309  27.039  1.00  0.00     0.163 HD
BRANCH   3   6
ATOM      6  C   UNL A   1      30.991  24.361  25.597  1.00  0.00     0.082 A 
ATOM      7  C   UNL A   1      33.148  20.930  24.018  1.00  0.00     0.044 C 
ATOM      8  C   UNL A   1      32.412  22.114  24.567  1.00  0.00    -0.047 A 
ATOM      9  C   UNL A   1      32.418  22.380  25.932  1.00  0.00     0.004 A 
ATOM     10  C   UNL A   1      31.741  22.997  23.716  1.00  0.00     0.051 A 
ATOM     11  C   UNL A   1      31.726  23.487  26.433  1.00  0.00     0.018 A 
ATOM     12  C   UNL A   1      30.995  24.081  24.225  1.00  0.00     0.140 A 
BRANCH  12  13
ATOM     13  O   UNL A   1      30.379  24.918  23.347  1.00  0.00    -0.456 OA
BRANCH  13  14
ATOM     14  C   UNL A   1      30.709  26.256  23.246  1.00  0.00     0.143 A 
ATOM     15  C   UNL A   1      32.107  26.416  23.134  1.00  0.00     0.048 A 
ATOM     16  C   UNL A   1      29.901  27.399  23.362  1.00  0.00     0.117 A 
ATOM     17  C   UNL A   1      32.702  27.675  23.146  1.00  0.00     0.007 A 
ATOM     18  C   UNL A   1      30.519  28.659  23.367  1.00  0.00     0.139 A 
ATOM     19  C   UNL A   1      31.902  28.801  23.270  1.00  0.00     0.040 A 
ATOM     20  F   UNL A   1      29.796  29.777  23.528  1.00  0.00    -0.206 F 
BRANCH  16  21
ATOM     21  C   UNL A   1      28.428  27.441  23.475  1.00  0.00     0.255 C 
ATOM     22  N   UNL A   1      27.787  26.378  24.044  1.00  0.00    -0.365 N 
ATOM     23  O   UNL A   1      27.796  28.416  23.087  1.00  0.00    -0.269 OA
ATOM     24  H   UNL A   1      28.305  25.600  24.352  1.00  0.00     0.159 HD
ATOM     25  H   UNL A   1      26.808  26.391  24.146  1.00  0.00     0.159 HD
ENDBRANCH  16  21
ENDBRANCH  13  14
ENDBRANCH  12  13
ENDBRANCH   3   6
ENDBRANCH   1   2
BRANCH   1  26
ATOM     26  C   UNL A   1      32.191  28.721  27.400  1.00  0.00     0.042 C 
BRANCH  26  27
ATOM     27  C   UNL A   1      33.140  29.671  26.689  1.00  0.00     0.118 C 
BRANCH  27  28
ATOM     28  N   UNL A   1      33.433  30.914  27.400  1.00  0.00    -0.352 N 
ATOM     29  C   UNL A   1      34.563  31.194  28.169  1.00  0.00     0.251 C 
ATOM     30  H   UNL A   1      32.761  31.630  27.329  1.00  0.00     0.163 HD
ATOM     31  O   UNL A   1      34.751  32.290  28.652  1.00  0.00    -0.269 OA
BRANCH  29  32
ATOM     32  C   UNL A   1      35.590  30.124  28.262  1.00  0.00     0.039 A 
ATOM     33  C   UNL A   1      35.834  29.600  29.531  1.00  0.00     0.014 A 
ATOM     34  C   UNL A   1      36.539  30.033  27.248  1.00  0.00     0.014 A 
ATOM     35  C   UNL A   1      37.142  29.273  29.874  1.00  0.00     0.010 A 
ATOM     36  C   UNL A   1      37.853  29.811  27.619  1.00  0.00     0.010 A 
ATOM     37  C   UNL A   1      38.164  29.515  28.952  1.00  0.00    -0.014 A 
BRANCH  37  38
ATOM     38  C   UNL A   1      39.567  29.584  29.353  1.00  0.00     0.031 A 
ATOM     39  C   UNL A   1      40.429  28.396  29.196  1.00  0.00     0.074 A 
ATOM     40  C   UNL A   1      40.091  30.687  29.938  1.00  0.00     0.049 A 
ATOM     41  N   UNL A   1      41.311  28.030  30.064  1.00  0.00    -0.248 NA
ATOM     42  C   UNL A   1      40.328  27.503  28.051  1.00  0.00     0.031 C 
ATOM     43  C   UNL A   1      41.494  30.912  30.282  1.00  0.00     0.029 A 
ATOM     44  N   UNL A   1      39.412  31.756  30.533  1.00  0.00    -0.354 N 
ATOM     45  C   UNL A   1      42.058  27.026  29.493  1.00  0.00     0.074 A 
ATOM     46  C   UNL A   1      41.367  26.692  28.267  1.00  0.00     0.031 C 
ATOM     47  C   UNL A   1      41.561  31.851  31.238  1.00  0.00     0.029 A 
ATOM     48  C   UNL A   1      40.205  32.202  31.612  1.00  0.00     0.049 A 
ATOM     49  H   UNL A   1      38.544  32.126  30.252  1.00  0.00     0.167 HD
ATOM     50  C   UNL A   1      43.258  26.671  30.037  1.00  0.00     0.037 A 
ATOM     51  C   UNL A   1      39.723  32.267  32.886  1.00  0.00     0.037 A 
ATOM     52  C   UNL A   1      43.587  27.495  31.196  1.00  0.00     0.049 A 
ATOM     53  C   UNL A   1      40.452  31.376  33.861  1.00  0.00     0.074 A 
ATOM     54  C   UNL A   1      44.371  28.631  31.326  1.00  0.00     0.029 A 
ATOM     55  N   UNL A   1      42.851  27.388  32.371  1.00  0.00    -0.354 N 
ATOM     56  N   UNL A   1      41.309  30.461  33.505  1.00  0.00    -0.248 NA
ATOM     57  C   UNL A   1      40.225  31.392  35.306  1.00  0.00     0.031 C 
ATOM     58  C   UNL A   1      44.077  29.231  32.572  1.00  0.00     0.029 A 
ATOM     59  C   UNL A   1      43.120  28.459  33.206  1.00  0.00     0.049 A 
ATOM     60  H   UNL A   1      42.228  26.656  32.580  1.00  0.00     0.167 HD
ATOM     61  C   UNL A   1      41.666  29.719  34.602  1.00  0.00     0.074 A 
ATOM     62  C   UNL A   1      41.001  30.373  35.712  1.00  0.00     0.031 C 
ATOM     63  C   UNL A   1      42.449  28.606  34.490  1.00  0.00     0.037 A 
BRANCH  50  64
ATOM     64  C   UNL A   1      44.262  25.816  29.297  1.00  0.00     0.057 A 
ATOM     65  C   UNL A   1      45.065  26.351  28.272  1.00  0.00     0.134 A 
ATOM     66  C   UNL A   1      44.442  24.440  29.515  1.00  0.00     0.134 A 
ATOM     67  F   UNL A   1      45.119  27.667  28.029  1.00  0.00    -0.206 F 
ATOM     68  C   UNL A   1      45.858  25.558  27.434  1.00  0.00     0.040 A 
ATOM     69  C   UNL A   1      45.184  23.623  28.650  1.00  0.00     0.040 A 
ATOM     70  F   UNL A   1      43.936  23.836  30.600  1.00  0.00    -0.206 F 
ATOM     71  C   UNL A   1      45.881  24.181  27.589  1.00  0.00     0.006 A 
ENDBRANCH  50  64
BRANCH  51  72
ATOM     72  C   UNL A   1      38.272  32.575  32.933  1.00  0.00     0.057 A 
ATOM     73  C   UNL A   1      37.867  33.892  32.658  1.00  0.00     0.134 A 
ATOM     74  C   UNL A   1      37.311  31.569  32.818  1.00  0.00     0.134 A 
ATOM     75  F   UNL A   1      38.743  34.903  32.762  1.00  0.00    -0.206 F 
ATOM     76  C   UNL A   1      36.601  34.179  32.143  1.00  0.00     0.040 A 
ATOM     77  C   UNL A   1      36.035  31.848  32.316  1.00  0.00     0.040 A 
ATOM     78  F   UNL A   1      37.628  30.289  33.060  1.00  0.00    -0.206 F 
ATOM     79  C   UNL A   1      35.695  33.144  31.929  1.00  0.00     0.006 A 
ENDBRANCH  51  72
BRANCH  63  80
ATOM     80  C   UNL A   1      42.725  27.614  35.590  1.00  0.00     0.057 A 
ATOM     81  C   UNL A   1      42.043  26.399  35.748  1.00  0.00     0.134 A 
ATOM     82  C   UNL A   1      43.809  27.812  36.473  1.00  0.00     0.134 A 
ATOM     83  F   UNL A   1      41.072  26.025  34.904  1.00  0.00    -0.206 F 
ATOM     84  C   UNL A   1      42.365  25.481  36.757  1.00  0.00     0.040 A 
ATOM     85  C   UNL A   1      44.173  26.879  37.449  1.00  0.00     0.040 A 
ATOM     86  F   UNL A   1      44.574  28.912  36.413  1.00  0.00    -0.206 F 
ATOM     87  C   UNL A   1      43.438  25.715  37.608  1.00  0.00     0.006 A 
ENDBRANCH  63  80
ENDBRANCH  37  38
ENDBRANCH  29  32
ENDBRANCH  27  28
ENDBRANCH  26  27
ENDBRANCH   1  26
TORSDOF 13
ENDMDL
MODEL 2
REMARK VINA RESULT:     -12.4      2.931      4.800
REMARK SMILES Cc1ccc(C(=O)NCCCNC(=O)c2ccc(-c3c4nc(c(-c5c(F)cccc5F)c5ccc([nH]5)c(-c5c(F)cccc5F)c5nc(c(-c6c(F)cccc6F)c6ccc3[nH]6)C=C5)C=C4)cc2)c(Oc2cccc(F)c2C(N)=O)c1
REMARK SMILES IDX 9 1 8 2 6 3 7 4 5 6 1 7 2 8 3 9 81 10 4 11 69 12 70 13 71 14
REMARK SMILES IDX 72 15 77 16 73 17 75 18 74 19 76 20 78 21 79 22 80 23 10 26
REMARK SMILES IDX 11 27 12 28 13 29 14 31 15 32 16 33 68 34 17 35 67 36 18 37
REMARK SMILES IDX 19 38 20 39 61 40 21 41 66 42 60 43 62 44 22 45 65 46 59 47
REMARK SMILES IDX 58 48 23 50 49 51 32 52 48 53 33 54 36 55 47 56 63 57 34 58
REMARK SMILES IDX 35 59 46 61 64 62 37 63 24 64 25 65 30 66 26 67 27 68 29 69
REMARK SMILES IDX 31 70 28 71 50 72 51 73 56 74 52 75 53 76 55 77 57 78 54 79
REMARK SMILES IDX 38 80 39 81 44 82 40 83 41 84 43 85 45 86 42 87
REMARK H PARENT 8 5 79 24 79 25 12 30 62 49 36 60
REMARK Flexibility Score: inf
ROOT
ATOM      1  C   UNL A   1      34.166  29.415  27.388  1.00  0.00     0.118 C 
ENDROOT
BRANCH   1   2
ATOM      2  N   UNL A   1      32.885  28.767  27.600  1.00  0.00    -0.352 N 
ATOM      3  C   UNL A   1      32.044  27.903  26.956  1.00  0.00     0.255 C 
ATOM      4  O   UNL A   1      31.081  27.545  27.648  1.00  0.00    -0.269 OA
ATOM      5  H   UNL A   1      32.507  29.031  28.470  1.00  0.00     0.163 HD
BRANCH   3   6
ATOM      6  C   UNL A   1      32.089  27.407  25.544  1.00  0.00     0.082 A 
ATOM      7  C   UNL A   1      31.675  26.327  21.352  1.00  0.00     0.044 C 
ATOM      8  C   UNL A   1      31.808  26.699  22.797  1.00  0.00    -0.047 A 
ATOM      9  C   UNL A   1      31.065  27.747  23.329  1.00  0.00     0.004 A 
ATOM     10  C   UNL A   1      32.650  25.977  23.647  1.00  0.00     0.051 A 
ATOM     11  C   UNL A   1      31.199  28.086  24.679  1.00  0.00     0.018 A 
ATOM     12  C   UNL A   1      32.831  26.354  24.994  1.00  0.00     0.140 A 
BRANCH  12  13
ATOM     13  O   UNL A   1      33.649  25.601  25.779  1.00  0.00    -0.456 OA
BRANCH  13  14
ATOM     14  C   UNL A   1      33.697  24.224  25.688  1.00  0.00     0.143 A 
ATOM     15  C   UNL A   1      34.949  23.803  25.187  1.00  0.00     0.048 A 
ATOM     16  C   UNL A   1      32.690  23.266  25.892  1.00  0.00     0.117 A 
ATOM     17  C   UNL A   1      35.202  22.468  24.883  1.00  0.00     0.007 A 
ATOM     18  C   UNL A   1      32.967  21.925  25.583  1.00  0.00     0.139 A 
ATOM     19  C   UNL A   1      34.203  21.526  25.078  1.00  0.00     0.040 A 
ATOM     20  F   UNL A   1      32.022  20.982  25.711  1.00  0.00    -0.206 F 
BRANCH  16  21
ATOM     21  C   UNL A   1      31.329  23.503  26.417  1.00  0.00     0.255 C 
ATOM     22  N   UNL A   1      30.370  23.960  25.559  1.00  0.00    -0.365 N 
ATOM     23  O   UNL A   1      31.060  23.276  27.590  1.00  0.00    -0.269 OA
ATOM     24  H   UNL A   1      30.597  24.139  24.618  1.00  0.00     0.159 HD
ATOM     25  H   UNL A   1      29.452  24.108  25.881  1.00  0.00     0.159 HD
ENDBRANCH  16  21
ENDBRANCH  13  14
ENDBRANCH  12  13
ENDBRANCH   3   6
ENDBRANCH   1   2
BRANCH   1  26
ATOM     26  C   UNL A   1      34.169  30.896  27.733  1.00  0.00     0.042 C 
BRANCH  26  27
ATOM     27  C   UNL A   1      35.568  31.487  27.741  1.00  0.00     0.118 C 
BRANCH  27  28
ATOM     28  N   UNL A   1      36.092  31.841  29.059  1.00  0.00    -0.352 N 
ATOM     29  C   UNL A   1      36.912  31.061  29.874  1.00  0.00     0.251 C 
ATOM     30  H   UNL A   1      35.838  32.726  29.410  1.00  0.00     0.163 HD
ATOM     31  O   UNL A   1      37.361  31.481  30.919  1.00  0.00    -0.269 OA
BRANCH  29  32
ATOM     32  C   UNL A   1      37.313  29.733  29.341  1.00  0.00     0.039 A 
ATOM     33  C   UNL A   1      37.642  28.755  30.279  1.00  0.00     0.014 A 
ATOM     34  C   UNL A   1      37.782  29.665  28.032  1.00  0.00     0.014 A 
ATOM     35  C   UNL A   1      38.692  27.888  29.994  1.00  0.00     0.010 A 
ATOM     36  C   UNL A   1      38.892  28.877  27.789  1.00  0.00     0.010 A 
ATOM     37  C   UNL A   1      39.399  28.051  28.800  1.00  0.00    -0.014 A 
BRANCH  37  38
ATOM     38  C   UNL A   1      40.727  27.474  28.603  1.00  0.00     0.031 A 
ATOM     39  C   UNL A   1      40.857  26.044  28.263  1.00  0.00     0.074 A 
ATOM     40  C   UNL A   1      41.857  28.195  28.796  1.00  0.00     0.049 A 
ATOM     41  N   UNL A   1      41.768  25.270  28.749  1.00  0.00    -0.248 NA
ATOM     42  C   UNL A   1      39.931  25.366  27.367  1.00  0.00     0.031 C 
ATOM     43  C   UNL A   1      43.227  27.763  28.528  1.00  0.00     0.029 A 
ATOM     44  N   UNL A   1      42.003  29.408  29.478  1.00  0.00    -0.354 N 
ATOM     45  C   UNL A   1      41.715  24.084  28.055  1.00  0.00     0.074 A 
ATOM     46  C   UNL A   1      40.515  24.171  27.252  1.00  0.00     0.031 C 
ATOM     47  C   UNL A   1      44.069  28.508  29.260  1.00  0.00     0.029 A 
ATOM     48  C   UNL A   1      43.273  29.388  30.094  1.00  0.00     0.049 A 
ATOM     49  H   UNL A   1      41.344  30.138  29.520  1.00  0.00     0.167 HD
ATOM     50  C   UNL A   1      42.756  23.205  28.119  1.00  0.00     0.037 A 
ATOM     51  C   UNL A   1      43.428  29.567  31.437  1.00  0.00     0.037 A 
ATOM     52  C   UNL A   1      43.843  23.720  28.946  1.00  0.00     0.049 A 
ATOM     53  C   UNL A   1      44.037  28.381  32.144  1.00  0.00     0.074 A 
ATOM     54  C   UNL A   1      45.012  24.389  28.618  1.00  0.00     0.029 A 
ATOM     55  N   UNL A   1      43.681  23.862  30.319  1.00  0.00    -0.354 N 
ATOM     56  N   UNL A   1      44.197  27.212  31.591  1.00  0.00    -0.248 NA
ATOM     57  C   UNL A   1      44.448  28.394  33.548  1.00  0.00     0.031 C 
ATOM     58  C   UNL A   1      45.535  24.969  29.797  1.00  0.00     0.029 A 
ATOM     59  C   UNL A   1      44.691  24.648  30.845  1.00  0.00     0.049 A 
ATOM     60  H   UNL A   1      42.950  23.462  30.844  1.00  0.00     0.167 HD
ATOM     61  C   UNL A   1      44.618  26.314  32.539  1.00  0.00     0.074 A 
ATOM     62  C   UNL A   1      44.808  27.112  33.734  1.00  0.00     0.031 C 
ATOM     63  C   UNL A   1      44.733  24.982  32.261  1.00  0.00     0.037 A 
BRANCH  50  64
ATOM     64  C   UNL A   1      42.904  22.053  27.152  1.00  0.00     0.057 A 
ATOM     65  C   UNL A   1      42.129  20.885  27.279  1.00  0.00     0.134 A 
ATOM     66  C   UNL A   1      43.839  22.016  26.103  1.00  0.00     0.134 A 
ATOM     67  F   UNL A   1      41.101  20.809  28.134  1.00  0.00    -0.206 F 
ATOM     68  C   UNL A   1      42.370  19.726  26.532  1.00  0.00     0.040 A 
ATOM     69  C   UNL A   1      44.133  20.847  25.387  1.00  0.00     0.040 A 
ATOM     70  F   UNL A   1      44.478  23.124  25.701  1.00  0.00    -0.206 F 
ATOM     71  C   UNL A   1      43.410  19.686  25.616  1.00  0.00     0.006 A 
ENDBRANCH  50  64
BRANCH  51  72
ATOM     72  C   UNL A   1      42.404  30.472  32.015  1.00  0.00     0.057 A 
ATOM     73  C   UNL A   1      41.286  29.892  32.637  1.00  0.00     0.134 A 
ATOM     74  C   UNL A   1      42.703  31.797  32.335  1.00  0.00     0.134 A 
ATOM     75  F   UNL A   1      40.942  28.624  32.362  1.00  0.00    -0.206 F 
ATOM     76  C   UNL A   1      40.583  30.551  33.648  1.00  0.00     0.040 A 
ATOM     77  C   UNL A   1      41.996  32.471  33.337  1.00  0.00     0.040 A 
ATOM     78  F   UNL A   1      43.759  32.413  31.784  1.00  0.00    -0.206 F 
ATOM     79  C   UNL A   1      40.969  31.832  34.031  1.00  0.00     0.006 A 
ENDBRANCH  51  72
BRANCH  63  80
ATOM     80  C   UNL A   1      44.983  23.894  33.274  1.00  0.00     0.057 A 
ATOM     81  C   UNL A   1      44.022  22.959  33.683  1.00  0.00     0.134 A 
ATOM     82  C   UNL A   1      46.283  23.680  33.785  1.00  0.00     0.134 A 
ATOM     83  F   UNL A   1      42.778  22.968  33.183  1.00  0.00    -0.206 F 
ATOM     84  C   UNL A   1      44.310  21.931  34.591  1.00  0.00     0.040 A 
ATOM     85  C   UNL A   1      46.594  22.627  34.651  1.00  0.00     0.040 A 
ATOM     86  F   UNL A   1      47.310  24.475  33.450  1.00  0.00    -0.206 F 
ATOM     87  C   UNL A   1      45.601  21.757  35.073  1.00  0.00     0.006 A 
ENDBRANCH  63  80
ENDBRANCH  37  38
ENDBRANCH  29  32
ENDBRANCH  27  28
ENDBRANCH  26  27
ENDBRANCH   1  26
TORSDOF 13
ENDMDL
MODEL 3
REMARK VINA RESULT:     -12.3      2.355      3.940
REMARK SMILES Cc1ccc(C(=O)NCCCNC(=O)c2ccc(-c3c4nc(c(-c5c(F)cccc5F)c5ccc([nH]5)c(-c5c(F)cccc5F)c5nc(c(-c6c(F)cccc6F)c6ccc3[nH]6)C=C5)C=C4)cc2)c(Oc2cccc(F)c2C(N)=O)c1
REMARK SMILES IDX 9 1 8 2 6 3 7 4 5 6 1 7 2 8 3 9 81 10 4 11 69 12 70 13 71 14
REMARK SMILES IDX 72 15 77 16 73 17 75 18 74 19 76 20 78 21 79 22 80 23 10 26
REMARK SMILES IDX 11 27 12 28 13 29 14 31 15 32 16 33 68 34 17 35 67 36 18 37
REMARK SMILES IDX 19 38 20 39 61 40 21 41 66 42 60 43 62 44 22 45 65 46 59 47
REMARK SMILES IDX 58 48 23 50 49 51 32 52 48 53 33 54 36 55 47 56 63 57 34 58
REMARK SMILES IDX 35 59 46 61 64 62 37 63 24 64 25 65 30 66 26 67 27 68 29 69
REMARK SMILES IDX 31 70 28 71 50 72 51 73 56 74 52 75 53 76 55 77 57 78 54 79
REMARK SMILES IDX 38 80 39 81 44 82 40 83 41 84 43 85 45 86 42 87
REMARK H PARENT 8 5 79 24 79 25 12 30 62 49 36 60
REMARK Flexibility Score: inf
ROOT
ATOM      1  C   UNL A   1      34.017  28.764  26.744  1.00  0.00     0.118 C 
ENDROOT
BRANCH   1   2
ATOM      2  N   UNL A   1      34.071  28.872  25.298  1.00  0.00    -0.352 N 
ATOM      3  C   UNL A   1      33.259  28.675  24.215  1.00  0.00     0.255 C 
ATOM      4  O   UNL A   1      33.765  29.046  23.147  1.00  0.00    -0.269 OA
ATOM      5  H   UNL A   1      34.961  29.179  25.009  1.00  0.00     0.163 HD
BRANCH   3   6
ATOM      6  C   UNL A   1      31.915  28.021  24.142  1.00  0.00     0.082 A 
ATOM      7  C   UNL A   1      27.782  26.718  23.769  1.00  0.00     0.044 C 
ATOM      8  C   UNL A   1      29.204  27.175  23.901  1.00  0.00    -0.047 A 
ATOM      9  C   UNL A   1      29.593  28.421  23.423  1.00  0.00     0.004 A 
ATOM     10  C   UNL A   1      30.155  26.377  24.542  1.00  0.00     0.051 A 
ATOM     11  C   UNL A   1      30.922  28.836  23.550  1.00  0.00     0.018 A 
ATOM     12  C   UNL A   1      31.508  26.768  24.619  1.00  0.00     0.140 A 
BRANCH  12  13
ATOM     13  O   UNL A   1      32.385  25.959  25.273  1.00  0.00    -0.456 OA
BRANCH  13  14
ATOM     14  C   UNL A   1      32.625  24.657  24.879  1.00  0.00     0.143 A 
ATOM     15  C   UNL A   1      33.408  24.630  23.705  1.00  0.00     0.048 A 
ATOM     16  C   UNL A   1      32.118  23.450  25.388  1.00  0.00     0.117 A 
ATOM     17  C   UNL A   1      33.679  23.439  23.035  1.00  0.00     0.007 A 
ATOM     18  C   UNL A   1      32.408  22.260  24.701  1.00  0.00     0.139 A 
ATOM     19  C   UNL A   1      33.171  22.250  23.535  1.00  0.00     0.040 A 
ATOM     20  F   UNL A   1      31.904  21.088  25.116  1.00  0.00    -0.206 F 
BRANCH  16  21
ATOM     21  C   UNL A   1      31.296  23.269  26.602  1.00  0.00     0.255 C 
ATOM     22  N   UNL A   1      29.937  23.249  26.473  1.00  0.00    -0.365 N 
ATOM     23  O   UNL A   1      31.821  23.119  27.699  1.00  0.00    -0.269 OA
ATOM     24  H   UNL A   1      29.526  23.371  25.587  1.00  0.00     0.159 HD
ATOM     25  H   UNL A   1      29.370  23.112  27.265  1.00  0.00     0.159 HD
ENDBRANCH  16  21
ENDBRANCH  13  14
ENDBRANCH  12  13
ENDBRANCH   3   6
ENDBRANCH   1   2
BRANCH   1  26
ATOM     26  C   UNL A   1      33.449  29.997  27.430  1.00  0.00     0.042 C 
BRANCH  26  27
ATOM     27  C   UNL A   1      34.448  31.140  27.487  1.00  0.00     0.118 C 
BRANCH  27  28
ATOM     28  N   UNL A   1      34.757  31.637  28.827  1.00  0.00    -0.352 N 
ATOM     29  C   UNL A   1      35.728  31.147  29.701  1.00  0.00     0.251 C 
ATOM     30  H   UNL A   1      34.222  32.399  29.147  1.00  0.00     0.163 HD
ATOM     31  O   UNL A   1      35.962  31.684  30.762  1.00  0.00    -0.269 OA
BRANCH  29  32
ATOM     32  C   UNL A   1      36.551  30.010  29.214  1.00  0.00     0.039 A 
ATOM     33  C   UNL A   1      36.953  29.074  30.167  1.00  0.00     0.014 A 
ATOM     34  C   UNL A   1      37.245  30.166  28.017  1.00  0.00     0.014 A 
ATOM     35  C   UNL A   1      38.226  28.525  30.062  1.00  0.00     0.010 A 
ATOM     36  C   UNL A   1      38.549  29.705  27.968  1.00  0.00     0.010 A 
ATOM     37  C   UNL A   1      39.067  28.955  29.032  1.00  0.00    -0.014 A 
BRANCH  37  38
ATOM     38  C   UNL A   1      40.513  28.748  29.076  1.00  0.00     0.031 A 
ATOM     39  C   UNL A   1      41.098  27.559  28.427  1.00  0.00     0.074 A 
ATOM     40  C   UNL A   1      41.334  29.579  29.760  1.00  0.00     0.049 A 
ATOM     41  N   UNL A   1      42.063  26.868  28.934  1.00  0.00    -0.248 NA
ATOM     42  C   UNL A   1      40.603  27.034  27.163  1.00  0.00     0.031 C 
ATOM     43  C   UNL A   1      42.795  29.537  29.788  1.00  0.00     0.029 A 
ATOM     44  N   UNL A   1      40.994  30.512  30.746  1.00  0.00    -0.354 N 
ATOM     45  C   UNL A   1      42.485  25.981  27.970  1.00  0.00     0.074 A 
ATOM     46  C   UNL A   1      41.504  26.081  26.912  1.00  0.00     0.031 C 
ATOM     47  C   UNL A   1      43.226  30.160  30.896  1.00  0.00     0.029 A 
ATOM     48  C   UNL A   1      42.062  30.549  31.669  1.00  0.00     0.049 A 
ATOM     49  H   UNL A   1      40.167  31.044  30.788  1.00  0.00     0.167 HD
ATOM     50  C   UNL A   1      43.690  25.354  28.096  1.00  0.00     0.037 A 
ATOM     51  C   UNL A   1      41.877  30.314  32.999  1.00  0.00     0.037 A 
ATOM     52  C   UNL A   1      44.395  25.782  29.300  1.00  0.00     0.049 A 
ATOM     53  C   UNL A   1      42.625  29.111  33.517  1.00  0.00     0.074 A 
ATOM     54  C   UNL A   1      45.377  26.739  29.502  1.00  0.00     0.029 A 
ATOM     55  N   UNL A   1      43.914  25.441  30.560  1.00  0.00    -0.354 N 
ATOM     56  N   UNL A   1      43.213  28.237  32.749  1.00  0.00    -0.248 NA
ATOM     57  C   UNL A   1      42.712  28.754  34.933  1.00  0.00     0.031 C 
ATOM     58  C   UNL A   1      45.461  27.002  30.889  1.00  0.00     0.029 A 
ATOM     59  C   UNL A   1      44.537  26.201  31.535  1.00  0.00     0.049 A 
ATOM     60  H   UNL A   1      43.229  24.756  30.734  1.00  0.00     0.167 HD
ATOM     61  C   UNL A   1      43.654  27.186  33.510  1.00  0.00     0.074 A 
ATOM     62  C   UNL A   1      43.363  27.579  34.875  1.00  0.00     0.031 C 
ATOM     63  C   UNL A   1      44.187  26.064  32.941  1.00  0.00     0.037 A 
BRANCH  50  64
ATOM     64  C   UNL A   1      44.348  24.627  26.946  1.00  0.00     0.057 A 
ATOM     65  C   UNL A   1      44.347  23.222  26.871  1.00  0.00     0.134 A 
ATOM     66  C   UNL A   1      45.050  25.262  25.907  1.00  0.00     0.134 A 
ATOM     67  F   UNL A   1      43.611  22.470  27.699  1.00  0.00    -0.206 F 
ATOM     68  C   UNL A   1      45.108  22.509  25.937  1.00  0.00     0.040 A 
ATOM     69  C   UNL A   1      45.864  24.566  25.002  1.00  0.00     0.040 A 
ATOM     70  F   UNL A   1      44.945  26.583  25.702  1.00  0.00    -0.206 F 
ATOM     71  C   UNL A   1      45.912  23.180  25.029  1.00  0.00     0.006 A 
ENDBRANCH  50  64
BRANCH  51  72
ATOM     72  C   UNL A   1      40.546  30.763  33.479  1.00  0.00     0.057 A 
ATOM     73  C   UNL A   1      40.344  32.140  33.674  1.00  0.00     0.134 A 
ATOM     74  C   UNL A   1      39.414  29.960  33.335  1.00  0.00     0.134 A 
ATOM     75  F   UNL A   1      41.394  32.961  33.829  1.00  0.00    -0.206 F 
ATOM     76  C   UNL A   1      39.076  32.717  33.579  1.00  0.00     0.040 A 
ATOM     77  C   UNL A   1      38.137  30.527  33.252  1.00  0.00     0.040 A 
ATOM     78  F   UNL A   1      39.531  28.639  33.140  1.00  0.00    -0.206 F 
ATOM     79  C   UNL A   1      37.971  31.910  33.322  1.00  0.00     0.006 A 
ENDBRANCH  51  72
BRANCH  63  80
ATOM     80  C   UNL A   1      44.507  24.781  33.665  1.00  0.00     0.057 A 
ATOM     81  C   UNL A   1      45.791  24.224  33.755  1.00  0.00     0.134 A 
ATOM     82  C   UNL A   1      43.512  24.120  34.418  1.00  0.00     0.134 A 
ATOM     83  F   UNL A   1      46.853  24.815  33.190  1.00  0.00    -0.206 F 
ATOM     84  C   UNL A   1      46.054  23.054  34.480  1.00  0.00     0.040 A 
ATOM     85  C   UNL A   1      43.774  22.982  35.188  1.00  0.00     0.040 A 
ATOM     86  F   UNL A   1      42.247  24.563  34.455  1.00  0.00    -0.206 F 
ATOM     87  C   UNL A   1      45.046  22.433  35.206  1.00  0.00     0.006 A 
ENDBRANCH  63  80
ENDBRANCH  37  38
ENDBRANCH  29  32
ENDBRANCH  27  28
ENDBRANCH  26  27
ENDBRANCH   1  26
TORSDOF 13
ENDMDL
