MODEL 1
REMARK VINA RESULT:     -12.0      0.000      0.000
REMARK SMILES C[C@H]1CCCC[C@H]1[N@H+]1[C@@H](C(=O)NCCCNC(=O)c2ccc(-c3c4nc(c(-c5c(F)cccc5F)c5ccc([nH]5)c(-c5c(F)cccc5F)c5nc(c(-c6c(F)cccc6F)c6ccc3[nH]6)C=C5)C=C4)cc2)CC[C@@H]2CCCC[C@@H]21
REMARK SMILES IDX 14 1 13 2 12 3 10 4 11 5 9 7 8 8 80 9 73 11 75 12 79 13
REMARK SMILES IDX 74 14 76 15 78 16 77 17 7 18 1 19 2 20 3 21 4 22 6 23 5 24
REMARK SMILES IDX 15 25 16 26 17 27 18 29 19 30 20 31 72 32 21 33 71 34 22 35
REMARK SMILES IDX 23 36 24 37 65 38 25 39 70 40 64 41 66 42 26 43 69 44 63 45
REMARK SMILES IDX 62 46 27 48 53 49 36 50 52 51 37 52 40 53 51 54 67 55 38 56
REMARK SMILES IDX 39 57 50 59 68 60 41 61 28 62 29 63 34 64 30 65 31 66 33 67
REMARK SMILES IDX 35 68 32 69 54 70 55 71 60 72 56 73 57 74 59 75 61 76 58 77
REMARK SMILES IDX 42 78 43 79 48 80 44 81 45 82 47 83 49 84 46 85
REMARK H PARENT 12 6 8 10 16 28 66 47 40 58
REMARK Flexibility Score: inf
ROOT
ATOM      1  C   UNL A   1      34.086  28.026  26.123  1.00  0.00     0.042 C 
ENDROOT
BRANCH   1   2
ATOM      2  C   UNL A   1      33.864  29.004  24.976  1.00  0.00     0.118 C 
BRANCH   2   3
ATOM      3  N   UNL A   1      34.228  28.474  23.666  1.00  0.00    -0.351 N 
ATOM      4  C   UNL A   1      33.547  27.623  22.828  1.00  0.00     0.278 C 
ATOM      5  O   UNL A   1      33.914  27.577  21.651  1.00  0.00    -0.268 OA
ATOM      6  H   UNL A   1      35.101  28.776  23.328  1.00  0.00     0.163 HD
BRANCH   4   7
ATOM      7  C   UNL A   1      32.326  26.865  23.327  1.00  0.00     0.274 C 
ATOM      8  N   UNL A   1      32.402  25.422  23.700  1.00  0.00    -0.319 N 
ATOM      9  C   UNL A   1      31.024  24.859  23.901  1.00  0.00     0.188 C 
ATOM     10  H   UNL A   1      32.930  25.508  24.569  1.00  0.00     0.349 HD
ATOM     11  C   UNL A   1      31.086  27.211  22.495  1.00  0.00     0.076 C 
ATOM     12  C   UNL A   1      29.988  25.917  24.388  1.00  0.00     0.048 C 
ATOM     13  C   UNL A   1      30.903  23.632  24.841  1.00  0.00     0.065 C 
ATOM     14  C   UNL A   1      29.840  27.064  23.372  1.00  0.00     0.016 C 
ATOM     15  C   UNL A   1      30.280  26.408  25.828  1.00  0.00     0.010 C 
ATOM     16  C   UNL A   1      30.591  23.962  26.302  1.00  0.00     0.006 C 
ATOM     17  C   UNL A   1      31.017  25.371  26.677  1.00  0.00     0.001 C 
BRANCH   8  18
ATOM     18  C   UNL A   1      33.414  24.470  23.163  1.00  0.00     0.187 C 
ATOM     19  C   UNL A   1      35.309  24.509  25.009  1.00  0.00     0.014 C 
ATOM     20  C   UNL A   1      34.433  23.703  24.057  1.00  0.00     0.044 C 
ATOM     21  C   UNL A   1      33.759  22.538  24.765  1.00  0.00     0.009 C 
ATOM     22  C   UNL A   1      33.323  21.487  23.751  1.00  0.00     0.001 C 
ATOM     23  C   UNL A   1      32.928  23.473  22.075  1.00  0.00     0.065 C 
ATOM     24  C   UNL A   1      32.667  22.014  22.473  1.00  0.00     0.006 C 
ENDBRANCH   8  18
ENDBRANCH   4   7
ENDBRANCH   2   3
ENDBRANCH   1   2
BRANCH   1  25
ATOM     25  C   UNL A   1      33.463  28.466  27.445  1.00  0.00     0.118 C 
BRANCH  25  26
ATOM     26  N   UNL A   1      33.524  29.910  27.635  1.00  0.00    -0.352 N 
ATOM     27  C   UNL A   1      34.512  30.714  28.144  1.00  0.00     0.251 C 
ATOM     28  H   UNL A   1      32.714  30.392  27.348  1.00  0.00     0.163 HD
ATOM     29  O   UNL A   1      34.254  31.892  28.395  1.00  0.00    -0.269 OA
BRANCH  27  30
ATOM     30  C   UNL A   1      35.874  30.198  28.409  1.00  0.00     0.039 A 
ATOM     31  C   UNL A   1      36.807  30.204  27.366  1.00  0.00     0.014 A 
ATOM     32  C   UNL A   1      36.226  29.655  29.646  1.00  0.00     0.014 A 
ATOM     33  C   UNL A   1      38.105  29.732  27.582  1.00  0.00     0.010 A 
ATOM     34  C   UNL A   1      37.542  29.252  29.883  1.00  0.00     0.010 A 
ATOM     35  C   UNL A   1      38.496  29.286  28.855  1.00  0.00    -0.014 A 
BRANCH  35  36
ATOM     36  C   UNL A   1      39.895  28.868  29.131  1.00  0.00     0.031 A 
ATOM     37  C   UNL A   1      40.858  29.811  29.799  1.00  0.00     0.074 A 
ATOM     38  C   UNL A   1      40.321  27.657  28.720  1.00  0.00     0.049 A 
ATOM     39  N   UNL A   1      42.135  29.652  30.045  1.00  0.00    -0.248 NA
ATOM     40  C   UNL A   1      40.323  31.112  30.226  1.00  0.00     0.031 C 
ATOM     41  C   UNL A   1      39.502  26.662  28.026  1.00  0.00     0.029 A 
ATOM     42  N   UNL A   1      41.556  27.064  28.812  1.00  0.00    -0.354 N 
ATOM     43  C   UNL A   1      42.557  30.835  30.639  1.00  0.00     0.074 A 
ATOM     44  C   UNL A   1      41.412  31.719  30.676  1.00  0.00     0.031 C 
ATOM     45  C   UNL A   1      40.249  25.576  27.772  1.00  0.00     0.029 A 
ATOM     46  C   UNL A   1      41.609  25.813  28.247  1.00  0.00     0.049 A 
ATOM     47  H   UNL A   1      42.329  27.494  29.242  1.00  0.00     0.167 HD
ATOM     48  C   UNL A   1      43.782  31.150  31.127  1.00  0.00     0.037 A 
ATOM     49  C   UNL A   1      42.639  24.955  28.114  1.00  0.00     0.037 A 
ATOM     50  C   UNL A   1      44.916  30.263  31.111  1.00  0.00     0.049 A 
ATOM     51  C   UNL A   1      43.991  25.334  28.651  1.00  0.00     0.074 A 
ATOM     52  C   UNL A   1      46.181  30.474  31.634  1.00  0.00     0.029 A 
ATOM     53  N   UNL A   1      44.926  29.000  30.541  1.00  0.00    -0.354 N 
ATOM     54  N   UNL A   1      44.359  26.432  29.263  1.00  0.00    -0.248 NA
ATOM     55  C   UNL A   1      45.070  24.350  28.480  1.00  0.00     0.031 C 
ATOM     56  C   UNL A   1      46.968  29.354  31.344  1.00  0.00     0.029 A 
ATOM     57  C   UNL A   1      46.180  28.427  30.680  1.00  0.00     0.049 A 
ATOM     58  H   UNL A   1      44.155  28.572  30.102  1.00  0.00     0.167 HD
ATOM     59  C   UNL A   1      45.701  26.262  29.575  1.00  0.00     0.074 A 
ATOM     60  C   UNL A   1      46.080  24.949  29.097  1.00  0.00     0.031 C 
ATOM     61  C   UNL A   1      46.544  27.117  30.204  1.00  0.00     0.037 A 
BRANCH  48  62
ATOM     62  C   UNL A   1      43.959  32.516  31.723  1.00  0.00     0.057 A 
ATOM     63  C   UNL A   1      44.356  33.615  30.949  1.00  0.00     0.134 A 
ATOM     64  C   UNL A   1      43.691  32.745  33.079  1.00  0.00     0.134 A 
ATOM     65  F   UNL A   1      44.638  33.462  29.646  1.00  0.00    -0.206 F 
ATOM     66  C   UNL A   1      44.506  34.885  31.507  1.00  0.00     0.040 A 
ATOM     67  C   UNL A   1      43.811  34.017  33.643  1.00  0.00     0.040 A 
ATOM     68  F   UNL A   1      43.298  31.740  33.876  1.00  0.00    -0.206 F 
ATOM     69  C   UNL A   1      44.227  35.090  32.857  1.00  0.00     0.006 A 
ENDBRANCH  48  62
BRANCH  49  70
ATOM     70  C   UNL A   1      42.429  23.641  27.457  1.00  0.00     0.057 A 
ATOM     71  C   UNL A   1      42.088  22.508  28.205  1.00  0.00     0.134 A 
ATOM     72  C   UNL A   1      42.570  23.483  26.073  1.00  0.00     0.134 A 
ATOM     73  F   UNL A   1      41.958  22.594  29.537  1.00  0.00    -0.206 F 
ATOM     74  C   UNL A   1      41.911  21.261  27.605  1.00  0.00     0.040 A 
ATOM     75  C   UNL A   1      42.373  22.248  25.456  1.00  0.00     0.040 A 
ATOM     76  F   UNL A   1      42.889  24.532  25.301  1.00  0.00    -0.206 F 
ATOM     77  C   UNL A   1      42.049  21.130  26.224  1.00  0.00     0.006 A 
ENDBRANCH  49  70
BRANCH  61  78
ATOM     78  C   UNL A   1      47.950  26.646  30.441  1.00  0.00     0.057 A 
ATOM     79  C   UNL A   1      48.980  26.904  29.528  1.00  0.00     0.134 A 
ATOM     80  C   UNL A   1      48.282  25.956  31.614  1.00  0.00     0.134 A 
ATOM     81  F   UNL A   1      48.725  27.547  28.378  1.00  0.00    -0.206 F 
ATOM     82  C   UNL A   1      50.287  26.473  29.764  1.00  0.00     0.040 A 
ATOM     83  C   UNL A   1      49.589  25.543  31.873  1.00  0.00     0.040 A 
ATOM     84  F   UNL A   1      47.343  25.685  32.533  1.00  0.00    -0.206 F 
ATOM     85  C   UNL A   1      50.595  25.796  30.942  1.00  0.00     0.006 A 
ENDBRANCH  61  78
ENDBRANCH  35  36
ENDBRANCH  27  30
ENDBRANCH  25  26
ENDBRANCH   1  25
TORSDOF 11
ENDMDL
MODEL 2
REMARK VINA RESULT:     -11.7      2.933      6.681
REMARK SMILES C[C@H]1CCCC[C@H]1[N@H+]1[C@@H](C(=O)NCCCNC(=O)c2ccc(-c3c4nc(c(-c5c(F)cccc5F)c5ccc([nH]5)c(-c5c(F)cccc5F)c5nc(c(-c6c(F)cccc6F)c6ccc3[nH]6)C=C5)C=C4)cc2)CC[C@@H]2CCCC[C@@H]21
REMARK SMILES IDX 14 1 13 2 12 3 10 4 11 5 9 7 8 8 80 9 73 11 75 12 79 13
REMARK SMILES IDX 74 14 76 15 78 16 77 17 7 18 1 19 2 20 3 21 4 22 6 23 5 24
REMARK SMILES IDX 15 25 16 26 17 27 18 29 19 30 20 31 72 32 21 33 71 34 22 35
REMARK SMILES IDX 23 36 24 37 65 38 25 39 70 40 64 41 66 42 26 43 69 44 63 45
REMARK SMILES IDX 62 46 27 48 53 49 36 50 52 51 37 52 40 53 51 54 67 55 38 56
REMARK SMILES IDX 39 57 50 59 68 60 41 61 28 62 29 63 34 64 30 65 31 66 33 67
REMARK SMILES IDX 35 68 32 69 54 70 55 71 60 72 56 73 57 74 59 75 61 76 58 77
REMARK SMILES IDX 42 78 43 79 48 80 44 81 45 82 47 83 49 84 46 85
REMARK H PARENT 12 6 8 10 16 28 66 47 40 58
REMARK Flexibility Score: inf
ROOT
ATOM      1  C   UNL A   1      33.651  28.956  24.215  1.00  0.00     0.042 C 
ENDROOT
BRANCH   1   2
ATOM      2  C   UNL A   1      32.956  28.769  22.872  1.00  0.00     0.118 C 
BRANCH   2   3
ATOM      3  N   UNL A   1      33.482  27.664  22.080  1.00  0.00    -0.351 N 
ATOM      4  C   UNL A   1      33.081  26.351  22.002  1.00  0.00     0.278 C 
ATOM      5  O   UNL A   1      33.475  25.696  21.034  1.00  0.00    -0.268 OA
ATOM      6  H   UNL A   1      34.249  27.896  21.508  1.00  0.00     0.163 HD
BRANCH   4   7
ATOM      7  C   UNL A   1      32.101  25.785  23.019  1.00  0.00     0.274 C 
ATOM      8  N   UNL A   1      32.274  24.419  23.593  1.00  0.00    -0.319 N 
ATOM      9  C   UNL A   1      31.045  24.011  24.355  1.00  0.00     0.188 C 
ATOM     10  H   UNL A   1      33.077  24.599  24.196  1.00  0.00     0.349 HD
ATOM     11  C   UNL A   1      30.653  26.096  22.620  1.00  0.00     0.076 C 
ATOM     12  C   UNL A   1      30.271  25.213  24.973  1.00  0.00     0.048 C 
ATOM     13  C   UNL A   1      31.240  22.962  25.481  1.00  0.00     0.065 C 
ATOM     14  C   UNL A   1      29.796  26.193  23.884  1.00  0.00     0.016 C 
ATOM     15  C   UNL A   1      31.065  25.903  26.112  1.00  0.00     0.010 C 
ATOM     16  C   UNL A   1      31.474  23.546  26.876  1.00  0.00     0.006 C 
ATOM     17  C   UNL A   1      32.033  24.956  26.823  1.00  0.00     0.001 C 
BRANCH   8  18
ATOM     18  C   UNL A   1      33.009  23.314  22.918  1.00  0.00     0.187 C 
ATOM     19  C   UNL A   1      35.499  23.664  23.742  1.00  0.00     0.014 C 
ATOM     20  C   UNL A   1      34.342  22.713  23.456  1.00  0.00     0.044 C 
ATOM     21  C   UNL A   1      34.080  21.780  24.627  1.00  0.00     0.009 C 
ATOM     22  C   UNL A   1      33.306  20.553  24.160  1.00  0.00     0.001 C 
ATOM     23  C   UNL A   1      32.158  22.124  22.394  1.00  0.00     0.065 C 
ATOM     24  C   UNL A   1      32.153  20.811  23.188  1.00  0.00     0.006 C 
ENDBRANCH   8  18
ENDBRANCH   4   7
ENDBRANCH   2   3
ENDBRANCH   1   2
BRANCH   1  25
ATOM     25  C   UNL A   1      32.702  28.971  25.410  1.00  0.00     0.118 C 
BRANCH  25  26
ATOM     26  N   UNL A   1      32.331  30.324  25.808  1.00  0.00    -0.352 N 
ATOM     27  C   UNL A   1      32.854  31.161  26.761  1.00  0.00     0.251 C 
ATOM     28  H   UNL A   1      31.574  30.702  25.305  1.00  0.00     0.163 HD
ATOM     29  O   UNL A   1      32.239  32.187  27.056  1.00  0.00    -0.269 OA
BRANCH  27  30
ATOM     30  C   UNL A   1      34.127  30.856  27.449  1.00  0.00     0.039 A 
ATOM     31  C   UNL A   1      35.057  31.886  27.626  1.00  0.00     0.014 A 
ATOM     32  C   UNL A   1      34.445  29.562  27.868  1.00  0.00     0.014 A 
ATOM     33  C   UNL A   1      36.268  31.637  28.279  1.00  0.00     0.010 A 
ATOM     34  C   UNL A   1      35.621  29.328  28.584  1.00  0.00     0.010 A 
ATOM     35  C   UNL A   1      36.544  30.362  28.798  1.00  0.00    -0.014 A 
BRANCH  35  36
ATOM     36  C   UNL A   1      37.782  30.097  29.577  1.00  0.00     0.031 A 
ATOM     37  C   UNL A   1      38.858  29.202  29.026  1.00  0.00     0.074 A 
ATOM     38  C   UNL A   1      37.910  30.611  30.817  1.00  0.00     0.049 A 
ATOM     39  N   UNL A   1      39.964  28.792  29.594  1.00  0.00    -0.248 NA
ATOM     40  C   UNL A   1      38.654  28.681  27.666  1.00  0.00     0.031 C 
ATOM     41  C   UNL A   1      36.925  31.463  31.487  1.00  0.00     0.029 A 
ATOM     42  N   UNL A   1      38.917  30.480  31.741  1.00  0.00    -0.354 N 
ATOM     43  C   UNL A   1      40.578  27.955  28.671  1.00  0.00     0.074 A 
ATOM     44  C   UNL A   1      39.700  27.881  27.523  1.00  0.00     0.031 C 
ATOM     45  C   UNL A   1      37.383  31.792  32.704  1.00  0.00     0.029 A 
ATOM     46  C   UNL A   1      38.674  31.144  32.919  1.00  0.00     0.049 A 
ATOM     47  H   UNL A   1      39.736  29.960  31.575  1.00  0.00     0.167 HD
ATOM     48  C   UNL A   1      41.773  27.322  28.762  1.00  0.00     0.037 A 
ATOM     49  C   UNL A   1      39.400  31.215  34.051  1.00  0.00     0.037 A 
ATOM     50  C   UNL A   1      42.658  27.413  29.893  1.00  0.00     0.049 A 
ATOM     51  C   UNL A   1      40.715  30.492  34.132  1.00  0.00     0.074 A 
ATOM     52  C   UNL A   1      43.915  26.853  30.052  1.00  0.00     0.029 A 
ATOM     53  N   UNL A   1      42.380  28.105  31.062  1.00  0.00    -0.354 N 
ATOM     54  N   UNL A   1      41.309  29.753  33.227  1.00  0.00    -0.248 NA
ATOM     55  C   UNL A   1      41.462  30.615  35.392  1.00  0.00     0.031 C 
ATOM     56  C   UNL A   1      44.379  27.173  31.332  1.00  0.00     0.029 A 
ATOM     57  C   UNL A   1      43.431  27.970  31.954  1.00  0.00     0.049 A 
ATOM     58  H   UNL A   1      41.557  28.619  31.233  1.00  0.00     0.167 HD
ATOM     59  C   UNL A   1      42.509  29.347  33.795  1.00  0.00     0.074 A 
ATOM     60  C   UNL A   1      42.566  29.932  35.118  1.00  0.00     0.031 C 
ATOM     61  C   UNL A   1      43.479  28.562  33.267  1.00  0.00     0.037 A 
BRANCH  48  62
ATOM     62  C   UNL A   1      42.195  26.471  27.599  1.00  0.00     0.057 A 
ATOM     63  C   UNL A   1      41.894  25.104  27.535  1.00  0.00     0.134 A 
ATOM     64  C   UNL A   1      42.878  27.032  26.512  1.00  0.00     0.134 A 
ATOM     65  F   UNL A   1      41.250  24.502  28.548  1.00  0.00    -0.206 F 
ATOM     66  C   UNL A   1      42.277  24.321  26.446  1.00  0.00     0.040 A 
ATOM     67  C   UNL A   1      43.243  26.265  25.404  1.00  0.00     0.040 A 
ATOM     68  F   UNL A   1      43.191  28.337  26.503  1.00  0.00    -0.206 F 
ATOM     69  C   UNL A   1      42.949  24.903  25.373  1.00  0.00     0.006 A 
ENDBRANCH  48  62
BRANCH  49  70
ATOM     70  C   UNL A   1      38.908  32.017  35.198  1.00  0.00     0.057 A 
ATOM     71  C   UNL A   1      38.262  31.407  36.279  1.00  0.00     0.134 A 
ATOM     72  C   UNL A   1      39.064  33.408  35.239  1.00  0.00     0.134 A 
ATOM     73  F   UNL A   1      38.066  30.081  36.286  1.00  0.00    -0.206 F 
ATOM     74  C   UNL A   1      37.772  32.151  37.353  1.00  0.00     0.040 A 
ATOM     75  C   UNL A   1      38.600  34.162  36.317  1.00  0.00     0.040 A 
ATOM     76  F   UNL A   1      39.680  34.050  34.237  1.00  0.00    -0.206 F 
ATOM     77  C   UNL A   1      37.945  33.534  37.376  1.00  0.00     0.006 A 
ENDBRANCH  49  70
BRANCH  61  78
ATOM     78  C   UNL A   1      44.699  28.316  34.107  1.00  0.00     0.057 A 
ATOM     79  C   UNL A   1      45.800  29.181  34.083  1.00  0.00     0.134 A 
ATOM     80  C   UNL A   1      44.757  27.218  34.975  1.00  0.00     0.134 A 
ATOM     81  F   UNL A   1      45.813  30.242  33.262  1.00  0.00    -0.206 F 
ATOM     82  C   UNL A   1      46.925  28.950  34.878  1.00  0.00     0.040 A 
ATOM     83  C   UNL A   1      45.864  26.991  35.792  1.00  0.00     0.040 A 
ATOM     84  F   UNL A   1      43.732  26.355  35.051  1.00  0.00    -0.206 F 
ATOM     85  C   UNL A   1      46.956  27.856  35.740  1.00  0.00     0.006 A 
ENDBRANCH  61  78
ENDBRANCH  35  36
ENDBRANCH  27  30
ENDBRANCH  25  26
ENDBRANCH   1  25
TORSDOF 11
ENDMDL
MODEL 3
REMARK VINA RESULT:     -11.6      2.782      7.265
REMARK SMILES C[C@H]1CCCC[C@H]1[N@H+]1[C@@H](C(=O)NCCCNC(=O)c2ccc(-c3c4nc(c(-c5c(F)cccc5F)c5ccc([nH]5)c(-c5c(F)cccc5F)c5nc(c(-c6c(F)cccc6F)c6ccc3[nH]6)C=C5)C=C4)cc2)CC[C@@H]2CCCC[C@@H]21
REMARK SMILES IDX 14 1 13 2 12 3 10 4 11 5 9 7 8 8 80 9 73 11 75 12 79 13
REMARK SMILES IDX 74 14 76 15 78 16 77 17 7 18 1 19 2 20 3 21 4 22 6 23 5 24
REMARK SMILES IDX 15 25 16 26 17 27 18 29 19 30 20 31 72 32 21 33 71 34 22 35
REMARK SMILES IDX 23 36 24 37 65 38 25 39 70 40 64 41 66 42 26 43 69 44 63 45
REMARK SMILES IDX 62 46 27 48 53 49 36 50 52 51 37 52 40 53 51 54 67 55 38 56
REMARK SMILES IDX 39 57 50 59 68 60 41 61 28 62 29 63 34 64 30 65 31 66 33 67
REMARK SMILES IDX 35 68 32 69 54 70 55 71 60 72 56 73 57 74 59 75 61 76 58 77
REMARK SMILES IDX 42 78 43 79 48 80 44 81 45 82 47 83 49 84 46 85
REMARK H PARENT 12 6 8 10 16 28 66 47 40 58
REMARK Flexibility Score: inf
ROOT
ATOM      1  C   UNL A   1      37.517  19.673  24.869  1.00  0.00     0.042 C 
ENDROOT
BRANCH   1   2
ATOM      2  C   UNL A   1      36.214  20.442  25.048  1.00  0.00     0.118 C 
BRANCH   2   3
ATOM      3  N   UNL A   1      35.018  19.614  24.943  1.00  0.00    -0.351 N 
ATOM      4  C   UNL A   1      33.696  19.925  25.157  1.00  0.00     0.278 C 
ATOM      5  O   UNL A   1      32.852  19.151  24.699  1.00  0.00    -0.268 OA
ATOM      6  H   UNL A   1      35.185  18.682  24.674  1.00  0.00     0.163 HD
BRANCH   4   7
ATOM      7  C   UNL A   1      33.313  21.233  25.835  1.00  0.00     0.274 C 
ATOM      8  N   UNL A   1      33.088  22.482  25.051  1.00  0.00    -0.319 N 
ATOM      9  C   UNL A   1      32.986  23.666  25.969  1.00  0.00     0.188 C 
ATOM     10  H   UNL A   1      32.200  22.238  24.612  1.00  0.00     0.349 HD
ATOM     11  C   UNL A   1      34.141  21.456  27.106  1.00  0.00     0.076 C 
ATOM     12  C   UNL A   1      32.424  23.311  27.379  1.00  0.00     0.048 C 
ATOM     13  C   UNL A   1      32.181  24.884  25.448  1.00  0.00     0.065 C 
ATOM     14  C   UNL A   1      33.321  22.285  28.096  1.00  0.00     0.016 C 
ATOM     15  C   UNL A   1      30.933  22.891  27.330  1.00  0.00     0.010 C 
ATOM     16  C   UNL A   1      30.703  24.903  25.845  1.00  0.00     0.006 C 
ATOM     17  C   UNL A   1      30.174  23.514  26.157  1.00  0.00     0.001 C 
BRANCH   8  18
ATOM     18  C   UNL A   1      33.690  22.753  23.716  1.00  0.00     0.187 C 
ATOM     19  C   UNL A   1      32.082  21.457  22.062  1.00  0.00     0.014 C 
ATOM     20  C   UNL A   1      32.883  22.713  22.385  1.00  0.00     0.044 C 
ATOM     21  C   UNL A   1      32.043  23.971  22.225  1.00  0.00     0.009 C 
ATOM     22  C   UNL A   1      32.943  25.188  22.053  1.00  0.00     0.001 C 
ATOM     23  C   UNL A   1      34.661  23.961  23.618  1.00  0.00     0.065 C 
ATOM     24  C   UNL A   1      34.162  25.262  22.975  1.00  0.00     0.006 C 
ENDBRANCH   8  18
ENDBRANCH   4   7
ENDBRANCH   2   3
ENDBRANCH   1   2
BRANCH   1  25
ATOM     25  C   UNL A   1      38.704  20.277  25.615  1.00  0.00     0.118 C 
BRANCH  25  26
ATOM     26  N   UNL A   1      39.813  19.340  25.748  1.00  0.00    -0.352 N 
ATOM     27  C   UNL A   1      41.125  19.537  26.094  1.00  0.00     0.251 C 
ATOM     28  H   UNL A   1      39.579  18.403  25.557  1.00  0.00     0.163 HD
ATOM     29  O   UNL A   1      41.929  18.616  25.940  1.00  0.00    -0.269 OA
BRANCH  27  30
ATOM     30  C   UNL A   1      41.601  20.830  26.634  1.00  0.00     0.039 A 
ATOM     31  C   UNL A   1      41.952  21.844  25.735  1.00  0.00     0.014 A 
ATOM     32  C   UNL A   1      41.765  21.039  28.005  1.00  0.00     0.014 A 
ATOM     33  C   UNL A   1      42.398  23.081  26.209  1.00  0.00     0.010 A 
ATOM     34  C   UNL A   1      42.140  22.297  28.481  1.00  0.00     0.010 A 
ATOM     35  C   UNL A   1      42.460  23.332  27.589  1.00  0.00    -0.014 A 
BRANCH  35  36
ATOM     36  C   UNL A   1      42.841  24.669  28.115  1.00  0.00     0.031 A 
ATOM     37  C   UNL A   1      41.795  25.722  28.358  1.00  0.00     0.074 A 
ATOM     38  C   UNL A   1      44.142  24.960  28.311  1.00  0.00     0.049 A 
ATOM     39  N   UNL A   1      41.948  26.968  28.734  1.00  0.00    -0.248 NA
ATOM     40  C   UNL A   1      40.396  25.332  28.129  1.00  0.00     0.031 C 
ATOM     41  C   UNL A   1      45.260  24.044  28.077  1.00  0.00     0.029 A 
ATOM     42  N   UNL A   1      44.746  26.117  28.738  1.00  0.00    -0.354 N 
ATOM     43  C   UNL A   1      40.670  27.512  28.770  1.00  0.00     0.074 A 
ATOM     44  C   UNL A   1      39.759  26.476  28.335  1.00  0.00     0.031 C 
ATOM     45  C   UNL A   1      46.410  24.666  28.380  1.00  0.00     0.029 A 
ATOM     46  C   UNL A   1      46.116  26.036  28.791  1.00  0.00     0.049 A 
ATOM     47  H   UNL A   1      44.245  26.927  28.985  1.00  0.00     0.167 HD
ATOM     48  C   UNL A   1      40.288  28.757  29.149  1.00  0.00     0.037 A 
ATOM     49  C   UNL A   1      47.037  26.962  29.120  1.00  0.00     0.037 A 
ATOM     50  C   UNL A   1      41.192  29.782  29.604  1.00  0.00     0.049 A 
ATOM     51  C   UNL A   1      46.588  28.339  29.524  1.00  0.00     0.074 A 
ATOM     52  C   UNL A   1      40.890  31.053  30.063  1.00  0.00     0.029 A 
ATOM     53  N   UNL A   1      42.571  29.656  29.654  1.00  0.00    -0.354 N 
ATOM     54  N   UNL A   1      45.372  28.820  29.609  1.00  0.00    -0.248 NA
ATOM     55  C   UNL A   1      47.642  29.301  29.878  1.00  0.00     0.031 C 
ATOM     56  C   UNL A   1      42.092  31.711  30.351  1.00  0.00     0.029 A 
ATOM     57  C   UNL A   1      43.137  30.833  30.115  1.00  0.00     0.049 A 
ATOM     58  H   UNL A   1      43.075  28.849  29.399  1.00  0.00     0.167 HD
ATOM     59  C   UNL A   1      45.511  30.129  30.053  1.00  0.00     0.074 A 
ATOM     60  C   UNL A   1      46.929  30.362  30.232  1.00  0.00     0.031 C 
ATOM     61  C   UNL A   1      44.550  31.052  30.294  1.00  0.00     0.037 A 
BRANCH  48  62
ATOM     62  C   UNL A   1      38.823  29.079  29.089  1.00  0.00     0.057 A 
ATOM     63  C   UNL A   1      37.996  28.969  30.215  1.00  0.00     0.134 A 
ATOM     64  C   UNL A   1      38.240  29.540  27.902  1.00  0.00     0.134 A 
ATOM     65  F   UNL A   1      38.489  28.523  31.380  1.00  0.00    -0.206 F 
ATOM     66  C   UNL A   1      36.637  29.282  30.156  1.00  0.00     0.040 A 
ATOM     67  C   UNL A   1      36.887  29.883  27.838  1.00  0.00     0.040 A 
ATOM     68  F   UNL A   1      38.976  29.678  26.789  1.00  0.00    -0.206 F 
ATOM     69  C   UNL A   1      36.081  29.747  28.966  1.00  0.00     0.006 A 
ENDBRANCH  48  62
BRANCH  49  70
ATOM     70  C   UNL A   1      48.479  26.614  29.101  1.00  0.00     0.057 A 
ATOM     71  C   UNL A   1      49.246  26.785  27.943  1.00  0.00     0.134 A 
ATOM     72  C   UNL A   1      49.123  26.097  30.232  1.00  0.00     0.134 A 
ATOM     73  F   UNL A   1      48.679  27.257  26.823  1.00  0.00    -0.206 F 
ATOM     74  C   UNL A   1      50.597  26.438  27.902  1.00  0.00     0.040 A 
ATOM     75  C   UNL A   1      50.478  25.768  30.213  1.00  0.00     0.040 A 
ATOM     76  F   UNL A   1      48.444  25.916  31.374  1.00  0.00    -0.206 F 
ATOM     77  C   UNL A   1      51.218  25.932  29.043  1.00  0.00     0.006 A 
ENDBRANCH  49  70
BRANCH  61  78
ATOM     78  C   UNL A   1      44.996  32.391  30.808  1.00  0.00     0.057 A 
ATOM     79  C   UNL A   1      45.277  33.458  29.946  1.00  0.00     0.134 A 
ATOM     80  C   UNL A   1      45.113  32.622  32.185  1.00  0.00     0.134 A 
ATOM     81  F   UNL A   1      45.199  33.298  28.617  1.00  0.00    -0.206 F 
ATOM     82  C   UNL A   1      45.679  34.703  30.435  1.00  0.00     0.040 A 
ATOM     83  C   UNL A   1      45.489  33.869  32.686  1.00  0.00     0.040 A 
ATOM     84  F   UNL A   1      44.851  31.643  33.064  1.00  0.00    -0.206 F 
ATOM     85  C   UNL A   1      45.780  34.912  31.809  1.00  0.00     0.006 A 
ENDBRANCH  61  78
ENDBRANCH  35  36
ENDBRANCH  27  30
ENDBRANCH  25  26
ENDBRANCH   1  25
TORSDOF 11
ENDMDL
