MODEL 1
REMARK VINA RESULT:     -12.4      0.000      0.000
REMARK SMILES CC[C@@H](C)[C@H](NC(=O)[C@H]1CCCN(S(=O)(=O)c2ccccc2)C1)C(=O)NCCCNC(=O)c1ccc(-c2c3nc(c(-c4c(F)cccc4F)c4ccc([nH]4)c(-c4c(F)cccc4F)c4nc(c(-c5c(F)cccc5F)c5ccc2[nH]5)C=C4)C=C3)cc1
REMARK SMILES IDX 27 1 26 2 24 3 25 4 5 6 3 7 4 8 2 9 1 10 6 11 7 12 8 14 9 15
REMARK SMILES IDX 10 16 23 17 11 18 13 19 12 20 14 21 15 22 16 23 17 24 18 25
REMARK SMILES IDX 22 26 19 27 21 28 20 29 28 30 29 31 30 32 31 33 32 35 33 36
REMARK SMILES IDX 34 37 86 38 35 39 85 40 36 41 37 42 38 43 79 44 39 45 84 46
REMARK SMILES IDX 78 47 80 48 40 49 83 50 77 51 76 52 41 54 67 55 50 56 66 57
REMARK SMILES IDX 51 58 54 59 65 60 81 61 52 62 53 63 64 65 82 66 55 67 42 68
REMARK SMILES IDX 43 69 48 70 44 71 45 72 47 73 49 74 46 75 68 76 69 77 74 78
REMARK SMILES IDX 70 79 71 80 73 81 75 82 72 83 56 84 57 85 62 86 58 87 59 88
REMARK SMILES IDX 61 89 63 90 60 91
REMARK H PARENT 26 5 6 13 30 34 80 53 54 64
REMARK Flexibility Score: inf
ROOT
ATOM      1  C   UNL A   1      31.806  30.624  26.043  1.00  0.00     0.117 C 
ENDROOT
BRANCH   1   2
ATOM      2  N   UNL A   1      30.967  30.469  24.868  1.00  0.00    -0.354 N 
ATOM      3  C   UNL A   1      30.755  29.435  24.013  1.00  0.00     0.242 C 
ATOM      4  O   UNL A   1      29.799  29.561  23.238  1.00  0.00    -0.273 OA
ATOM      5  H   UNL A   1      30.446  31.275  24.647  1.00  0.00     0.163 HD
BRANCH   3   6
ATOM      6  C   UNL A   1      31.557  28.110  24.028  1.00  0.00     0.174 C 
BRANCH   6   7
ATOM      7  C   UNL A   1      32.984  28.230  23.423  1.00  0.00     0.018 C 
ATOM      8  C   UNL A   1      33.346  27.159  22.394  1.00  0.00     0.010 C 
BRANCH   7   9
ATOM      9  C   UNL A   1      34.024  28.286  24.567  1.00  0.00     0.002 C 
ATOM     10  C   UNL A   1      33.643  27.466  25.793  1.00  0.00     0.004 C 
ENDBRANCH   7   9
ENDBRANCH   6   7
BRANCH   6  11
ATOM     11  N   UNL A   1      30.780  26.967  23.550  1.00  0.00    -0.344 N 
ATOM     12  C   UNL A   1      30.471  25.753  24.066  1.00  0.00     0.225 C 
ATOM     13  H   UNL A   1      30.395  27.112  22.655  1.00  0.00     0.164 HD
ATOM     14  O   UNL A   1      29.498  25.219  23.515  1.00  0.00    -0.275 OA
BRANCH  12  15
ATOM     15  C   UNL A   1      31.291  24.968  25.112  1.00  0.00     0.094 C 
ATOM     16  C   UNL A   1      30.525  24.137  26.136  1.00  0.00     0.016 C 
ATOM     17  C   UNL A   1      32.275  24.072  24.316  1.00  0.00     0.116 C 
ATOM     18  C   UNL A   1      31.446  23.254  26.964  1.00  0.00     0.018 C 
ATOM     19  N   UNL A   1      33.128  23.166  25.177  1.00  0.00    -0.197 NA
ATOM     20  C   UNL A   1      32.291  22.349  26.092  1.00  0.00     0.102 C 
BRANCH  19  21
ATOM     21  S   UNL A   1      34.174  22.213  24.160  1.00  0.00     0.243 S 
ATOM     22  O   UNL A   1      33.823  20.819  24.371  1.00  0.00    -0.207 OA
ATOM     23  O   UNL A   1      34.137  22.791  22.837  1.00  0.00    -0.207 OA
BRANCH  21  24
ATOM     24  C   UNL A   1      35.819  22.445  24.804  1.00  0.00     0.082 A 
ATOM     25  C   UNL A   1      36.743  21.397  24.739  1.00  0.00     0.022 A 
ATOM     26  C   UNL A   1      36.129  23.613  25.513  1.00  0.00     0.022 A 
ATOM     27  C   UNL A   1      37.993  21.539  25.349  1.00  0.00     0.001 A 
ATOM     28  C   UNL A   1      37.389  23.760  26.094  1.00  0.00     0.001 A 
ATOM     29  C   UNL A   1      38.318  22.722  26.014  1.00  0.00     0.000 A 
ENDBRANCH  21  24
ENDBRANCH  19  21
ENDBRANCH  12  15
ENDBRANCH   6  11
ENDBRANCH   3   6
ENDBRANCH   1   2
BRANCH   1  30
ATOM     30  C   UNL A   1      31.465  31.859  26.862  1.00  0.00     0.042 C 
BRANCH  30  31
ATOM     31  C   UNL A   1      32.687  32.648  27.323  1.00  0.00     0.118 C 
BRANCH  31  32
ATOM     32  N   UNL A   1      32.385  34.045  27.619  1.00  0.00    -0.352 N 
ATOM     33  C   UNL A   1      32.936  34.915  28.531  1.00  0.00     0.251 C 
ATOM     34  H   UNL A   1      31.664  34.431  27.072  1.00  0.00     0.163 HD
ATOM     35  O   UNL A   1      32.388  35.992  28.746  1.00  0.00    -0.269 OA
BRANCH  33  36
ATOM     36  C   UNL A   1      34.158  34.551  29.279  1.00  0.00     0.039 A 
ATOM     37  C   UNL A   1      34.053  34.210  30.632  1.00  0.00     0.014 A 
ATOM     38  C   UNL A   1      35.408  34.557  28.661  1.00  0.00     0.014 A 
ATOM     39  C   UNL A   1      35.182  33.768  31.329  1.00  0.00     0.010 A 
ATOM     40  C   UNL A   1      36.510  34.030  29.325  1.00  0.00     0.010 A 
ATOM     41  C   UNL A   1      36.408  33.615  30.661  1.00  0.00    -0.014 A 
BRANCH  41  42
ATOM     42  C   UNL A   1      37.589  32.990  31.310  1.00  0.00     0.031 A 
ATOM     43  C   UNL A   1      38.257  31.801  30.676  1.00  0.00     0.074 A 
ATOM     44  C   UNL A   1      37.973  33.406  32.534  1.00  0.00     0.049 A 
ATOM     45  N   UNL A   1      39.163  30.999  31.174  1.00  0.00    -0.248 NA
ATOM     46  C   UNL A   1      37.821  31.442  29.317  1.00  0.00     0.031 C 
ATOM     47  C   UNL A   1      37.367  34.509  33.285  1.00  0.00     0.029 A 
ATOM     48  N   UNL A   1      38.942  32.925  33.379  1.00  0.00    -0.354 N 
ATOM     49  C   UNL A   1      39.369  30.018  30.212  1.00  0.00     0.074 A 
ATOM     50  C   UNL A   1      38.479  30.310  29.110  1.00  0.00     0.031 C 
ATOM     51  C   UNL A   1      37.981  34.622  34.474  1.00  0.00     0.029 A 
ATOM     52  C   UNL A   1      38.986  33.573  34.591  1.00  0.00     0.049 A 
ATOM     53  H   UNL A   1      39.547  32.186  33.140  1.00  0.00     0.167 HD
ATOM     54  C   UNL A   1      40.233  28.976  30.243  1.00  0.00     0.037 A 
ATOM     55  C   UNL A   1      39.732  33.332  35.685  1.00  0.00     0.037 A 
ATOM     56  C   UNL A   1      41.168  28.730  31.307  1.00  0.00     0.049 A 
ATOM     57  C   UNL A   1      40.701  32.184  35.679  1.00  0.00     0.074 A 
ATOM     58  C   UNL A   1      42.177  27.785  31.365  1.00  0.00     0.029 A 
ATOM     59  N   UNL A   1      41.209  29.435  32.498  1.00  0.00    -0.354 N 
ATOM     60  N   UNL A   1      40.948  31.319  34.726  1.00  0.00    -0.248 NA
ATOM     61  C   UNL A   1      41.489  31.972  36.902  1.00  0.00     0.031 C 
ATOM     62  C   UNL A   1      42.806  27.893  32.608  1.00  0.00     0.029 A 
ATOM     63  C   UNL A   1      42.207  28.925  33.313  1.00  0.00     0.049 A 
ATOM     64  H   UNL A   1      40.617  30.187  32.733  1.00  0.00     0.167 HD
ATOM     65  C   UNL A   1      41.926  30.472  35.227  1.00  0.00     0.074 A 
ATOM     66  C   UNL A   1      42.242  30.935  36.562  1.00  0.00     0.031 C 
ATOM     67  C   UNL A   1      42.509  29.401  34.636  1.00  0.00     0.037 A 
BRANCH  54  68
ATOM     68  C   UNL A   1      40.224  28.024  29.086  1.00  0.00     0.057 A 
ATOM     69  C   UNL A   1      40.971  28.262  27.926  1.00  0.00     0.134 A 
ATOM     70  C   UNL A   1      39.509  26.822  29.162  1.00  0.00     0.134 A 
ATOM     71  F   UNL A   1      41.668  29.401  27.790  1.00  0.00    -0.206 F 
ATOM     72  C   UNL A   1      40.998  27.344  26.875  1.00  0.00     0.040 A 
ATOM     73  C   UNL A   1      39.546  25.886  28.126  1.00  0.00     0.040 A 
ATOM     74  F   UNL A   1      38.778  26.531  30.248  1.00  0.00    -0.206 F 
ATOM     75  C   UNL A   1      40.291  26.148  26.978  1.00  0.00     0.006 A 
ENDBRANCH  54  68
BRANCH  55  76
ATOM     76  C   UNL A   1      39.587  34.185  36.891  1.00  0.00     0.057 A 
ATOM     77  C   UNL A   1      40.285  35.393  37.005  1.00  0.00     0.134 A 
ATOM     78  C   UNL A   1      38.768  33.807  37.961  1.00  0.00     0.134 A 
ATOM     79  F   UNL A   1      41.101  35.796  36.021  1.00  0.00    -0.206 F 
ATOM     80  C   UNL A   1      40.189  36.186  38.150  1.00  0.00     0.040 A 
ATOM     81  C   UNL A   1      38.646  34.600  39.102  1.00  0.00     0.040 A 
ATOM     82  F   UNL A   1      38.070  32.662  37.908  1.00  0.00    -0.206 F 
ATOM     83  C   UNL A   1      39.365  35.790  39.202  1.00  0.00     0.006 A 
ENDBRANCH  55  76
BRANCH  67  84
ATOM     84  C   UNL A   1      43.554  28.670  35.420  1.00  0.00     0.057 A 
ATOM     85  C   UNL A   1      43.216  27.636  36.300  1.00  0.00     0.134 A 
ATOM     86  C   UNL A   1      44.913  28.968  35.255  1.00  0.00     0.134 A 
ATOM     87  F   UNL A   1      41.930  27.315  36.510  1.00  0.00    -0.206 F 
ATOM     88  C   UNL A   1      44.195  26.927  36.998  1.00  0.00     0.040 A 
ATOM     89  C   UNL A   1      45.900  28.253  35.931  1.00  0.00     0.040 A 
ATOM     90  F   UNL A   1      45.299  29.945  34.421  1.00  0.00    -0.206 F 
ATOM     91  C   UNL A   1      45.541  27.231  36.809  1.00  0.00     0.006 A 
ENDBRANCH  67  84
ENDBRANCH  41  42
ENDBRANCH  33  36
ENDBRANCH  31  32
ENDBRANCH  30  31
ENDBRANCH   1  30
TORSDOF 16
ENDMDL
MODEL 2
REMARK VINA RESULT:     -12.3      5.173     10.658
REMARK SMILES CC[C@@H](C)[C@H](NC(=O)[C@H]1CCCN(S(=O)(=O)c2ccccc2)C1)C(=O)NCCCNC(=O)c1ccc(-c2c3nc(c(-c4c(F)cccc4F)c4ccc([nH]4)c(-c4c(F)cccc4F)c4nc(c(-c5c(F)cccc5F)c5ccc2[nH]5)C=C4)C=C3)cc1
REMARK SMILES IDX 27 1 26 2 24 3 25 4 5 6 3 7 4 8 2 9 1 10 6 11 7 12 8 14 9 15
REMARK SMILES IDX 10 16 23 17 11 18 13 19 12 20 14 21 15 22 16 23 17 24 18 25
REMARK SMILES IDX 22 26 19 27 21 28 20 29 28 30 29 31 30 32 31 33 32 35 33 36
REMARK SMILES IDX 34 37 86 38 35 39 85 40 36 41 37 42 38 43 79 44 39 45 84 46
REMARK SMILES IDX 78 47 80 48 40 49 83 50 77 51 76 52 41 54 67 55 50 56 66 57
REMARK SMILES IDX 51 58 54 59 65 60 81 61 52 62 53 63 64 65 82 66 55 67 42 68
REMARK SMILES IDX 43 69 48 70 44 71 45 72 47 73 49 74 46 75 68 76 69 77 74 78
REMARK SMILES IDX 70 79 71 80 73 81 75 82 72 83 56 84 57 85 62 86 58 87 59 88
REMARK SMILES IDX 61 89 63 90 60 91
REMARK H PARENT 26 5 6 13 30 34 80 53 54 64
REMARK Flexibility Score: inf
ROOT
ATOM      1  C   UNL A   1      36.845  21.153  24.758  1.00  0.00     0.117 C 
ENDROOT
BRANCH   1   2
ATOM      2  N   UNL A   1      36.026  21.479  25.912  1.00  0.00    -0.354 N 
ATOM      3  C   UNL A   1      34.684  21.605  26.087  1.00  0.00     0.242 C 
ATOM      4  O   UNL A   1      34.297  21.675  27.260  1.00  0.00    -0.273 OA
ATOM      5  H   UNL A   1      36.547  21.642  26.731  1.00  0.00     0.163 HD
BRANCH   3   6
ATOM      6  C   UNL A   1      33.645  21.563  24.940  1.00  0.00     0.174 C 
BRANCH   6   7
ATOM      7  C   UNL A   1      33.339  20.131  24.418  1.00  0.00     0.018 C 
ATOM      8  C   UNL A   1      32.302  20.055  23.297  1.00  0.00     0.010 C 
BRANCH   7   9
ATOM      9  C   UNL A   1      32.948  19.223  25.609  1.00  0.00     0.002 C 
ATOM     10  C   UNL A   1      32.562  17.805  25.208  1.00  0.00     0.004 C 
ENDBRANCH   7   9
ENDBRANCH   6   7
BRANCH   6  11
ATOM     11  N   UNL A   1      33.905  22.555  23.898  1.00  0.00    -0.344 N 
ATOM     12  C   UNL A   1      33.654  23.881  23.772  1.00  0.00     0.225 C 
ATOM     13  H   UNL A   1      34.363  22.177  23.113  1.00  0.00     0.164 HD
ATOM     14  O   UNL A   1      34.347  24.432  22.906  1.00  0.00    -0.275 OA
BRANCH  12  15
ATOM     15  C   UNL A   1      32.525  24.669  24.472  1.00  0.00     0.094 C 
ATOM     16  C   UNL A   1      32.542  24.727  25.997  1.00  0.00     0.016 C 
ATOM     17  C   UNL A   1      32.554  26.100  23.877  1.00  0.00     0.116 C 
ATOM     18  C   UNL A   1      31.511  25.701  26.545  1.00  0.00     0.018 C 
ATOM     19  N   UNL A   1      31.553  27.052  24.496  1.00  0.00    -0.197 NA
ATOM     20  C   UNL A   1      31.691  27.092  25.973  1.00  0.00     0.102 C 
BRANCH  19  21
ATOM     21  S   UNL A   1      31.699  28.618  23.744  1.00  0.00     0.243 S 
ATOM     22  O   UNL A   1      32.382  29.484  24.690  1.00  0.00    -0.207 OA
ATOM     23  O   UNL A   1      32.227  28.413  22.416  1.00  0.00    -0.207 OA
BRANCH  21  24
ATOM     24  C   UNL A   1      30.035  29.231  23.576  1.00  0.00     0.082 A 
ATOM     25  C   UNL A   1      29.028  28.383  23.104  1.00  0.00     0.022 A 
ATOM     26  C   UNL A   1      29.775  30.595  23.762  1.00  0.00     0.022 A 
ATOM     27  C   UNL A   1      27.751  28.896  22.860  1.00  0.00     0.001 A 
ATOM     28  C   UNL A   1      28.490  31.094  23.546  1.00  0.00     0.001 A 
ATOM     29  C   UNL A   1      27.481  30.245  23.093  1.00  0.00     0.000 A 
ENDBRANCH  21  24
ENDBRANCH  19  21
ENDBRANCH  12  15
ENDBRANCH   6  11
ENDBRANCH   3   6
ENDBRANCH   1   2
BRANCH   1  30
ATOM     30  C   UNL A   1      37.786  19.984  25.005  1.00  0.00     0.042 C 
BRANCH  30  31
ATOM     31  C   UNL A   1      39.061  20.368  25.749  1.00  0.00     0.118 C 
BRANCH  31  32
ATOM     32  N   UNL A   1      40.032  19.281  25.815  1.00  0.00    -0.352 N 
ATOM     33  C   UNL A   1      41.386  19.291  26.060  1.00  0.00     0.251 C 
ATOM     34  H   UNL A   1      39.655  18.386  25.658  1.00  0.00     0.163 HD
ATOM     35  O   UNL A   1      42.043  18.272  25.869  1.00  0.00    -0.269 OA
BRANCH  33  36
ATOM     36  C   UNL A   1      42.062  20.525  26.516  1.00  0.00     0.039 A 
ATOM     37  C   UNL A   1      42.685  21.349  25.573  1.00  0.00     0.014 A 
ATOM     38  C   UNL A   1      42.097  20.869  27.867  1.00  0.00     0.014 A 
ATOM     39  C   UNL A   1      43.242  22.568  25.972  1.00  0.00     0.010 A 
ATOM     40  C   UNL A   1      42.566  22.121  28.250  1.00  0.00     0.010 A 
ATOM     41  C   UNL A   1      43.130  22.991  27.305  1.00  0.00    -0.014 A 
BRANCH  41  42
ATOM     42  C   UNL A   1      43.552  24.347  27.743  1.00  0.00     0.031 A 
ATOM     43  C   UNL A   1      42.518  25.375  28.115  1.00  0.00     0.074 A 
ATOM     44  C   UNL A   1      44.853  24.693  27.673  1.00  0.00     0.049 A 
ATOM     45  N   UNL A   1      42.668  26.657  28.328  1.00  0.00    -0.248 NA
ATOM     46  C   UNL A   1      41.127  24.907  28.224  1.00  0.00     0.031 C 
ATOM     47  C   UNL A   1      45.948  23.807  27.268  1.00  0.00     0.029 A 
ATOM     48  N   UNL A   1      45.473  25.896  27.906  1.00  0.00    -0.354 N 
ATOM     49  C   UNL A   1      41.390  27.155  28.548  1.00  0.00     0.074 A 
ATOM     50  C   UNL A   1      40.473  26.044  28.421  1.00  0.00     0.031 C 
ATOM     51  C   UNL A   1      47.101  24.494  27.284  1.00  0.00     0.029 A 
ATOM     52  C   UNL A   1      46.824  25.877  27.653  1.00  0.00     0.049 A 
ATOM     53  H   UNL A   1      44.994  26.696  28.224  1.00  0.00     0.167 HD
ATOM     54  C   UNL A   1      41.019  28.423  28.842  1.00  0.00     0.037 A 
ATOM     55  C   UNL A   1      47.734  26.869  27.685  1.00  0.00     0.037 A 
ATOM     56  C   UNL A   1      41.938  29.511  29.040  1.00  0.00     0.049 A 
ATOM     57  C   UNL A   1      47.295  28.261  28.041  1.00  0.00     0.074 A 
ATOM     58  C   UNL A   1      41.669  30.797  29.477  1.00  0.00     0.029 A 
ATOM     59  N   UNL A   1      43.303  29.440  28.815  1.00  0.00    -0.354 N 
ATOM     60  N   UNL A   1      46.095  28.698  28.334  1.00  0.00    -0.248 NA
ATOM     61  C   UNL A   1      48.335  29.301  28.061  1.00  0.00     0.031 C 
ATOM     62  C   UNL A   1      42.868  31.516  29.481  1.00  0.00     0.029 A 
ATOM     63  C   UNL A   1      43.887  30.669  29.074  1.00  0.00     0.049 A 
ATOM     64  H   UNL A   1      43.787  28.636  28.515  1.00  0.00     0.167 HD
ATOM     65  C   UNL A   1      46.236  30.055  28.588  1.00  0.00     0.074 A 
ATOM     66  C   UNL A   1      47.641  30.369  28.431  1.00  0.00     0.031 C 
ATOM     67  C   UNL A   1      45.286  30.962  28.916  1.00  0.00     0.037 A 
BRANCH  54  68
ATOM     68  C   UNL A   1      39.555  28.710  28.984  1.00  0.00     0.057 A 
ATOM     69  C   UNL A   1      38.881  28.530  30.198  1.00  0.00     0.134 A 
ATOM     70  C   UNL A   1      38.827  29.235  27.909  1.00  0.00     0.134 A 
ATOM     71  F   UNL A   1      39.521  28.021  31.261  1.00  0.00    -0.206 F 
ATOM     72  C   UNL A   1      37.529  28.850  30.335  1.00  0.00     0.040 A 
ATOM     73  C   UNL A   1      37.480  29.578  28.040  1.00  0.00     0.040 A 
ATOM     74  F   UNL A   1      39.416  29.437  26.721  1.00  0.00    -0.206 F 
ATOM     75  C   UNL A   1      36.828  29.385  29.256  1.00  0.00     0.006 A 
ENDBRANCH  54  68
BRANCH  55  76
ATOM     76  C   UNL A   1      49.154  26.590  27.359  1.00  0.00     0.057 A 
ATOM     77  C   UNL A   1      50.042  26.136  28.341  1.00  0.00     0.134 A 
ATOM     78  C   UNL A   1      49.662  26.788  26.069  1.00  0.00     0.134 A 
ATOM     79  F   UNL A   1      49.618  25.950  29.599  1.00  0.00    -0.206 F 
ATOM     80  C   UNL A   1      51.390  25.908  28.058  1.00  0.00     0.040 A 
ATOM     81  C   UNL A   1      51.001  26.542  25.767  1.00  0.00     0.040 A 
ATOM     82  F   UNL A   1      48.858  27.216  25.084  1.00  0.00    -0.206 F 
ATOM     83  C   UNL A   1      51.872  26.109  26.766  1.00  0.00     0.006 A 
ENDBRANCH  55  76
BRANCH  67  84
ATOM     84  C   UNL A   1      45.735  32.372  29.143  1.00  0.00     0.057 A 
ATOM     85  C   UNL A   1      46.172  32.806  30.400  1.00  0.00     0.134 A 
ATOM     86  C   UNL A   1      45.780  33.289  28.085  1.00  0.00     0.134 A 
ATOM     87  F   UNL A   1      46.139  31.976  31.455  1.00  0.00    -0.206 F 
ATOM     88  C   UNL A   1      46.630  34.109  30.600  1.00  0.00     0.040 A 
ATOM     89  C   UNL A   1      46.254  34.587  28.269  1.00  0.00     0.040 A 
ATOM     90  F   UNL A   1      45.379  32.930  26.856  1.00  0.00    -0.206 F 
ATOM     91  C   UNL A   1      46.678  35.001  29.530  1.00  0.00     0.006 A 
ENDBRANCH  67  84
ENDBRANCH  41  42
ENDBRANCH  33  36
ENDBRANCH  31  32
ENDBRANCH  30  31
ENDBRANCH   1  30
TORSDOF 16
ENDMDL
MODEL 3
REMARK VINA RESULT:     -12.3      4.355      8.115
REMARK SMILES CC[C@@H](C)[C@H](NC(=O)[C@H]1CCCN(S(=O)(=O)c2ccccc2)C1)C(=O)NCCCNC(=O)c1ccc(-c2c3nc(c(-c4c(F)cccc4F)c4ccc([nH]4)c(-c4c(F)cccc4F)c4nc(c(-c5c(F)cccc5F)c5ccc2[nH]5)C=C4)C=C3)cc1
REMARK SMILES IDX 27 1 26 2 24 3 25 4 5 6 3 7 4 8 2 9 1 10 6 11 7 12 8 14 9 15
REMARK SMILES IDX 10 16 23 17 11 18 13 19 12 20 14 21 15 22 16 23 17 24 18 25
REMARK SMILES IDX 22 26 19 27 21 28 20 29 28 30 29 31 30 32 31 33 32 35 33 36
REMARK SMILES IDX 34 37 86 38 35 39 85 40 36 41 37 42 38 43 79 44 39 45 84 46
REMARK SMILES IDX 78 47 80 48 40 49 83 50 77 51 76 52 41 54 67 55 50 56 66 57
REMARK SMILES IDX 51 58 54 59 65 60 81 61 52 62 53 63 64 65 82 66 55 67 42 68
REMARK SMILES IDX 43 69 48 70 44 71 45 72 47 73 49 74 46 75 68 76 69 77 74 78
REMARK SMILES IDX 70 79 71 80 73 81 75 82 72 83 56 84 57 85 62 86 58 87 59 88
REMARK SMILES IDX 61 89 63 90 60 91
REMARK H PARENT 26 5 6 13 30 34 80 53 54 64
REMARK Flexibility Score: inf
ROOT
ATOM      1  C   UNL A   1      31.965  29.699  25.537  1.00  0.00     0.117 C 
ENDROOT
BRANCH   1   2
ATOM      2  N   UNL A   1      32.816  29.423  24.393  1.00  0.00    -0.354 N 
ATOM      3  C   UNL A   1      32.653  28.654  23.285  1.00  0.00     0.242 C 
ATOM      4  O   UNL A   1      33.490  28.815  22.388  1.00  0.00    -0.273 OA
ATOM      5  H   UNL A   1      33.684  29.885  24.427  1.00  0.00     0.163 HD
BRANCH   3   6
ATOM      6  C   UNL A   1      31.458  27.696  23.052  1.00  0.00     0.174 C 
BRANCH   6   7
ATOM      7  C   UNL A   1      30.234  28.369  22.373  1.00  0.00     0.018 C 
ATOM      8  C   UNL A   1      30.352  29.880  22.170  1.00  0.00     0.010 C 
BRANCH   7   9
ATOM      9  C   UNL A   1      28.948  28.004  23.153  1.00  0.00     0.002 C 
ATOM     10  C   UNL A   1      27.752  28.890  22.828  1.00  0.00     0.004 C 
ENDBRANCH   7   9
ENDBRANCH   6   7
BRANCH   6  11
ATOM     11  N   UNL A   1      31.142  26.884  24.227  1.00  0.00    -0.344 N 
ATOM     12  C   UNL A   1      31.680  25.768  24.777  1.00  0.00     0.225 C 
ATOM     13  H   UNL A   1      30.365  27.222  24.729  1.00  0.00     0.164 HD
ATOM     14  O   UNL A   1      31.355  25.599  25.960  1.00  0.00    -0.275 OA
BRANCH  12  15
ATOM     15  C   UNL A   1      32.483  24.678  24.034  1.00  0.00     0.094 C 
ATOM     16  C   UNL A   1      33.952  24.960  23.736  1.00  0.00     0.016 C 
ATOM     17  C   UNL A   1      32.340  23.381  24.870  1.00  0.00     0.116 C 
ATOM     18  C   UNL A   1      34.674  23.734  23.199  1.00  0.00     0.018 C 
ATOM     19  N   UNL A   1      33.125  22.204  24.333  1.00  0.00    -0.197 NA
ATOM     20  C   UNL A   1      34.555  22.553  24.140  1.00  0.00     0.102 C 
BRANCH  19  21
ATOM     21  S   UNL A   1      32.883  20.823  25.368  1.00  0.00     0.243 S 
ATOM     22  O   UNL A   1      33.859  20.916  26.440  1.00  0.00    -0.207 OA
ATOM     23  O   UNL A   1      31.471  20.742  25.661  1.00  0.00    -0.207 OA
BRANCH  21  24
ATOM     24  C   UNL A   1      33.314  19.399  24.385  1.00  0.00     0.082 A 
ATOM     25  C   UNL A   1      32.427  18.939  23.407  1.00  0.00     0.022 A 
ATOM     26  C   UNL A   1      34.458  18.657  24.703  1.00  0.00     0.022 A 
ATOM     27  C   UNL A   1      32.711  17.756  22.720  1.00  0.00     0.001 A 
ATOM     28  C   UNL A   1      34.751  17.493  23.992  1.00  0.00     0.001 A 
ATOM     29  C   UNL A   1      33.876  17.042  23.004  1.00  0.00     0.000 A 
ENDBRANCH  21  24
ENDBRANCH  19  21
ENDBRANCH  12  15
ENDBRANCH   6  11
ENDBRANCH   3   6
ENDBRANCH   1   2
BRANCH   1  30
ATOM     30  C   UNL A   1      32.367  28.922  26.782  1.00  0.00     0.042 C 
BRANCH  30  31
ATOM     31  C   UNL A   1      33.789  29.208  27.253  1.00  0.00     0.118 C 
BRANCH  31  32
ATOM     32  N   UNL A   1      33.908  30.473  27.971  1.00  0.00    -0.352 N 
ATOM     33  C   UNL A   1      34.920  30.975  28.756  1.00  0.00     0.251 C 
ATOM     34  H   UNL A   1      33.131  31.070  27.878  1.00  0.00     0.163 HD
ATOM     35  O   UNL A   1      34.721  31.983  29.428  1.00  0.00    -0.269 OA
BRANCH  33  36
ATOM     36  C   UNL A   1      36.230  30.294  28.827  1.00  0.00     0.039 A 
ATOM     37  C   UNL A   1      37.060  30.295  27.701  1.00  0.00     0.014 A 
ATOM     38  C   UNL A   1      36.641  29.642  29.989  1.00  0.00     0.014 A 
ATOM     39  C   UNL A   1      38.342  29.744  27.779  1.00  0.00     0.010 A 
ATOM     40  C   UNL A   1      37.947  29.178  30.097  1.00  0.00     0.010 A 
ATOM     41  C   UNL A   1      38.819  29.236  28.999  1.00  0.00    -0.014 A 
BRANCH  41  42
ATOM     42  C   UNL A   1      40.227  28.797  29.178  1.00  0.00     0.031 A 
ATOM     43  C   UNL A   1      41.274  29.784  29.616  1.00  0.00     0.074 A 
ATOM     44  C   UNL A   1      40.585  27.550  28.813  1.00  0.00     0.049 A 
ATOM     45  N   UNL A   1      42.576  29.652  29.637  1.00  0.00    -0.248 NA
ATOM     46  C   UNL A   1      40.799  31.107  30.050  1.00  0.00     0.031 C 
ATOM     47  C   UNL A   1      39.674  26.516  28.314  1.00  0.00     0.029 A 
ATOM     48  N   UNL A   1      41.819  26.949  28.773  1.00  0.00    -0.354 N 
ATOM     49  C   UNL A   1      43.074  30.884  30.040  1.00  0.00     0.074 A 
ATOM     50  C   UNL A   1      41.939  31.759  30.231  1.00  0.00     0.031 C 
ATOM     51  C   UNL A   1      40.379  25.411  28.022  1.00  0.00     0.029 A 
ATOM     52  C   UNL A   1      41.793  25.672  28.266  1.00  0.00     0.049 A 
ATOM     53  H   UNL A   1      42.644  27.392  29.078  1.00  0.00     0.167 HD
ATOM     54  C   UNL A   1      44.363  31.246  30.244  1.00  0.00     0.037 A 
ATOM     55  C   UNL A   1      42.797  24.815  27.999  1.00  0.00     0.037 A 
ATOM     56  C   UNL A   1      45.483  30.353  30.125  1.00  0.00     0.049 A 
ATOM     57  C   UNL A   1      44.215  25.237  28.262  1.00  0.00     0.074 A 
ATOM     58  C   UNL A   1      46.809  30.589  30.446  1.00  0.00     0.029 A 
ATOM     59  N   UNL A   1      45.410  29.055  29.649  1.00  0.00    -0.354 N 
ATOM     60  N   UNL A   1      44.663  26.377  28.728  1.00  0.00    -0.248 NA
ATOM     61  C   UNL A   1      45.267  24.258  27.952  1.00  0.00     0.031 C 
ATOM     62  C   UNL A   1      47.545  29.443  30.129  1.00  0.00     0.029 A 
ATOM     63  C   UNL A   1      46.672  28.485  29.638  1.00  0.00     0.049 A 
ATOM     64  H   UNL A   1      44.583  28.603  29.361  1.00  0.00     0.167 HD
ATOM     65  C   UNL A   1      46.044  26.248  28.781  1.00  0.00     0.074 A 
ATOM     66  C   UNL A   1      46.361  24.914  28.316  1.00  0.00     0.031 C 
ATOM     67  C   UNL A   1      46.968  27.156  29.176  1.00  0.00     0.037 A 
BRANCH  54  68
ATOM     68  C   UNL A   1      44.638  32.667  30.633  1.00  0.00     0.057 A 
ATOM     69  C   UNL A   1      44.794  33.678  29.678  1.00  0.00     0.134 A 
ATOM     70  C   UNL A   1      44.681  33.037  31.983  1.00  0.00     0.134 A 
ATOM     71  F   UNL A   1      44.773  33.384  28.369  1.00  0.00    -0.206 F 
ATOM     72  C   UNL A   1      44.997  35.008  30.051  1.00  0.00     0.040 A 
ATOM     73  C   UNL A   1      44.863  34.366  32.368  1.00  0.00     0.040 A 
ATOM     74  F   UNL A   1      44.533  32.116  32.948  1.00  0.00    -0.206 F 
ATOM     75  C   UNL A   1      45.023  35.355  31.400  1.00  0.00     0.006 A 
ENDBRANCH  54  68
BRANCH  55  76
ATOM     76  C   UNL A   1      42.504  23.473  27.439  1.00  0.00     0.057 A 
ATOM     77  C   UNL A   1      42.562  23.241  26.060  1.00  0.00     0.134 A 
ATOM     78  C   UNL A   1      42.140  22.400  28.260  1.00  0.00     0.134 A 
ATOM     79  F   UNL A   1      42.884  24.237  25.222  1.00  0.00    -0.206 F 
ATOM     80  C   UNL A   1      42.250  21.995  25.514  1.00  0.00     0.040 A 
ATOM     81  C   UNL A   1      41.847  21.143  27.731  1.00  0.00     0.040 A 
ATOM     82  F   UNL A   1      42.072  22.559  29.590  1.00  0.00    -0.206 F 
ATOM     83  C   UNL A   1      41.894  20.940  26.353  1.00  0.00     0.006 A 
ENDBRANCH  55  76
BRANCH  67  84
ATOM     84  C   UNL A   1      48.404  26.732  29.137  1.00  0.00     0.057 A 
ATOM     85  C   UNL A   1      49.221  27.024  28.040  1.00  0.00     0.134 A 
ATOM     86  C   UNL A   1      48.986  26.075  30.228  1.00  0.00     0.134 A 
ATOM     87  F   UNL A   1      48.715  27.639  26.960  1.00  0.00    -0.206 F 
ATOM     88  C   UNL A   1      50.570  26.666  28.023  1.00  0.00     0.040 A 
ATOM     89  C   UNL A   1      50.337  25.730  30.231  1.00  0.00     0.040 A 
ATOM     90  F   UNL A   1      48.254  25.774  31.311  1.00  0.00    -0.206 F 
ATOM     91  C   UNL A   1      51.133  26.023  29.125  1.00  0.00     0.006 A 
ENDBRANCH  67  84
ENDBRANCH  41  42
ENDBRANCH  33  36
ENDBRANCH  31  32
ENDBRANCH  30  31
ENDBRANCH   1  30
TORSDOF 16
ENDMDL
