MODEL 1
REMARK VINA RESULT:     -11.8      0.000      0.000
REMARK SMILES O=C(NCCCNC(=O)[C@H]1CCCN1S(=O)(=O)c1ccccc1Cl)c1ccc(-c2c3nc(c(-c4c(F)cccc4F)c4ccc([nH]4)c(-c4c(F)cccc4F)c4nc(c(-c5c(F)cccc5F)c5ccc2[nH]5)C=C4)C=C3)cc1
REMARK SMILES IDX 5 1 4 2 3 3 1 4 2 5 25 7 26 8 78 9 27 10 77 11 28 12 29 13
REMARK SMILES IDX 30 14 71 15 31 16 76 17 70 18 72 19 32 20 75 21 69 22 68 23
REMARK SMILES IDX 33 25 59 26 42 27 58 28 43 29 46 30 57 31 73 32 44 33 45 34
REMARK SMILES IDX 56 36 74 37 47 38 34 39 35 40 40 41 36 42 37 43 39 44 41 45
REMARK SMILES IDX 38 46 60 47 61 48 66 49 62 50 63 51 65 52 67 53 64 54 48 55
REMARK SMILES IDX 49 56 54 57 50 58 51 59 53 60 55 61 52 62 6 63 7 64 8 65
REMARK SMILES IDX 9 67 10 68 11 69 14 70 12 71 13 72 15 73 16 74 17 75 18 76
REMARK SMILES IDX 19 77 23 78 20 79 22 80 24 81 21 82
REMARK H PARENT 3 6 72 24 46 35 7 66
REMARK Flexibility Score: inf
ROOT
ATOM      1  C   UNL A   1      31.247  32.267  26.493  1.00  0.00     0.042 C 
ENDROOT
BRANCH   1   2
ATOM      2  C   UNL A   1      32.522  32.874  27.078  1.00  0.00     0.118 C 
BRANCH   2   3
ATOM      3  N   UNL A   1      32.317  34.207  27.626  1.00  0.00    -0.352 N 
ATOM      4  O   UNL A   1      32.528  35.918  29.071  1.00  0.00    -0.269 OA
ATOM      5  C   UNL A   1      32.968  34.853  28.648  1.00  0.00     0.251 C 
ATOM      6  H   UNL A   1      31.600  34.727  27.195  1.00  0.00     0.163 HD
BRANCH   5   7
ATOM      7  C   UNL A   1      34.180  34.265  29.260  1.00  0.00     0.039 A 
ATOM      8  C   UNL A   1      35.451  34.542  28.751  1.00  0.00     0.014 A 
ATOM      9  C   UNL A   1      34.041  33.455  30.391  1.00  0.00     0.014 A 
ATOM     10  C   UNL A   1      36.566  33.903  29.289  1.00  0.00     0.010 A 
ATOM     11  C   UNL A   1      35.169  32.871  30.975  1.00  0.00     0.010 A 
ATOM     12  C   UNL A   1      36.437  33.063  30.408  1.00  0.00    -0.014 A 
BRANCH  12  13
ATOM     13  C   UNL A   1      37.646  32.420  30.987  1.00  0.00     0.031 A 
ATOM     14  C   UNL A   1      38.236  32.907  32.280  1.00  0.00     0.074 A 
ATOM     15  C   UNL A   1      38.197  31.371  30.348  1.00  0.00     0.049 A 
ATOM     16  N   UNL A   1      39.264  32.440  32.945  1.00  0.00    -0.248 NA
ATOM     17  C   UNL A   1      37.597  34.073  32.907  1.00  0.00     0.031 C 
ATOM     18  C   UNL A   1      37.724  30.815  29.079  1.00  0.00     0.029 A 
ATOM     19  N   UNL A   1      39.261  30.575  30.685  1.00  0.00    -0.354 N 
ATOM     20  C   UNL A   1      39.408  33.265  34.053  1.00  0.00     0.074 A 
ATOM     21  C   UNL A   1      38.378  34.278  33.959  1.00  0.00     0.031 C 
ATOM     22  C   UNL A   1      38.463  29.739  28.770  1.00  0.00     0.029 A 
ATOM     23  C   UNL A   1      39.491  29.560  29.790  1.00  0.00     0.049 A 
ATOM     24  H   UNL A   1      39.809  30.718  31.491  1.00  0.00     0.167 HD
ATOM     25  C   UNL A   1      40.310  33.181  35.061  1.00  0.00     0.037 A 
ATOM     26  C   UNL A   1      40.426  28.592  29.788  1.00  0.00     0.037 A 
ATOM     27  C   UNL A   1      41.323  32.161  35.163  1.00  0.00     0.049 A 
ATOM     28  C   UNL A   1      41.421  28.528  30.909  1.00  0.00     0.074 A 
ATOM     29  C   UNL A   1      42.253  31.966  36.170  1.00  0.00     0.029 A 
ATOM     30  N   UNL A   1      41.541  31.167  34.221  1.00  0.00    -0.354 N 
ATOM     31  N   UNL A   1      41.519  29.291  31.970  1.00  0.00    -0.248 NA
ATOM     32  C   UNL A   1      42.438  27.471  30.829  1.00  0.00     0.031 C 
ATOM     33  C   UNL A   1      43.060  30.878  35.817  1.00  0.00     0.029 A 
ATOM     34  C   UNL A   1      42.605  30.369  34.611  1.00  0.00     0.049 A 
ATOM     35  H   UNL A   1      41.018  31.046  33.396  1.00  0.00     0.167 HD
ATOM     36  C   UNL A   1      42.592  28.793  32.696  1.00  0.00     0.074 A 
ATOM     37  C   UNL A   1      43.105  27.657  31.959  1.00  0.00     0.031 C 
ATOM     38  C   UNL A   1      43.105  29.240  33.869  1.00  0.00     0.037 A 
BRANCH  25  39
ATOM     39  C   UNL A   1      40.254  34.236  36.127  1.00  0.00     0.057 A 
ATOM     40  C   UNL A   1      40.992  35.423  36.037  1.00  0.00     0.134 A 
ATOM     41  C   UNL A   1      39.430  34.073  37.249  1.00  0.00     0.134 A 
ATOM     42  F   UNL A   1      41.811  35.637  34.994  1.00  0.00    -0.206 F 
ATOM     43  C   UNL A   1      40.936  36.397  37.036  1.00  0.00     0.040 A 
ATOM     44  C   UNL A   1      39.346  35.050  38.243  1.00  0.00     0.040 A 
ATOM     45  F   UNL A   1      38.690  32.963  37.394  1.00  0.00    -0.206 F 
ATOM     46  C   UNL A   1      40.107  36.213  38.141  1.00  0.00     0.006 A 
ENDBRANCH  25  39
BRANCH  26  47
ATOM     47  C   UNL A   1      40.443  27.592  28.692  1.00  0.00     0.057 A 
ATOM     48  C   UNL A   1      39.657  26.438  28.760  1.00  0.00     0.134 A 
ATOM     49  C   UNL A   1      41.221  27.780  27.545  1.00  0.00     0.134 A 
ATOM     50  F   UNL A   1      38.903  26.197  29.843  1.00  0.00    -0.206 F 
ATOM     51  C   UNL A   1      39.648  25.500  27.727  1.00  0.00     0.040 A 
ATOM     52  C   UNL A   1      41.205  26.863  26.494  1.00  0.00     0.040 A 
ATOM     53  F   UNL A   1      41.991  28.872  27.418  1.00  0.00    -0.206 F 
ATOM     54  C   UNL A   1      40.418  25.715  26.586  1.00  0.00     0.006 A 
ENDBRANCH  26  47
BRANCH  38  55
ATOM     55  C   UNL A   1      44.261  28.474  34.441  1.00  0.00     0.057 A 
ATOM     56  C   UNL A   1      44.071  27.367  35.277  1.00  0.00     0.134 A 
ATOM     57  C   UNL A   1      45.577  28.839  34.135  1.00  0.00     0.134 A 
ATOM     58  F   UNL A   1      42.834  26.978  35.621  1.00  0.00    -0.206 F 
ATOM     59  C   UNL A   1      45.153  26.661  35.806  1.00  0.00     0.040 A 
ATOM     60  C   UNL A   1      46.666  28.127  34.639  1.00  0.00     0.040 A 
ATOM     61  F   UNL A   1      45.827  29.887  33.336  1.00  0.00    -0.206 F 
ATOM     62  C   UNL A   1      46.455  27.037  35.482  1.00  0.00     0.006 A 
ENDBRANCH  38  55
ENDBRANCH  12  13
ENDBRANCH   5   7
ENDBRANCH   2   3
ENDBRANCH   1   2
BRANCH   1  63
ATOM     63  C   UNL A   1      31.396  30.814  26.046  1.00  0.00     0.117 C 
BRANCH  63  64
ATOM     64  N   UNL A   1      32.398  30.122  26.830  1.00  0.00    -0.355 N 
ATOM     65  C   UNL A   1      32.982  28.905  26.666  1.00  0.00     0.238 C 
ATOM     66  H   UNL A   1      32.711  30.620  27.619  1.00  0.00     0.163 HD
ATOM     67  O   UNL A   1      33.653  28.506  27.625  1.00  0.00    -0.273 OA
BRANCH  65  68
ATOM     68  C   UNL A   1      32.938  28.132  25.337  1.00  0.00     0.162 C 
ATOM     69  C   UNL A   1      33.680  26.802  25.479  1.00  0.00     0.032 C 
ATOM     70  N   UNL A   1      31.584  27.724  24.850  1.00  0.00    -0.185 NA
ATOM     71  C   UNL A   1      32.621  25.896  26.078  1.00  0.00     0.019 C 
ATOM     72  C   UNL A   1      31.301  26.392  25.498  1.00  0.00     0.103 C 
BRANCH  70  73
ATOM     73  S   UNL A   1      31.371  27.638  23.137  1.00  0.00     0.245 S 
ATOM     74  O   UNL A   1      32.517  28.251  22.501  1.00  0.00    -0.207 OA
ATOM     75  O   UNL A   1      31.067  26.250  22.852  1.00  0.00    -0.207 OA
BRANCH  73  76
ATOM     76  C   UNL A   1      29.905  28.569  22.762  1.00  0.00     0.101 A 
ATOM     77  C   UNL A   1      30.092  29.841  22.185  1.00  0.00     0.023 A 
ATOM     78  C   UNL A   1      28.614  28.171  23.126  1.00  0.00     0.061 A 
ATOM     79  C   UNL A   1      29.006  30.679  21.930  1.00  0.00     0.002 A 
ATOM     80  C   UNL A   1      27.526  29.008  22.833  1.00  0.00     0.022 A 
ATOM     81  Cl  UNL A   1      28.210  26.703  23.941  1.00  0.00    -0.083 Cl
ATOM     82  C   UNL A   1      27.720  30.255  22.239  1.00  0.00     0.002 A 
ENDBRANCH  73  76
ENDBRANCH  70  73
ENDBRANCH  65  68
ENDBRANCH  63  64
ENDBRANCH   1  63
TORSDOF 12
ENDMDL
MODEL 2
REMARK VINA RESULT:     -11.8      4.708      9.534
REMARK SMILES O=C(NCCCNC(=O)[C@H]1CCCN1S(=O)(=O)c1ccccc1Cl)c1ccc(-c2c3nc(c(-c4c(F)cccc4F)c4ccc([nH]4)c(-c4c(F)cccc4F)c4nc(c(-c5c(F)cccc5F)c5ccc2[nH]5)C=C4)C=C3)cc1
REMARK SMILES IDX 5 1 4 2 3 3 1 4 2 5 25 7 26 8 78 9 27 10 77 11 28 12 29 13
REMARK SMILES IDX 30 14 71 15 31 16 76 17 70 18 72 19 32 20 75 21 69 22 68 23
REMARK SMILES IDX 33 25 59 26 42 27 58 28 43 29 46 30 57 31 73 32 44 33 45 34
REMARK SMILES IDX 56 36 74 37 47 38 34 39 35 40 40 41 36 42 37 43 39 44 41 45
REMARK SMILES IDX 38 46 60 47 61 48 66 49 62 50 63 51 65 52 67 53 64 54 48 55
REMARK SMILES IDX 49 56 54 57 50 58 51 59 53 60 55 61 52 62 6 63 7 64 8 65
REMARK SMILES IDX 9 67 10 68 11 69 14 70 12 71 13 72 15 73 16 74 17 75 18 76
REMARK SMILES IDX 19 77 23 78 20 79 22 80 24 81 21 82
REMARK H PARENT 3 6 72 24 46 35 7 66
REMARK Flexibility Score: inf
ROOT
ATOM      1  C   UNL A   1      37.892  19.503  24.970  1.00  0.00     0.042 C 
ENDROOT
BRANCH   1   2
ATOM      2  C   UNL A   1      39.047  20.078  25.791  1.00  0.00     0.118 C 
BRANCH   2   3
ATOM      3  N   UNL A   1      40.239  19.242  25.755  1.00  0.00    -0.352 N 
ATOM      4  O   UNL A   1      42.433  18.746  25.770  1.00  0.00    -0.269 OA
ATOM      5  C   UNL A   1      41.548  19.559  26.022  1.00  0.00     0.251 C 
ATOM      6  H   UNL A   1      40.081  18.304  25.501  1.00  0.00     0.163 HD
BRANCH   5   7
ATOM      7  C   UNL A   1      41.904  20.878  26.591  1.00  0.00     0.039 A 
ATOM      8  C   UNL A   1      41.877  21.101  27.969  1.00  0.00     0.014 A 
ATOM      9  C   UNL A   1      42.313  21.898  25.725  1.00  0.00     0.014 A 
ATOM     10  C   UNL A   1      42.128  22.377  28.469  1.00  0.00     0.010 A 
ATOM     11  C   UNL A   1      42.634  23.159  26.235  1.00  0.00     0.010 A 
ATOM     12  C   UNL A   1      42.511  23.418  27.607  1.00  0.00    -0.014 A 
BRANCH  12  13
ATOM     13  C   UNL A   1      42.809  24.763  28.167  1.00  0.00     0.031 A 
ATOM     14  C   UNL A   1      44.216  25.167  28.502  1.00  0.00     0.074 A 
ATOM     15  C   UNL A   1      41.797  25.633  28.350  1.00  0.00     0.049 A 
ATOM     16  N   UNL A   1      44.658  26.311  28.963  1.00  0.00    -0.248 NA
ATOM     17  C   UNL A   1      45.266  24.156  28.301  1.00  0.00     0.031 C 
ATOM     18  C   UNL A   1      40.387  25.353  28.076  1.00  0.00     0.029 A 
ATOM     19  N   UNL A   1      41.800  26.931  28.791  1.00  0.00    -0.354 N 
ATOM     20  C   UNL A   1      46.029  26.151  29.128  1.00  0.00     0.074 A 
ATOM     21  C   UNL A   1      46.343  24.792  28.741  1.00  0.00     0.031 C 
ATOM     22  C   UNL A   1      39.667  26.461  28.308  1.00  0.00     0.029 A 
ATOM     23  C   UNL A   1      40.556  27.511  28.793  1.00  0.00     0.049 A 
ATOM     24  H   UNL A   1      42.616  27.401  29.079  1.00  0.00     0.167 HD
ATOM     25  C   UNL A   1      46.942  27.057  29.553  1.00  0.00     0.037 A 
ATOM     26  C   UNL A   1      40.171  28.751  29.148  1.00  0.00     0.037 A 
ATOM     27  C   UNL A   1      46.632  28.416  29.919  1.00  0.00     0.049 A 
ATOM     28  C   UNL A   1      41.201  29.731  29.628  1.00  0.00     0.074 A 
ATOM     29  C   UNL A   1      47.496  29.421  30.319  1.00  0.00     0.029 A 
ATOM     30  N   UNL A   1      45.355  28.958  29.936  1.00  0.00    -0.354 N 
ATOM     31  N   UNL A   1      42.498  29.579  29.740  1.00  0.00    -0.248 NA
ATOM     32  C   UNL A   1      40.712  31.056  30.035  1.00  0.00     0.031 C 
ATOM     33  C   UNL A   1      46.736  30.560  30.616  1.00  0.00     0.029 A 
ATOM     34  C   UNL A   1      45.404  30.276  30.359  1.00  0.00     0.049 A 
ATOM     35  H   UNL A   1      44.534  28.476  29.684  1.00  0.00     0.167 HD
ATOM     36  C   UNL A   1      42.983  30.792  30.207  1.00  0.00     0.074 A 
ATOM     37  C   UNL A   1      41.842  31.673  30.348  1.00  0.00     0.031 C 
ATOM     38  C   UNL A   1      44.261  31.142  30.494  1.00  0.00     0.037 A 
BRANCH  25  39
ATOM     39  C   UNL A   1      48.368  26.600  29.665  1.00  0.00     0.057 A 
ATOM     40  C   UNL A   1      48.848  25.935  30.800  1.00  0.00     0.134 A 
ATOM     41  C   UNL A   1      49.267  26.807  28.610  1.00  0.00     0.134 A 
ATOM     42  F   UNL A   1      48.042  25.716  31.851  1.00  0.00    -0.206 F 
ATOM     43  C   UNL A   1      50.176  25.516  30.896  1.00  0.00     0.040 A 
ATOM     44  C   UNL A   1      50.592  26.372  28.683  1.00  0.00     0.040 A 
ATOM     45  F   UNL A   1      48.872  27.431  27.490  1.00  0.00    -0.206 F 
ATOM     46  C   UNL A   1      51.052  25.731  29.832  1.00  0.00     0.006 A 
ENDBRANCH  25  39
BRANCH  26  47
ATOM     47  C   UNL A   1      38.743  29.135  29.037  1.00  0.00     0.057 A 
ATOM     48  C   UNL A   1      38.202  29.546  27.816  1.00  0.00     0.134 A 
ATOM     49  C   UNL A   1      37.883  29.073  30.140  1.00  0.00     0.134 A 
ATOM     50  F   UNL A   1      38.983  29.640  26.729  1.00  0.00    -0.206 F 
ATOM     51  C   UNL A   1      36.855  29.890  27.694  1.00  0.00     0.040 A 
ATOM     52  C   UNL A   1      36.529  29.391  30.028  1.00  0.00     0.040 A 
ATOM     53  F   UNL A   1      38.342  28.678  31.337  1.00  0.00    -0.206 F 
ATOM     54  C   UNL A   1      36.013  29.805  28.800  1.00  0.00     0.006 A 
ENDBRANCH  26  47
BRANCH  38  55
ATOM     55  C   UNL A   1      44.493  32.551  30.956  1.00  0.00     0.057 A 
ATOM     56  C   UNL A   1      44.723  33.596  30.053  1.00  0.00     0.134 A 
ATOM     57  C   UNL A   1      44.464  32.865  32.320  1.00  0.00     0.134 A 
ATOM     58  F   UNL A   1      44.778  33.355  28.734  1.00  0.00    -0.206 F 
ATOM     59  C   UNL A   1      44.939  34.902  30.493  1.00  0.00     0.040 A 
ATOM     60  C   UNL A   1      44.655  34.172  32.770  1.00  0.00     0.040 A 
ATOM     61  F   UNL A   1      44.243  31.911  33.236  1.00  0.00    -0.206 F 
ATOM     62  C   UNL A   1      44.899  35.195  31.855  1.00  0.00     0.006 A 
ENDBRANCH  38  55
ENDBRANCH  12  13
ENDBRANCH   5   7
ENDBRANCH   2   3
ENDBRANCH   1   2
BRANCH   1  63
ATOM     63  C   UNL A   1      36.816  20.525  24.605  1.00  0.00     0.117 C 
BRANCH  63  64
ATOM     64  N   UNL A   1      35.954  20.808  25.733  1.00  0.00    -0.355 N 
ATOM     65  C   UNL A   1      34.916  21.674  25.874  1.00  0.00     0.238 C 
ATOM     66  H   UNL A   1      36.155  20.280  26.540  1.00  0.00     0.163 HD
ATOM     67  O   UNL A   1      34.512  21.834  27.032  1.00  0.00    -0.273 OA
BRANCH  65  68
ATOM     68  C   UNL A   1      34.192  22.308  24.674  1.00  0.00     0.162 C 
ATOM     69  C   UNL A   1      33.177  21.322  24.093  1.00  0.00     0.032 C 
ATOM     70  N   UNL A   1      33.369  23.524  24.961  1.00  0.00    -0.185 NA
ATOM     71  C   UNL A   1      31.965  21.536  24.979  1.00  0.00     0.019 C 
ATOM     72  C   UNL A   1      32.009  23.012  25.361  1.00  0.00     0.103 C 
BRANCH  70  73
ATOM     73  S   UNL A   1      33.244  24.691  23.692  1.00  0.00     0.245 S 
ATOM     74  O   UNL A   1      34.268  24.412  22.709  1.00  0.00    -0.207 OA
ATOM     75  O   UNL A   1      31.853  24.675  23.285  1.00  0.00    -0.207 OA
BRANCH  73  76
ATOM     76  C   UNL A   1      33.540  26.279  24.434  1.00  0.00     0.101 A 
ATOM     77  C   UNL A   1      33.517  26.335  25.842  1.00  0.00     0.023 A 
ATOM     78  C   UNL A   1      33.656  27.468  23.707  1.00  0.00     0.061 A 
ATOM     79  C   UNL A   1      33.659  27.550  26.512  1.00  0.00     0.002 A 
ATOM     80  C   UNL A   1      33.832  28.681  24.393  1.00  0.00     0.022 A 
ATOM     81  Cl  UNL A   1      33.590  27.603  21.987  1.00  0.00    -0.083 Cl
ATOM     82  C   UNL A   1      33.833  28.723  25.787  1.00  0.00     0.002 A 
ENDBRANCH  73  76
ENDBRANCH  70  73
ENDBRANCH  65  68
ENDBRANCH  63  64
ENDBRANCH   1  63
TORSDOF 12
ENDMDL
MODEL 3
REMARK VINA RESULT:     -11.7      5.793     10.503
REMARK SMILES O=C(NCCCNC(=O)[C@H]1CCCN1S(=O)(=O)c1ccccc1Cl)c1ccc(-c2c3nc(c(-c4c(F)cccc4F)c4ccc([nH]4)c(-c4c(F)cccc4F)c4nc(c(-c5c(F)cccc5F)c5ccc2[nH]5)C=C4)C=C3)cc1
REMARK SMILES IDX 5 1 4 2 3 3 1 4 2 5 25 7 26 8 78 9 27 10 77 11 28 12 29 13
REMARK SMILES IDX 30 14 71 15 31 16 76 17 70 18 72 19 32 20 75 21 69 22 68 23
REMARK SMILES IDX 33 25 59 26 42 27 58 28 43 29 46 30 57 31 73 32 44 33 45 34
REMARK SMILES IDX 56 36 74 37 47 38 34 39 35 40 40 41 36 42 37 43 39 44 41 45
REMARK SMILES IDX 38 46 60 47 61 48 66 49 62 50 63 51 65 52 67 53 64 54 48 55
REMARK SMILES IDX 49 56 54 57 50 58 51 59 53 60 55 61 52 62 6 63 7 64 8 65
REMARK SMILES IDX 9 67 10 68 11 69 14 70 12 71 13 72 15 73 16 74 17 75 18 76
REMARK SMILES IDX 19 77 23 78 20 79 22 80 24 81 21 82
REMARK H PARENT 3 6 72 24 46 35 7 66
REMARK Flexibility Score: inf
ROOT
ATOM      1  C   UNL A   1      38.001  19.361  25.003  1.00  0.00     0.042 C 
ENDROOT
BRANCH   1   2
ATOM      2  C   UNL A   1      39.160  19.886  25.852  1.00  0.00     0.118 C 
BRANCH   2   3
ATOM      3  N   UNL A   1      40.303  18.984  25.873  1.00  0.00    -0.352 N 
ATOM      4  O   UNL A   1      42.466  18.368  25.884  1.00  0.00    -0.269 OA
ATOM      5  C   UNL A   1      41.635  19.251  26.074  1.00  0.00     0.251 C 
ATOM      6  H   UNL A   1      40.086  18.036  25.721  1.00  0.00     0.163 HD
BRANCH   5   7
ATOM      7  C   UNL A   1      42.079  20.598  26.496  1.00  0.00     0.039 A 
ATOM      8  C   UNL A   1      42.176  20.936  27.847  1.00  0.00     0.014 A 
ATOM      9  C   UNL A   1      42.445  21.526  25.515  1.00  0.00     0.014 A 
ATOM     10  C   UNL A   1      42.508  22.239  28.213  1.00  0.00     0.010 A 
ATOM     11  C   UNL A   1      42.847  22.812  25.886  1.00  0.00     0.010 A 
ATOM     12  C   UNL A   1      42.850  23.189  27.236  1.00  0.00    -0.014 A 
BRANCH  12  13
ATOM     13  C   UNL A   1      43.236  24.563  27.653  1.00  0.00     0.031 A 
ATOM     14  C   UNL A   1      44.671  25.004  27.626  1.00  0.00     0.074 A 
ATOM     15  C   UNL A   1      42.273  25.425  28.034  1.00  0.00     0.049 A 
ATOM     16  N   UNL A   1      45.180  26.176  27.920  1.00  0.00    -0.248 NA
ATOM     17  C   UNL A   1      45.670  24.002  27.225  1.00  0.00     0.031 C 
ATOM     18  C   UNL A   1      40.846  25.110  28.114  1.00  0.00     0.029 A 
ATOM     19  N   UNL A   1      42.347  26.742  28.406  1.00  0.00    -0.354 N 
ATOM     20  C   UNL A   1      46.554  26.045  27.762  1.00  0.00     0.074 A 
ATOM     21  C   UNL A   1      46.803  24.674  27.369  1.00  0.00     0.031 C 
ATOM     22  C   UNL A   1      40.173  26.217  28.463  1.00  0.00     0.029 A 
ATOM     23  C   UNL A   1      41.124  27.303  28.678  1.00  0.00     0.049 A 
ATOM     24  H   UNL A   1      43.195  27.238  28.471  1.00  0.00     0.167 HD
ATOM     25  C   UNL A   1      47.518  26.985  27.919  1.00  0.00     0.037 A 
ATOM     26  C   UNL A   1      40.801  28.552  29.062  1.00  0.00     0.037 A 
ATOM     27  C   UNL A   1      47.267  28.354  28.291  1.00  0.00     0.049 A 
ATOM     28  C   UNL A   1      41.888  29.570  29.241  1.00  0.00     0.074 A 
ATOM     29  C   UNL A   1      48.174  29.391  28.431  1.00  0.00     0.029 A 
ATOM     30  N   UNL A   1      46.016  28.876  28.587  1.00  0.00    -0.354 N 
ATOM     31  N   UNL A   1      43.178  29.443  29.048  1.00  0.00    -0.248 NA
ATOM     32  C   UNL A   1      41.475  30.904  29.696  1.00  0.00     0.031 C 
ATOM     33  C   UNL A   1      47.477  30.530  28.851  1.00  0.00     0.029 A 
ATOM     34  C   UNL A   1      46.130  30.214  28.930  1.00  0.00     0.049 A 
ATOM     35  H   UNL A   1      45.172  28.371  28.557  1.00  0.00     0.167 HD
ATOM     36  C   UNL A   1      43.729  30.684  29.335  1.00  0.00     0.074 A 
ATOM     37  C   UNL A   1      42.630  31.553  29.705  1.00  0.00     0.031 C 
ATOM     38  C   UNL A   1      45.028  31.068  29.295  1.00  0.00     0.037 A 
BRANCH  25  39
ATOM     39  C   UNL A   1      48.941  26.555  27.709  1.00  0.00     0.057 A 
ATOM     40  C   UNL A   1      49.747  26.111  28.764  1.00  0.00     0.134 A 
ATOM     41  C   UNL A   1      49.505  26.563  26.426  1.00  0.00     0.134 A 
ATOM     42  F   UNL A   1      49.271  26.090  30.019  1.00  0.00    -0.206 F 
ATOM     43  C   UNL A   1      51.070  25.717  28.558  1.00  0.00     0.040 A 
ATOM     44  C   UNL A   1      50.819  26.149  26.203  1.00  0.00     0.040 A 
ATOM     45  F   UNL A   1      48.787  26.970  25.368  1.00  0.00    -0.206 F 
ATOM     46  C   UNL A   1      51.608  25.731  27.272  1.00  0.00     0.006 A 
ENDBRANCH  25  39
BRANCH  26  47
ATOM     47  C   UNL A   1      39.377  28.908  29.277  1.00  0.00     0.057 A 
ATOM     48  C   UNL A   1      38.582  29.361  28.220  1.00  0.00     0.134 A 
ATOM     49  C   UNL A   1      38.774  28.776  30.533  1.00  0.00     0.134 A 
ATOM     50  F   UNL A   1      39.111  29.522  26.998  1.00  0.00    -0.206 F 
ATOM     51  C   UNL A   1      37.236  29.680  28.406  1.00  0.00     0.040 A 
ATOM     52  C   UNL A   1      37.424  29.068  30.728  1.00  0.00     0.040 A 
ATOM     53  F   UNL A   1      39.484  28.338  31.584  1.00  0.00    -0.206 F 
ATOM     54  C   UNL A   1      36.651  29.525  29.661  1.00  0.00     0.006 A 
ENDBRANCH  26  47
BRANCH  38  55
ATOM     55  C   UNL A   1      45.325  32.500  29.629  1.00  0.00     0.057 A 
ATOM     56  C   UNL A   1      45.626  32.906  30.935  1.00  0.00     0.134 A 
ATOM     57  C   UNL A   1      45.330  33.477  28.627  1.00  0.00     0.134 A 
ATOM     58  F   UNL A   1      45.621  32.019  31.942  1.00  0.00    -0.206 F 
ATOM     59  C   UNL A   1      45.899  34.241  31.236  1.00  0.00     0.040 A 
ATOM     60  C   UNL A   1      45.626  34.811  28.912  1.00  0.00     0.040 A 
ATOM     61  F   UNL A   1      45.056  33.152  27.355  1.00  0.00    -0.206 F 
ATOM     62  C   UNL A   1      45.905  35.197  30.222  1.00  0.00     0.006 A 
ENDBRANCH  38  55
ENDBRANCH  12  13
ENDBRANCH   5   7
ENDBRANCH   2   3
ENDBRANCH   1   2
BRANCH   1  63
ATOM     63  C   UNL A   1      36.901  20.388  24.744  1.00  0.00     0.117 C 
BRANCH  63  64
ATOM     64  N   UNL A   1      37.348  21.729  25.058  1.00  0.00    -0.355 N 
ATOM     65  C   UNL A   1      36.655  22.881  25.261  1.00  0.00     0.238 C 
ATOM     66  H   UNL A   1      38.325  21.822  25.138  1.00  0.00     0.163 HD
ATOM     67  O   UNL A   1      37.339  23.910  25.305  1.00  0.00    -0.273 OA
BRANCH  65  68
ATOM     68  C   UNL A   1      35.147  22.903  25.558  1.00  0.00     0.162 C 
ATOM     69  C   UNL A   1      34.651  24.348  25.646  1.00  0.00     0.032 C 
ATOM     70  N   UNL A   1      34.256  22.293  24.523  1.00  0.00    -0.185 NA
ATOM     71  C   UNL A   1      34.402  24.700  24.191  1.00  0.00     0.019 C 
ATOM     72  C   UNL A   1      33.959  23.395  23.539  1.00  0.00     0.103 C 
BRANCH  70  73
ATOM     73  S   UNL A   1      32.797  21.559  25.091  1.00  0.00     0.245 S 
ATOM     74  O   UNL A   1      32.865  21.460  26.533  1.00  0.00    -0.207 OA
ATOM     75  O   UNL A   1      31.720  22.318  24.488  1.00  0.00    -0.207 OA
BRANCH  73  76
ATOM     76  C   UNL A   1      32.738  19.933  24.379  1.00  0.00     0.101 A 
ATOM     77  C   UNL A   1      33.228  18.875  25.172  1.00  0.00     0.023 A 
ATOM     78  C   UNL A   1      32.367  19.675  23.055  1.00  0.00     0.061 A 
ATOM     79  C   UNL A   1      33.298  17.576  24.669  1.00  0.00     0.002 A 
ATOM     80  C   UNL A   1      32.410  18.357  22.572  1.00  0.00     0.022 A 
ATOM     81  Cl  UNL A   1      31.854  20.859  21.909  1.00  0.00    -0.083 Cl
ATOM     82  C   UNL A   1      32.872  17.313  23.373  1.00  0.00     0.002 A 
ENDBRANCH  73  76
ENDBRANCH  70  73
ENDBRANCH  65  68
ENDBRANCH  63  64
ENDBRANCH   1  63
TORSDOF 12
ENDMDL
