MODEL 1
REMARK VINA RESULT:     -12.1      0.000      0.000
REMARK SMILES O=C(NCCCNC(=O)c1cccnc1C(=O)Nc1ccc(Cl)cn1)c1ccc(-c2c3nc(c(-c4c(F)cccc4F)c4ccc([nH]4)c(-c4c(F)cccc4F)c4nc(c(-c5c(F)cccc5F)c5ccc2[nH]5)C=C4)C=C3)cc1
REMARK SMILES IDX 5 1 4 2 3 3 1 4 2 5 26 7 27 8 79 9 28 10 78 11 29 12 30 13
REMARK SMILES IDX 31 14 72 15 32 16 77 17 71 18 73 19 33 20 76 21 70 22 69 23
REMARK SMILES IDX 34 25 60 26 43 27 59 28 44 29 47 30 58 31 74 32 45 33 46 34
REMARK SMILES IDX 57 36 75 37 48 38 35 39 36 40 41 41 37 42 38 43 40 44 42 45
REMARK SMILES IDX 39 46 61 47 62 48 67 49 63 50 64 51 66 52 68 53 65 54 49 55
REMARK SMILES IDX 50 56 55 57 51 58 52 59 54 60 56 61 53 62 6 63 7 64 8 65
REMARK SMILES IDX 9 67 10 68 11 69 15 70 12 71 14 72 13 73 16 74 17 75 18 76
REMARK SMILES IDX 19 78 20 79 25 80 21 81 24 82 22 83 23 84
REMARK H PARENT 3 6 73 24 47 35 7 66 18 77
REMARK Flexibility Score: inf
ROOT
ATOM      1  C   UNL A   1      37.091  20.204  24.976  1.00  0.00     0.042 C 
ENDROOT
BRANCH   1   2
ATOM      2  C   UNL A   1      38.412  20.622  25.603  1.00  0.00     0.118 C 
BRANCH   2   3
ATOM      3  N   UNL A   1      39.464  19.617  25.548  1.00  0.00    -0.352 N 
ATOM      4  O   UNL A   1      41.529  18.731  25.762  1.00  0.00    -0.269 OA
ATOM      5  C   UNL A   1      40.775  19.688  25.949  1.00  0.00     0.251 C 
ATOM      6  H   UNL A   1      39.192  18.752  25.163  1.00  0.00     0.163 HD
BRANCH   5   7
ATOM      7  C   UNL A   1      41.296  20.925  26.562  1.00  0.00     0.039 A 
ATOM      8  C   UNL A   1      41.181  21.139  27.935  1.00  0.00     0.014 A 
ATOM      9  C   UNL A   1      41.876  21.899  25.745  1.00  0.00     0.014 A 
ATOM     10  C   UNL A   1      41.467  22.393  28.456  1.00  0.00     0.010 A 
ATOM     11  C   UNL A   1      42.260  23.128  26.291  1.00  0.00     0.010 A 
ATOM     12  C   UNL A   1      42.016  23.402  27.644  1.00  0.00    -0.014 A 
BRANCH  12  13
ATOM     13  C   UNL A   1      42.366  24.706  28.264  1.00  0.00     0.031 A 
ATOM     14  C   UNL A   1      43.782  25.044  28.647  1.00  0.00     0.074 A 
ATOM     15  C   UNL A   1      41.390  25.621  28.417  1.00  0.00     0.049 A 
ATOM     16  N   UNL A   1      44.257  26.166  29.124  1.00  0.00    -0.248 NA
ATOM     17  C   UNL A   1      44.794  23.988  28.482  1.00  0.00     0.031 C 
ATOM     18  C   UNL A   1      39.974  25.399  28.107  1.00  0.00     0.029 A 
ATOM     19  N   UNL A   1      41.436  26.924  28.838  1.00  0.00    -0.354 N 
ATOM     20  C   UNL A   1      45.616  25.954  29.322  1.00  0.00     0.074 A 
ATOM     21  C   UNL A   1      45.886  24.583  28.946  1.00  0.00     0.031 C 
ATOM     22  C   UNL A   1      39.299  26.543  28.288  1.00  0.00     0.029 A 
ATOM     23  C   UNL A   1      40.218  27.559  28.786  1.00  0.00     0.049 A 
ATOM     24  H   UNL A   1      42.261  27.364  29.146  1.00  0.00     0.167 HD
ATOM     25  C   UNL A   1      46.553  26.828  29.765  1.00  0.00     0.037 A 
ATOM     26  C   UNL A   1      39.873  28.817  29.112  1.00  0.00     0.037 A 
ATOM     27  C   UNL A   1      46.282  28.196  30.132  1.00  0.00     0.049 A 
ATOM     28  C   UNL A   1      40.932  29.758  29.601  1.00  0.00     0.074 A 
ATOM     29  C   UNL A   1      47.168  29.160  30.584  1.00  0.00     0.029 A 
ATOM     30  N   UNL A   1      45.032  28.794  30.090  1.00  0.00    -0.354 N 
ATOM     31  N   UNL A   1      42.216  29.546  29.760  1.00  0.00    -0.248 NA
ATOM     32  C   UNL A   1      40.495  31.114  29.956  1.00  0.00     0.031 C 
ATOM     33  C   UNL A   1      46.448  30.330  30.849  1.00  0.00     0.029 A 
ATOM     34  C   UNL A   1      45.121  30.110  30.521  1.00  0.00     0.049 A 
ATOM     35  H   UNL A   1      44.203  28.350  29.799  1.00  0.00     0.167 HD
ATOM     36  C   UNL A   1      42.741  30.741  30.230  1.00  0.00     0.074 A 
ATOM     37  C   UNL A   1      41.643  31.683  30.295  1.00  0.00     0.031 C 
ATOM     38  C   UNL A   1      44.015  31.030  30.589  1.00  0.00     0.037 A 
BRANCH  25  39
ATOM     39  C   UNL A   1      47.969  26.337  29.880  1.00  0.00     0.057 A 
ATOM     40  C   UNL A   1      48.467  25.796  31.072  1.00  0.00     0.134 A 
ATOM     41  C   UNL A   1      48.821  26.340  28.768  1.00  0.00     0.134 A 
ATOM     42  F   UNL A   1      47.708  25.773  32.178  1.00  0.00    -0.206 F 
ATOM     43  C   UNL A   1      49.765  25.287  31.157  1.00  0.00     0.040 A 
ATOM     44  C   UNL A   1      50.113  25.814  28.834  1.00  0.00     0.040 A 
ATOM     45  F   UNL A   1      48.406  26.837  27.593  1.00  0.00    -0.206 F 
ATOM     46  C   UNL A   1      50.589  25.287  30.034  1.00  0.00     0.006 A 
ENDBRANCH  25  39
BRANCH  26  47
ATOM     47  C   UNL A   1      38.458  29.246  28.998  1.00  0.00     0.057 A 
ATOM     48  C   UNL A   1      37.594  29.215  30.098  1.00  0.00     0.134 A 
ATOM     49  C   UNL A   1      37.937  29.702  27.780  1.00  0.00     0.134 A 
ATOM     50  F   UNL A   1      38.031  28.773  31.287  1.00  0.00    -0.206 F 
ATOM     51  C   UNL A   1      36.258  29.602  29.988  1.00  0.00     0.040 A 
ATOM     52  C   UNL A   1      36.613  30.122  27.662  1.00  0.00     0.040 A 
ATOM     53  F   UNL A   1      38.717  29.766  26.691  1.00  0.00    -0.206 F 
ATOM     54  C   UNL A   1      35.766  30.065  28.768  1.00  0.00     0.006 A 
ENDBRANCH  26  47
BRANCH  38  55
ATOM     55  C   UNL A   1      44.278  32.425  31.072  1.00  0.00     0.057 A 
ATOM     56  C   UNL A   1      44.198  32.760  32.430  1.00  0.00     0.134 A 
ATOM     57  C   UNL A   1      44.609  33.445  30.171  1.00  0.00     0.134 A 
ATOM     58  F   UNL A   1      43.871  31.831  33.342  1.00  0.00    -0.206 F 
ATOM     59  C   UNL A   1      44.403  34.068  32.871  1.00  0.00     0.040 A 
ATOM     60  C   UNL A   1      44.842  34.751  30.604  1.00  0.00     0.040 A 
ATOM     61  F   UNL A   1      44.709  33.188  28.859  1.00  0.00    -0.206 F 
ATOM     62  C   UNL A   1      44.730  35.067  31.956  1.00  0.00     0.006 A 
ENDBRANCH  38  55
ENDBRANCH  12  13
ENDBRANCH   5   7
ENDBRANCH   2   3
ENDBRANCH   1   2
BRANCH   1  63
ATOM     63  C   UNL A   1      35.963  21.217  25.065  1.00  0.00     0.118 C 
BRANCH  63  64
ATOM     64  N   UNL A   1      35.397  21.378  26.396  1.00  0.00    -0.352 N 
ATOM     65  C   UNL A   1      34.416  22.228  26.835  1.00  0.00     0.253 C 
ATOM     66  H   UNL A   1      35.776  20.787  27.086  1.00  0.00     0.163 HD
ATOM     67  O   UNL A   1      33.853  22.017  27.911  1.00  0.00    -0.269 OA
BRANCH  65  68
ATOM     68  C   UNL A   1      33.939  23.310  25.985  1.00  0.00     0.071 A 
ATOM     69  C   UNL A   1      34.826  24.391  25.856  1.00  0.00     0.018 A 
ATOM     70  C   UNL A   1      32.724  23.344  25.304  1.00  0.00     0.141 A 
ATOM     71  C   UNL A   1      34.465  25.498  25.105  1.00  0.00     0.021 A 
ATOM     72  N   UNL A   1      32.365  24.443  24.572  1.00  0.00    -0.250 NA
ATOM     73  C   UNL A   1      33.228  25.480  24.491  1.00  0.00     0.112 A 
BRANCH  70  74
ATOM     74  C   UNL A   1      31.654  22.270  25.280  1.00  0.00     0.276 C 
ATOM     75  O   UNL A   1      30.662  22.370  26.002  1.00  0.00    -0.267 OA
ATOM     76  N   UNL A   1      31.691  21.344  24.269  1.00  0.00    -0.305 N 
ATOM     77  H   UNL A   1      31.252  21.596  23.425  1.00  0.00     0.171 HD
BRANCH  76  78
ATOM     78  C   UNL A   1      32.286  20.087  24.313  1.00  0.00     0.132 A 
ATOM     79  C   UNL A   1      32.491  19.324  23.168  1.00  0.00     0.049 A 
ATOM     80  N   UNL A   1      32.546  19.633  25.554  1.00  0.00    -0.238 NA
ATOM     81  C   UNL A   1      32.842  17.983  23.315  1.00  0.00     0.026 A 
ATOM     82  C   UNL A   1      32.849  18.316  25.670  1.00  0.00     0.134 A 
ATOM     83  C   UNL A   1      32.980  17.457  24.592  1.00  0.00     0.059 A 
ATOM     84  Cl  UNL A   1      33.281  15.784  24.816  1.00  0.00    -0.083 Cl
ENDBRANCH  76  78
ENDBRANCH  70  74
ENDBRANCH  65  68
ENDBRANCH  63  64
ENDBRANCH   1  63
TORSDOF 12
ENDMDL
MODEL 2
REMARK VINA RESULT:     -11.9      1.378      1.608
REMARK SMILES O=C(NCCCNC(=O)c1cccnc1C(=O)Nc1ccc(Cl)cn1)c1ccc(-c2c3nc(c(-c4c(F)cccc4F)c4ccc([nH]4)c(-c4c(F)cccc4F)c4nc(c(-c5c(F)cccc5F)c5ccc2[nH]5)C=C4)C=C3)cc1
REMARK SMILES IDX 5 1 4 2 3 3 1 4 2 5 26 7 27 8 79 9 28 10 78 11 29 12 30 13
REMARK SMILES IDX 31 14 72 15 32 16 77 17 71 18 73 19 33 20 76 21 70 22 69 23
REMARK SMILES IDX 34 25 60 26 43 27 59 28 44 29 47 30 58 31 74 32 45 33 46 34
REMARK SMILES IDX 57 36 75 37 48 38 35 39 36 40 41 41 37 42 38 43 40 44 42 45
REMARK SMILES IDX 39 46 61 47 62 48 67 49 63 50 64 51 66 52 68 53 65 54 49 55
REMARK SMILES IDX 50 56 55 57 51 58 52 59 54 60 56 61 53 62 6 63 7 64 8 65
REMARK SMILES IDX 9 67 10 68 11 69 15 70 12 71 14 72 13 73 16 74 17 75 18 76
REMARK SMILES IDX 19 78 20 79 25 80 21 81 24 82 22 83 23 84
REMARK H PARENT 3 6 73 24 47 35 7 66 18 77
REMARK Flexibility Score: inf
ROOT
ATOM      1  C   UNL A   1      37.538  19.980  24.981  1.00  0.00     0.042 C 
ENDROOT
BRANCH   1   2
ATOM      2  C   UNL A   1      38.808  20.316  25.749  1.00  0.00     0.118 C 
BRANCH   2   3
ATOM      3  N   UNL A   1      39.820  19.268  25.751  1.00  0.00    -0.352 N 
ATOM      4  O   UNL A   1      41.867  18.333  25.921  1.00  0.00    -0.269 OA
ATOM      5  C   UNL A   1      41.162  19.338  26.032  1.00  0.00     0.251 C 
ATOM      6  H   UNL A   1      39.490  18.371  25.513  1.00  0.00     0.163 HD
BRANCH   5   7
ATOM      7  C   UNL A   1      41.770  20.624  26.423  1.00  0.00     0.039 A 
ATOM      8  C   UNL A   1      41.957  20.941  27.768  1.00  0.00     0.014 A 
ATOM      9  C   UNL A   1      42.128  21.539  25.429  1.00  0.00     0.014 A 
ATOM     10  C   UNL A   1      42.315  22.235  28.121  1.00  0.00     0.010 A 
ATOM     11  C   UNL A   1      42.590  22.810  25.786  1.00  0.00     0.010 A 
ATOM     12  C   UNL A   1      42.643  23.185  27.137  1.00  0.00    -0.014 A 
BRANCH  12  13
ATOM     13  C   UNL A   1      43.085  24.535  27.568  1.00  0.00     0.031 A 
ATOM     14  C   UNL A   1      44.523  24.968  27.459  1.00  0.00     0.074 A 
ATOM     15  C   UNL A   1      42.151  25.404  27.999  1.00  0.00     0.049 A 
ATOM     16  N   UNL A   1      45.050  26.138  27.721  1.00  0.00    -0.248 NA
ATOM     17  C   UNL A   1      45.496  23.961  27.009  1.00  0.00     0.031 C 
ATOM     18  C   UNL A   1      40.729  25.091  28.172  1.00  0.00     0.029 A 
ATOM     19  N   UNL A   1      42.242  26.728  28.340  1.00  0.00    -0.354 N 
ATOM     20  C   UNL A   1      46.411  26.009  27.474  1.00  0.00     0.074 A 
ATOM     21  C   UNL A   1      46.637  24.637  27.075  1.00  0.00     0.031 C 
ATOM     22  C   UNL A   1      40.073  26.205  28.525  1.00  0.00     0.029 A 
ATOM     23  C   UNL A   1      41.032  27.293  28.665  1.00  0.00     0.049 A 
ATOM     24  H   UNL A   1      43.091  27.227  28.350  1.00  0.00     0.167 HD
ATOM     25  C   UNL A   1      47.380  26.953  27.561  1.00  0.00     0.037 A 
ATOM     26  C   UNL A   1      40.727  28.546  29.046  1.00  0.00     0.037 A 
ATOM     27  C   UNL A   1      47.150  28.322  27.953  1.00  0.00     0.049 A 
ATOM     28  C   UNL A   1      41.820  29.567  29.135  1.00  0.00     0.074 A 
ATOM     29  C   UNL A   1      48.067  29.355  28.062  1.00  0.00     0.029 A 
ATOM     30  N   UNL A   1      45.915  28.850  28.299  1.00  0.00    -0.354 N 
ATOM     31  N   UNL A   1      43.098  29.432  28.876  1.00  0.00    -0.248 NA
ATOM     32  C   UNL A   1      41.431  30.914  29.569  1.00  0.00     0.031 C 
ATOM     33  C   UNL A   1      47.393  30.497  28.509  1.00  0.00     0.029 A 
ATOM     34  C   UNL A   1      46.049  30.189  28.635  1.00  0.00     0.049 A 
ATOM     35  H   UNL A   1      45.068  28.347  28.307  1.00  0.00     0.167 HD
ATOM     36  C   UNL A   1      43.665  30.676  29.112  1.00  0.00     0.074 A 
ATOM     37  C   UNL A   1      42.585  31.561  29.498  1.00  0.00     0.031 C 
ATOM     38  C   UNL A   1      44.965  31.051  29.029  1.00  0.00     0.037 A 
BRANCH  25  39
ATOM     39  C   UNL A   1      48.787  26.545  27.227  1.00  0.00     0.057 A 
ATOM     40  C   UNL A   1      49.650  26.014  28.193  1.00  0.00     0.134 A 
ATOM     41  C   UNL A   1      49.261  26.618  25.910  1.00  0.00     0.134 A 
ATOM     42  F   UNL A   1      49.263  25.925  29.476  1.00  0.00    -0.206 F 
ATOM     43  C   UNL A   1      50.937  25.581  27.866  1.00  0.00     0.040 A 
ATOM     44  C   UNL A   1      50.537  26.169  25.566  1.00  0.00     0.040 A 
ATOM     45  F   UNL A   1      48.485  27.111  24.934  1.00  0.00    -0.206 F 
ATOM     46  C   UNL A   1      51.381  25.650  26.547  1.00  0.00     0.006 A 
ENDBRANCH  25  39
BRANCH  26  47
ATOM     47  C   UNL A   1      39.324  28.892  29.383  1.00  0.00     0.057 A 
ATOM     48  C   UNL A   1      38.811  28.692  30.669  1.00  0.00     0.134 A 
ATOM     49  C   UNL A   1      38.463  29.438  28.422  1.00  0.00     0.134 A 
ATOM     50  F   UNL A   1      39.583  28.159  31.628  1.00  0.00    -0.206 F 
ATOM     51  C   UNL A   1      37.487  29.002  30.983  1.00  0.00     0.040 A 
ATOM     52  C   UNL A   1      37.147  29.781  28.728  1.00  0.00     0.040 A 
ATOM     53  F   UNL A   1      38.898  29.664  27.172  1.00  0.00    -0.206 F 
ATOM     54  C   UNL A   1      36.654  29.555  30.012  1.00  0.00     0.006 A 
ENDBRANCH  26  47
BRANCH  38  55
ATOM     55  C   UNL A   1      45.275  32.482  29.356  1.00  0.00     0.057 A 
ATOM     56  C   UNL A   1      45.619  32.881  30.653  1.00  0.00     0.134 A 
ATOM     57  C   UNL A   1      45.223  33.470  28.365  1.00  0.00     0.134 A 
ATOM     58  F   UNL A   1      45.671  31.984  31.650  1.00  0.00    -0.206 F 
ATOM     59  C   UNL A   1      45.866  34.219  30.962  1.00  0.00     0.040 A 
ATOM     60  C   UNL A   1      45.494  34.807  28.657  1.00  0.00     0.040 A 
ATOM     61  F   UNL A   1      44.907  33.152  27.101  1.00  0.00    -0.206 F 
ATOM     62  C   UNL A   1      45.807  35.186  29.961  1.00  0.00     0.006 A 
ENDBRANCH  38  55
ENDBRANCH  12  13
ENDBRANCH   5   7
ENDBRANCH   2   3
ENDBRANCH   1   2
BRANCH   1  63
ATOM     63  C   UNL A   1      36.433  21.021  25.036  1.00  0.00     0.118 C 
BRANCH  63  64
ATOM     64  N   UNL A   1      35.719  21.077  26.303  1.00  0.00    -0.352 N 
ATOM     65  C   UNL A   1      34.646  21.847  26.671  1.00  0.00     0.253 C 
ATOM     66  H   UNL A   1      36.057  20.471  27.001  1.00  0.00     0.163 HD
ATOM     67  O   UNL A   1      33.984  21.547  27.667  1.00  0.00    -0.269 OA
BRANCH  65  68
ATOM     68  C   UNL A   1      34.198  22.945  25.826  1.00  0.00     0.071 A 
ATOM     69  C   UNL A   1      35.111  24.006  25.708  1.00  0.00     0.018 A 
ATOM     70  C   UNL A   1      32.988  23.012  25.139  1.00  0.00     0.141 A 
ATOM     71  C   UNL A   1      34.778  25.126  24.963  1.00  0.00     0.021 A 
ATOM     72  N   UNL A   1      32.658  24.123  24.413  1.00  0.00    -0.250 NA
ATOM     73  C   UNL A   1      33.545  25.141  24.343  1.00  0.00     0.112 A 
BRANCH  70  74
ATOM     74  C   UNL A   1      31.894  21.963  25.102  1.00  0.00     0.276 C 
ATOM     75  O   UNL A   1      30.861  22.125  25.752  1.00  0.00    -0.267 OA
ATOM     76  N   UNL A   1      31.971  20.982  24.148  1.00  0.00    -0.305 N 
ATOM     77  H   UNL A   1      31.594  21.197  23.264  1.00  0.00     0.171 HD
BRANCH  76  78
ATOM     78  C   UNL A   1      32.528  19.716  24.297  1.00  0.00     0.132 A 
ATOM     79  C   UNL A   1      32.880  18.928  23.207  1.00  0.00     0.049 A 
ATOM     80  N   UNL A   1      32.599  19.282  25.571  1.00  0.00    -0.238 NA
ATOM     81  C   UNL A   1      33.180  17.583  23.426  1.00  0.00     0.026 A 
ATOM     82  C   UNL A   1      32.856  17.962  25.751  1.00  0.00     0.134 A 
ATOM     83  C   UNL A   1      33.123  17.080  24.718  1.00  0.00     0.059 A 
ATOM     84  Cl  UNL A   1      33.356  15.407  25.011  1.00  0.00    -0.083 Cl
ENDBRANCH  76  78
ENDBRANCH  70  74
ENDBRANCH  65  68
ENDBRANCH  63  64
ENDBRANCH   1  63
TORSDOF 12
ENDMDL
MODEL 3
REMARK VINA RESULT:     -11.9      4.421      9.249
REMARK SMILES O=C(NCCCNC(=O)c1cccnc1C(=O)Nc1ccc(Cl)cn1)c1ccc(-c2c3nc(c(-c4c(F)cccc4F)c4ccc([nH]4)c(-c4c(F)cccc4F)c4nc(c(-c5c(F)cccc5F)c5ccc2[nH]5)C=C4)C=C3)cc1
REMARK SMILES IDX 5 1 4 2 3 3 1 4 2 5 26 7 27 8 79 9 28 10 78 11 29 12 30 13
REMARK SMILES IDX 31 14 72 15 32 16 77 17 71 18 73 19 33 20 76 21 70 22 69 23
REMARK SMILES IDX 34 25 60 26 43 27 59 28 44 29 47 30 58 31 74 32 45 33 46 34
REMARK SMILES IDX 57 36 75 37 48 38 35 39 36 40 41 41 37 42 38 43 40 44 42 45
REMARK SMILES IDX 39 46 61 47 62 48 67 49 63 50 64 51 66 52 68 53 65 54 49 55
REMARK SMILES IDX 50 56 55 57 51 58 52 59 54 60 56 61 53 62 6 63 7 64 8 65
REMARK SMILES IDX 9 67 10 68 11 69 15 70 12 71 14 72 13 73 16 74 17 75 18 76
REMARK SMILES IDX 19 78 20 79 25 80 21 81 24 82 22 83 23 84
REMARK H PARENT 3 6 73 24 47 35 7 66 18 77
REMARK Flexibility Score: inf
ROOT
ATOM      1  C   UNL A   1      31.454  31.017  26.147  1.00  0.00     0.042 C 
ENDROOT
BRANCH   1   2
ATOM      2  C   UNL A   1      32.561  31.734  26.906  1.00  0.00     0.118 C 
BRANCH   2   3
ATOM      3  N   UNL A   1      32.235  33.086  27.335  1.00  0.00    -0.352 N 
ATOM      4  O   UNL A   1      32.461  35.050  28.425  1.00  0.00    -0.269 OA
ATOM      5  C   UNL A   1      32.943  33.955  28.129  1.00  0.00     0.251 C 
ATOM      6  H   UNL A   1      31.374  33.431  27.005  1.00  0.00     0.163 HD
BRANCH   5   7
ATOM      7  C   UNL A   1      34.260  33.562  28.667  1.00  0.00     0.039 A 
ATOM      8  C   UNL A   1      35.432  33.909  27.997  1.00  0.00     0.014 A 
ATOM      9  C   UNL A   1      34.318  32.805  29.840  1.00  0.00     0.014 A 
ATOM     10  C   UNL A   1      36.636  33.341  28.389  1.00  0.00     0.010 A 
ATOM     11  C   UNL A   1      35.548  32.319  30.295  1.00  0.00     0.010 A 
ATOM     12  C   UNL A   1      36.713  32.544  29.546  1.00  0.00    -0.014 A 
BRANCH  12  13
ATOM     13  C   UNL A   1      38.037  32.015  29.962  1.00  0.00     0.031 A 
ATOM     14  C   UNL A   1      38.867  32.700  31.014  1.00  0.00     0.074 A 
ATOM     15  C   UNL A   1      38.457  30.855  29.422  1.00  0.00     0.049 A 
ATOM     16  N   UNL A   1      40.004  32.319  31.538  1.00  0.00    -0.248 NA
ATOM     17  C   UNL A   1      38.364  33.979  31.540  1.00  0.00     0.031 C 
ATOM     18  C   UNL A   1      37.750  30.112  28.374  1.00  0.00     0.029 A 
ATOM     19  N   UNL A   1      39.553  30.080  29.695  1.00  0.00    -0.354 N 
ATOM     20  C   UNL A   1      40.358  33.308  32.448  1.00  0.00     0.074 A 
ATOM     21  C   UNL A   1      39.331  34.326  32.381  1.00  0.00     0.031 C 
ATOM     22  C   UNL A   1      38.397  28.962  28.138  1.00  0.00     0.029 A 
ATOM     23  C   UNL A   1      39.593  28.914  28.968  1.00  0.00     0.049 A 
ATOM     24  H   UNL A   1      40.245  30.333  30.348  1.00  0.00     0.167 HD
ATOM     25  C   UNL A   1      41.433  33.355  33.273  1.00  0.00     0.037 A 
ATOM     26  C   UNL A   1      40.498  27.919  28.961  1.00  0.00     0.037 A 
ATOM     27  C   UNL A   1      42.451  32.335  33.342  1.00  0.00     0.049 A 
ATOM     28  C   UNL A   1      41.677  28.001  29.883  1.00  0.00     0.074 A 
ATOM     29  C   UNL A   1      43.573  32.290  34.151  1.00  0.00     0.029 A 
ATOM     30  N   UNL A   1      42.469  31.182  32.572  1.00  0.00    -0.354 N 
ATOM     31  N   UNL A   1      41.982  28.933  30.753  1.00  0.00    -0.248 NA
ATOM     32  C   UNL A   1      42.639  26.894  29.821  1.00  0.00     0.031 C 
ATOM     33  C   UNL A   1      44.290  31.127  33.846  1.00  0.00     0.029 A 
ATOM     34  C   UNL A   1      43.591  30.426  32.878  1.00  0.00     0.049 A 
ATOM     35  H   UNL A   1      41.788  30.937  31.905  1.00  0.00     0.167 HD
ATOM     36  C   UNL A   1      43.168  28.524  31.345  1.00  0.00     0.074 A 
ATOM     37  C   UNL A   1      43.506  27.242  30.761  1.00  0.00     0.031 C 
ATOM     38  C   UNL A   1      43.918  29.157  32.279  1.00  0.00     0.037 A 
BRANCH  25  39
ATOM     39  C   UNL A   1      41.573  34.549  34.174  1.00  0.00     0.057 A 
ATOM     40  C   UNL A   1      42.227  35.715  33.757  1.00  0.00     0.134 A 
ATOM     41  C   UNL A   1      40.985  34.560  35.446  1.00  0.00     0.134 A 
ATOM     42  F   UNL A   1      42.821  35.769  32.555  1.00  0.00    -0.206 F 
ATOM     43  C   UNL A   1      42.303  36.843  34.577  1.00  0.00     0.040 A 
ATOM     44  C   UNL A   1      41.035  35.688  36.266  1.00  0.00     0.040 A 
ATOM     45  F   UNL A   1      40.337  33.479  35.906  1.00  0.00    -0.206 F 
ATOM     46  C   UNL A   1      41.698  36.835  35.832  1.00  0.00     0.006 A 
ENDBRANCH  25  39
BRANCH  26  47
ATOM     47  C   UNL A   1      40.322  26.771  28.039  1.00  0.00     0.057 A 
ATOM     48  C   UNL A   1      40.931  26.747  26.779  1.00  0.00     0.134 A 
ATOM     49  C   UNL A   1      39.542  25.665  28.400  1.00  0.00     0.134 A 
ATOM     50  F   UNL A   1      41.678  27.783  26.370  1.00  0.00    -0.206 F 
ATOM     51  C   UNL A   1      40.754  25.675  25.904  1.00  0.00     0.040 A 
ATOM     52  C   UNL A   1      39.381  24.573  27.549  1.00  0.00     0.040 A 
ATOM     53  F   UNL A   1      38.941  25.623  29.599  1.00  0.00    -0.206 F 
ATOM     54  C   UNL A   1      39.982  24.580  26.291  1.00  0.00     0.006 A 
ENDBRANCH  26  47
BRANCH  38  55
ATOM     55  C   UNL A   1      45.168  28.459  32.725  1.00  0.00     0.057 A 
ATOM     56  C   UNL A   1      46.400  28.688  32.099  1.00  0.00     0.134 A 
ATOM     57  C   UNL A   1      45.139  27.546  33.786  1.00  0.00     0.134 A 
ATOM     58  F   UNL A   1      46.491  29.540  31.066  1.00  0.00    -0.206 F 
ATOM     59  C   UNL A   1      47.553  28.006  32.490  1.00  0.00     0.040 A 
ATOM     60  C   UNL A   1      46.291  26.878  34.203  1.00  0.00     0.040 A 
ATOM     61  F   UNL A   1      43.992  27.288  34.432  1.00  0.00    -0.206 F 
ATOM     62  C   UNL A   1      47.500  27.100  33.547  1.00  0.00     0.006 A 
ENDBRANCH  38  55
ENDBRANCH  12  13
ENDBRANCH   5   7
ENDBRANCH   2   3
ENDBRANCH   1   2
BRANCH   1  63
ATOM     63  C   UNL A   1      31.815  29.659  25.571  1.00  0.00     0.118 C 
BRANCH  63  64
ATOM     64  N   UNL A   1      32.792  29.699  24.493  1.00  0.00    -0.352 N 
ATOM     65  C   UNL A   1      33.370  28.671  23.795  1.00  0.00     0.253 C 
ATOM     66  H   UNL A   1      33.082  30.601  24.225  1.00  0.00     0.163 HD
ATOM     67  O   UNL A   1      33.935  28.895  22.722  1.00  0.00    -0.269 OA
BRANCH  65  68
ATOM     68  C   UNL A   1      33.215  27.294  24.240  1.00  0.00     0.071 A 
ATOM     69  C   UNL A   1      33.973  26.953  25.373  1.00  0.00     0.018 A 
ATOM     70  C   UNL A   1      32.390  26.331  23.662  1.00  0.00     0.141 A 
ATOM     71  C   UNL A   1      33.939  25.659  25.865  1.00  0.00     0.021 A 
ATOM     72  N   UNL A   1      32.366  25.051  24.144  1.00  0.00    -0.250 NA
ATOM     73  C   UNL A   1      33.130  24.747  25.217  1.00  0.00     0.112 A 
BRANCH  70  74
ATOM     74  C   UNL A   1      31.469  26.507  22.470  1.00  0.00     0.276 C 
ATOM     75  O   UNL A   1      31.822  26.124  21.355  1.00  0.00    -0.267 OA
ATOM     76  N   UNL A   1      30.164  26.854  22.708  1.00  0.00    -0.305 N 
ATOM     77  H   UNL A   1      29.540  26.117  22.898  1.00  0.00     0.171 HD
BRANCH  76  78
ATOM     78  C   UNL A   1      29.631  28.139  22.712  1.00  0.00     0.132 A 
ATOM     79  C   UNL A   1      28.345  28.408  23.167  1.00  0.00     0.049 A 
ATOM     80  N   UNL A   1      30.420  29.074  22.145  1.00  0.00    -0.238 NA
ATOM     81  C   UNL A   1      27.788  29.657  22.896  1.00  0.00     0.026 A 
ATOM     82  C   UNL A   1      29.840  30.267  21.860  1.00  0.00     0.134 A 
ATOM     83  C   UNL A   1      28.535  30.590  22.189  1.00  0.00     0.059 A 
ATOM     84  Cl  UNL A   1      27.841  32.087  21.722  1.00  0.00    -0.083 Cl
ENDBRANCH  76  78
ENDBRANCH  70  74
ENDBRANCH  65  68
ENDBRANCH  63  64
ENDBRANCH   1  63
TORSDOF 12
ENDMDL
