MODEL 1
REMARK VINA RESULT:     -12.6      0.000      0.000
REMARK SMILES CCCSc1nc2n(n1)[C@@H](c1ccccc1C(=O)NCCCNC(=O)c1ccc(-c3c4nc(c(-c5c(F)cccc5F)c5ccc([nH]5)c(-c5c(F)cccc5F)c5nc(c(-c6c(F)cccc6F)c6ccc3[nH]6)C=C5)C=C4)cc1)C(C(=O)Nc1cccc(C)c1C)=C(C)N2
REMARK SMILES IDX 20 1 19 2 17 3 18 4 16 6 11 7 12 8 13 9 15 10 14 11 10 12
REMARK SMILES IDX 5 13 6 14 9 15 7 16 8 17 94 18 92 19 80 21 93 22 4 23 3 24
REMARK SMILES IDX 2 25 1 26 81 27 82 28 83 29 84 31 85 32 90 33 86 34 88 35
REMARK SMILES IDX 91 36 87 37 89 38 21 39 22 40 23 41 24 42 25 44 26 45 27 46
REMARK SMILES IDX 79 47 28 48 78 49 29 50 30 51 31 52 72 53 32 54 77 55 71 56
REMARK SMILES IDX 73 57 33 58 76 59 70 60 69 61 34 63 60 64 43 65 59 66 44 67
REMARK SMILES IDX 47 68 58 69 74 70 45 71 46 72 57 74 75 75 48 76 35 77 36 78
REMARK SMILES IDX 41 79 37 80 38 81 40 82 42 83 39 84 61 85 62 86 67 87 63 88
REMARK SMILES IDX 64 89 66 90 68 91 65 92 49 93 50 94 55 95 51 96 52 97 54 98
REMARK SMILES IDX 56 99 53 100
REMARK H PARENT 19 5 94 20 83 30 23 43 73 62 47 73
REMARK Flexibility Score: inf
ROOT
ATOM      1  C   UNL A   1      31.772  28.927  27.363  1.00  0.00     0.118 C 
ENDROOT
BRANCH   1   2
ATOM      2  N   UNL A   1      31.697  27.677  26.624  1.00  0.00    -0.352 N 
ATOM      3  C   UNL A   1      32.174  27.001  25.542  1.00  0.00     0.251 C 
ATOM      4  O   UNL A   1      31.852  25.802  25.618  1.00  0.00    -0.269 OA
ATOM      5  H   UNL A   1      31.051  27.093  27.083  1.00  0.00     0.163 HD
BRANCH   3   6
ATOM      6  C   UNL A   1      32.930  27.434  24.302  1.00  0.00     0.045 A 
ATOM      7  C   UNL A   1      32.796  27.105  22.930  1.00  0.00    -0.006 A 
ATOM      8  C   UNL A   1      33.727  27.665  22.001  1.00  0.00     0.007 A 
ATOM      9  C   UNL A   1      34.745  28.536  22.377  1.00  0.00     0.000 A 
ATOM     10  C   UNL A   1      33.955  28.375  24.627  1.00  0.00     0.014 A 
ATOM     11  C   UNL A   1      34.842  28.918  23.695  1.00  0.00     0.001 A 
BRANCH   7  12
ATOM     12  C   UNL A   1      31.624  26.340  22.327  1.00  0.00     0.180 C 
ATOM     13  C   UNL A   1      28.668  28.085  23.139  1.00  0.00     0.210 A 
ATOM     14  N   UNL A   1      28.378  26.901  23.769  1.00  0.00    -0.185 NA
ATOM     15  N   UNL A   1      29.825  28.103  22.456  1.00  0.00    -0.141 NA
ATOM     16  C   UNL A   1      29.423  26.164  23.516  1.00  0.00     0.227 A 
ATOM     17  N   UNL A   1      30.319  26.878  22.771  1.00  0.00    -0.218 N 
ATOM     18  N   UNL A   1      29.711  24.901  23.866  1.00  0.00    -0.328 N 
ATOM     19  C   UNL A   1      30.832  24.214  23.422  1.00  0.00     0.026 C 
ATOM     20  H   UNL A   1      29.091  24.434  24.473  1.00  0.00     0.169 HD
ATOM     21  C   UNL A   1      31.712  24.824  22.590  1.00  0.00     0.065 C 
ATOM     22  C   UNL A   1      30.965  22.810  23.948  1.00  0.00     0.065 C 
BRANCH  13  23
ATOM     23  S   UNL A   1      27.548  29.413  23.230  1.00  0.00    -0.084 SA
BRANCH  23  24
ATOM     24  C   UNL A   1      28.589  30.873  23.473  1.00  0.00     0.078 C 
BRANCH  24  25
ATOM     25  C   UNL A   1      28.096  32.166  22.819  1.00  0.00     0.008 C 
ATOM     26  C   UNL A   1      28.991  33.368  23.065  1.00  0.00     0.005 C 
ENDBRANCH  24  25
ENDBRANCH  23  24
ENDBRANCH  13  23
BRANCH  21  27
ATOM     27  C   UNL A   1      32.868  24.148  21.950  1.00  0.00     0.255 C 
ATOM     28  O   UNL A   1      33.101  24.342  20.757  1.00  0.00    -0.269 OA
ATOM     29  N   UNL A   1      33.652  23.224  22.589  1.00  0.00    -0.322 N 
ATOM     30  H   UNL A   1      33.915  22.440  22.055  1.00  0.00     0.170 HD
BRANCH  29  31
ATOM     31  C   UNL A   1      34.129  23.255  23.913  1.00  0.00     0.044 A 
ATOM     32  C   UNL A   1      34.750  24.465  24.262  1.00  0.00     0.026 A 
ATOM     33  C   UNL A   1      33.985  22.237  24.872  1.00  0.00    -0.025 A 
ATOM     34  C   UNL A   1      35.096  24.734  25.579  1.00  0.00     0.002 A 
ATOM     35  C   UNL A   1      34.331  22.519  26.218  1.00  0.00    -0.046 A 
ATOM     36  C   UNL A   1      33.562  20.843  24.512  1.00  0.00     0.047 C 
ATOM     37  C   UNL A   1      34.856  23.779  26.556  1.00  0.00     0.004 A 
ATOM     38  C   UNL A   1      34.090  21.550  27.347  1.00  0.00     0.044 C 
ENDBRANCH  29  31
ENDBRANCH  21  27
ENDBRANCH   7  12
ENDBRANCH   3   6
ENDBRANCH   1   2
BRANCH   1  39
ATOM     39  C   UNL A   1      32.198  30.138  26.530  1.00  0.00     0.042 C 
BRANCH  39  40
ATOM     40  C   UNL A   1      33.055  31.145  27.303  1.00  0.00     0.118 C 
BRANCH  40  41
ATOM     41  N   UNL A   1      32.595  32.536  27.215  1.00  0.00    -0.352 N 
ATOM     42  C   UNL A   1      32.923  33.593  28.052  1.00  0.00     0.251 C 
ATOM     43  H   UNL A   1      31.980  32.744  26.475  1.00  0.00     0.163 HD
ATOM     44  O   UNL A   1      32.207  34.582  28.168  1.00  0.00    -0.269 OA
BRANCH  42  45
ATOM     45  C   UNL A   1      34.192  33.504  28.784  1.00  0.00     0.039 A 
ATOM     46  C   UNL A   1      34.366  32.625  29.854  1.00  0.00     0.014 A 
ATOM     47  C   UNL A   1      35.261  34.167  28.198  1.00  0.00     0.014 A 
ATOM     48  C   UNL A   1      35.665  32.288  30.224  1.00  0.00     0.010 A 
ATOM     49  C   UNL A   1      36.522  33.696  28.442  1.00  0.00     0.010 A 
ATOM     50  C   UNL A   1      36.742  32.771  29.461  1.00  0.00    -0.014 A 
BRANCH  50  51
ATOM     51  C   UNL A   1      38.074  32.189  29.602  1.00  0.00     0.031 A 
ATOM     52  C   UNL A   1      38.227  30.784  29.117  1.00  0.00     0.074 A 
ATOM     53  C   UNL A   1      39.174  32.910  29.904  1.00  0.00     0.049 A 
ATOM     54  N   UNL A   1      38.414  29.725  29.831  1.00  0.00    -0.248 NA
ATOM     55  C   UNL A   1      38.043  30.505  27.684  1.00  0.00     0.031 C 
ATOM     56  C   UNL A   1      39.318  34.359  30.088  1.00  0.00     0.029 A 
ATOM     57  N   UNL A   1      40.454  32.470  30.009  1.00  0.00    -0.354 N 
ATOM     58  C   UNL A   1      38.567  28.666  28.937  1.00  0.00     0.074 A 
ATOM     59  C   UNL A   1      38.162  29.174  27.651  1.00  0.00     0.031 C 
ATOM     60  C   UNL A   1      40.624  34.696  30.034  1.00  0.00     0.029 A 
ATOM     61  C   UNL A   1      41.406  33.476  30.029  1.00  0.00     0.049 A 
ATOM     62  H   UNL A   1      40.687  31.515  30.066  1.00  0.00     0.167 HD
ATOM     63  C   UNL A   1      39.218  27.523  29.296  1.00  0.00     0.037 A 
ATOM     64  C   UNL A   1      42.748  33.317  30.042  1.00  0.00     0.037 A 
ATOM     65  C   UNL A   1      39.406  27.462  30.725  1.00  0.00     0.049 A 
ATOM     66  C   UNL A   1      43.020  31.947  30.543  1.00  0.00     0.074 A 
ATOM     67  C   UNL A   1      38.562  27.480  31.820  1.00  0.00     0.029 A 
ATOM     68  N   UNL A   1      40.652  27.770  31.221  1.00  0.00    -0.354 N 
ATOM     69  N   UNL A   1      42.767  31.559  31.764  1.00  0.00    -0.248 NA
ATOM     70  C   UNL A   1      43.140  30.876  29.565  1.00  0.00     0.031 C 
ATOM     71  C   UNL A   1      39.229  28.301  32.779  1.00  0.00     0.029 A 
ATOM     72  C   UNL A   1      40.464  28.668  32.241  1.00  0.00     0.049 A 
ATOM     73  H   UNL A   1      41.513  27.415  30.903  1.00  0.00     0.167 HD
ATOM     74  C   UNL A   1      42.264  30.273  31.631  1.00  0.00     0.074 A 
ATOM     75  C   UNL A   1      42.615  29.869  30.270  1.00  0.00     0.031 C 
ATOM     76  C   UNL A   1      41.366  29.762  32.527  1.00  0.00     0.037 A 
BRANCH  63  77
ATOM     77  C   UNL A   1      40.001  26.627  28.363  1.00  0.00     0.057 A 
ATOM     78  C   UNL A   1      41.007  27.189  27.552  1.00  0.00     0.134 A 
ATOM     79  C   UNL A   1      39.619  25.317  28.015  1.00  0.00     0.134 A 
ATOM     80  F   UNL A   1      41.459  28.432  27.776  1.00  0.00    -0.206 F 
ATOM     81  C   UNL A   1      41.528  26.530  26.431  1.00  0.00     0.040 A 
ATOM     82  C   UNL A   1      40.170  24.631  26.927  1.00  0.00     0.040 A 
ATOM     83  F   UNL A   1      38.627  24.669  28.636  1.00  0.00    -0.206 F 
ATOM     84  C   UNL A   1      41.101  25.249  26.109  1.00  0.00     0.006 A 
ENDBRANCH  63  77
BRANCH  64  85
ATOM     85  C   UNL A   1      43.767  34.181  29.413  1.00  0.00     0.057 A 
ATOM     86  C   UNL A   1      44.027  34.111  28.040  1.00  0.00     0.134 A 
ATOM     87  C   UNL A   1      44.326  35.277  30.098  1.00  0.00     0.134 A 
ATOM     88  F   UNL A   1      43.511  33.120  27.300  1.00  0.00    -0.206 F 
ATOM     89  C   UNL A   1      44.775  35.093  27.377  1.00  0.00     0.040 A 
ATOM     90  C   UNL A   1      45.080  36.259  29.449  1.00  0.00     0.040 A 
ATOM     91  F   UNL A   1      44.085  35.478  31.401  1.00  0.00    -0.206 F 
ATOM     92  C   UNL A   1      45.293  36.178  28.079  1.00  0.00     0.006 A 
ENDBRANCH  64  85
BRANCH  76  93
ATOM     93  C   UNL A   1      41.113  30.532  33.797  1.00  0.00     0.057 A 
ATOM     94  C   UNL A   1      40.110  31.504  33.946  1.00  0.00     0.134 A 
ATOM     95  C   UNL A   1      41.811  30.175  34.955  1.00  0.00     0.134 A 
ATOM     96  F   UNL A   1      39.311  31.840  32.929  1.00  0.00    -0.206 F 
ATOM     97  C   UNL A   1      39.851  32.125  35.172  1.00  0.00     0.040 A 
ATOM     98  C   UNL A   1      41.541  30.763  36.194  1.00  0.00     0.040 A 
ATOM     99  F   UNL A   1      42.743  29.209  34.911  1.00  0.00    -0.206 F 
ATOM    100  C   UNL A   1      40.567  31.751  36.304  1.00  0.00     0.006 A 
ENDBRANCH  76  93
ENDBRANCH  50  51
ENDBRANCH  42  45
ENDBRANCH  40  41
ENDBRANCH  39  40
ENDBRANCH   1  39
TORSDOF 16
ENDMDL
MODEL 2
REMARK VINA RESULT:     -12.6      2.157      5.726
REMARK SMILES CCCSc1nc2n(n1)[C@@H](c1ccccc1C(=O)NCCCNC(=O)c1ccc(-c3c4nc(c(-c5c(F)cccc5F)c5ccc([nH]5)c(-c5c(F)cccc5F)c5nc(c(-c6c(F)cccc6F)c6ccc3[nH]6)C=C5)C=C4)cc1)C(C(=O)Nc1cccc(C)c1C)=C(C)N2
REMARK SMILES IDX 20 1 19 2 17 3 18 4 16 6 11 7 12 8 13 9 15 10 14 11 10 12
REMARK SMILES IDX 5 13 6 14 9 15 7 16 8 17 94 18 92 19 80 21 93 22 4 23 3 24
REMARK SMILES IDX 2 25 1 26 81 27 82 28 83 29 84 31 85 32 90 33 86 34 88 35
REMARK SMILES IDX 91 36 87 37 89 38 21 39 22 40 23 41 24 42 25 44 26 45 27 46
REMARK SMILES IDX 79 47 28 48 78 49 29 50 30 51 31 52 72 53 32 54 77 55 71 56
REMARK SMILES IDX 73 57 33 58 76 59 70 60 69 61 34 63 60 64 43 65 59 66 44 67
REMARK SMILES IDX 47 68 58 69 74 70 45 71 46 72 57 74 75 75 48 76 35 77 36 78
REMARK SMILES IDX 41 79 37 80 38 81 40 82 42 83 39 84 61 85 62 86 67 87 63 88
REMARK SMILES IDX 64 89 66 90 68 91 65 92 49 93 50 94 55 95 51 96 52 97 54 98
REMARK SMILES IDX 56 99 53 100
REMARK H PARENT 19 5 94 20 83 30 23 43 73 62 47 73
REMARK Flexibility Score: inf
ROOT
ATOM      1  C   UNL A   1      31.522  28.814  27.281  1.00  0.00     0.118 C 
ENDROOT
BRANCH   1   2
ATOM      2  N   UNL A   1      31.619  27.544  26.578  1.00  0.00    -0.352 N 
ATOM      3  C   UNL A   1      32.206  26.903  25.529  1.00  0.00     0.251 C 
ATOM      4  O   UNL A   1      32.027  25.676  25.632  1.00  0.00    -0.269 OA
ATOM      5  H   UNL A   1      31.034  26.899  27.037  1.00  0.00     0.163 HD
BRANCH   3   6
ATOM      6  C   UNL A   1      32.940  27.391  24.296  1.00  0.00     0.045 A 
ATOM      7  C   UNL A   1      32.792  27.112  22.915  1.00  0.00    -0.006 A 
ATOM      8  C   UNL A   1      33.703  27.718  21.995  1.00  0.00     0.007 A 
ATOM      9  C   UNL A   1      34.715  28.588  22.391  1.00  0.00     0.000 A 
ATOM     10  C   UNL A   1      33.956  28.334  24.644  1.00  0.00     0.014 A 
ATOM     11  C   UNL A   1      34.824  28.922  23.721  1.00  0.00     0.001 A 
BRANCH   7  12
ATOM     12  C   UNL A   1      31.622  26.354  22.299  1.00  0.00     0.180 C 
ATOM     13  C   UNL A   1      28.660  28.067  23.155  1.00  0.00     0.210 A 
ATOM     14  N   UNL A   1      28.377  26.868  23.760  1.00  0.00    -0.185 NA
ATOM     15  N   UNL A   1      29.815  28.104  22.470  1.00  0.00    -0.141 NA
ATOM     16  C   UNL A   1      29.425  26.142  23.489  1.00  0.00     0.227 A 
ATOM     17  N   UNL A   1      30.315  26.876  22.757  1.00  0.00    -0.218 N 
ATOM     18  N   UNL A   1      29.720  24.873  23.812  1.00  0.00    -0.328 N 
ATOM     19  C   UNL A   1      30.844  24.201  23.350  1.00  0.00     0.026 C 
ATOM     20  H   UNL A   1      29.104  24.390  24.410  1.00  0.00     0.169 HD
ATOM     21  C   UNL A   1      31.718  24.833  22.529  1.00  0.00     0.065 C 
ATOM     22  C   UNL A   1      30.985  22.786  23.845  1.00  0.00     0.065 C 
BRANCH  13  23
ATOM     23  S   UNL A   1      27.533  29.386  23.277  1.00  0.00    -0.084 SA
BRANCH  23  24
ATOM     24  C   UNL A   1      28.569  30.851  23.515  1.00  0.00     0.078 C 
BRANCH  24  25
ATOM     25  C   UNL A   1      28.182  32.088  22.701  1.00  0.00     0.008 C 
ATOM     26  C   UNL A   1      28.984  33.332  23.039  1.00  0.00     0.005 C 
ENDBRANCH  24  25
ENDBRANCH  23  24
ENDBRANCH  13  23
BRANCH  21  27
ATOM     27  C   UNL A   1      32.876  24.177  21.871  1.00  0.00     0.255 C 
ATOM     28  O   UNL A   1      33.096  24.386  20.679  1.00  0.00    -0.269 OA
ATOM     29  N   UNL A   1      33.674  23.253  22.494  1.00  0.00    -0.322 N 
ATOM     30  H   UNL A   1      33.941  22.478  21.948  1.00  0.00     0.170 HD
BRANCH  29  31
ATOM     31  C   UNL A   1      34.162  23.274  23.814  1.00  0.00     0.044 A 
ATOM     32  C   UNL A   1      34.824  24.465  24.153  1.00  0.00     0.026 A 
ATOM     33  C   UNL A   1      33.992  22.265  24.778  1.00  0.00    -0.025 A 
ATOM     34  C   UNL A   1      35.188  24.728  25.467  1.00  0.00     0.002 A 
ATOM     35  C   UNL A   1      34.358  22.541  26.120  1.00  0.00    -0.046 A 
ATOM     36  C   UNL A   1      33.523  20.884  24.427  1.00  0.00     0.047 C 
ATOM     37  C   UNL A   1      34.926  23.784  26.449  1.00  0.00     0.004 A 
ATOM     38  C   UNL A   1      34.094  21.584  27.255  1.00  0.00     0.044 C 
ENDBRANCH  29  31
ENDBRANCH  21  27
ENDBRANCH   7  12
ENDBRANCH   3   6
ENDBRANCH   1   2
BRANCH   1  39
ATOM     39  C   UNL A   1      32.388  29.935  26.701  1.00  0.00     0.042 C 
BRANCH  39  40
ATOM     40  C   UNL A   1      33.552  30.344  27.608  1.00  0.00     0.118 C 
BRANCH  40  41
ATOM     41  N   UNL A   1      34.290  31.530  27.160  1.00  0.00    -0.352 N 
ATOM     42  C   UNL A   1      35.434  32.079  27.720  1.00  0.00     0.251 C 
ATOM     43  H   UNL A   1      33.931  31.991  26.367  1.00  0.00     0.163 HD
ATOM     44  O   UNL A   1      35.741  33.256  27.558  1.00  0.00    -0.269 OA
BRANCH  42  45
ATOM     45  C   UNL A   1      36.298  31.186  28.499  1.00  0.00     0.039 A 
ATOM     46  C   UNL A   1      36.300  29.804  28.302  1.00  0.00     0.014 A 
ATOM     47  C   UNL A   1      37.269  31.818  29.264  1.00  0.00     0.014 A 
ATOM     48  C   UNL A   1      37.400  29.077  28.749  1.00  0.00     0.010 A 
ATOM     49  C   UNL A   1      38.421  31.133  29.536  1.00  0.00     0.010 A 
ATOM     50  C   UNL A   1      38.496  29.762  29.301  1.00  0.00    -0.014 A 
BRANCH  50  51
ATOM     51  C   UNL A   1      39.782  29.091  29.474  1.00  0.00     0.031 A 
ATOM     52  C   UNL A   1      40.211  28.858  30.886  1.00  0.00     0.074 A 
ATOM     53  C   UNL A   1      40.446  28.484  28.469  1.00  0.00     0.049 A 
ATOM     54  N   UNL A   1      41.178  29.435  31.517  1.00  0.00    -0.248 NA
ATOM     55  C   UNL A   1      39.409  27.959  31.731  1.00  0.00     0.031 C 
ATOM     56  C   UNL A   1      40.050  28.295  27.069  1.00  0.00     0.029 A 
ATOM     57  N   UNL A   1      41.616  27.798  28.541  1.00  0.00    -0.354 N 
ATOM     58  C   UNL A   1      41.239  28.842  32.777  1.00  0.00     0.074 A 
ATOM     59  C   UNL A   1      40.029  28.071  32.909  1.00  0.00     0.031 C 
ATOM     60  C   UNL A   1      40.828  27.350  26.500  1.00  0.00     0.029 A 
ATOM     61  C   UNL A   1      41.901  27.032  27.423  1.00  0.00     0.049 A 
ATOM     62  H   UNL A   1      42.213  27.843  29.322  1.00  0.00     0.167 HD
ATOM     63  C   UNL A   1      42.384  28.867  33.518  1.00  0.00     0.037 A 
ATOM     64  C   UNL A   1      42.948  26.193  27.264  1.00  0.00     0.037 A 
ATOM     65  C   UNL A   1      43.329  29.814  32.979  1.00  0.00     0.049 A 
ATOM     66  C   UNL A   1      43.990  26.607  28.236  1.00  0.00     0.074 A 
ATOM     67  C   UNL A   1      43.308  31.173  32.725  1.00  0.00     0.029 A 
ATOM     68  N   UNL A   1      44.376  29.322  32.236  1.00  0.00    -0.354 N 
ATOM     69  N   UNL A   1      44.636  27.740  28.168  1.00  0.00    -0.248 NA
ATOM     70  C   UNL A   1      43.985  25.975  29.547  1.00  0.00     0.031 C 
ATOM     71  C   UNL A   1      43.976  31.319  31.471  1.00  0.00     0.029 A 
ATOM     72  C   UNL A   1      44.426  30.056  31.079  1.00  0.00     0.049 A 
ATOM     73  H   UNL A   1      44.975  28.582  32.487  1.00  0.00     0.167 HD
ATOM     74  C   UNL A   1      44.732  28.175  29.482  1.00  0.00     0.074 A 
ATOM     75  C   UNL A   1      44.409  27.002  30.292  1.00  0.00     0.031 C 
ATOM     76  C   UNL A   1      44.783  29.506  29.790  1.00  0.00     0.037 A 
BRANCH  63  77
ATOM     77  C   UNL A   1      42.814  27.809  34.509  1.00  0.00     0.057 A 
ATOM     78  C   UNL A   1      43.205  26.541  34.035  1.00  0.00     0.134 A 
ATOM     79  C   UNL A   1      42.581  27.879  35.896  1.00  0.00     0.134 A 
ATOM     80  F   UNL A   1      43.455  26.338  32.732  1.00  0.00    -0.206 F 
ATOM     81  C   UNL A   1      43.274  25.413  34.864  1.00  0.00     0.040 A 
ATOM     82  C   UNL A   1      42.697  26.770  36.741  1.00  0.00     0.040 A 
ATOM     83  F   UNL A   1      42.132  28.988  36.494  1.00  0.00    -0.206 F 
ATOM     84  C   UNL A   1      43.009  25.524  36.222  1.00  0.00     0.006 A 
ENDBRANCH  63  77
BRANCH  64  85
ATOM     85  C   UNL A   1      42.985  24.925  26.509  1.00  0.00     0.057 A 
ATOM     86  C   UNL A   1      43.791  24.781  25.374  1.00  0.00     0.134 A 
ATOM     87  C   UNL A   1      42.430  23.741  27.032  1.00  0.00     0.134 A 
ATOM     88  F   UNL A   1      44.387  25.849  24.824  1.00  0.00    -0.206 F 
ATOM     89  C   UNL A   1      44.058  23.528  24.809  1.00  0.00     0.040 A 
ATOM     90  C   UNL A   1      42.683  22.485  26.472  1.00  0.00     0.040 A 
ATOM     91  F   UNL A   1      41.697  23.755  28.155  1.00  0.00    -0.206 F 
ATOM     92  C   UNL A   1      43.514  22.373  25.366  1.00  0.00     0.006 A 
ENDBRANCH  64  85
BRANCH  76  93
ATOM     93  C   UNL A   1      44.975  30.489  28.665  1.00  0.00     0.057 A 
ATOM     94  C   UNL A   1      46.221  30.821  28.109  1.00  0.00     0.134 A 
ATOM     95  C   UNL A   1      43.848  31.008  28.019  1.00  0.00     0.134 A 
ATOM     96  F   UNL A   1      47.355  30.293  28.580  1.00  0.00    -0.206 F 
ATOM     97  C   UNL A   1      46.342  31.668  27.003  1.00  0.00     0.040 A 
ATOM     98  C   UNL A   1      43.951  31.829  26.893  1.00  0.00     0.040 A 
ATOM     99  F   UNL A   1      42.616  30.688  28.449  1.00  0.00    -0.206 F 
ATOM    100  C   UNL A   1      45.202  32.173  26.387  1.00  0.00     0.006 A 
ENDBRANCH  76  93
ENDBRANCH  50  51
ENDBRANCH  42  45
ENDBRANCH  40  41
ENDBRANCH  39  40
ENDBRANCH   1  39
TORSDOF 16
ENDMDL
MODEL 3
REMARK VINA RESULT:     -12.5      3.169      4.561
REMARK SMILES CCCSc1nc2n(n1)[C@@H](c1ccccc1C(=O)NCCCNC(=O)c1ccc(-c3c4nc(c(-c5c(F)cccc5F)c5ccc([nH]5)c(-c5c(F)cccc5F)c5nc(c(-c6c(F)cccc6F)c6ccc3[nH]6)C=C5)C=C4)cc1)C(C(=O)Nc1cccc(C)c1C)=C(C)N2
REMARK SMILES IDX 20 1 19 2 17 3 18 4 16 6 11 7 12 8 13 9 15 10 14 11 10 12
REMARK SMILES IDX 5 13 6 14 9 15 7 16 8 17 94 18 92 19 80 21 93 22 4 23 3 24
REMARK SMILES IDX 2 25 1 26 81 27 82 28 83 29 84 31 85 32 90 33 86 34 88 35
REMARK SMILES IDX 91 36 87 37 89 38 21 39 22 40 23 41 24 42 25 44 26 45 27 46
REMARK SMILES IDX 79 47 28 48 78 49 29 50 30 51 31 52 72 53 32 54 77 55 71 56
REMARK SMILES IDX 73 57 33 58 76 59 70 60 69 61 34 63 60 64 43 65 59 66 44 67
REMARK SMILES IDX 47 68 58 69 74 70 45 71 46 72 57 74 75 75 48 76 35 77 36 78
REMARK SMILES IDX 41 79 37 80 38 81 40 82 42 83 39 84 61 85 62 86 67 87 63 88
REMARK SMILES IDX 64 89 66 90 68 91 65 92 49 93 50 94 55 95 51 96 52 97 54 98
REMARK SMILES IDX 56 99 53 100
REMARK H PARENT 19 5 94 20 83 30 23 43 73 62 47 73
REMARK Flexibility Score: inf
ROOT
ATOM      1  C   UNL A   1      32.145  29.046  27.251  1.00  0.00     0.118 C 
ENDROOT
BRANCH   1   2
ATOM      2  N   UNL A   1      31.990  27.795  26.525  1.00  0.00    -0.352 N 
ATOM      3  C   UNL A   1      32.381  27.101  25.420  1.00  0.00     0.251 C 
ATOM      4  O   UNL A   1      32.031  25.912  25.523  1.00  0.00    -0.269 OA
ATOM      5  H   UNL A   1      31.358  27.231  27.028  1.00  0.00     0.163 HD
BRANCH   3   6
ATOM      6  C   UNL A   1      33.069  27.508  24.133  1.00  0.00     0.045 A 
ATOM      7  C   UNL A   1      32.859  27.154  22.777  1.00  0.00    -0.006 A 
ATOM      8  C   UNL A   1      33.740  27.693  21.788  1.00  0.00     0.007 A 
ATOM      9  C   UNL A   1      34.779  28.566  22.091  1.00  0.00     0.000 A 
ATOM     10  C   UNL A   1      34.113  28.451  24.384  1.00  0.00     0.014 A 
ATOM     11  C   UNL A   1      34.949  28.972  23.395  1.00  0.00     0.001 A 
BRANCH   7  12
ATOM     12  C   UNL A   1      31.653  26.384  22.253  1.00  0.00     0.180 C 
ATOM     13  C   UNL A   1      28.757  28.208  23.104  1.00  0.00     0.210 A 
ATOM     14  N   UNL A   1      28.475  27.056  23.795  1.00  0.00    -0.185 NA
ATOM     15  N   UNL A   1      29.887  28.178  22.376  1.00  0.00    -0.141 NA
ATOM     16  C   UNL A   1      29.498  26.293  23.533  1.00  0.00     0.227 A 
ATOM     17  N   UNL A   1      30.374  26.961  22.724  1.00  0.00    -0.218 N 
ATOM     18  N   UNL A   1      29.782  25.041  23.925  1.00  0.00    -0.328 N 
ATOM     19  C   UNL A   1      30.875  24.318  23.467  1.00  0.00     0.026 C 
ATOM     20  H   UNL A   1      29.180  24.611  24.575  1.00  0.00     0.169 HD
ATOM     21  C   UNL A   1      31.730  24.878  22.577  1.00  0.00     0.065 C 
ATOM     22  C   UNL A   1      31.009  22.935  24.047  1.00  0.00     0.065 C 
BRANCH  13  23
ATOM     23  S   UNL A   1      27.660  29.556  23.182  1.00  0.00    -0.084 SA
BRANCH  23  24
ATOM     24  C   UNL A   1      28.009  30.516  21.687  1.00  0.00     0.078 C 
BRANCH  24  25
ATOM     25  C   UNL A   1      28.493  31.951  21.908  1.00  0.00     0.008 C 
ATOM     26  C   UNL A   1      28.745  32.305  23.364  1.00  0.00     0.005 C 
ENDBRANCH  24  25
ENDBRANCH  23  24
ENDBRANCH  13  23
BRANCH  21  27
ATOM     27  C   UNL A   1      32.850  24.158  21.921  1.00  0.00     0.255 C 
ATOM     28  O   UNL A   1      33.075  24.343  20.726  1.00  0.00    -0.269 OA
ATOM     29  N   UNL A   1      33.604  23.203  22.550  1.00  0.00    -0.322 N 
ATOM     30  H   UNL A   1      33.829  22.409  22.012  1.00  0.00     0.170 HD
BRANCH  29  31
ATOM     31  C   UNL A   1      34.099  23.213  23.868  1.00  0.00     0.044 A 
ATOM     32  C   UNL A   1      34.778  24.394  24.207  1.00  0.00     0.026 A 
ATOM     33  C   UNL A   1      33.921  22.203  24.830  1.00  0.00    -0.025 A 
ATOM     34  C   UNL A   1      35.152  24.649  25.519  1.00  0.00     0.002 A 
ATOM     35  C   UNL A   1      34.298  22.471  26.171  1.00  0.00    -0.046 A 
ATOM     36  C   UNL A   1      33.432  20.829  24.476  1.00  0.00     0.047 C 
ATOM     37  C   UNL A   1      34.883  23.705  26.500  1.00  0.00     0.004 A 
ATOM     38  C   UNL A   1      34.028  21.513  27.304  1.00  0.00     0.044 C 
ENDBRANCH  29  31
ENDBRANCH  21  27
ENDBRANCH   7  12
ENDBRANCH   3   6
ENDBRANCH   1   2
BRANCH   1  39
ATOM     39  C   UNL A   1      33.442  29.802  26.953  1.00  0.00     0.042 C 
BRANCH  39  40
ATOM     40  C   UNL A   1      34.646  29.293  27.751  1.00  0.00     0.118 C 
BRANCH  40  41
ATOM     41  N   UNL A   1      35.186  30.251  28.724  1.00  0.00    -0.352 N 
ATOM     42  C   UNL A   1      36.372  30.159  29.437  1.00  0.00     0.251 C 
ATOM     43  H   UNL A   1      34.641  31.054  28.890  1.00  0.00     0.163 HD
ATOM     44  O   UNL A   1      36.548  30.758  30.493  1.00  0.00    -0.269 OA
BRANCH  42  45
ATOM     45  C   UNL A   1      37.441  29.334  28.862  1.00  0.00     0.039 A 
ATOM     46  C   UNL A   1      38.105  29.699  27.690  1.00  0.00     0.014 A 
ATOM     47  C   UNL A   1      37.901  28.310  29.677  1.00  0.00     0.014 A 
ATOM     48  C   UNL A   1      39.347  29.126  27.432  1.00  0.00     0.010 A 
ATOM     49  C   UNL A   1      39.193  27.890  29.516  1.00  0.00     0.010 A 
ATOM     50  C   UNL A   1      39.922  28.275  28.392  1.00  0.00    -0.014 A 
BRANCH  50  51
ATOM     51  C   UNL A   1      41.337  27.921  28.321  1.00  0.00     0.031 A 
ATOM     52  C   UNL A   1      41.666  26.702  27.522  1.00  0.00     0.074 A 
ATOM     53  C   UNL A   1      42.331  28.744  28.716  1.00  0.00     0.049 A 
ATOM     54  N   UNL A   1      42.087  25.565  27.965  1.00  0.00    -0.248 NA
ATOM     55  C   UNL A   1      41.395  26.708  26.076  1.00  0.00     0.031 C 
ATOM     56  C   UNL A   1      42.258  30.121  29.216  1.00  0.00     0.029 A 
ATOM     57  N   UNL A   1      43.669  28.525  28.645  1.00  0.00    -0.354 N 
ATOM     58  C   UNL A   1      42.322  24.767  26.847  1.00  0.00     0.074 A 
ATOM     59  C   UNL A   1      41.721  25.458  25.735  1.00  0.00     0.031 C 
ATOM     60  C   UNL A   1      43.482  30.688  29.166  1.00  0.00     0.029 A 
ATOM     61  C   UNL A   1      44.445  29.655  28.839  1.00  0.00     0.049 A 
ATOM     62  H   UNL A   1      44.056  27.637  28.472  1.00  0.00     0.167 HD
ATOM     63  C   UNL A   1      43.178  23.706  26.900  1.00  0.00     0.037 A 
ATOM     64  C   UNL A   1      45.791  29.738  28.740  1.00  0.00     0.037 A 
ATOM     65  C   UNL A   1      43.508  23.375  28.265  1.00  0.00     0.049 A 
ATOM     66  C   UNL A   1      46.325  28.362  28.901  1.00  0.00     0.074 A 
ATOM     67  C   UNL A   1      42.779  23.009  29.381  1.00  0.00     0.029 A 
ATOM     68  N   UNL A   1      44.729  23.786  28.746  1.00  0.00    -0.354 N 
ATOM     69  N   UNL A   1      46.253  27.683  30.014  1.00  0.00    -0.248 NA
ATOM     70  C   UNL A   1      46.521  27.564  27.700  1.00  0.00     0.031 C 
ATOM     71  C   UNL A   1      43.394  23.711  30.462  1.00  0.00     0.029 A 
ATOM     72  C   UNL A   1      44.498  24.397  29.953  1.00  0.00     0.049 A 
ATOM     73  H   UNL A   1      45.602  23.665  28.308  1.00  0.00     0.167 HD
ATOM     74  C   UNL A   1      45.952  26.387  29.621  1.00  0.00     0.074 A 
ATOM     75  C   UNL A   1      46.233  26.353  28.187  1.00  0.00     0.031 C 
ATOM     76  C   UNL A   1      45.236  25.547  30.427  1.00  0.00     0.037 A 
BRANCH  63  77
ATOM     77  C   UNL A   1      44.003  23.184  25.745  1.00  0.00     0.057 A 
ATOM     78  C   UNL A   1      44.008  21.801  25.473  1.00  0.00     0.134 A 
ATOM     79  C   UNL A   1      45.007  23.923  25.089  1.00  0.00     0.134 A 
ATOM     80  F   UNL A   1      43.106  20.984  26.037  1.00  0.00    -0.206 F 
ATOM     81  C   UNL A   1      44.988  21.192  24.679  1.00  0.00     0.040 A 
ATOM     82  C   UNL A   1      45.959  23.331  24.252  1.00  0.00     0.040 A 
ATOM     83  F   UNL A   1      45.186  25.232  25.297  1.00  0.00    -0.206 F 
ATOM     84  C   UNL A   1      45.975  21.957  24.073  1.00  0.00     0.006 A 
ENDBRANCH  63  77
BRANCH  64  85
ATOM     85  C   UNL A   1      46.594  30.882  28.267  1.00  0.00     0.057 A 
ATOM     86  C   UNL A   1      46.579  31.271  26.922  1.00  0.00     0.134 A 
ATOM     87  C   UNL A   1      47.194  31.782  29.168  1.00  0.00     0.134 A 
ATOM     88  F   UNL A   1      46.003  30.493  25.996  1.00  0.00    -0.206 F 
ATOM     89  C   UNL A   1      47.102  32.501  26.501  1.00  0.00     0.040 A 
ATOM     90  C   UNL A   1      47.726  33.009  28.759  1.00  0.00     0.040 A 
ATOM     91  F   UNL A   1      47.204  31.541  30.487  1.00  0.00    -0.206 F 
ATOM     92  C   UNL A   1      47.666  33.380  27.422  1.00  0.00     0.006 A 
ENDBRANCH  64  85
BRANCH  76  93
ATOM     93  C   UNL A   1      44.985  25.970  31.851  1.00  0.00     0.057 A 
ATOM     94  C   UNL A   1      45.902  25.799  32.901  1.00  0.00     0.134 A 
ATOM     95  C   UNL A   1      43.835  26.711  32.144  1.00  0.00     0.134 A 
ATOM     96  F   UNL A   1      47.080  25.201  32.703  1.00  0.00    -0.206 F 
ATOM     97  C   UNL A   1      45.663  26.293  34.187  1.00  0.00     0.040 A 
ATOM     98  C   UNL A   1      43.598  27.240  33.416  1.00  0.00     0.040 A 
ATOM     99  F   UNL A   1      42.937  26.975  31.181  1.00  0.00    -0.206 F 
ATOM    100  C   UNL A   1      44.507  27.021  34.447  1.00  0.00     0.006 A 
ENDBRANCH  76  93
ENDBRANCH  50  51
ENDBRANCH  42  45
ENDBRANCH  40  41
ENDBRANCH  39  40
ENDBRANCH   1  39
TORSDOF 16
ENDMDL
