MODEL 1
REMARK VINA RESULT:     -13.8      0.000      0.000
REMARK SMILES Cc1cccc(N2CCN(c3ncc(NC(=O)c4ccccc4F)cc3C(=O)NCCCNC(=O)c3ccc(-c4c5nc(c(-c6c(F)cccc6F)c6ccc([nH]6)c(-c6c(F)cccc6F)c6nc(c(-c7c(F)cccc7F)c7ccc4[nH]7)C=C6)C=C5)cc3)C[C@@H]2C)c1
REMARK SMILES IDX 31 1 30 2 29 3 27 4 28 5 26 7 11 8 12 9 13 10 25 11 14 12
REMARK SMILES IDX 10 13 7 14 8 15 91 16 9 17 90 18 92 19 6 20 1 21 2 22 3 23
REMARK SMILES IDX 93 24 4 25 5 26 15 27 16 28 17 30 18 31 19 32 23 33 20 34
REMARK SMILES IDX 22 35 24 36 21 37 32 38 33 39 34 40 35 42 36 43 37 44 89 45
REMARK SMILES IDX 38 46 88 47 39 48 40 49 41 50 82 51 42 52 87 53 81 54 83 55
REMARK SMILES IDX 43 56 86 57 80 58 79 59 44 61 70 62 53 63 69 64 54 65 57 66
REMARK SMILES IDX 68 67 84 68 55 69 56 70 67 72 85 73 58 74 45 75 46 76 51 77
REMARK SMILES IDX 47 78 48 79 50 80 52 81 49 82 71 83 72 84 77 85 73 86 74 87
REMARK SMILES IDX 76 88 78 89 75 90 59 91 60 92 65 93 61 94 62 95 64 96 66 97
REMARK SMILES IDX 63 98
REMARK H PARENT 29 6 15 29 33 41 83 60 57 71
REMARK Flexibility Score: inf
ROOT
ATOM      1  C   UNL A   1      34.534  29.162  26.538  1.00  0.00     0.042 C 
ENDROOT
BRANCH   1   2
ATOM      2  C   UNL A   1      33.994  27.792  26.111  1.00  0.00     0.118 C 
BRANCH   2   3
ATOM      3  N   UNL A   1      32.878  27.419  26.960  1.00  0.00    -0.352 N 
ATOM      4  C   UNL A   1      31.764  26.663  26.663  1.00  0.00     0.255 C 
ATOM      5  O   UNL A   1      30.726  26.981  27.237  1.00  0.00    -0.269 OA
ATOM      6  H   UNL A   1      32.922  27.755  27.884  1.00  0.00     0.163 HD
BRANCH   4   7
ATOM      7  C   UNL A   1      31.780  25.565  25.660  1.00  0.00     0.084 A 
ATOM      8  C   UNL A   1      31.467  25.770  24.303  1.00  0.00     0.141 A 
ATOM      9  N   UNL A   1      31.510  24.727  23.423  1.00  0.00    -0.236 NA
ATOM     10  C   UNL A   1      31.860  23.492  23.863  1.00  0.00     0.139 A 
ATOM     11  C   UNL A   1      32.119  24.273  26.070  1.00  0.00     0.045 A 
ATOM     12  C   UNL A   1      32.154  23.212  25.182  1.00  0.00     0.060 A 
BRANCH   8  13
ATOM     13  N   UNL A   1      30.958  26.958  23.818  1.00  0.00    -0.352 N 
ATOM     14  N   UNL A   1      29.800  29.400  22.907  1.00  0.00    -0.365 N 
ATOM     15  C   UNL A   1      28.941  28.294  23.373  1.00  0.00     0.138 C 
ATOM     16  C   UNL A   1      31.214  29.397  23.375  1.00  0.00     0.098 C 
ATOM     17  C   UNL A   1      29.630  26.925  23.187  1.00  0.00     0.139 C 
ATOM     18  C   UNL A   1      31.833  27.975  23.201  1.00  0.00     0.142 C 
ATOM     19  C   UNL A   1      31.290  29.878  24.830  1.00  0.00     0.033 C 
BRANCH  14  20
ATOM     20  C   UNL A   1      29.215  30.603  22.545  1.00  0.00     0.037 A 
ATOM     21  C   UNL A   1      27.677  32.172  19.418  1.00  0.00     0.044 C 
ATOM     22  C   UNL A   1      28.161  31.996  20.826  1.00  0.00    -0.049 A 
ATOM     23  C   UNL A   1      27.915  32.988  21.779  1.00  0.00     0.003 A 
ATOM     24  C   UNL A   1      28.820  30.821  21.217  1.00  0.00     0.029 A 
ATOM     25  C   UNL A   1      28.323  32.805  23.097  1.00  0.00     0.002 A 
ATOM     26  C   UNL A   1      28.961  31.620  23.473  1.00  0.00     0.026 A 
ENDBRANCH  14  20
ENDBRANCH   8  13
BRANCH  12  27
ATOM     27  N   UNL A   1      32.446  21.948  25.716  1.00  0.00    -0.320 N 
ATOM     28  C   UNL A   1      33.607  21.217  25.705  1.00  0.00     0.258 C 
ATOM     29  H   UNL A   1      31.692  21.513  26.176  1.00  0.00     0.170 HD
ATOM     30  O   UNL A   1      33.564  20.012  25.946  1.00  0.00    -0.269 OA
BRANCH  28  31
ATOM     31  C   UNL A   1      34.919  21.865  25.525  1.00  0.00     0.075 A 
ATOM     32  C   UNL A   1      35.721  21.457  24.453  1.00  0.00     0.017 A 
ATOM     33  C   UNL A   1      35.425  22.780  26.450  1.00  0.00     0.135 A 
ATOM     34  C   UNL A   1      36.989  22.014  24.282  1.00  0.00     0.001 A 
ATOM     35  C   UNL A   1      36.678  23.356  26.269  1.00  0.00     0.040 A 
ATOM     36  F   UNL A   1      34.741  23.104  27.558  1.00  0.00    -0.206 F 
ATOM     37  C   UNL A   1      37.460  22.976  25.179  1.00  0.00     0.003 A 
ENDBRANCH  28  31
ENDBRANCH  12  27
ENDBRANCH   4   7
ENDBRANCH   2   3
ENDBRANCH   1   2
BRANCH   1  38
ATOM     38  C   UNL A   1      34.274  29.496  27.997  1.00  0.00     0.118 C 
BRANCH  38  39
ATOM     39  N   UNL A   1      34.964  30.701  28.443  1.00  0.00    -0.352 N 
ATOM     40  C   UNL A   1      36.313  30.870  28.718  1.00  0.00     0.251 C 
ATOM     41  H   UNL A   1      34.398  31.497  28.568  1.00  0.00     0.163 HD
ATOM     42  O   UNL A   1      36.759  31.952  29.024  1.00  0.00    -0.269 OA
BRANCH  40  43
ATOM     43  C   UNL A   1      37.210  29.714  28.480  1.00  0.00     0.039 A 
ATOM     44  C   UNL A   1      37.401  28.832  29.545  1.00  0.00     0.014 A 
ATOM     45  C   UNL A   1      38.053  29.701  27.372  1.00  0.00     0.014 A 
ATOM     46  C   UNL A   1      38.596  28.130  29.626  1.00  0.00     0.010 A 
ATOM     47  C   UNL A   1      39.278  29.081  27.494  1.00  0.00     0.010 A 
ATOM     48  C   UNL A   1      39.573  28.364  28.659  1.00  0.00    -0.014 A 
BRANCH  48  49
ATOM     49  C   UNL A   1      40.961  27.972  28.844  1.00  0.00     0.031 A 
ATOM     50  C   UNL A   1      41.427  26.681  28.316  1.00  0.00     0.074 A 
ATOM     51  C   UNL A   1      41.813  28.812  29.469  1.00  0.00     0.049 A 
ATOM     52  N   UNL A   1      42.413  26.006  28.797  1.00  0.00    -0.248 NA
ATOM     53  C   UNL A   1      40.752  26.014  27.212  1.00  0.00     0.031 C 
ATOM     54  C   UNL A   1      43.264  28.698  29.575  1.00  0.00     0.029 A 
ATOM     55  N   UNL A   1      41.480  29.856  30.343  1.00  0.00    -0.354 N 
ATOM     56  C   UNL A   1      42.692  24.989  27.912  1.00  0.00     0.074 A 
ATOM     57  C   UNL A   1      41.570  24.980  27.002  1.00  0.00     0.031 C 
ATOM     58  C   UNL A   1      43.673  29.395  30.647  1.00  0.00     0.029 A 
ATOM     59  C   UNL A   1      42.480  29.855  31.339  1.00  0.00     0.049 A 
ATOM     60  H   UNL A   1      40.708  30.465  30.276  1.00  0.00     0.167 HD
ATOM     61  C   UNL A   1      43.916  24.387  27.965  1.00  0.00     0.037 A 
ATOM     62  C   UNL A   1      42.177  29.586  32.642  1.00  0.00     0.037 A 
ATOM     63  C   UNL A   1      44.681  24.872  29.118  1.00  0.00     0.049 A 
ATOM     64  C   UNL A   1      42.908  28.384  33.194  1.00  0.00     0.074 A 
ATOM     65  C   UNL A   1      45.680  25.826  29.243  1.00  0.00     0.029 A 
ATOM     66  N   UNL A   1      44.231  24.608  30.410  1.00  0.00    -0.354 N 
ATOM     67  N   UNL A   1      43.424  27.440  32.456  1.00  0.00    -0.248 NA
ATOM     68  C   UNL A   1      43.099  28.145  34.622  1.00  0.00     0.031 C 
ATOM     69  C   UNL A   1      45.785  26.179  30.611  1.00  0.00     0.029 A 
ATOM     70  C   UNL A   1      44.869  25.426  31.324  1.00  0.00     0.049 A 
ATOM     71  H   UNL A   1      43.552  23.933  30.638  1.00  0.00     0.167 HD
ATOM     72  C   UNL A   1      43.983  26.481  33.262  1.00  0.00     0.074 A 
ATOM     73  C   UNL A   1      43.775  26.983  34.608  1.00  0.00     0.031 C 
ATOM     74  C   UNL A   1      44.560  25.353  32.747  1.00  0.00     0.037 A 
BRANCH  61  75
ATOM     75  C   UNL A   1      44.538  23.639  26.797  1.00  0.00     0.057 A 
ATOM     76  C   UNL A   1      44.069  22.361  26.429  1.00  0.00     0.134 A 
ATOM     77  C   UNL A   1      45.648  24.069  26.049  1.00  0.00     0.134 A 
ATOM     78  F   UNL A   1      42.941  21.849  26.937  1.00  0.00    -0.206 F 
ATOM     79  C   UNL A   1      44.733  21.533  25.510  1.00  0.00     0.040 A 
ATOM     80  C   UNL A   1      46.353  23.236  25.166  1.00  0.00     0.040 A 
ATOM     81  F   UNL A   1      46.068  25.337  26.075  1.00  0.00    -0.206 F 
ATOM     82  C   UNL A   1      45.906  21.951  24.907  1.00  0.00     0.006 A 
ENDBRANCH  61  75
BRANCH  62  83
ATOM     83  C   UNL A   1      40.801  30.000  33.026  1.00  0.00     0.057 A 
ATOM     84  C   UNL A   1      40.501  31.375  33.086  1.00  0.00     0.134 A 
ATOM     85  C   UNL A   1      39.719  29.117  32.966  1.00  0.00     0.134 A 
ATOM     86  F   UNL A   1      41.491  32.279  33.149  1.00  0.00    -0.206 F 
ATOM     87  C   UNL A   1      39.193  31.853  32.963  1.00  0.00     0.040 A 
ATOM     88  C   UNL A   1      38.404  29.586  32.862  1.00  0.00     0.040 A 
ATOM     89  F   UNL A   1      39.920  27.794  32.894  1.00  0.00    -0.206 F 
ATOM     90  C   UNL A   1      38.142  30.956  32.816  1.00  0.00     0.006 A 
ENDBRANCH  62  83
BRANCH  74  91
ATOM     91  C   UNL A   1      44.985  24.124  33.525  1.00  0.00     0.057 A 
ATOM     92  C   UNL A   1      44.231  22.947  33.635  1.00  0.00     0.134 A 
ATOM     93  C   UNL A   1      46.280  24.047  34.093  1.00  0.00     0.134 A 
ATOM     94  F   UNL A   1      43.039  22.814  33.040  1.00  0.00    -0.206 F 
ATOM     95  C   UNL A   1      44.694  21.811  34.316  1.00  0.00     0.040 A 
ATOM     96  C   UNL A   1      46.775  22.900  34.720  1.00  0.00     0.040 A 
ATOM     97  F   UNL A   1      47.139  25.076  34.041  1.00  0.00    -0.206 F 
ATOM     98  C   UNL A   1      45.974  21.779  34.852  1.00  0.00     0.006 A 
ENDBRANCH  74  91
ENDBRANCH  48  49
ENDBRANCH  40  43
ENDBRANCH  38  39
ENDBRANCH   1  38
TORSDOF 14
ENDMDL
MODEL 2
REMARK VINA RESULT:     -13.6      3.844      9.968
REMARK SMILES Cc1cccc(N2CCN(c3ncc(NC(=O)c4ccccc4F)cc3C(=O)NCCCNC(=O)c3ccc(-c4c5nc(c(-c6c(F)cccc6F)c6ccc([nH]6)c(-c6c(F)cccc6F)c6nc(c(-c7c(F)cccc7F)c7ccc4[nH]7)C=C6)C=C5)cc3)C[C@@H]2C)c1
REMARK SMILES IDX 31 1 30 2 29 3 27 4 28 5 26 7 11 8 12 9 13 10 25 11 14 12
REMARK SMILES IDX 10 13 7 14 8 15 91 16 9 17 90 18 92 19 6 20 1 21 2 22 3 23
REMARK SMILES IDX 93 24 4 25 5 26 15 27 16 28 17 30 18 31 19 32 23 33 20 34
REMARK SMILES IDX 22 35 24 36 21 37 32 38 33 39 34 40 35 42 36 43 37 44 89 45
REMARK SMILES IDX 38 46 88 47 39 48 40 49 41 50 82 51 42 52 87 53 81 54 83 55
REMARK SMILES IDX 43 56 86 57 80 58 79 59 44 61 70 62 53 63 69 64 54 65 57 66
REMARK SMILES IDX 68 67 84 68 55 69 56 70 67 72 85 73 58 74 45 75 46 76 51 77
REMARK SMILES IDX 47 78 48 79 50 80 52 81 49 82 71 83 72 84 77 85 73 86 74 87
REMARK SMILES IDX 76 88 78 89 75 90 59 91 60 92 65 93 61 94 62 95 64 96 66 97
REMARK SMILES IDX 63 98
REMARK H PARENT 29 6 15 29 33 41 83 60 57 71
REMARK Flexibility Score: inf
ROOT
ATOM      1  C   UNL A   1      37.207  23.381  24.783  1.00  0.00     0.042 C 
ENDROOT
BRANCH   1   2
ATOM      2  C   UNL A   1      35.832  24.056  24.707  1.00  0.00     0.118 C 
BRANCH   2   3
ATOM      3  N   UNL A   1      35.384  24.102  23.328  1.00  0.00    -0.352 N 
ATOM      4  C   UNL A   1      34.107  24.016  22.816  1.00  0.00     0.255 C 
ATOM      5  O   UNL A   1      33.997  23.461  21.727  1.00  0.00    -0.269 OA
ATOM      6  H   UNL A   1      36.097  24.209  22.658  1.00  0.00     0.163 HD
BRANCH   4   7
ATOM      7  C   UNL A   1      32.911  24.501  23.554  1.00  0.00     0.084 A 
ATOM      8  C   UNL A   1      32.204  23.699  24.471  1.00  0.00     0.141 A 
ATOM      9  N   UNL A   1      31.119  24.201  25.129  1.00  0.00    -0.236 NA
ATOM     10  C   UNL A   1      30.726  25.479  24.899  1.00  0.00     0.139 A 
ATOM     11  C   UNL A   1      32.459  25.806  23.337  1.00  0.00     0.045 A 
ATOM     12  C   UNL A   1      31.354  26.314  23.997  1.00  0.00     0.060 A 
BRANCH   8  13
ATOM     13  N   UNL A   1      32.453  22.351  24.639  1.00  0.00    -0.352 N 
ATOM     14  N   UNL A   1      33.032  19.569  24.864  1.00  0.00    -0.365 N 
ATOM     15  C   UNL A   1      32.794  20.177  23.541  1.00  0.00     0.138 C 
ATOM     16  C   UNL A   1      33.440  20.486  25.964  1.00  0.00     0.098 C 
ATOM     17  C   UNL A   1      31.890  21.424  23.645  1.00  0.00     0.139 C 
ATOM     18  C   UNL A   1      32.516  21.744  25.983  1.00  0.00     0.142 C 
ATOM     19  C   UNL A   1      34.919  20.868  25.813  1.00  0.00     0.033 C 
BRANCH  14  20
ATOM     20  C   UNL A   1      33.390  18.231  24.938  1.00  0.00     0.037 A 
ATOM     21  C   UNL A   1      31.905  14.977  26.283  1.00  0.00     0.044 C 
ATOM     22  C   UNL A   1      32.850  15.945  25.637  1.00  0.00    -0.049 A 
ATOM     23  C   UNL A   1      34.013  15.480  25.018  1.00  0.00     0.003 A 
ATOM     24  C   UNL A   1      32.559  17.317  25.602  1.00  0.00     0.029 A 
ATOM     25  C   UNL A   1      34.867  16.373  24.377  1.00  0.00     0.002 A 
ATOM     26  C   UNL A   1      34.551  17.734  24.335  1.00  0.00     0.026 A 
ENDBRANCH  14  20
ENDBRANCH   8  13
BRANCH  12  27
ATOM     27  N   UNL A   1      30.954  27.615  23.654  1.00  0.00    -0.320 N 
ATOM     28  C   UNL A   1      31.103  28.803  24.323  1.00  0.00     0.258 C 
ATOM     29  H   UNL A   1      30.489  27.686  22.789  1.00  0.00     0.170 HD
ATOM     30  O   UNL A   1      30.408  29.766  24.005  1.00  0.00    -0.269 OA
BRANCH  28  31
ATOM     31  C   UNL A   1      32.158  28.985  25.337  1.00  0.00     0.075 A 
ATOM     32  C   UNL A   1      31.779  29.360  26.631  1.00  0.00     0.017 A 
ATOM     33  C   UNL A   1      33.515  28.907  25.015  1.00  0.00     0.135 A 
ATOM     34  C   UNL A   1      32.756  29.589  27.602  1.00  0.00     0.001 A 
ATOM     35  C   UNL A   1      34.489  29.110  25.986  1.00  0.00     0.040 A 
ATOM     36  F   UNL A   1      33.922  28.674  23.758  1.00  0.00    -0.206 F 
ATOM     37  C   UNL A   1      34.109  29.447  27.284  1.00  0.00     0.003 A 
ENDBRANCH  28  31
ENDBRANCH  12  27
ENDBRANCH   4   7
ENDBRANCH   2   3
ENDBRANCH   1   2
BRANCH   1  38
ATOM     38  C   UNL A   1      37.788  23.330  26.186  1.00  0.00     0.118 C 
BRANCH  38  39
ATOM     39  N   UNL A   1      39.244  23.255  26.204  1.00  0.00    -0.352 N 
ATOM     40  C   UNL A   1      40.150  24.201  26.659  1.00  0.00     0.251 C 
ATOM     41  H   UNL A   1      39.634  22.426  25.844  1.00  0.00     0.163 HD
ATOM     42  O   UNL A   1      41.338  23.977  26.669  1.00  0.00    -0.269 OA
BRANCH  40  43
ATOM     43  C   UNL A   1      39.601  25.437  27.269  1.00  0.00     0.039 A 
ATOM     44  C   UNL A   1      39.774  26.624  26.556  1.00  0.00     0.014 A 
ATOM     45  C   UNL A   1      39.230  25.447  28.611  1.00  0.00     0.014 A 
ATOM     46  C   UNL A   1      39.848  27.820  27.258  1.00  0.00     0.010 A 
ATOM     47  C   UNL A   1      39.396  26.616  29.322  1.00  0.00     0.010 A 
ATOM     48  C   UNL A   1      39.783  27.781  28.650  1.00  0.00    -0.014 A 
BRANCH  48  49
ATOM     49  C   UNL A   1      40.204  28.898  29.481  1.00  0.00     0.031 A 
ATOM     50  C   UNL A   1      39.237  29.949  29.828  1.00  0.00     0.074 A 
ATOM     51  C   UNL A   1      41.469  28.938  29.951  1.00  0.00     0.049 A 
ATOM     52  N   UNL A   1      39.549  31.168  30.104  1.00  0.00    -0.248 NA
ATOM     53  C   UNL A   1      37.802  29.704  29.826  1.00  0.00     0.031 C 
ATOM     54  C   UNL A   1      42.024  29.849  30.948  1.00  0.00     0.029 A 
ATOM     55  N   UNL A   1      42.585  28.268  29.431  1.00  0.00    -0.354 N 
ATOM     56  C   UNL A   1      38.421  31.784  30.598  1.00  0.00     0.074 A 
ATOM     57  C   UNL A   1      37.347  30.863  30.308  1.00  0.00     0.031 C 
ATOM     58  C   UNL A   1      43.354  29.916  30.776  1.00  0.00     0.029 A 
ATOM     59  C   UNL A   1      43.669  29.162  29.574  1.00  0.00     0.049 A 
ATOM     60  H   UNL A   1      42.609  27.362  29.046  1.00  0.00     0.167 HD
ATOM     61  C   UNL A   1      38.562  32.927  31.332  1.00  0.00     0.037 A 
ATOM     62  C   UNL A   1      44.320  29.661  28.484  1.00  0.00     0.037 A 
ATOM     63  C   UNL A   1      39.957  33.376  31.325  1.00  0.00     0.049 A 
ATOM     64  C   UNL A   1      44.272  31.168  28.392  1.00  0.00     0.074 A 
ATOM     65  C   UNL A   1      40.990  33.234  32.240  1.00  0.00     0.029 A 
ATOM     66  N   UNL A   1      40.547  33.788  30.133  1.00  0.00    -0.354 N 
ATOM     67  N   UNL A   1      43.381  31.909  28.992  1.00  0.00    -0.248 NA
ATOM     68  C   UNL A   1      45.215  31.957  27.605  1.00  0.00     0.031 C 
ATOM     69  C   UNL A   1      42.211  33.502  31.574  1.00  0.00     0.029 A 
ATOM     70  C   UNL A   1      41.923  33.831  30.260  1.00  0.00     0.049 A 
ATOM     71  H   UNL A   1      40.052  34.016  29.313  1.00  0.00     0.167 HD
ATOM     72  C   UNL A   1      43.593  33.228  28.678  1.00  0.00     0.074 A 
ATOM     73  C   UNL A   1      44.769  33.205  27.827  1.00  0.00     0.031 C 
ATOM     74  C   UNL A   1      42.774  34.220  29.142  1.00  0.00     0.037 A 
BRANCH  61  75
ATOM     75  C   UNL A   1      37.522  33.424  32.324  1.00  0.00     0.057 A 
ATOM     76  C   UNL A   1      36.381  34.124  31.879  1.00  0.00     0.134 A 
ATOM     77  C   UNL A   1      37.615  33.329  33.723  1.00  0.00     0.134 A 
ATOM     78  F   UNL A   1      36.056  34.195  30.583  1.00  0.00    -0.206 F 
ATOM     79  C   UNL A   1      35.503  34.792  32.747  1.00  0.00     0.040 A 
ATOM     80  C   UNL A   1      36.777  34.031  34.602  1.00  0.00     0.040 A 
ATOM     81  F   UNL A   1      38.475  32.495  34.318  1.00  0.00    -0.206 F 
ATOM     82  C   UNL A   1      35.724  34.786  34.114  1.00  0.00     0.006 A 
ENDBRANCH  61  75
BRANCH  62  83
ATOM     83  C   UNL A   1      44.319  28.733  27.320  1.00  0.00     0.057 A 
ATOM     84  C   UNL A   1      45.171  27.612  27.350  1.00  0.00     0.134 A 
ATOM     85  C   UNL A   1      43.276  28.713  26.391  1.00  0.00     0.134 A 
ATOM     86  F   UNL A   1      46.196  27.566  28.215  1.00  0.00    -0.206 F 
ATOM     87  C   UNL A   1      44.919  26.472  26.582  1.00  0.00     0.040 A 
ATOM     88  C   UNL A   1      43.026  27.582  25.604  1.00  0.00     0.040 A 
ATOM     89  F   UNL A   1      42.414  29.736  26.308  1.00  0.00    -0.206 F 
ATOM     90  C   UNL A   1      43.821  26.443  25.730  1.00  0.00     0.006 A 
ENDBRANCH  62  83
BRANCH  74  91
ATOM     91  C   UNL A   1      42.756  35.662  28.676  1.00  0.00     0.057 A 
ATOM     92  C   UNL A   1      43.203  36.753  29.436  1.00  0.00     0.134 A 
ATOM     93  C   UNL A   1      42.398  35.981  27.344  1.00  0.00     0.134 A 
ATOM     94  F   UNL A   1      43.696  36.599  30.671  1.00  0.00    -0.206 F 
ATOM     95  C   UNL A   1      43.224  38.065  28.939  1.00  0.00     0.040 A 
ATOM     96  C   UNL A   1      42.473  37.274  26.819  1.00  0.00     0.040 A 
ATOM     97  F   UNL A   1      41.984  35.044  26.478  1.00  0.00    -0.206 F 
ATOM     98  C   UNL A   1      42.869  38.329  27.623  1.00  0.00     0.006 A 
ENDBRANCH  74  91
ENDBRANCH  48  49
ENDBRANCH  40  43
ENDBRANCH  38  39
ENDBRANCH   1  38
TORSDOF 14
ENDMDL
MODEL 3
REMARK VINA RESULT:     -13.5      1.824      2.956
REMARK SMILES Cc1cccc(N2CCN(c3ncc(NC(=O)c4ccccc4F)cc3C(=O)NCCCNC(=O)c3ccc(-c4c5nc(c(-c6c(F)cccc6F)c6ccc([nH]6)c(-c6c(F)cccc6F)c6nc(c(-c7c(F)cccc7F)c7ccc4[nH]7)C=C6)C=C5)cc3)C[C@@H]2C)c1
REMARK SMILES IDX 31 1 30 2 29 3 27 4 28 5 26 7 11 8 12 9 13 10 25 11 14 12
REMARK SMILES IDX 10 13 7 14 8 15 91 16 9 17 90 18 92 19 6 20 1 21 2 22 3 23
REMARK SMILES IDX 93 24 4 25 5 26 15 27 16 28 17 30 18 31 19 32 23 33 20 34
REMARK SMILES IDX 22 35 24 36 21 37 32 38 33 39 34 40 35 42 36 43 37 44 89 45
REMARK SMILES IDX 38 46 88 47 39 48 40 49 41 50 82 51 42 52 87 53 81 54 83 55
REMARK SMILES IDX 43 56 86 57 80 58 79 59 44 61 70 62 53 63 69 64 54 65 57 66
REMARK SMILES IDX 68 67 84 68 55 69 56 70 67 72 85 73 58 74 45 75 46 76 51 77
REMARK SMILES IDX 47 78 48 79 50 80 52 81 49 82 71 83 72 84 77 85 73 86 74 87
REMARK SMILES IDX 76 88 78 89 75 90 59 91 60 92 65 93 61 94 62 95 64 96 66 97
REMARK SMILES IDX 63 98
REMARK H PARENT 29 6 15 29 33 41 83 60 57 71
REMARK Flexibility Score: inf
ROOT
ATOM      1  C   UNL A   1      34.933  28.831  26.407  1.00  0.00     0.042 C 
ENDROOT
BRANCH   1   2
ATOM      2  C   UNL A   1      34.077  27.649  25.936  1.00  0.00     0.118 C 
BRANCH   2   3
ATOM      3  N   UNL A   1      32.998  27.419  26.878  1.00  0.00    -0.352 N 
ATOM      4  C   UNL A   1      31.842  26.684  26.726  1.00  0.00     0.255 C 
ATOM      5  O   UNL A   1      30.850  27.108  27.314  1.00  0.00    -0.269 OA
ATOM      6  H   UNL A   1      33.106  27.853  27.755  1.00  0.00     0.163 HD
BRANCH   4   7
ATOM      7  C   UNL A   1      31.761  25.484  25.852  1.00  0.00     0.084 A 
ATOM      8  C   UNL A   1      31.357  25.549  24.505  1.00  0.00     0.141 A 
ATOM      9  N   UNL A   1      31.313  24.415  23.746  1.00  0.00    -0.236 NA
ATOM     10  C   UNL A   1      31.664  23.225  24.295  1.00  0.00     0.139 A 
ATOM     11  C   UNL A   1      32.097  24.234  26.380  1.00  0.00     0.045 A 
ATOM     12  C   UNL A   1      32.043  23.082  25.614  1.00  0.00     0.060 A 
BRANCH   8  13
ATOM     13  N   UNL A   1      30.844  26.692  23.926  1.00  0.00    -0.352 N 
ATOM     14  N   UNL A   1      29.683  29.054  22.829  1.00  0.00    -0.365 N 
ATOM     15  C   UNL A   1      28.833  28.030  23.466  1.00  0.00     0.138 C 
ATOM     16  C   UNL A   1      31.125  29.061  23.204  1.00  0.00     0.098 C 
ATOM     17  C   UNL A   1      29.477  26.630  23.388  1.00  0.00     0.139 C 
ATOM     18  C   UNL A   1      31.699  27.610  23.148  1.00  0.00     0.142 C 
ATOM     19  C   UNL A   1      31.307  29.693  24.591  1.00  0.00     0.033 C 
BRANCH  14  20
ATOM     20  C   UNL A   1      29.102  30.229  22.375  1.00  0.00     0.037 A 
ATOM     21  C   UNL A   1      29.074  33.925  23.341  1.00  0.00     0.044 C 
ATOM     22  C   UNL A   1      28.785  32.647  22.614  1.00  0.00    -0.049 A 
ATOM     23  C   UNL A   1      28.039  32.667  21.432  1.00  0.00     0.003 A 
ATOM     24  C   UNL A   1      29.296  31.425  23.079  1.00  0.00     0.029 A 
ATOM     25  C   UNL A   1      27.811  31.486  20.732  1.00  0.00     0.002 A 
ATOM     26  C   UNL A   1      28.344  30.281  21.199  1.00  0.00     0.026 A 
ENDBRANCH  14  20
ENDBRANCH   8  13
BRANCH  12  27
ATOM     27  N   UNL A   1      32.342  21.875  26.265  1.00  0.00    -0.320 N 
ATOM     28  C   UNL A   1      33.463  21.086  26.219  1.00  0.00     0.258 C 
ATOM     29  H   UNL A   1      31.627  21.538  26.853  1.00  0.00     0.170 HD
ATOM     30  O   UNL A   1      33.399  19.921  26.609  1.00  0.00    -0.269 OA
BRANCH  28  31
ATOM     31  C   UNL A   1      34.772  21.637  25.822  1.00  0.00     0.075 A 
ATOM     32  C   UNL A   1      35.450  21.035  24.756  1.00  0.00     0.017 A 
ATOM     33  C   UNL A   1      35.396  22.655  26.545  1.00  0.00     0.135 A 
ATOM     34  C   UNL A   1      36.714  21.499  24.386  1.00  0.00     0.001 A 
ATOM     35  C   UNL A   1      36.644  23.136  26.163  1.00  0.00     0.040 A 
ATOM     36  F   UNL A   1      34.835  23.173  27.648  1.00  0.00    -0.206 F 
ATOM     37  C   UNL A   1      37.302  22.560  25.078  1.00  0.00     0.003 A 
ENDBRANCH  28  31
ENDBRANCH  12  27
ENDBRANCH   4   7
ENDBRANCH   2   3
ENDBRANCH   1   2
BRANCH   1  38
ATOM     38  C   UNL A   1      34.510  29.397  27.751  1.00  0.00     0.118 C 
BRANCH  38  39
ATOM     39  N   UNL A   1      33.717  30.616  27.639  1.00  0.00    -0.352 N 
ATOM     40  C   UNL A   1      33.967  31.861  28.198  1.00  0.00     0.251 C 
ATOM     41  H   UNL A   1      32.898  30.545  27.097  1.00  0.00     0.163 HD
ATOM     42  O   UNL A   1      33.248  32.806  27.968  1.00  0.00    -0.269 OA
BRANCH  40  43
ATOM     43  C   UNL A   1      35.224  32.026  28.967  1.00  0.00     0.039 A 
ATOM     44  C   UNL A   1      36.205  32.845  28.406  1.00  0.00     0.014 A 
ATOM     45  C   UNL A   1      35.519  31.160  30.017  1.00  0.00     0.014 A 
ATOM     46  C   UNL A   1      37.537  32.595  28.707  1.00  0.00     0.010 A 
ATOM     47  C   UNL A   1      36.841  30.846  30.247  1.00  0.00     0.010 A 
ATOM     48  C   UNL A   1      37.841  31.511  29.530  1.00  0.00    -0.014 A 
BRANCH  48  49
ATOM     49  C   UNL A   1      39.181  30.949  29.615  1.00  0.00     0.031 A 
ATOM     50  C   UNL A   1      39.439  29.605  29.080  1.00  0.00     0.074 A 
ATOM     51  C   UNL A   1      40.177  31.683  30.155  1.00  0.00     0.049 A 
ATOM     52  N   UNL A   1      40.368  28.817  29.497  1.00  0.00    -0.248 NA
ATOM     53  C   UNL A   1      38.601  29.016  28.045  1.00  0.00     0.031 C 
ATOM     54  C   UNL A   1      41.607  31.389  30.152  1.00  0.00     0.029 A 
ATOM     55  N   UNL A   1      40.046  32.770  31.031  1.00  0.00    -0.354 N 
ATOM     56  C   UNL A   1      40.448  27.763  28.614  1.00  0.00     0.074 A 
ATOM     57  C   UNL A   1      39.265  27.885  27.794  1.00  0.00     0.031 C 
ATOM     58  C   UNL A   1      42.182  32.040  31.175  1.00  0.00     0.029 A 
ATOM     59  C   UNL A   1      41.114  32.653  31.947  1.00  0.00     0.049 A 
ATOM     60  H   UNL A   1      39.353  33.469  31.011  1.00  0.00     0.167 HD
ATOM     61  C   UNL A   1      41.588  27.012  28.586  1.00  0.00     0.037 A 
ATOM     62  C   UNL A   1      40.885  32.439  33.275  1.00  0.00     0.037 A 
ATOM     63  C   UNL A   1      42.495  27.410  29.666  1.00  0.00     0.049 A 
ATOM     64  C   UNL A   1      41.501  31.161  33.793  1.00  0.00     0.074 A 
ATOM     65  C   UNL A   1      43.612  28.232  29.693  1.00  0.00     0.029 A 
ATOM     66  N   UNL A   1      42.120  27.218  30.993  1.00  0.00    -0.354 N 
ATOM     67  N   UNL A   1      41.836  30.152  33.037  1.00  0.00    -0.248 NA
ATOM     68  C   UNL A   1      41.774  30.915  35.206  1.00  0.00     0.031 C 
ATOM     69  C   UNL A   1      43.868  28.584  31.041  1.00  0.00     0.029 A 
ATOM     70  C   UNL A   1      42.925  27.959  31.838  1.00  0.00     0.049 A 
ATOM     71  H   UNL A   1      41.382  26.636  31.287  1.00  0.00     0.167 HD
ATOM     72  C   UNL A   1      42.333  29.138  33.817  1.00  0.00     0.074 A 
ATOM     73  C   UNL A   1      42.296  29.677  35.164  1.00  0.00     0.031 C 
ATOM     74  C   UNL A   1      42.723  27.941  33.282  1.00  0.00     0.037 A 
BRANCH  61  75
ATOM     75  C   UNL A   1      42.018  26.179  27.389  1.00  0.00     0.057 A 
ATOM     76  C   UNL A   1      42.223  24.790  27.515  1.00  0.00     0.134 A 
ATOM     77  C   UNL A   1      42.330  26.681  26.113  1.00  0.00     0.134 A 
ATOM     78  F   UNL A   1      41.850  24.117  28.611  1.00  0.00    -0.206 F 
ATOM     79  C   UNL A   1      42.822  24.007  26.516  1.00  0.00     0.040 A 
ATOM     80  C   UNL A   1      42.976  25.925  25.123  1.00  0.00     0.040 A 
ATOM     81  F   UNL A   1      41.964  27.907  25.728  1.00  0.00    -0.206 F 
ATOM     82  C   UNL A   1      43.244  24.582  25.330  1.00  0.00     0.006 A 
ENDBRANCH  61  75
BRANCH  62  83
ATOM     83  C   UNL A   1      39.605  33.027  33.754  1.00  0.00     0.057 A 
ATOM     84  C   UNL A   1      38.475  32.192  33.858  1.00  0.00     0.134 A 
ATOM     85  C   UNL A   1      39.561  34.242  34.443  1.00  0.00     0.134 A 
ATOM     86  F   UNL A   1      38.448  31.012  33.220  1.00  0.00    -0.206 F 
ATOM     87  C   UNL A   1      37.408  32.494  34.709  1.00  0.00     0.040 A 
ATOM     88  C   UNL A   1      38.487  34.562  35.283  1.00  0.00     0.040 A 
ATOM     89  F   UNL A   1      40.600  35.087  34.405  1.00  0.00    -0.206 F 
ATOM     90  C   UNL A   1      37.429  33.668  35.452  1.00  0.00     0.006 A 
ENDBRANCH  62  83
BRANCH  74  91
ATOM     91  C   UNL A   1      43.052  26.677  34.051  1.00  0.00     0.057 A 
ATOM     92  C   UNL A   1      42.128  25.932  34.798  1.00  0.00     0.134 A 
ATOM     93  C   UNL A   1      44.333  26.083  33.939  1.00  0.00     0.134 A 
ATOM     94  F   UNL A   1      40.842  26.292  34.891  1.00  0.00    -0.206 F 
ATOM     95  C   UNL A   1      42.466  24.733  35.442  1.00  0.00     0.040 A 
ATOM     96  C   UNL A   1      44.663  24.858  34.526  1.00  0.00     0.040 A 
ATOM     97  F   UNL A   1      45.318  26.652  33.229  1.00  0.00    -0.206 F 
ATOM     98  C   UNL A   1      43.733  24.185  35.299  1.00  0.00     0.006 A 
ENDBRANCH  74  91
ENDBRANCH  48  49
ENDBRANCH  40  43
ENDBRANCH  38  39
ENDBRANCH   1  38
TORSDOF 14
ENDMDL
