MODEL 1
REMARK VINA RESULT:     -12.0      0.000      0.000
REMARK SMILES O=C(NCCCNC(=O)c1ccc(F)cc1NC(=O)[C@H]1CCS(=O)(=O)C1)c1ccc(-c2c3nc(c(-c4c(F)cccc4F)c4ccc([nH]4)c(-c4c(F)cccc4F)c4nc(c(-c5c(F)cccc5F)c5ccc2[nH]5)C=C4)C=C3)cc1
REMARK SMILES IDX 5 1 4 2 3 3 1 4 2 5 27 7 28 8 80 9 29 10 79 11 30 12 31 13
REMARK SMILES IDX 32 14 73 15 33 16 78 17 72 18 74 19 34 20 77 21 71 22 70 23
REMARK SMILES IDX 35 25 61 26 44 27 60 28 45 29 48 30 59 31 75 32 46 33 47 34
REMARK SMILES IDX 58 36 76 37 49 38 36 39 37 40 42 41 38 42 39 43 41 44 43 45
REMARK SMILES IDX 40 46 62 47 63 48 68 49 64 50 65 51 67 52 69 53 66 54 50 55
REMARK SMILES IDX 51 56 56 57 52 58 53 59 55 60 57 61 54 62 6 63 7 64 8 65
REMARK SMILES IDX 9 67 10 68 11 69 16 70 12 71 15 72 13 73 14 74 17 75 18 76
REMARK SMILES IDX 19 78 20 79 21 80 26 81 22 82 23 83 24 84 25 85
REMARK H PARENT 3 6 74 24 48 35 7 66 17 77
REMARK Flexibility Score: inf
ROOT
ATOM      1  C   UNL A   1      37.894  19.551  25.001  1.00  0.00     0.042 C 
ENDROOT
BRANCH   1   2
ATOM      2  C   UNL A   1      39.076  20.127  25.763  1.00  0.00     0.118 C 
BRANCH   2   3
ATOM      3  N   UNL A   1      40.208  19.211  25.837  1.00  0.00    -0.352 N 
ATOM      4  O   UNL A   1      42.360  18.564  25.968  1.00  0.00    -0.269 OA
ATOM      5  C   UNL A   1      41.530  19.453  26.125  1.00  0.00     0.251 C 
ATOM      6  H   UNL A   1      39.990  18.270  25.651  1.00  0.00     0.163 HD
BRANCH   5   7
ATOM      7  C   UNL A   1      41.957  20.789  26.592  1.00  0.00     0.039 A 
ATOM      8  C   UNL A   1      42.013  21.084  27.953  1.00  0.00     0.014 A 
ATOM      9  C   UNL A   1      42.313  21.762  25.652  1.00  0.00     0.014 A 
ATOM     10  C   UNL A   1      42.229  22.391  28.369  1.00  0.00     0.010 A 
ATOM     11  C   UNL A   1      42.654  23.049  26.080  1.00  0.00     0.010 A 
ATOM     12  C   UNL A   1      42.574  23.385  27.440  1.00  0.00    -0.014 A 
BRANCH  12  13
ATOM     13  C   UNL A   1      42.911  24.745  27.928  1.00  0.00     0.031 A 
ATOM     14  C   UNL A   1      44.336  25.177  28.119  1.00  0.00     0.074 A 
ATOM     15  C   UNL A   1      41.906  25.611  28.166  1.00  0.00     0.049 A 
ATOM     16  N   UNL A   1      44.798  26.334  28.523  1.00  0.00    -0.248 NA
ATOM     17  C   UNL A   1      45.382  24.184  27.829  1.00  0.00     0.031 C 
ATOM     18  C   UNL A   1      40.481  25.305  28.014  1.00  0.00     0.029 A 
ATOM     19  N   UNL A   1      41.922  26.923  28.563  1.00  0.00    -0.354 N 
ATOM     20  C   UNL A   1      46.180  26.207  28.547  1.00  0.00     0.074 A 
ATOM     21  C   UNL A   1      46.483  24.847  28.154  1.00  0.00     0.031 C 
ATOM     22  C   UNL A   1      39.766  26.411  28.255  1.00  0.00     0.029 A 
ATOM     23  C   UNL A   1      40.671  27.481  28.656  1.00  0.00     0.049 A 
ATOM     24  H   UNL A   1      42.750  27.416  28.762  1.00  0.00     0.167 HD
ATOM     25  C   UNL A   1      47.109  27.143  28.857  1.00  0.00     0.037 A 
ATOM     26  C   UNL A   1      40.286  28.711  29.040  1.00  0.00     0.037 A 
ATOM     27  C   UNL A   1      46.796  28.495  29.246  1.00  0.00     0.049 A 
ATOM     28  C   UNL A   1      41.328  29.714  29.432  1.00  0.00     0.074 A 
ATOM     29  C   UNL A   1      47.667  29.524  29.560  1.00  0.00     0.029 A 
ATOM     30  N   UNL A   1      45.512  29.006  29.381  1.00  0.00    -0.354 N 
ATOM     31  N   UNL A   1      42.632  29.583  29.435  1.00  0.00    -0.248 NA
ATOM     32  C   UNL A   1      40.851  31.028  29.878  1.00  0.00     0.031 C 
ATOM     33  C   UNL A   1      46.912  30.635  29.946  1.00  0.00     0.029 A 
ATOM     34  C   UNL A   1      45.570  30.326  29.803  1.00  0.00     0.049 A 
ATOM     35  H   UNL A   1      44.682  28.505  29.204  1.00  0.00     0.167 HD
ATOM     36  C   UNL A   1      43.134  30.805  29.861  1.00  0.00     0.074 A 
ATOM     37  C   UNL A   1      41.992  31.666  30.097  1.00  0.00     0.031 C 
ATOM     38  C   UNL A   1      44.427  31.175  30.036  1.00  0.00     0.037 A 
BRANCH  25  39
ATOM     39  C   UNL A   1      48.556  26.737  28.806  1.00  0.00     0.057 A 
ATOM     40  C   UNL A   1      49.313  26.933  27.643  1.00  0.00     0.134 A 
ATOM     41  C   UNL A   1      49.189  26.103  29.884  1.00  0.00     0.134 A 
ATOM     42  F   UNL A   1      48.771  27.524  26.567  1.00  0.00    -0.206 F 
ATOM     43  C   UNL A   1      50.641  26.510  27.552  1.00  0.00     0.040 A 
ATOM     44  C   UNL A   1      50.525  25.703  29.817  1.00  0.00     0.040 A 
ATOM     45  F   UNL A   1      48.527  25.891  31.032  1.00  0.00    -0.206 F 
ATOM     46  C   UNL A   1      51.253  25.899  28.644  1.00  0.00     0.006 A 
ENDBRANCH  25  39
BRANCH  26  47
ATOM     47  C   UNL A   1      38.840  29.043  29.045  1.00  0.00     0.057 A 
ATOM     48  C   UNL A   1      38.205  29.556  27.905  1.00  0.00     0.134 A 
ATOM     49  C   UNL A   1      38.079  28.930  30.212  1.00  0.00     0.134 A 
ATOM     50  F   UNL A   1      38.886  29.702  26.759  1.00  0.00    -0.206 F 
ATOM     51  C   UNL A   1      36.876  29.979  27.938  1.00  0.00     0.040 A 
ATOM     52  C   UNL A   1      36.740  29.324  30.251  1.00  0.00     0.040 A 
ATOM     53  F   UNL A   1      38.628  28.434  31.331  1.00  0.00    -0.206 F 
ATOM     54  C   UNL A   1      36.139  29.863  29.115  1.00  0.00     0.006 A 
ENDBRANCH  26  47
BRANCH  38  55
ATOM     55  C   UNL A   1      44.691  32.586  30.480  1.00  0.00     0.057 A 
ATOM     56  C   UNL A   1      44.854  33.608  29.536  1.00  0.00     0.134 A 
ATOM     57  C   UNL A   1      44.862  32.919  31.829  1.00  0.00     0.134 A 
ATOM     58  F   UNL A   1      44.713  33.355  28.226  1.00  0.00    -0.206 F 
ATOM     59  C   UNL A   1      45.199  34.906  29.915  1.00  0.00     0.040 A 
ATOM     60  C   UNL A   1      45.177  34.221  32.224  1.00  0.00     0.040 A 
ATOM     61  F   UNL A   1      44.706  31.991  32.785  1.00  0.00    -0.206 F 
ATOM     62  C   UNL A   1      45.358  35.215  31.263  1.00  0.00     0.006 A 
ENDBRANCH  38  55
ENDBRANCH  12  13
ENDBRANCH   5   7
ENDBRANCH   2   3
ENDBRANCH   1   2
BRANCH   1  63
ATOM     63  C   UNL A   1      36.673  20.455  24.987  1.00  0.00     0.118 C 
BRANCH  63  64
ATOM     64  N   UNL A   1      36.914  21.700  24.268  1.00  0.00    -0.352 N 
ATOM     65  C   UNL A   1      36.103  22.797  24.109  1.00  0.00     0.253 C 
ATOM     66  H   UNL A   1      37.792  21.765  23.827  1.00  0.00     0.163 HD
ATOM     67  O   UNL A   1      36.376  23.640  23.259  1.00  0.00    -0.269 OA
BRANCH  65  68
ATOM     68  C   UNL A   1      34.878  22.947  24.930  1.00  0.00     0.063 A 
ATOM     69  C   UNL A   1      35.026  22.952  26.333  1.00  0.00     0.019 A 
ATOM     70  C   UNL A   1      33.605  23.105  24.329  1.00  0.00     0.056 A 
ATOM     71  C   UNL A   1      33.909  22.951  27.156  1.00  0.00     0.040 A 
ATOM     72  C   UNL A   1      32.502  23.069  25.187  1.00  0.00     0.066 A 
ATOM     73  C   UNL A   1      32.659  22.981  26.572  1.00  0.00     0.125 A 
ATOM     74  F   UNL A   1      31.570  22.940  27.349  1.00  0.00    -0.207 F 
BRANCH  70  75
ATOM     75  N   UNL A   1      33.531  23.299  22.920  1.00  0.00    -0.325 N 
ATOM     76  C   UNL A   1      33.227  24.349  22.097  1.00  0.00     0.228 C 
ATOM     77  H   UNL A   1      33.750  22.481  22.418  1.00  0.00     0.169 HD
ATOM     78  O   UNL A   1      33.278  24.180  20.876  1.00  0.00    -0.274 OA
BRANCH  76  79
ATOM     79  C   UNL A   1      32.827  25.686  22.656  1.00  0.00     0.095 C 
ATOM     80  C   UNL A   1      33.527  26.911  22.049  1.00  0.00     0.030 C 
ATOM     81  C   UNL A   1      31.351  25.946  22.375  1.00  0.00     0.150 C 
ATOM     82  C   UNL A   1      32.837  28.117  22.696  1.00  0.00     0.138 C 
ATOM     83  S   UNL A   1      31.130  27.618  22.932  1.00  0.00     0.151 S 
ATOM     84  O   UNL A   1      30.856  27.565  24.355  1.00  0.00    -0.229 OA
ATOM     85  O   UNL A   1      30.277  28.317  22.001  1.00  0.00    -0.229 OA
ENDBRANCH  76  79
ENDBRANCH  70  75
ENDBRANCH  65  68
ENDBRANCH  63  64
ENDBRANCH   1  63
TORSDOF 12
ENDMDL
MODEL 2
REMARK VINA RESULT:     -12.0      4.831      9.715
REMARK SMILES O=C(NCCCNC(=O)c1ccc(F)cc1NC(=O)[C@H]1CCS(=O)(=O)C1)c1ccc(-c2c3nc(c(-c4c(F)cccc4F)c4ccc([nH]4)c(-c4c(F)cccc4F)c4nc(c(-c5c(F)cccc5F)c5ccc2[nH]5)C=C4)C=C3)cc1
REMARK SMILES IDX 5 1 4 2 3 3 1 4 2 5 27 7 28 8 80 9 29 10 79 11 30 12 31 13
REMARK SMILES IDX 32 14 73 15 33 16 78 17 72 18 74 19 34 20 77 21 71 22 70 23
REMARK SMILES IDX 35 25 61 26 44 27 60 28 45 29 48 30 59 31 75 32 46 33 47 34
REMARK SMILES IDX 58 36 76 37 49 38 36 39 37 40 42 41 38 42 39 43 41 44 43 45
REMARK SMILES IDX 40 46 62 47 63 48 68 49 64 50 65 51 67 52 69 53 66 54 50 55
REMARK SMILES IDX 51 56 56 57 52 58 53 59 55 60 57 61 54 62 6 63 7 64 8 65
REMARK SMILES IDX 9 67 10 68 11 69 16 70 12 71 15 72 13 73 14 74 17 75 18 76
REMARK SMILES IDX 19 78 20 79 21 80 26 81 22 82 23 83 24 84 25 85
REMARK H PARENT 3 6 74 24 48 35 7 66 17 77
REMARK Flexibility Score: inf
ROOT
ATOM      1  C   UNL A   1      31.256  32.287  26.504  1.00  0.00     0.042 C 
ENDROOT
BRANCH   1   2
ATOM      2  C   UNL A   1      32.518  32.827  27.156  1.00  0.00     0.118 C 
BRANCH   2   3
ATOM      3  N   UNL A   1      32.372  34.197  27.633  1.00  0.00    -0.352 N 
ATOM      4  O   UNL A   1      32.656  35.976  28.984  1.00  0.00    -0.269 OA
ATOM      5  C   UNL A   1      33.050  34.872  28.619  1.00  0.00     0.251 C 
ATOM      6  H   UNL A   1      31.676  34.722  27.175  1.00  0.00     0.163 HD
BRANCH   5   7
ATOM      7  C   UNL A   1      34.232  34.260  29.262  1.00  0.00     0.039 A 
ATOM      8  C   UNL A   1      35.509  34.453  28.739  1.00  0.00     0.014 A 
ATOM      9  C   UNL A   1      34.060  33.483  30.412  1.00  0.00     0.014 A 
ATOM     10  C   UNL A   1      36.578  33.722  29.237  1.00  0.00     0.010 A 
ATOM     11  C   UNL A   1      35.161  32.844  30.990  1.00  0.00     0.010 A 
ATOM     12  C   UNL A   1      36.423  32.925  30.381  1.00  0.00    -0.014 A 
BRANCH  12  13
ATOM     13  C   UNL A   1      37.610  32.246  30.956  1.00  0.00     0.031 A 
ATOM     14  C   UNL A   1      38.112  32.577  32.332  1.00  0.00     0.074 A 
ATOM     15  C   UNL A   1      38.220  31.288  30.229  1.00  0.00     0.049 A 
ATOM     16  N   UNL A   1      39.125  32.064  32.984  1.00  0.00    -0.248 NA
ATOM     17  C   UNL A   1      37.392  33.623  33.074  1.00  0.00     0.031 C 
ATOM     18  C   UNL A   1      37.821  30.879  28.880  1.00  0.00     0.029 A 
ATOM     19  N   UNL A   1      39.282  30.473  30.522  1.00  0.00    -0.354 N 
ATOM     20  C   UNL A   1      39.173  32.729  34.202  1.00  0.00     0.074 A 
ATOM     21  C   UNL A   1      38.109  33.712  34.185  1.00  0.00     0.031 C 
ATOM     22  C   UNL A   1      38.588  29.854  28.487  1.00  0.00     0.029 A 
ATOM     23  C   UNL A   1      39.582  29.585  29.519  1.00  0.00     0.049 A 
ATOM     24  H   UNL A   1      39.781  30.521  31.369  1.00  0.00     0.167 HD
ATOM     25  C   UNL A   1      40.018  32.529  35.241  1.00  0.00     0.037 A 
ATOM     26  C   UNL A   1      40.559  28.665  29.425  1.00  0.00     0.037 A 
ATOM     27  C   UNL A   1      41.073  31.546  35.247  1.00  0.00     0.049 A 
ATOM     28  C   UNL A   1      41.517  28.499  30.565  1.00  0.00     0.074 A 
ATOM     29  C   UNL A   1      41.970  31.253  36.260  1.00  0.00     0.029 A 
ATOM     30  N   UNL A   1      41.379  30.702  34.189  1.00  0.00    -0.354 N 
ATOM     31  N   UNL A   1      41.540  29.125  31.716  1.00  0.00    -0.248 NA
ATOM     32  C   UNL A   1      42.586  27.508  30.394  1.00  0.00     0.031 C 
ATOM     33  C   UNL A   1      42.856  30.279  35.793  1.00  0.00     0.029 A 
ATOM     34  C   UNL A   1      42.469  29.910  34.515  1.00  0.00     0.049 A 
ATOM     35  H   UNL A   1      40.894  30.670  33.332  1.00  0.00     0.167 HD
ATOM     36  C   UNL A   1      42.611  28.589  32.417  1.00  0.00     0.074 A 
ATOM     37  C   UNL A   1      43.206  27.580  31.564  1.00  0.00     0.031 C 
ATOM     38  C   UNL A   1      43.055  28.907  33.658  1.00  0.00     0.037 A 
BRANCH  25  39
ATOM     39  C   UNL A   1      39.852  33.400  36.456  1.00  0.00     0.057 A 
ATOM     40  C   UNL A   1      38.970  33.034  37.482  1.00  0.00     0.134 A 
ATOM     41  C   UNL A   1      40.521  34.624  36.590  1.00  0.00     0.134 A 
ATOM     42  F   UNL A   1      38.288  31.880  37.417  1.00  0.00    -0.206 F 
ATOM     43  C   UNL A   1      38.755  33.855  38.591  1.00  0.00     0.040 A 
ATOM     44  C   UNL A   1      40.338  35.439  37.709  1.00  0.00     0.040 A 
ATOM     45  F   UNL A   1      41.387  35.032  35.650  1.00  0.00    -0.206 F 
ATOM     46  C   UNL A   1      39.446  35.059  38.710  1.00  0.00     0.006 A 
ENDBRANCH  25  39
BRANCH  26  47
ATOM     47  C   UNL A   1      40.645  27.830  28.201  1.00  0.00     0.057 A 
ATOM     48  C   UNL A   1      40.052  26.562  28.140  1.00  0.00     0.134 A 
ATOM     49  C   UNL A   1      41.392  28.248  27.096  1.00  0.00     0.134 A 
ATOM     50  F   UNL A   1      39.335  26.099  29.175  1.00  0.00    -0.206 F 
ATOM     51  C   UNL A   1      40.228  25.725  27.038  1.00  0.00     0.040 A 
ATOM     52  C   UNL A   1      41.553  27.432  25.975  1.00  0.00     0.040 A 
ATOM     53  F   UNL A   1      41.973  29.456  27.091  1.00  0.00    -0.206 F 
ATOM     54  C   UNL A   1      40.981  26.161  25.950  1.00  0.00     0.006 A 
ENDBRANCH  26  47
BRANCH  38  55
ATOM     55  C   UNL A   1      44.229  28.138  34.194  1.00  0.00     0.057 A 
ATOM     56  C   UNL A   1      44.033  26.946  34.904  1.00  0.00     0.134 A 
ATOM     57  C   UNL A   1      45.542  28.612  34.078  1.00  0.00     0.134 A 
ATOM     58  F   UNL A   1      42.799  26.441  35.059  1.00  0.00    -0.206 F 
ATOM     59  C   UNL A   1      45.095  26.264  35.497  1.00  0.00     0.040 A 
ATOM     60  C   UNL A   1      46.618  27.924  34.642  1.00  0.00     0.040 A 
ATOM     61  F   UNL A   1      45.801  29.740  33.400  1.00  0.00    -0.206 F 
ATOM     62  C   UNL A   1      46.393  26.752  35.364  1.00  0.00     0.006 A 
ENDBRANCH  38  55
ENDBRANCH  12  13
ENDBRANCH   5   7
ENDBRANCH   2   3
ENDBRANCH   1   2
BRANCH   1  63
ATOM     63  C   UNL A   1      31.418  30.897  25.912  1.00  0.00     0.118 C 
BRANCH  63  64
ATOM     64  N   UNL A   1      31.766  29.903  26.919  1.00  0.00    -0.352 N 
ATOM     65  C   UNL A   1      32.164  28.597  26.768  1.00  0.00     0.253 C 
ATOM     66  H   UNL A   1      31.708  30.215  27.852  1.00  0.00     0.163 HD
ATOM     67  O   UNL A   1      32.165  27.844  27.737  1.00  0.00    -0.269 OA
BRANCH  65  68
ATOM     68  C   UNL A   1      32.549  28.082  25.432  1.00  0.00     0.063 A 
ATOM     69  C   UNL A   1      33.687  28.645  24.817  1.00  0.00     0.019 A 
ATOM     70  C   UNL A   1      31.817  27.045  24.805  1.00  0.00     0.056 A 
ATOM     71  C   UNL A   1      34.021  28.305  23.514  1.00  0.00     0.040 A 
ATOM     72  C   UNL A   1      32.161  26.752  23.482  1.00  0.00     0.066 A 
ATOM     73  C   UNL A   1      33.236  27.382  22.852  1.00  0.00     0.125 A 
ATOM     74  F   UNL A   1      33.519  27.073  21.581  1.00  0.00    -0.207 F 
BRANCH  70  75
ATOM     75  N   UNL A   1      30.807  26.371  25.549  1.00  0.00    -0.325 N 
ATOM     76  C   UNL A   1      30.650  25.111  26.058  1.00  0.00     0.228 C 
ATOM     77  H   UNL A   1      30.035  26.952  25.741  1.00  0.00     0.169 HD
ATOM     78  O   UNL A   1      29.624  24.850  26.692  1.00  0.00    -0.274 OA
BRANCH  76  79
ATOM     79  C   UNL A   1      31.695  24.051  25.847  1.00  0.00     0.095 C 
ATOM     80  C   UNL A   1      32.183  23.322  27.108  1.00  0.00     0.030 C 
ATOM     81  C   UNL A   1      31.128  22.928  24.985  1.00  0.00     0.150 C 
ATOM     82  C   UNL A   1      33.119  22.226  26.587  1.00  0.00     0.138 C 
ATOM     83  S   UNL A   1      32.424  21.714  25.015  1.00  0.00     0.151 S 
ATOM     84  O   UNL A   1      33.361  22.058  23.962  1.00  0.00    -0.229 OA
ATOM     85  O   UNL A   1      31.839  20.400  25.137  1.00  0.00    -0.229 OA
ENDBRANCH  76  79
ENDBRANCH  70  75
ENDBRANCH  65  68
ENDBRANCH  63  64
ENDBRANCH   1  63
TORSDOF 12
ENDMDL
MODEL 3
REMARK VINA RESULT:     -11.9      2.872      7.898
REMARK SMILES O=C(NCCCNC(=O)c1ccc(F)cc1NC(=O)[C@H]1CCS(=O)(=O)C1)c1ccc(-c2c3nc(c(-c4c(F)cccc4F)c4ccc([nH]4)c(-c4c(F)cccc4F)c4nc(c(-c5c(F)cccc5F)c5ccc2[nH]5)C=C4)C=C3)cc1
REMARK SMILES IDX 5 1 4 2 3 3 1 4 2 5 27 7 28 8 80 9 29 10 79 11 30 12 31 13
REMARK SMILES IDX 32 14 73 15 33 16 78 17 72 18 74 19 34 20 77 21 71 22 70 23
REMARK SMILES IDX 35 25 61 26 44 27 60 28 45 29 48 30 59 31 75 32 46 33 47 34
REMARK SMILES IDX 58 36 76 37 49 38 36 39 37 40 42 41 38 42 39 43 41 44 43 45
REMARK SMILES IDX 40 46 62 47 63 48 68 49 64 50 65 51 67 52 69 53 66 54 50 55
REMARK SMILES IDX 51 56 56 57 52 58 53 59 55 60 57 61 54 62 6 63 7 64 8 65
REMARK SMILES IDX 9 67 10 68 11 69 16 70 12 71 15 72 13 73 14 74 17 75 18 76
REMARK SMILES IDX 19 78 20 79 21 80 26 81 22 82 23 83 24 84 25 85
REMARK H PARENT 3 6 74 24 48 35 7 66 17 77
REMARK Flexibility Score: inf
ROOT
ATOM      1  C   UNL A   1      33.364  28.681  26.776  1.00  0.00     0.042 C 
ENDROOT
BRANCH   1   2
ATOM      2  C   UNL A   1      34.777  28.954  27.266  1.00  0.00     0.118 C 
BRANCH   2   3
ATOM      3  N   UNL A   1      34.822  29.899  28.375  1.00  0.00    -0.352 N 
ATOM      4  O   UNL A   1      35.632  30.921  30.211  1.00  0.00    -0.269 OA
ATOM      5  C   UNL A   1      35.851  30.219  29.229  1.00  0.00     0.251 C 
ATOM      6  H   UNL A   1      33.982  30.385  28.540  1.00  0.00     0.163 HD
BRANCH   5   7
ATOM      7  C   UNL A   1      37.211  29.694  28.984  1.00  0.00     0.039 A 
ATOM      8  C   UNL A   1      37.931  29.076  30.006  1.00  0.00     0.014 A 
ATOM      9  C   UNL A   1      37.773  29.816  27.710  1.00  0.00     0.014 A 
ATOM     10  C   UNL A   1      39.269  28.761  29.815  1.00  0.00     0.010 A 
ATOM     11  C   UNL A   1      39.084  29.383  27.485  1.00  0.00     0.010 A 
ATOM     12  C   UNL A   1      39.857  28.890  28.547  1.00  0.00    -0.014 A 
BRANCH  12  13
ATOM     13  C   UNL A   1      41.256  28.438  28.348  1.00  0.00     0.031 A 
ATOM     14  C   UNL A   1      41.576  27.012  28.005  1.00  0.00     0.074 A 
ATOM     15  C   UNL A   1      42.246  29.347  28.447  1.00  0.00     0.049 A 
ATOM     16  N   UNL A   1      42.744  26.461  27.785  1.00  0.00    -0.248 NA
ATOM     17  C   UNL A   1      40.446  26.077  27.902  1.00  0.00     0.031 C 
ATOM     18  C   UNL A   1      42.056  30.763  28.774  1.00  0.00     0.029 A 
ATOM     19  N   UNL A   1      43.599  29.229  28.264  1.00  0.00    -0.354 N 
ATOM     20  C   UNL A   1      42.492  25.120  27.531  1.00  0.00     0.074 A 
ATOM     21  C   UNL A   1      41.063  24.929  27.661  1.00  0.00     0.031 C 
ATOM     22  C   UNL A   1      43.237  31.391  28.709  1.00  0.00     0.029 A 
ATOM     23  C   UNL A   1      44.277  30.413  28.417  1.00  0.00     0.049 A 
ATOM     24  H   UNL A   1      44.041  28.377  28.044  1.00  0.00     0.167 HD
ATOM     25  C   UNL A   1      43.373  24.143  27.206  1.00  0.00     0.037 A 
ATOM     26  C   UNL A   1      45.593  30.686  28.350  1.00  0.00     0.037 A 
ATOM     27  C   UNL A   1      44.794  24.344  27.077  1.00  0.00     0.049 A 
ATOM     28  C   UNL A   1      46.553  29.577  28.044  1.00  0.00     0.074 A 
ATOM     29  C   UNL A   1      45.767  23.421  26.733  1.00  0.00     0.029 A 
ATOM     30  N   UNL A   1      45.448  25.549  27.295  1.00  0.00    -0.354 N 
ATOM     31  N   UNL A   1      46.299  28.317  27.791  1.00  0.00    -0.248 NA
ATOM     32  C   UNL A   1      47.979  29.923  28.020  1.00  0.00     0.031 C 
ATOM     33  C   UNL A   1      47.013  24.050  26.804  1.00  0.00     0.029 A 
ATOM     34  C   UNL A   1      46.814  25.384  27.120  1.00  0.00     0.049 A 
ATOM     35  H   UNL A   1      45.009  26.396  27.537  1.00  0.00     0.167 HD
ATOM     36  C   UNL A   1      47.530  27.721  27.555  1.00  0.00     0.074 A 
ATOM     37  C   UNL A   1      48.529  28.763  27.686  1.00  0.00     0.031 C 
ATOM     38  C   UNL A   1      47.802  26.427  27.254  1.00  0.00     0.037 A 
BRANCH  25  39
ATOM     39  C   UNL A   1      42.829  22.758  26.983  1.00  0.00     0.057 A 
ATOM     40  C   UNL A   1      42.467  21.949  28.068  1.00  0.00     0.134 A 
ATOM     41  C   UNL A   1      42.714  22.202  25.702  1.00  0.00     0.134 A 
ATOM     42  F   UNL A   1      42.560  22.410  29.325  1.00  0.00    -0.206 F 
ATOM     43  C   UNL A   1      42.017  20.639  27.888  1.00  0.00     0.040 A 
ATOM     44  C   UNL A   1      42.236  20.905  25.506  1.00  0.00     0.040 A 
ATOM     45  F   UNL A   1      43.035  22.923  24.616  1.00  0.00    -0.206 F 
ATOM     46  C   UNL A   1      41.893  20.116  26.603  1.00  0.00     0.006 A 
ENDBRANCH  25  39
BRANCH  26  47
ATOM     47  C   UNL A   1      46.049  32.081  28.562  1.00  0.00     0.057 A 
ATOM     48  C   UNL A   1      46.106  32.999  27.505  1.00  0.00     0.134 A 
ATOM     49  C   UNL A   1      46.516  32.504  29.811  1.00  0.00     0.134 A 
ATOM     50  F   UNL A   1      45.687  32.649  26.281  1.00  0.00    -0.206 F 
ATOM     51  C   UNL A   1      46.644  34.275  27.674  1.00  0.00     0.040 A 
ATOM     52  C   UNL A   1      47.031  33.787  30.000  1.00  0.00     0.040 A 
ATOM     53  F   UNL A   1      46.476  31.674  30.863  1.00  0.00    -0.206 F 
ATOM     54  C   UNL A   1      47.109  34.673  28.926  1.00  0.00     0.006 A 
ENDBRANCH  26  47
BRANCH  38  55
ATOM     55  C   UNL A   1      49.238  26.057  27.013  1.00  0.00     0.057 A 
ATOM     56  C   UNL A   1      50.072  25.717  28.087  1.00  0.00     0.134 A 
ATOM     57  C   UNL A   1      49.815  26.113  25.739  1.00  0.00     0.134 A 
ATOM     58  F   UNL A   1      49.585  25.654  29.335  1.00  0.00    -0.206 F 
ATOM     59  C   UNL A   1      51.433  25.466  27.904  1.00  0.00     0.040 A 
ATOM     60  C   UNL A   1      51.169  25.835  25.539  1.00  0.00     0.040 A 
ATOM     61  F   UNL A   1      49.069  26.419  24.667  1.00  0.00    -0.206 F 
ATOM     62  C   UNL A   1      51.983  25.522  26.626  1.00  0.00     0.006 A 
ENDBRANCH  38  55
ENDBRANCH  12  13
ENDBRANCH   5   7
ENDBRANCH   2   3
ENDBRANCH   1   2
BRANCH   1  63
ATOM     63  C   UNL A   1      32.827  29.743  25.831  1.00  0.00     0.118 C 
BRANCH  63  64
ATOM     64  N   UNL A   1      33.446  29.677  24.514  1.00  0.00    -0.352 N 
ATOM     65  C   UNL A   1      33.090  28.946  23.408  1.00  0.00     0.253 C 
ATOM     66  H   UNL A   1      34.244  30.244  24.399  1.00  0.00     0.163 HD
ATOM     67  O   UNL A   1      33.879  28.827  22.475  1.00  0.00    -0.269 OA
BRANCH  65  68
ATOM     68  C   UNL A   1      31.774  28.265  23.353  1.00  0.00     0.063 A 
ATOM     69  C   UNL A   1      30.621  29.074  23.268  1.00  0.00     0.019 A 
ATOM     70  C   UNL A   1      31.676  26.852  23.360  1.00  0.00     0.056 A 
ATOM     71  C   UNL A   1      29.358  28.507  23.350  1.00  0.00     0.040 A 
ATOM     72  C   UNL A   1      30.390  26.318  23.476  1.00  0.00     0.066 A 
ATOM     73  C   UNL A   1      29.258  27.136  23.482  1.00  0.00     0.125 A 
ATOM     74  F   UNL A   1      28.049  26.575  23.604  1.00  0.00    -0.207 F 
BRANCH  70  75
ATOM     75  N   UNL A   1      32.868  26.082  23.240  1.00  0.00    -0.325 N 
ATOM     76  C   UNL A   1      33.302  24.880  23.729  1.00  0.00     0.228 C 
ATOM     77  H   UNL A   1      33.540  26.520  22.671  1.00  0.00     0.169 HD
ATOM     78  O   UNL A   1      34.423  24.478  23.405  1.00  0.00    -0.274 OA
BRANCH  76  79
ATOM     79  C   UNL A   1      32.446  24.060  24.652  1.00  0.00     0.095 C 
ATOM     80  C   UNL A   1      32.576  22.534  24.520  1.00  0.00     0.030 C 
ATOM     81  C   UNL A   1      32.842  24.325  26.101  1.00  0.00     0.150 C 
ATOM     82  C   UNL A   1      31.713  21.969  25.654  1.00  0.00     0.138 C 
ATOM     83  S   UNL A   1      31.868  23.143  27.001  1.00  0.00     0.151 S 
ATOM     84  O   UNL A   1      30.570  23.747  27.239  1.00  0.00    -0.229 OA
ATOM     85  O   UNL A   1      32.668  22.578  28.061  1.00  0.00    -0.229 OA
ENDBRANCH  76  79
ENDBRANCH  70  75
ENDBRANCH  65  68
ENDBRANCH  63  64
ENDBRANCH   1  63
TORSDOF 12
ENDMDL
