MODEL 1
REMARK VINA RESULT:     -10.7      0.000      0.000
REMARK SMILES COCC[N@H+](C)[C@H](C(=O)NCCCNC(=O)c1ccc(-c2c3nc(c(-c4c(F)cccc4F)c4ccc([nH]4)c(-c4c(F)cccc4F)c4nc(c(-c5c(F)cccc5F)c5ccc2[nH]5)C=C4)C=C3)cc1)c1ccc(OC)nc1
REMARK SMILES IDX 11 1 10 2 8 3 9 4 7 6 5 7 6 8 4 10 3 11 2 12 1 13 71 14
REMARK SMILES IDX 72 15 78 16 73 17 77 18 74 19 75 20 76 21 12 22 13 23 14 24
REMARK SMILES IDX 15 25 16 27 17 28 18 29 70 30 19 31 69 32 20 33 21 34 22 35
REMARK SMILES IDX 63 36 23 37 68 38 62 39 64 40 24 41 67 42 61 43 60 44 25 46
REMARK SMILES IDX 51 47 34 48 50 49 35 50 38 51 49 52 65 53 36 54 37 55 48 57
REMARK SMILES IDX 66 58 39 59 26 60 27 61 32 62 28 63 29 64 31 65 33 66 30 67
REMARK SMILES IDX 52 68 53 69 58 70 54 71 55 72 57 73 59 74 56 75 40 76 41 77
REMARK SMILES IDX 46 78 42 79 43 80 45 81 47 82 44 83
REMARK H PARENT 10 5 5 9 14 26 64 45 38 56
REMARK Flexibility Score: inf
ROOT
ATOM      1  C   UNL A   1      37.103  20.990  24.730  1.00  0.00     0.118 C 
ENDROOT
BRANCH   1   2
ATOM      2  N   UNL A   1      36.408  21.406  25.925  1.00  0.00    -0.351 N 
ATOM      3  C   UNL A   1      35.071  21.649  26.100  1.00  0.00     0.283 C 
ATOM      4  O   UNL A   1      34.750  22.053  27.221  1.00  0.00    -0.268 OA
ATOM      5  H   UNL A   1      36.971  21.531  26.724  1.00  0.00     0.163 HD
BRANCH   3   6
ATOM      6  C   UNL A   1      34.056  21.493  24.903  1.00  0.00     0.306 C 
BRANCH   6   7
ATOM      7  N   UNL A   1      32.770  20.884  25.381  1.00  0.00    -0.321 N 
ATOM      8  C   UNL A   1      31.703  21.873  25.554  1.00  0.00     0.333 C 
ATOM      9  H   UNL A   1      33.018  20.505  26.295  1.00  0.00     0.348 HD
BRANCH   7  10
ATOM     10  C   UNL A   1      32.282  19.738  24.580  1.00  0.00     0.291 C 
BRANCH  10  11
ATOM     11  C   UNL A   1      33.001  18.387  24.806  1.00  0.00     0.221 C 
BRANCH  11  12
ATOM     12  O   UNL A   1      32.157  17.405  25.419  1.00  0.00    -0.379 OA
ATOM     13  C   UNL A   1      32.820  16.186  25.716  1.00  0.00     0.195 C 
ENDBRANCH  11  12
ENDBRANCH  10  11
ENDBRANCH   7  10
ENDBRANCH   6   7
BRANCH   6  14
ATOM     14  C   UNL A   1      33.881  22.766  24.075  1.00  0.00     0.038 A 
ATOM     15  C   UNL A   1      34.124  24.029  24.625  1.00  0.00     0.017 A 
ATOM     16  C   UNL A   1      33.531  22.746  22.726  1.00  0.00     0.125 A 
ATOM     17  C   UNL A   1      34.030  25.175  23.831  1.00  0.00     0.069 A 
ATOM     18  N   UNL A   1      33.427  23.842  21.940  1.00  0.00    -0.222 NA
ATOM     19  C   UNL A   1      33.681  25.041  22.494  1.00  0.00     0.212 A 
BRANCH  19  20
ATOM     20  O   UNL A   1      33.541  26.066  21.606  1.00  0.00    -0.481 OA
ATOM     21  C   UNL A   1      32.497  25.954  20.655  1.00  0.00     0.280 C 
ENDBRANCH  19  20
ENDBRANCH   6  14
ENDBRANCH   3   6
ENDBRANCH   1   2
BRANCH   1  22
ATOM     22  C   UNL A   1      38.045  19.826  24.976  1.00  0.00     0.042 C 
BRANCH  22  23
ATOM     23  C   UNL A   1      39.155  20.137  25.964  1.00  0.00     0.118 C 
BRANCH  23  24
ATOM     24  N   UNL A   1      40.202  19.122  25.974  1.00  0.00    -0.352 N 
ATOM     25  C   UNL A   1      41.567  19.237  26.092  1.00  0.00     0.251 C 
ATOM     26  H   UNL A   1      39.876  18.198  25.881  1.00  0.00     0.163 HD
ATOM     27  O   UNL A   1      42.273  18.250  25.900  1.00  0.00    -0.269 OA
BRANCH  25  28
ATOM     28  C   UNL A   1      42.198  20.536  26.420  1.00  0.00     0.039 A 
ATOM     29  C   UNL A   1      42.680  21.340  25.382  1.00  0.00     0.014 A 
ATOM     30  C   UNL A   1      42.337  20.960  27.741  1.00  0.00     0.014 A 
ATOM     31  C   UNL A   1      43.221  22.599  25.668  1.00  0.00     0.010 A 
ATOM     32  C   UNL A   1      42.762  22.255  28.014  1.00  0.00     0.010 A 
ATOM     33  C   UNL A   1      43.223  23.086  26.983  1.00  0.00    -0.014 A 
BRANCH  33  34
ATOM     34  C   UNL A   1      43.728  24.439  27.328  1.00  0.00     0.031 A 
ATOM     35  C   UNL A   1      42.761  25.505  27.774  1.00  0.00     0.074 A 
ATOM     36  C   UNL A   1      45.028  24.743  27.148  1.00  0.00     0.049 A 
ATOM     37  N   UNL A   1      42.962  26.784  27.960  1.00  0.00    -0.248 NA
ATOM     38  C   UNL A   1      41.368  25.079  27.999  1.00  0.00     0.031 C 
ATOM     39  C   UNL A   1      46.061  23.818  26.678  1.00  0.00     0.029 A 
ATOM     40  N   UNL A   1      45.700  25.928  27.322  1.00  0.00    -0.354 N 
ATOM     41  C   UNL A   1      41.721  27.317  28.286  1.00  0.00     0.074 A 
ATOM     42  C   UNL A   1      40.763  26.236  28.217  1.00  0.00     0.031 C 
ATOM     43  C   UNL A   1      47.237  24.464  26.620  1.00  0.00     0.029 A 
ATOM     44  C   UNL A   1      47.035  25.857  27.003  1.00  0.00     0.049 A 
ATOM     45  H   UNL A   1      45.266  26.751  27.643  1.00  0.00     0.167 HD
ATOM     46  C   UNL A   1      41.408  28.588  28.634  1.00  0.00     0.037 A 
ATOM     47  C   UNL A   1      47.985  26.811  27.005  1.00  0.00     0.037 A 
ATOM     48  C   UNL A   1      42.371  29.650  28.751  1.00  0.00     0.049 A 
ATOM     49  C   UNL A   1      47.618  28.212  27.411  1.00  0.00     0.074 A 
ATOM     50  C   UNL A   1      42.169  30.956  29.164  1.00  0.00     0.029 A 
ATOM     51  N   UNL A   1      43.721  29.526  28.460  1.00  0.00    -0.354 N 
ATOM     52  N   UNL A   1      46.449  28.690  27.767  1.00  0.00    -0.248 NA
ATOM     53  C   UNL A   1      48.701  29.204  27.422  1.00  0.00     0.031 C 
ATOM     54  C   UNL A   1      43.392  31.630  29.089  1.00  0.00     0.029 A 
ATOM     55  C   UNL A   1      44.363  30.734  28.673  1.00  0.00     0.049 A 
ATOM     56  H   UNL A   1      44.158  28.700  28.149  1.00  0.00     0.167 HD
ATOM     57  C   UNL A   1      46.663  30.029  28.071  1.00  0.00     0.074 A 
ATOM     58  C   UNL A   1      48.075  30.283  27.869  1.00  0.00     0.031 C 
ATOM     59  C   UNL A   1      45.772  30.963  28.481  1.00  0.00     0.037 A 
BRANCH  46  60
ATOM     60  C   UNL A   1      39.967  28.892  28.924  1.00  0.00     0.057 A 
ATOM     61  C   UNL A   1      39.441  28.821  30.222  1.00  0.00     0.134 A 
ATOM     62  C   UNL A   1      39.098  29.281  27.897  1.00  0.00     0.134 A 
ATOM     63  F   UNL A   1      40.216  28.441  31.249  1.00  0.00    -0.206 F 
ATOM     64  C   UNL A   1      38.097  29.095  30.482  1.00  0.00     0.040 A 
ATOM     65  C   UNL A   1      37.759  29.586  28.150  1.00  0.00     0.040 A 
ATOM     66  F   UNL A   1      39.535  29.376  26.633  1.00  0.00    -0.206 F 
ATOM     67  C   UNL A   1      37.254  29.485  29.445  1.00  0.00     0.006 A 
ENDBRANCH  46  60
BRANCH  47  68
ATOM     68  C   UNL A   1      49.381  26.472  26.633  1.00  0.00     0.057 A 
ATOM     69  C   UNL A   1      50.289  26.011  27.594  1.00  0.00     0.134 A 
ATOM     70  C   UNL A   1      49.846  26.607  25.321  1.00  0.00     0.134 A 
ATOM     71  F   UNL A   1      49.907  25.879  28.873  1.00  0.00    -0.206 F 
ATOM     72  C   UNL A   1      51.613  25.716  27.268  1.00  0.00     0.040 A 
ATOM     73  C   UNL A   1      51.162  26.291  24.975  1.00  0.00     0.040 A 
ATOM     74  F   UNL A   1      49.025  27.036  24.350  1.00  0.00    -0.206 F 
ATOM     75  C   UNL A   1      52.051  25.852  25.953  1.00  0.00     0.006 A 
ENDBRANCH  47  68
BRANCH  59  76
ATOM     76  C   UNL A   1      46.302  32.333  28.784  1.00  0.00     0.057 A 
ATOM     77  C   UNL A   1      46.323  33.349  27.821  1.00  0.00     0.134 A 
ATOM     78  C   UNL A   1      46.756  32.650  30.071  1.00  0.00     0.134 A 
ATOM     79  F   UNL A   1      45.914  33.105  26.566  1.00  0.00    -0.206 F 
ATOM     80  C   UNL A   1      46.796  34.628  28.122  1.00  0.00     0.040 A 
ATOM     81  C   UNL A   1      47.206  33.931  30.390  1.00  0.00     0.040 A 
ATOM     82  F   UNL A   1      46.754  31.724  31.041  1.00  0.00    -0.206 F 
ATOM     83  C   UNL A   1      47.231  34.924  29.412  1.00  0.00     0.006 A 
ENDBRANCH  59  76
ENDBRANCH  33  34
ENDBRANCH  25  28
ENDBRANCH  23  24
ENDBRANCH  22  23
ENDBRANCH   1  22
TORSDOF 16
ENDMDL
MODEL 2
REMARK VINA RESULT:     -10.7      5.879     11.033
REMARK SMILES COCC[N@H+](C)[C@H](C(=O)NCCCNC(=O)c1ccc(-c2c3nc(c(-c4c(F)cccc4F)c4ccc([nH]4)c(-c4c(F)cccc4F)c4nc(c(-c5c(F)cccc5F)c5ccc2[nH]5)C=C4)C=C3)cc1)c1ccc(OC)nc1
REMARK SMILES IDX 11 1 10 2 8 3 9 4 7 6 5 7 6 8 4 10 3 11 2 12 1 13 71 14
REMARK SMILES IDX 72 15 78 16 73 17 77 18 74 19 75 20 76 21 12 22 13 23 14 24
REMARK SMILES IDX 15 25 16 27 17 28 18 29 70 30 19 31 69 32 20 33 21 34 22 35
REMARK SMILES IDX 63 36 23 37 68 38 62 39 64 40 24 41 67 42 61 43 60 44 25 46
REMARK SMILES IDX 51 47 34 48 50 49 35 50 38 51 49 52 65 53 36 54 37 55 48 57
REMARK SMILES IDX 66 58 39 59 26 60 27 61 32 62 28 63 29 64 31 65 33 66 30 67
REMARK SMILES IDX 52 68 53 69 58 70 54 71 55 72 57 73 59 74 56 75 40 76 41 77
REMARK SMILES IDX 46 78 42 79 43 80 45 81 47 82 44 83
REMARK H PARENT 10 5 5 9 14 26 64 45 38 56
REMARK Flexibility Score: inf
ROOT
ATOM      1  C   UNL A   1      31.736  30.410  26.561  1.00  0.00     0.118 C 
ENDROOT
BRANCH   1   2
ATOM      2  N   UNL A   1      32.568  30.134  25.414  1.00  0.00    -0.351 N 
ATOM      3  C   UNL A   1      32.382  29.207  24.423  1.00  0.00     0.283 C 
ATOM      4  O   UNL A   1      33.286  29.141  23.585  1.00  0.00    -0.268 OA
ATOM      5  H   UNL A   1      33.379  30.687  25.333  1.00  0.00     0.163 HD
BRANCH   3   6
ATOM      6  C   UNL A   1      31.129  28.250  24.432  1.00  0.00     0.306 C 
BRANCH   6   7
ATOM      7  N   UNL A   1      30.575  28.096  23.045  1.00  0.00    -0.321 N 
ATOM      8  C   UNL A   1      31.071  26.896  22.366  1.00  0.00     0.333 C 
ATOM      9  H   UNL A   1      30.932  28.919  22.559  1.00  0.00     0.348 HD
BRANCH   7  10
ATOM     10  C   UNL A   1      29.099  28.168  22.945  1.00  0.00     0.291 C 
BRANCH  10  11
ATOM     11  C   UNL A   1      28.499  29.563  22.649  1.00  0.00     0.221 C 
BRANCH  11  12
ATOM     12  O   UNL A   1      28.484  29.874  21.251  1.00  0.00    -0.379 OA
ATOM     13  C   UNL A   1      28.130  31.218  20.967  1.00  0.00     0.195 C 
ENDBRANCH  11  12
ENDBRANCH  10  11
ENDBRANCH   7  10
ENDBRANCH   6   7
BRANCH   6  14
ATOM     14  C   UNL A   1      31.366  26.931  25.166  1.00  0.00     0.038 A 
ATOM     15  C   UNL A   1      32.656  26.415  25.332  1.00  0.00     0.017 A 
ATOM     16  C   UNL A   1      30.338  26.200  25.756  1.00  0.00     0.125 A 
ATOM     17  C   UNL A   1      32.860  25.245  26.069  1.00  0.00     0.069 A 
ATOM     18  N   UNL A   1      30.510  25.062  26.469  1.00  0.00    -0.222 NA
ATOM     19  C   UNL A   1      31.763  24.599  26.623  1.00  0.00     0.212 A 
BRANCH  19  20
ATOM     20  O   UNL A   1      31.808  23.450  27.354  1.00  0.00    -0.481 OA
ATOM     21  C   UNL A   1      33.028  22.728  27.343  1.00  0.00     0.280 C 
ENDBRANCH  19  20
ENDBRANCH   6  14
ENDBRANCH   3   6
ENDBRANCH   1   2
BRANCH   1  22
ATOM     22  C   UNL A   1      31.493  31.893  26.764  1.00  0.00     0.042 C 
BRANCH  22  23
ATOM     23  C   UNL A   1      32.742  32.672  27.136  1.00  0.00     0.118 C 
BRANCH  23  24
ATOM     24  N   UNL A   1      32.453  34.040  27.550  1.00  0.00    -0.352 N 
ATOM     25  C   UNL A   1      33.004  34.817  28.540  1.00  0.00     0.251 C 
ATOM     26  H   UNL A   1      31.742  34.481  27.032  1.00  0.00     0.163 HD
ATOM     27  O   UNL A   1      32.480  35.892  28.826  1.00  0.00    -0.269 OA
BRANCH  25  28
ATOM     28  C   UNL A   1      34.202  34.367  29.286  1.00  0.00     0.039 A 
ATOM     29  C   UNL A   1      34.035  33.698  30.504  1.00  0.00     0.014 A 
ATOM     30  C   UNL A   1      35.488  34.614  28.807  1.00  0.00     0.014 A 
ATOM     31  C   UNL A   1      35.151  33.209  31.191  1.00  0.00     0.010 A 
ATOM     32  C   UNL A   1      36.584  34.026  29.426  1.00  0.00     0.010 A 
ATOM     33  C   UNL A   1      36.433  33.327  30.633  1.00  0.00    -0.014 A 
BRANCH  33  34
ATOM     34  C   UNL A   1      37.641  32.769  31.291  1.00  0.00     0.031 A 
ATOM     35  C   UNL A   1      38.334  31.575  30.690  1.00  0.00     0.074 A 
ATOM     36  C   UNL A   1      38.057  33.264  32.474  1.00  0.00     0.049 A 
ATOM     37  N   UNL A   1      39.293  30.834  31.185  1.00  0.00    -0.248 NA
ATOM     38  C   UNL A   1      37.853  31.129  29.371  1.00  0.00     0.031 C 
ATOM     39  C   UNL A   1      37.448  34.389  33.187  1.00  0.00     0.029 A 
ATOM     40  N   UNL A   1      39.083  32.869  33.295  1.00  0.00    -0.354 N 
ATOM     41  C   UNL A   1      39.501  29.819  30.259  1.00  0.00     0.074 A 
ATOM     42  C   UNL A   1      38.533  30.005  29.200  1.00  0.00     0.031 C 
ATOM     43  C   UNL A   1      38.124  34.604  34.328  1.00  0.00     0.029 A 
ATOM     44  C   UNL A   1      39.182  33.607  34.450  1.00  0.00     0.049 A 
ATOM     45  H   UNL A   1      39.691  32.125  33.078  1.00  0.00     0.167 HD
ATOM     46  C   UNL A   1      40.429  28.834  30.274  1.00  0.00     0.037 A 
ATOM     47  C   UNL A   1      40.022  33.485  35.495  1.00  0.00     0.037 A 
ATOM     48  C   UNL A   1      41.423  28.681  31.303  1.00  0.00     0.049 A 
ATOM     49  C   UNL A   1      41.055  32.393  35.483  1.00  0.00     0.074 A 
ATOM     50  C   UNL A   1      42.452  27.759  31.377  1.00  0.00     0.029 A 
ATOM     51  N   UNL A   1      41.515  29.477  32.434  1.00  0.00    -0.354 N 
ATOM     52  N   UNL A   1      41.275  31.472  34.576  1.00  0.00    -0.248 NA
ATOM     53  C   UNL A   1      41.962  32.326  36.637  1.00  0.00     0.031 C 
ATOM     54  C   UNL A   1      43.146  27.976  32.573  1.00  0.00     0.029 A 
ATOM     55  C   UNL A   1      42.577  29.060  33.220  1.00  0.00     0.049 A 
ATOM     56  H   UNL A   1      40.915  30.228  32.647  1.00  0.00     0.167 HD
ATOM     57  C   UNL A   1      42.360  30.737  35.034  1.00  0.00     0.074 A 
ATOM     58  C   UNL A   1      42.762  31.327  36.295  1.00  0.00     0.031 C 
ATOM     59  C   UNL A   1      42.970  29.670  34.464  1.00  0.00     0.037 A 
BRANCH  46  60
ATOM     60  C   UNL A   1      40.417  27.853  29.138  1.00  0.00     0.057 A 
ATOM     61  C   UNL A   1      41.241  28.010  28.015  1.00  0.00     0.134 A 
ATOM     62  C   UNL A   1      39.587  26.725  29.175  1.00  0.00     0.134 A 
ATOM     63  F   UNL A   1      42.050  29.076  27.909  1.00  0.00    -0.206 F 
ATOM     64  C   UNL A   1      41.217  27.100  26.957  1.00  0.00     0.040 A 
ATOM     65  C   UNL A   1      39.576  25.792  28.137  1.00  0.00     0.040 A 
ATOM     66  F   UNL A   1      38.778  26.509  30.222  1.00  0.00    -0.206 F 
ATOM     67  C   UNL A   1      40.387  25.983  27.020  1.00  0.00     0.006 A 
ENDBRANCH  46  60
BRANCH  47  68
ATOM     68  C   UNL A   1      39.939  34.436  36.632  1.00  0.00     0.057 A 
ATOM     69  C   UNL A   1      40.610  35.664  36.591  1.00  0.00     0.134 A 
ATOM     70  C   UNL A   1      39.200  34.144  37.783  1.00  0.00     0.134 A 
ATOM     71  F   UNL A   1      41.349  35.994  35.522  1.00  0.00    -0.206 F 
ATOM     72  C   UNL A   1      40.567  36.558  37.663  1.00  0.00     0.040 A 
ATOM     73  C   UNL A   1      39.128  35.039  38.853  1.00  0.00     0.040 A 
ATOM     74  F   UNL A   1      38.528  32.987  37.882  1.00  0.00    -0.206 F 
ATOM     75  C   UNL A   1      39.820  36.247  38.796  1.00  0.00     0.006 A 
ENDBRANCH  47  68
BRANCH  59  76
ATOM     76  C   UNL A   1      44.164  29.100  35.172  1.00  0.00     0.057 A 
ATOM     77  C   UNL A   1      45.465  29.538  34.899  1.00  0.00     0.134 A 
ATOM     78  C   UNL A   1      44.001  28.133  36.172  1.00  0.00     0.134 A 
ATOM     79  F   UNL A   1      45.688  30.453  33.943  1.00  0.00    -0.206 F 
ATOM     80  C   UNL A   1      46.566  29.018  35.581  1.00  0.00     0.040 A 
ATOM     81  C   UNL A   1      45.091  27.626  36.879  1.00  0.00     0.040 A 
ATOM     82  F   UNL A   1      42.780  27.678  36.487  1.00  0.00    -0.206 F 
ATOM     83  C   UNL A   1      46.380  28.065  36.581  1.00  0.00     0.006 A 
ENDBRANCH  59  76
ENDBRANCH  33  34
ENDBRANCH  25  28
ENDBRANCH  23  24
ENDBRANCH  22  23
ENDBRANCH   1  22
TORSDOF 16
ENDMDL
MODEL 3
REMARK VINA RESULT:     -10.6      5.315     10.392
REMARK SMILES COCC[N@H+](C)[C@H](C(=O)NCCCNC(=O)c1ccc(-c2c3nc(c(-c4c(F)cccc4F)c4ccc([nH]4)c(-c4c(F)cccc4F)c4nc(c(-c5c(F)cccc5F)c5ccc2[nH]5)C=C4)C=C3)cc1)c1ccc(OC)nc1
REMARK SMILES IDX 11 1 10 2 8 3 9 4 7 6 5 7 6 8 4 10 3 11 2 12 1 13 71 14
REMARK SMILES IDX 72 15 78 16 73 17 77 18 74 19 75 20 76 21 12 22 13 23 14 24
REMARK SMILES IDX 15 25 16 27 17 28 18 29 70 30 19 31 69 32 20 33 21 34 22 35
REMARK SMILES IDX 63 36 23 37 68 38 62 39 64 40 24 41 67 42 61 43 60 44 25 46
REMARK SMILES IDX 51 47 34 48 50 49 35 50 38 51 49 52 65 53 36 54 37 55 48 57
REMARK SMILES IDX 66 58 39 59 26 60 27 61 32 62 28 63 29 64 31 65 33 66 30 67
REMARK SMILES IDX 52 68 53 69 58 70 54 71 55 72 57 73 59 74 56 75 40 76 41 77
REMARK SMILES IDX 46 78 42 79 43 80 45 81 47 82 44 83
REMARK H PARENT 10 5 5 9 14 26 64 45 38 56
REMARK Flexibility Score: inf
ROOT
ATOM      1  C   UNL A   1      31.786  30.002  25.772  1.00  0.00     0.118 C 
ENDROOT
BRANCH   1   2
ATOM      2  N   UNL A   1      32.753  29.978  24.700  1.00  0.00    -0.351 N 
ATOM      3  C   UNL A   1      33.009  28.980  23.798  1.00  0.00     0.283 C 
ATOM      4  O   UNL A   1      33.938  29.200  23.016  1.00  0.00    -0.268 OA
ATOM      5  H   UNL A   1      33.303  30.789  24.605  1.00  0.00     0.163 HD
BRANCH   3   6
ATOM      6  C   UNL A   1      32.205  27.623  23.840  1.00  0.00     0.306 C 
BRANCH   6   7
ATOM      7  N   UNL A   1      31.053  27.665  22.878  1.00  0.00    -0.321 N 
ATOM      8  C   UNL A   1      29.837  27.055  23.422  1.00  0.00     0.333 C 
ATOM      9  H   UNL A   1      31.382  27.100  22.095  1.00  0.00     0.348 HD
BRANCH   7  10
ATOM     10  C   UNL A   1      30.749  29.003  22.319  1.00  0.00     0.291 C 
BRANCH  10  11
ATOM     11  C   UNL A   1      29.346  29.575  22.633  1.00  0.00     0.221 C 
BRANCH  11  12
ATOM     12  O   UNL A   1      28.518  29.682  21.469  1.00  0.00    -0.379 OA
ATOM     13  C   UNL A   1      28.178  31.017  21.130  1.00  0.00     0.195 C 
ENDBRANCH  11  12
ENDBRANCH  10  11
ENDBRANCH   7  10
ENDBRANCH   6   7
BRANCH   6  14
ATOM     14  C   UNL A   1      33.086  26.381  23.713  1.00  0.00     0.038 A 
ATOM     15  C   UNL A   1      33.811  25.892  24.805  1.00  0.00     0.017 A 
ATOM     16  C   UNL A   1      33.176  25.636  22.539  1.00  0.00     0.125 A 
ATOM     17  C   UNL A   1      34.553  24.713  24.689  1.00  0.00     0.069 A 
ATOM     18  N   UNL A   1      33.892  24.496  22.402  1.00  0.00    -0.222 NA
ATOM     19  C   UNL A   1      34.567  24.043  23.473  1.00  0.00     0.212 A 
BRANCH  19  20
ATOM     20  O   UNL A   1      35.251  22.894  23.211  1.00  0.00    -0.481 OA
ATOM     21  C   UNL A   1      36.664  22.951  23.304  1.00  0.00     0.280 C 
ENDBRANCH  19  20
ENDBRANCH   6  14
ENDBRANCH   3   6
ENDBRANCH   1   2
BRANCH   1  22
ATOM     22  C   UNL A   1      31.535  31.401  26.302  1.00  0.00     0.042 C 
BRANCH  22  23
ATOM     23  C   UNL A   1      32.672  31.947  27.147  1.00  0.00     0.118 C 
BRANCH  23  24
ATOM     24  N   UNL A   1      32.514  33.363  27.458  1.00  0.00    -0.352 N 
ATOM     25  C   UNL A   1      33.195  34.174  28.335  1.00  0.00     0.251 C 
ATOM     26  H   UNL A   1      31.799  33.815  26.955  1.00  0.00     0.163 HD
ATOM     27  O   UNL A   1      32.772  35.306  28.561  1.00  0.00    -0.269 OA
BRANCH  25  28
ATOM     28  C   UNL A   1      34.410  33.695  29.031  1.00  0.00     0.039 A 
ATOM     29  C   UNL A   1      34.283  32.746  30.051  1.00  0.00     0.014 A 
ATOM     30  C   UNL A   1      35.674  34.185  28.702  1.00  0.00     0.014 A 
ATOM     31  C   UNL A   1      35.425  32.234  30.676  1.00  0.00     0.010 A 
ATOM     32  C   UNL A   1      36.811  33.591  29.236  1.00  0.00     0.010 A 
ATOM     33  C   UNL A   1      36.701  32.618  30.240  1.00  0.00    -0.014 A 
BRANCH  33  34
ATOM     34  C   UNL A   1      37.945  32.056  30.828  1.00  0.00     0.031 A 
ATOM     35  C   UNL A   1      38.676  30.953  30.111  1.00  0.00     0.074 A 
ATOM     36  C   UNL A   1      38.360  32.460  32.045  1.00  0.00     0.049 A 
ATOM     37  N   UNL A   1      39.674  30.213  30.522  1.00  0.00    -0.248 NA
ATOM     38  C   UNL A   1      38.191  30.607  28.763  1.00  0.00     0.031 C 
ATOM     39  C   UNL A   1      37.717  33.487  32.867  1.00  0.00     0.029 A 
ATOM     40  N   UNL A   1      39.417  32.037  32.812  1.00  0.00    -0.354 N 
ATOM     41  C   UNL A   1      39.908  29.296  29.504  1.00  0.00     0.074 A 
ATOM     42  C   UNL A   1      38.914  29.535  28.481  1.00  0.00     0.031 C 
ATOM     43  C   UNL A   1      38.404  33.628  34.013  1.00  0.00     0.029 A 
ATOM     44  C   UNL A   1      39.506  32.671  34.028  1.00  0.00     0.049 A 
ATOM     45  H   UNL A   1      40.052  31.344  32.520  1.00  0.00     0.167 HD
ATOM     46  C   UNL A   1      40.878  28.355  29.417  1.00  0.00     0.037 A 
ATOM     47  C   UNL A   1      40.369  32.493  35.046  1.00  0.00     0.037 A 
ATOM     48  C   UNL A   1      41.896  28.153  30.413  1.00  0.00     0.049 A 
ATOM     49  C   UNL A   1      41.447  31.453  34.919  1.00  0.00     0.074 A 
ATOM     50  C   UNL A   1      42.964  27.274  30.388  1.00  0.00     0.029 A 
ATOM     51  N   UNL A   1      41.975  28.847  31.611  1.00  0.00    -0.354 N 
ATOM     52  N   UNL A   1      41.689  30.627  33.928  1.00  0.00    -0.248 NA
ATOM     53  C   UNL A   1      42.377  31.321  36.049  1.00  0.00     0.031 C 
ATOM     54  C   UNL A   1      43.670  27.412  31.588  1.00  0.00     0.029 A 
ATOM     55  C   UNL A   1      43.067  28.408  32.339  1.00  0.00     0.049 A 
ATOM     56  H   UNL A   1      41.347  29.549  31.900  1.00  0.00     0.167 HD
ATOM     57  C   UNL A   1      42.813  29.902  34.302  1.00  0.00     0.074 A 
ATOM     58  C   UNL A   1      43.212  30.392  35.606  1.00  0.00     0.031 C 
ATOM     59  C   UNL A   1      43.457  28.919  33.629  1.00  0.00     0.037 A 
BRANCH  46  60
ATOM     60  C   UNL A   1      40.886  27.482  28.196  1.00  0.00     0.057 A 
ATOM     61  C   UNL A   1      40.176  26.274  28.143  1.00  0.00     0.134 A 
ATOM     62  C   UNL A   1      41.596  27.863  27.049  1.00  0.00     0.134 A 
ATOM     63  F   UNL A   1      39.488  25.844  29.211  1.00  0.00    -0.206 F 
ATOM     64  C   UNL A   1      40.198  25.462  27.008  1.00  0.00     0.040 A 
ATOM     65  C   UNL A   1      41.600  27.074  25.898  1.00  0.00     0.040 A 
ATOM     66  F   UNL A   1      42.291  29.009  27.027  1.00  0.00    -0.206 F 
ATOM     67  C   UNL A   1      40.906  25.866  25.878  1.00  0.00     0.006 A 
ENDBRANCH  46  60
BRANCH  47  68
ATOM     68  C   UNL A   1      40.266  33.332  36.266  1.00  0.00     0.057 A 
ATOM     69  C   UNL A   1      39.372  33.002  37.291  1.00  0.00     0.134 A 
ATOM     70  C   UNL A   1      41.045  34.481  36.435  1.00  0.00     0.134 A 
ATOM     71  F   UNL A   1      38.586  31.922  37.179  1.00  0.00    -0.206 F 
ATOM     72  C   UNL A   1      39.242  33.795  38.432  1.00  0.00     0.040 A 
ATOM     73  C   UNL A   1      40.943  35.272  37.582  1.00  0.00     0.040 A 
ATOM     74  F   UNL A   1      41.927  34.849  35.493  1.00  0.00    -0.206 F 
ATOM     75  C   UNL A   1      40.032  34.932  38.581  1.00  0.00     0.006 A 
ENDBRANCH  47  68
BRANCH  59  76
ATOM     76  C   UNL A   1      44.686  28.341  34.264  1.00  0.00     0.057 A 
ATOM     77  C   UNL A   1      45.952  28.905  34.075  1.00  0.00     0.134 A 
ATOM     78  C   UNL A   1      44.591  27.230  35.113  1.00  0.00     0.134 A 
ATOM     79  F   UNL A   1      46.112  29.962  33.263  1.00  0.00    -0.206 F 
ATOM     80  C   UNL A   1      47.086  28.373  34.692  1.00  0.00     0.040 A 
ATOM     81  C   UNL A   1      45.713  26.706  35.755  1.00  0.00     0.040 A 
ATOM     82  F   UNL A   1      43.405  26.648  35.342  1.00  0.00    -0.206 F 
ATOM     83  C   UNL A   1      46.966  27.275  35.542  1.00  0.00     0.006 A 
ENDBRANCH  59  76
ENDBRANCH  33  34
ENDBRANCH  25  28
ENDBRANCH  23  24
ENDBRANCH  22  23
ENDBRANCH   1  22
TORSDOF 16
ENDMDL
