MODEL 1
REMARK VINA RESULT:     -11.4      0.000      0.000
REMARK SMILES Cc1ccc(NC(=O)c2cccn2CC(=O)NCCCNC(=O)c2ccc(-c3c4nc(c(-c5c(F)cccc5F)c5ccc([nH]5)c(-c5c(F)cccc5F)c5nc(c(-c6c(F)cccc6F)c6ccc3[nH]6)C=C5)C=C4)cc2)cc1
REMARK SMILES IDX 18 1 17 2 15 3 16 4 14 6 13 7 9 8 10 9 11 10 12 11 7 12 6 13
REMARK SMILES IDX 8 15 5 16 1 17 2 18 3 19 79 20 4 21 78 22 19 23 20 24 21 25
REMARK SMILES IDX 22 26 23 28 24 29 25 30 77 31 26 32 76 33 27 34 28 35 29 36
REMARK SMILES IDX 70 37 30 38 75 39 69 40 71 41 31 42 74 43 68 44 67 45 32 47
REMARK SMILES IDX 58 48 41 49 57 50 42 51 45 52 56 53 72 54 43 55 44 56 55 58
REMARK SMILES IDX 73 59 46 60 33 61 34 62 39 63 35 64 36 65 38 66 40 67 37 68
REMARK SMILES IDX 59 69 60 70 65 71 61 72 62 73 64 74 66 75 63 76 47 77 48 78
REMARK SMILES IDX 53 79 49 80 50 81 52 82 54 83 51 84
REMARK H PARENT 17 5 6 14 21 27 71 46 45 57
REMARK Flexibility Score: inf
ROOT
ATOM      1  C   UNL A   1      37.535  24.023  26.090  1.00  0.00     0.117 C 
ENDROOT
BRANCH   1   2
ATOM      2  N   UNL A   1      36.631  22.956  26.503  1.00  0.00    -0.354 N 
ATOM      3  C   UNL A   1      35.270  22.834  26.419  1.00  0.00     0.239 C 
ATOM      4  O   UNL A   1      34.777  21.781  26.839  1.00  0.00    -0.273 OA
ATOM      5  H   UNL A   1      37.081  22.185  26.917  1.00  0.00     0.163 HD
BRANCH   3   6
ATOM      6  C   UNL A   1      34.387  23.903  25.803  1.00  0.00     0.222 C 
BRANCH   6   7
ATOM      7  N   UNL A   1      33.291  23.392  24.984  1.00  0.00    -0.334 N 
ATOM      8  C   UNL A   1      31.946  23.523  25.279  1.00  0.00     0.107 A 
ATOM      9  C   UNL A   1      31.239  23.035  24.188  1.00  0.00     0.033 A 
ATOM     10  C   UNL A   1      32.172  22.526  23.256  1.00  0.00     0.020 A 
ATOM     11  C   UNL A   1      33.428  22.774  23.763  1.00  0.00     0.087 A 
BRANCH   8  12
ATOM     12  C   UNL A   1      31.424  24.095  26.493  1.00  0.00     0.272 C 
ATOM     13  N   UNL A   1      30.931  25.378  26.508  1.00  0.00    -0.321 N 
ATOM     14  H   UNL A   1      30.735  25.709  27.414  1.00  0.00     0.170 HD
ATOM     15  O   UNL A   1      31.378  23.450  27.547  1.00  0.00    -0.267 OA
BRANCH  13  16
ATOM     16  C   UNL A   1      30.648  26.318  25.497  1.00  0.00     0.041 A 
ATOM     17  C   UNL A   1      30.064  29.306  22.424  1.00  0.00     0.044 C 
ATOM     18  C   UNL A   1      30.266  28.298  23.513  1.00  0.00    -0.051 A 
ATOM     19  C   UNL A   1      29.403  27.210  23.608  1.00  0.00     0.005 A 
ATOM     20  C   UNL A   1      31.311  28.409  24.434  1.00  0.00     0.005 A 
ATOM     21  C   UNL A   1      29.581  26.246  24.604  1.00  0.00     0.026 A 
ATOM     22  C   UNL A   1      31.498  27.427  25.415  1.00  0.00     0.026 A 
ENDBRANCH  13  16
ENDBRANCH   8  12
ENDBRANCH   6   7
ENDBRANCH   3   6
ENDBRANCH   1   2
BRANCH   1  23
ATOM     23  C   UNL A   1      38.865  24.032  26.878  1.00  0.00     0.042 C 
BRANCH  23  24
ATOM     24  C   UNL A   1      39.283  25.345  27.622  1.00  0.00     0.118 C 
BRANCH  24  25
ATOM     25  N   UNL A   1      40.271  26.124  26.864  1.00  0.00    -0.352 N 
ATOM     26  C   UNL A   1      40.853  27.374  27.016  1.00  0.00     0.251 C 
ATOM     27  H   UNL A   1      40.595  25.651  26.064  1.00  0.00     0.163 HD
ATOM     28  O   UNL A   1      41.100  27.955  25.952  1.00  0.00    -0.269 OA
BRANCH  26  29
ATOM     29  C   UNL A   1      41.297  28.062  28.289  1.00  0.00     0.039 A 
ATOM     30  C   UNL A   1      41.447  29.480  28.283  1.00  0.00     0.014 A 
ATOM     31  C   UNL A   1      41.714  27.420  29.440  1.00  0.00     0.014 A 
ATOM     32  C   UNL A   1      41.951  30.245  29.388  1.00  0.00     0.010 A 
ATOM     33  C   UNL A   1      42.239  28.184  30.525  1.00  0.00     0.010 A 
ATOM     34  C   UNL A   1      42.356  29.612  30.558  1.00  0.00    -0.014 A 
BRANCH  34  35
ATOM     35  C   UNL A   1      42.557  30.282  31.922  1.00  0.00     0.031 A 
ATOM     36  C   UNL A   1      43.324  31.513  31.776  1.00  0.00     0.074 A 
ATOM     37  C   UNL A   1      41.839  30.374  33.091  1.00  0.00     0.049 A 
ATOM     38  N   UNL A   1      42.641  32.580  31.585  1.00  0.00    -0.248 NA
ATOM     39  C   UNL A   1      44.752  31.672  31.668  1.00  0.00     0.031 C 
ATOM     40  C   UNL A   1      40.831  29.460  33.591  1.00  0.00     0.029 A 
ATOM     41  N   UNL A   1      41.758  31.492  34.011  1.00  0.00    -0.354 N 
ATOM     42  C   UNL A   1      43.483  33.582  31.249  1.00  0.00     0.074 A 
ATOM     43  C   UNL A   1      44.804  32.987  31.385  1.00  0.00     0.031 C 
ATOM     44  C   UNL A   1      40.164  30.046  34.609  1.00  0.00     0.029 A 
ATOM     45  C   UNL A   1      40.607  31.451  34.823  1.00  0.00     0.049 A 
ATOM     46  H   UNL A   1      42.436  32.204  34.062  1.00  0.00     0.167 HD
ATOM     47  C   UNL A   1      42.884  34.764  30.943  1.00  0.00     0.037 A 
ATOM     48  C   UNL A   1      39.677  32.435  35.112  1.00  0.00     0.037 A 
ATOM     49  C   UNL A   1      41.480  34.605  30.427  1.00  0.00     0.049 A 
ATOM     50  C   UNL A   1      38.762  32.287  33.954  1.00  0.00     0.074 A 
ATOM     51  C   UNL A   1      40.752  35.145  29.381  1.00  0.00     0.029 A 
ATOM     52  N   UNL A   1      40.604  33.664  30.971  1.00  0.00    -0.354 N 
ATOM     53  N   UNL A   1      39.161  32.674  32.788  1.00  0.00    -0.248 NA
ATOM     54  C   UNL A   1      37.428  31.724  34.013  1.00  0.00     0.031 C 
ATOM     55  C   UNL A   1      39.515  34.424  29.256  1.00  0.00     0.029 A 
ATOM     56  C   UNL A   1      39.480  33.407  30.197  1.00  0.00     0.049 A 
ATOM     57  H   UNL A   1      40.769  33.218  31.833  1.00  0.00     0.167 HD
ATOM     58  C   UNL A   1      38.213  32.286  31.897  1.00  0.00     0.074 A 
ATOM     59  C   UNL A   1      37.134  31.737  32.706  1.00  0.00     0.031 C 
ATOM     60  C   UNL A   1      38.519  32.334  30.574  1.00  0.00     0.037 A 
BRANCH  47  61
ATOM     61  C   UNL A   1      43.551  36.093  31.206  1.00  0.00     0.057 A 
ATOM     62  C   UNL A   1      43.864  36.925  30.113  1.00  0.00     0.134 A 
ATOM     63  C   UNL A   1      43.744  36.700  32.463  1.00  0.00     0.134 A 
ATOM     64  F   UNL A   1      43.697  36.512  28.850  1.00  0.00    -0.206 F 
ATOM     65  C   UNL A   1      44.310  38.246  30.261  1.00  0.00     0.040 A 
ATOM     66  C   UNL A   1      44.154  38.031  32.624  1.00  0.00     0.040 A 
ATOM     67  F   UNL A   1      43.550  36.055  33.614  1.00  0.00    -0.206 F 
ATOM     68  C   UNL A   1      44.438  38.812  31.519  1.00  0.00     0.006 A 
ENDBRANCH  47  61
BRANCH  48  69
ATOM     69  C   UNL A   1      39.641  33.883  35.605  1.00  0.00     0.057 A 
ATOM     70  C   UNL A   1      40.552  34.812  35.083  1.00  0.00     0.134 A 
ATOM     71  C   UNL A   1      39.029  34.304  36.822  1.00  0.00     0.134 A 
ATOM     72  F   UNL A   1      41.249  34.523  33.975  1.00  0.00    -0.206 F 
ATOM     73  C   UNL A   1      40.861  36.029  35.739  1.00  0.00     0.040 A 
ATOM     74  C   UNL A   1      39.342  35.498  37.489  1.00  0.00     0.040 A 
ATOM     75  F   UNL A   1      38.141  33.552  37.479  1.00  0.00    -0.206 F 
ATOM     76  C   UNL A   1      40.275  36.363  36.956  1.00  0.00     0.006 A 
ENDBRANCH  48  69
BRANCH  60  77
ATOM     77  C   UNL A   1      37.908  31.316  29.627  1.00  0.00     0.057 A 
ATOM     78  C   UNL A   1      36.879  31.609  28.695  1.00  0.00     0.134 A 
ATOM     79  C   UNL A   1      38.211  29.950  29.713  1.00  0.00     0.134 A 
ATOM     80  F   UNL A   1      36.257  32.796  28.661  1.00  0.00    -0.206 F 
ATOM     81  C   UNL A   1      36.357  30.673  27.793  1.00  0.00     0.040 A 
ATOM     82  C   UNL A   1      37.659  28.989  28.850  1.00  0.00     0.040 A 
ATOM     83  F   UNL A   1      39.009  29.465  30.671  1.00  0.00    -0.206 F 
ATOM     84  C   UNL A   1      36.762  29.355  27.858  1.00  0.00     0.006 A 
ENDBRANCH  60  77
ENDBRANCH  34  35
ENDBRANCH  26  29
ENDBRANCH  24  25
ENDBRANCH  23  24
ENDBRANCH   1  23
TORSDOF 13
ENDMDL
MODEL 2
REMARK VINA RESULT:     -11.3      2.801      6.118
REMARK SMILES Cc1ccc(NC(=O)c2cccn2CC(=O)NCCCNC(=O)c2ccc(-c3c4nc(c(-c5c(F)cccc5F)c5ccc([nH]5)c(-c5c(F)cccc5F)c5nc(c(-c6c(F)cccc6F)c6ccc3[nH]6)C=C5)C=C4)cc2)cc1
REMARK SMILES IDX 18 1 17 2 15 3 16 4 14 6 13 7 9 8 10 9 11 10 12 11 7 12 6 13
REMARK SMILES IDX 8 15 5 16 1 17 2 18 3 19 79 20 4 21 78 22 19 23 20 24 21 25
REMARK SMILES IDX 22 26 23 28 24 29 25 30 77 31 26 32 76 33 27 34 28 35 29 36
REMARK SMILES IDX 70 37 30 38 75 39 69 40 71 41 31 42 74 43 68 44 67 45 32 47
REMARK SMILES IDX 58 48 41 49 57 50 42 51 45 52 56 53 72 54 43 55 44 56 55 58
REMARK SMILES IDX 73 59 46 60 33 61 34 62 39 63 35 64 36 65 38 66 40 67 37 68
REMARK SMILES IDX 59 69 60 70 65 71 61 72 62 73 64 74 66 75 63 76 47 77 48 78
REMARK SMILES IDX 53 79 49 80 50 81 52 82 54 83 51 84
REMARK H PARENT 17 5 6 14 21 27 71 46 45 57
REMARK Flexibility Score: inf
ROOT
ATOM      1  C   UNL A   1      39.222  22.992  26.512  1.00  0.00     0.117 C 
ENDROOT
BRANCH   1   2
ATOM      2  N   UNL A   1      38.588  22.317  25.387  1.00  0.00    -0.354 N 
ATOM      3  C   UNL A   1      37.319  22.392  24.880  1.00  0.00     0.239 C 
ATOM      4  O   UNL A   1      37.075  21.705  23.881  1.00  0.00    -0.273 OA
ATOM      5  H   UNL A   1      39.180  21.695  24.905  1.00  0.00     0.163 HD
BRANCH   3   6
ATOM      6  C   UNL A   1      36.253  23.299  25.467  1.00  0.00     0.222 C 
BRANCH   6   7
ATOM      7  N   UNL A   1      34.937  22.681  25.610  1.00  0.00    -0.334 N 
ATOM      8  C   UNL A   1      33.899  22.794  24.702  1.00  0.00     0.107 A 
ATOM      9  C   UNL A   1      32.885  21.951  25.135  1.00  0.00     0.033 A 
ATOM     10  C   UNL A   1      33.285  21.383  26.366  1.00  0.00     0.020 A 
ATOM     11  C   UNL A   1      34.559  21.836  26.626  1.00  0.00     0.087 A 
BRANCH   8  12
ATOM     12  C   UNL A   1      33.926  23.624  23.526  1.00  0.00     0.272 C 
ATOM     13  N   UNL A   1      33.374  24.883  23.544  1.00  0.00    -0.321 N 
ATOM     14  H   UNL A   1      33.323  25.298  22.653  1.00  0.00     0.170 HD
ATOM     15  O   UNL A   1      34.463  23.248  22.478  1.00  0.00    -0.267 OA
BRANCH  13  16
ATOM     16  C   UNL A   1      32.865  25.702  24.572  1.00  0.00     0.041 A 
ATOM     17  C   UNL A   1      31.565  28.375  27.715  1.00  0.00     0.044 C 
ATOM     18  C   UNL A   1      32.039  27.434  26.650  1.00  0.00    -0.051 A 
ATOM     19  C   UNL A   1      31.111  26.660  25.957  1.00  0.00     0.005 A 
ATOM     20  C   UNL A   1      33.391  27.320  26.318  1.00  0.00     0.005 A 
ATOM     21  C   UNL A   1      31.527  25.788  24.947  1.00  0.00     0.026 A 
ATOM     22  C   UNL A   1      33.798  26.462  25.288  1.00  0.00     0.026 A 
ENDBRANCH  13  16
ENDBRANCH   8  12
ENDBRANCH   6   7
ENDBRANCH   3   6
ENDBRANCH   1   2
BRANCH   1  23
ATOM     23  C   UNL A   1      40.692  22.561  26.730  1.00  0.00     0.042 C 
BRANCH  23  24
ATOM     24  C   UNL A   1      41.089  21.932  28.108  1.00  0.00     0.118 C 
BRANCH  24  25
ATOM     25  N   UNL A   1      42.510  22.136  28.424  1.00  0.00    -0.352 N 
ATOM     26  C   UNL A   1      43.413  23.170  28.228  1.00  0.00     0.251 C 
ATOM     27  H   UNL A   1      42.913  21.361  28.878  1.00  0.00     0.163 HD
ATOM     28  O   UNL A   1      44.574  22.799  28.011  1.00  0.00    -0.269 OA
BRANCH  26  29
ATOM     29  C   UNL A   1      43.181  24.662  28.334  1.00  0.00     0.039 A 
ATOM     30  C   UNL A   1      44.300  25.538  28.211  1.00  0.00     0.014 A 
ATOM     31  C   UNL A   1      41.987  25.261  28.685  1.00  0.00     0.014 A 
ATOM     32  C   UNL A   1      44.236  26.961  28.387  1.00  0.00     0.010 A 
ATOM     33  C   UNL A   1      41.935  26.673  28.885  1.00  0.00     0.010 A 
ATOM     34  C   UNL A   1      43.036  27.577  28.722  1.00  0.00    -0.014 A 
BRANCH  34  35
ATOM     35  C   UNL A   1      42.719  29.071  28.582  1.00  0.00     0.031 A 
ATOM     36  C   UNL A   1      41.330  29.260  28.182  1.00  0.00     0.074 A 
ATOM     37  C   UNL A   1      43.140  30.230  29.191  1.00  0.00     0.049 A 
ATOM     38  N   UNL A   1      40.484  29.381  29.136  1.00  0.00    -0.248 NA
ATOM     39  C   UNL A   1      40.759  29.179  26.862  1.00  0.00     0.031 C 
ATOM     40  C   UNL A   1      44.395  30.472  29.873  1.00  0.00     0.029 A 
ATOM     41  N   UNL A   1      42.370  31.424  29.479  1.00  0.00    -0.354 N 
ATOM     42  C   UNL A   1      39.236  29.324  28.621  1.00  0.00     0.074 A 
ATOM     43  C   UNL A   1      39.455  29.271  27.183  1.00  0.00     0.031 C 
ATOM     44  C   UNL A   1      44.306  31.622  30.576  1.00  0.00     0.029 A 
ATOM     45  C   UNL A   1      42.940  32.210  30.501  1.00  0.00     0.049 A 
ATOM     46  H   UNL A   1      41.537  31.661  29.010  1.00  0.00     0.167 HD
ATOM     47  C   UNL A   1      38.230  29.366  29.535  1.00  0.00     0.037 A 
ATOM     48  C   UNL A   1      42.364  32.774  31.626  1.00  0.00     0.037 A 
ATOM     49  C   UNL A   1      38.631  28.847  30.888  1.00  0.00     0.049 A 
ATOM     50  C   UNL A   1      42.452  31.634  32.571  1.00  0.00     0.074 A 
ATOM     51  C   UNL A   1      38.060  28.001  31.824  1.00  0.00     0.029 A 
ATOM     52  N   UNL A   1      39.886  29.121  31.434  1.00  0.00    -0.354 N 
ATOM     53  N   UNL A   1      41.678  30.614  32.395  1.00  0.00    -0.248 NA
ATOM     54  C   UNL A   1      43.359  31.554  33.699  1.00  0.00     0.031 C 
ATOM     55  C   UNL A   1      39.037  27.700  32.835  1.00  0.00     0.029 A 
ATOM     56  C   UNL A   1      40.233  28.324  32.516  1.00  0.00     0.049 A 
ATOM     57  H   UNL A   1      40.478  29.824  31.080  1.00  0.00     0.167 HD
ATOM     58  C   UNL A   1      42.066  29.665  33.284  1.00  0.00     0.074 A 
ATOM     59  C   UNL A   1      43.086  30.306  34.103  1.00  0.00     0.031 C 
ATOM     60  C   UNL A   1      41.590  28.403  33.123  1.00  0.00     0.037 A 
BRANCH  47  61
ATOM     61  C   UNL A   1      36.885  29.977  29.221  1.00  0.00     0.057 A 
ATOM     62  C   UNL A   1      36.452  31.091  29.968  1.00  0.00     0.134 A 
ATOM     63  C   UNL A   1      36.061  29.671  28.120  1.00  0.00     0.134 A 
ATOM     64  F   UNL A   1      37.148  31.538  31.022  1.00  0.00    -0.206 F 
ATOM     65  C   UNL A   1      35.315  31.840  29.635  1.00  0.00     0.040 A 
ATOM     66  C   UNL A   1      34.943  30.433  27.755  1.00  0.00     0.040 A 
ATOM     67  F   UNL A   1      36.278  28.622  27.325  1.00  0.00    -0.206 F 
ATOM     68  C   UNL A   1      34.565  31.525  28.514  1.00  0.00     0.006 A 
ENDBRANCH  47  61
BRANCH  48  69
ATOM     69  C   UNL A   1      41.166  33.648  31.997  1.00  0.00     0.057 A 
ATOM     70  C   UNL A   1      41.201  34.403  33.178  1.00  0.00     0.134 A 
ATOM     71  C   UNL A   1      39.854  33.485  31.462  1.00  0.00     0.134 A 
ATOM     72  F   UNL A   1      42.361  34.586  33.825  1.00  0.00    -0.206 F 
ATOM     73  C   UNL A   1      40.032  34.908  33.796  1.00  0.00     0.040 A 
ATOM     74  C   UNL A   1      38.687  33.965  32.077  1.00  0.00     0.040 A 
ATOM     75  F   UNL A   1      39.612  32.788  30.348  1.00  0.00    -0.206 F 
ATOM     76  C   UNL A   1      38.770  34.669  33.260  1.00  0.00     0.006 A 
ENDBRANCH  48  69
BRANCH  60  77
ATOM     77  C   UNL A   1      42.453  27.220  33.527  1.00  0.00     0.057 A 
ATOM     78  C   UNL A   1      42.297  26.494  34.737  1.00  0.00     0.134 A 
ATOM     79  C   UNL A   1      43.589  26.847  32.795  1.00  0.00     0.134 A 
ATOM     80  F   UNL A   1      41.448  26.878  35.700  1.00  0.00    -0.206 F 
ATOM     81  C   UNL A   1      43.067  25.375  35.077  1.00  0.00     0.040 A 
ATOM     82  C   UNL A   1      44.403  25.759  33.149  1.00  0.00     0.040 A 
ATOM     83  F   UNL A   1      44.006  27.551  31.736  1.00  0.00    -0.206 F 
ATOM     84  C   UNL A   1      44.118  24.992  34.268  1.00  0.00     0.006 A 
ENDBRANCH  60  77
ENDBRANCH  34  35
ENDBRANCH  26  29
ENDBRANCH  24  25
ENDBRANCH  23  24
ENDBRANCH   1  23
TORSDOF 13
ENDMDL
MODEL 3
REMARK VINA RESULT:     -11.2      2.790      6.303
REMARK SMILES Cc1ccc(NC(=O)c2cccn2CC(=O)NCCCNC(=O)c2ccc(-c3c4nc(c(-c5c(F)cccc5F)c5ccc([nH]5)c(-c5c(F)cccc5F)c5nc(c(-c6c(F)cccc6F)c6ccc3[nH]6)C=C5)C=C4)cc2)cc1
REMARK SMILES IDX 18 1 17 2 15 3 16 4 14 6 13 7 9 8 10 9 11 10 12 11 7 12 6 13
REMARK SMILES IDX 8 15 5 16 1 17 2 18 3 19 79 20 4 21 78 22 19 23 20 24 21 25
REMARK SMILES IDX 22 26 23 28 24 29 25 30 77 31 26 32 76 33 27 34 28 35 29 36
REMARK SMILES IDX 70 37 30 38 75 39 69 40 71 41 31 42 74 43 68 44 67 45 32 47
REMARK SMILES IDX 58 48 41 49 57 50 42 51 45 52 56 53 72 54 43 55 44 56 55 58
REMARK SMILES IDX 73 59 46 60 33 61 34 62 39 63 35 64 36 65 38 66 40 67 37 68
REMARK SMILES IDX 59 69 60 70 65 71 61 72 62 73 64 74 66 75 63 76 47 77 48 78
REMARK SMILES IDX 53 79 49 80 50 81 52 82 54 83 51 84
REMARK H PARENT 17 5 6 14 21 27 71 46 45 57
REMARK Flexibility Score: inf
ROOT
ATOM      1  C   UNL A   1      36.882  22.133  25.382  1.00  0.00     0.117 C 
ENDROOT
BRANCH   1   2
ATOM      2  N   UNL A   1      35.919  21.764  26.413  1.00  0.00    -0.354 N 
ATOM      3  C   UNL A   1      34.725  22.320  26.782  1.00  0.00     0.239 C 
ATOM      4  O   UNL A   1      34.106  21.761  27.694  1.00  0.00    -0.273 OA
ATOM      5  H   UNL A   1      36.175  20.970  26.937  1.00  0.00     0.163 HD
BRANCH   3   6
ATOM      6  C   UNL A   1      34.141  23.540  26.095  1.00  0.00     0.222 C 
BRANCH   6   7
ATOM      7  N   UNL A   1      33.113  23.247  25.099  1.00  0.00    -0.334 N 
ATOM      8  C   UNL A   1      31.767  23.538  25.233  1.00  0.00     0.107 A 
ATOM      9  C   UNL A   1      31.162  23.233  24.021  1.00  0.00     0.033 A 
ATOM     10  C   UNL A   1      32.143  22.673  23.172  1.00  0.00     0.020 A 
ATOM     11  C   UNL A   1      33.338  22.709  23.854  1.00  0.00     0.087 A 
BRANCH   8  12
ATOM     12  C   UNL A   1      31.160  24.084  26.418  1.00  0.00     0.272 C 
ATOM     13  N   UNL A   1      30.659  25.364  26.423  1.00  0.00    -0.321 N 
ATOM     14  H   UNL A   1      30.399  25.677  27.320  1.00  0.00     0.170 HD
ATOM     15  O   UNL A   1      31.043  23.418  27.453  1.00  0.00    -0.267 OA
BRANCH  13  16
ATOM     16  C   UNL A   1      30.442  26.322  25.413  1.00  0.00     0.041 A 
ATOM     17  C   UNL A   1      30.059  29.364  22.361  1.00  0.00     0.044 C 
ATOM     18  C   UNL A   1      30.190  28.337  23.444  1.00  0.00    -0.051 A 
ATOM     19  C   UNL A   1      29.314  27.255  23.471  1.00  0.00     0.005 A 
ATOM     20  C   UNL A   1      31.181  28.424  24.424  1.00  0.00     0.005 A 
ATOM     21  C   UNL A   1      29.427  26.274  24.461  1.00  0.00     0.026 A 
ATOM     22  C   UNL A   1      31.305  27.425  25.398  1.00  0.00     0.026 A 
ENDBRANCH  13  16
ENDBRANCH   8  12
ENDBRANCH   6   7
ENDBRANCH   3   6
ENDBRANCH   1   2
BRANCH   1  23
ATOM     23  C   UNL A   1      38.259  22.544  25.956  1.00  0.00     0.042 C 
BRANCH  23  24
ATOM     24  C   UNL A   1      39.394  21.466  26.017  1.00  0.00     0.118 C 
BRANCH  24  25
ATOM     25  N   UNL A   1      40.242  21.618  27.208  1.00  0.00    -0.352 N 
ATOM     26  C   UNL A   1      41.198  22.538  27.612  1.00  0.00     0.251 C 
ATOM     27  H   UNL A   1      40.099  20.904  27.869  1.00  0.00     0.163 HD
ATOM     28  O   UNL A   1      42.120  22.055  28.281  1.00  0.00    -0.269 OA
BRANCH  26  29
ATOM     29  C   UNL A   1      41.207  24.040  27.420  1.00  0.00     0.039 A 
ATOM     30  C   UNL A   1      40.625  24.861  28.430  1.00  0.00     0.014 A 
ATOM     31  C   UNL A   1      41.609  24.695  26.272  1.00  0.00     0.014 A 
ATOM     32  C   UNL A   1      40.482  26.286  28.331  1.00  0.00     0.010 A 
ATOM     33  C   UNL A   1      41.439  26.108  26.168  1.00  0.00     0.010 A 
ATOM     34  C   UNL A   1      40.899  26.959  27.188  1.00  0.00    -0.014 A 
BRANCH  34  35
ATOM     35  C   UNL A   1      41.158  28.466  27.073  1.00  0.00     0.031 A 
ATOM     36  C   UNL A   1      40.093  29.216  27.729  1.00  0.00     0.074 A 
ATOM     37  C   UNL A   1      42.268  29.275  27.022  1.00  0.00     0.049 A 
ATOM     38  N   UNL A   1      40.280  29.488  28.966  1.00  0.00    -0.248 NA
ATOM     39  C   UNL A   1      38.793  29.562  27.214  1.00  0.00     0.031 C 
ATOM     40  C   UNL A   1      43.606  28.924  26.589  1.00  0.00     0.029 A 
ATOM     41  N   UNL A   1      42.436  30.607  27.570  1.00  0.00    -0.354 N 
ATOM     42  C   UNL A   1      39.132  29.978  29.483  1.00  0.00     0.074 A 
ATOM     43  C   UNL A   1      38.247  30.077  28.332  1.00  0.00     0.031 C 
ATOM     44  C   UNL A   1      44.465  29.899  26.960  1.00  0.00     0.029 A 
ATOM     45  C   UNL A   1      43.788  30.954  27.764  1.00  0.00     0.049 A 
ATOM     46  H   UNL A   1      41.684  31.206  27.783  1.00  0.00     0.167 HD
ATOM     47  C   UNL A   1      39.163  30.243  30.816  1.00  0.00     0.037 A 
ATOM     48  C   UNL A   1      44.424  31.504  28.863  1.00  0.00     0.037 A 
ATOM     49  C   UNL A   1      40.160  29.405  31.568  1.00  0.00     0.049 A 
ATOM     50  C   UNL A   1      44.714  30.278  29.645  1.00  0.00     0.074 A 
ATOM     51  C   UNL A   1      40.147  28.693  32.756  1.00  0.00     0.029 A 
ATOM     52  N   UNL A   1      41.414  29.106  31.033  1.00  0.00    -0.354 N 
ATOM     53  N   UNL A   1      43.739  29.658  30.223  1.00  0.00    -0.248 NA
ATOM     54  C   UNL A   1      46.028  29.691  29.818  1.00  0.00     0.031 C 
ATOM     55  C   UNL A   1      41.341  27.896  32.831  1.00  0.00     0.029 A 
ATOM     56  C   UNL A   1      42.087  28.076  31.677  1.00  0.00     0.049 A 
ATOM     57  H   UNL A   1      41.793  29.587  30.261  1.00  0.00     0.167 HD
ATOM     58  C   UNL A   1      44.246  28.505  30.727  1.00  0.00     0.074 A 
ATOM     59  C   UNL A   1      45.680  28.585  30.489  1.00  0.00     0.031 C 
ATOM     60  C   UNL A   1      43.374  27.550  31.145  1.00  0.00     0.037 A 
BRANCH  47  61
ATOM     61  C   UNL A   1      38.341  31.350  31.434  1.00  0.00     0.057 A 
ATOM     62  C   UNL A   1      38.491  32.662  30.944  1.00  0.00     0.134 A 
ATOM     63  C   UNL A   1      37.281  31.196  32.349  1.00  0.00     0.134 A 
ATOM     64  F   UNL A   1      39.427  32.967  30.035  1.00  0.00    -0.206 F 
ATOM     65  C   UNL A   1      37.649  33.719  31.318  1.00  0.00     0.040 A 
ATOM     66  C   UNL A   1      36.410  32.236  32.703  1.00  0.00     0.040 A 
ATOM     67  F   UNL A   1      37.015  30.041  32.959  1.00  0.00    -0.206 F 
ATOM     68  C   UNL A   1      36.590  33.505  32.186  1.00  0.00     0.006 A 
ENDBRANCH  47  61
BRANCH  48  69
ATOM     69  C   UNL A   1      44.266  32.689  29.817  1.00  0.00     0.057 A 
ATOM     70  C   UNL A   1      42.989  33.039  30.278  1.00  0.00     0.134 A 
ATOM     71  C   UNL A   1      45.238  33.718  29.990  1.00  0.00     0.134 A 
ATOM     72  F   UNL A   1      41.963  32.190  30.124  1.00  0.00    -0.206 F 
ATOM     73  C   UNL A   1      42.695  34.314  30.817  1.00  0.00     0.040 A 
ATOM     74  C   UNL A   1      44.952  34.992  30.505  1.00  0.00     0.040 A 
ATOM     75  F   UNL A   1      46.510  33.581  29.604  1.00  0.00    -0.206 F 
ATOM     76  C   UNL A   1      43.670  35.303  30.910  1.00  0.00     0.006 A 
ENDBRANCH  48  69
BRANCH  60  77
ATOM     77  C   UNL A   1      43.751  26.084  31.017  1.00  0.00     0.057 A 
ATOM     78  C   UNL A   1      44.126  25.257  32.108  1.00  0.00     0.134 A 
ATOM     79  C   UNL A   1      43.909  25.467  29.768  1.00  0.00     0.134 A 
ATOM     80  F   UNL A   1      44.311  25.741  33.344  1.00  0.00    -0.206 F 
ATOM     81  C   UNL A   1      44.424  23.895  31.984  1.00  0.00     0.040 A 
ATOM     82  C   UNL A   1      44.258  24.115  29.624  1.00  0.00     0.040 A 
ATOM     83  F   UNL A   1      43.796  26.153  28.625  1.00  0.00    -0.206 F 
ATOM     84  C   UNL A   1      44.474  23.312  30.734  1.00  0.00     0.006 A 
ENDBRANCH  60  77
ENDBRANCH  34  35
ENDBRANCH  26  29
ENDBRANCH  24  25
ENDBRANCH  23  24
ENDBRANCH   1  23
TORSDOF 13
ENDMDL
