MODEL 1
REMARK VINA RESULT:     -12.6      0.000      0.000
REMARK SMILES CN1C(=O)C[C@H](C(=O)NCCCNC(=O)c2ccc(-c3c4nc(c(-c5c(F)cccc5F)c5ccc([nH]5)c(-c5c(F)cccc5F)c5nc(c(-c6c(F)cccc6F)c6ccc3[nH]6)C=C5)C=C4)cc2)C12CC[NH+](Cc1ccc(Cl)c(F)c1)CC2
REMARK SMILES IDX 11 1 10 2 9 3 7 4 8 5 6 7 1 8 2 9 3 10 70 11 4 12 5 13 71 14
REMARK SMILES IDX 84 15 72 16 83 17 73 18 74 20 75 21 76 22 82 23 77 24 80 25
REMARK SMILES IDX 78 26 81 27 79 28 12 29 13 30 14 31 15 33 16 34 17 35 69 36
REMARK SMILES IDX 18 37 68 38 19 39 20 40 21 41 62 42 22 43 67 44 61 45 63 46
REMARK SMILES IDX 23 47 66 48 60 49 59 50 24 52 50 53 33 54 49 55 34 56 37 57
REMARK SMILES IDX 48 58 64 59 35 60 36 61 47 63 65 64 38 65 25 66 26 67 31 68
REMARK SMILES IDX 27 69 28 70 30 71 32 72 29 73 51 74 52 75 57 76 53 77 54 78
REMARK SMILES IDX 56 79 58 80 55 81 39 82 40 83 45 84 41 85 42 86 44 87 46 88
REMARK SMILES IDX 43 89
REMARK H PARENT 9 6 73 19 13 32 63 51 37 62
REMARK Flexibility Score: inf
ROOT
ATOM      1  C   UNL A   1      33.497  29.228  27.081  1.00  0.00     0.042 C 
ENDROOT
BRANCH   1   2
ATOM      2  C   UNL A   1      33.246  30.172  25.918  1.00  0.00     0.117 C 
BRANCH   2   3
ATOM      3  N   UNL A   1      33.396  29.526  24.634  1.00  0.00    -0.356 N 
ATOM      4  C   UNL A   1      32.430  29.094  23.782  1.00  0.00     0.226 C 
ATOM      5  O   UNL A   1      32.731  29.114  22.591  1.00  0.00    -0.275 OA
ATOM      6  H   UNL A   1      34.323  29.379  24.336  1.00  0.00     0.163 HD
BRANCH   4   7
ATOM      7  C   UNL A   1      31.051  28.737  24.322  1.00  0.00     0.114 C 
ATOM      8  C   UNL A   1      28.292  26.200  23.742  1.00  0.00     0.147 C 
ATOM      9  N   UNL A   1      29.224  27.315  23.801  1.00  0.00    -0.339 N 
ATOM     10  C   UNL A   1      28.882  28.547  23.286  1.00  0.00     0.223 C 
ATOM     11  C   UNL A   1      30.607  27.232  24.343  1.00  0.00     0.065 C 
ATOM     12  O   UNL A   1      27.813  28.868  22.797  1.00  0.00    -0.275 OA
ATOM     13  C   UNL A   1      30.061  29.454  23.392  1.00  0.00     0.116 C 
ATOM     14  C   UNL A   1      30.540  26.652  25.785  1.00  0.00     0.091 C 
ATOM     15  C   UNL A   1      31.476  26.297  23.486  1.00  0.00     0.091 C 
ATOM     16  C   UNL A   1      31.875  26.199  26.372  1.00  0.00     0.265 C 
ATOM     17  C   UNL A   1      32.811  25.905  24.149  1.00  0.00     0.265 C 
ATOM     18  N   UNL A   1      32.676  25.362  25.494  1.00  0.00    -0.331 N 
ATOM     19  H   UNL A   1      33.604  25.440  25.911  1.00  0.00     0.348 HD
BRANCH  18  20
ATOM     20  C   UNL A   1      32.561  23.905  25.608  1.00  0.00     0.299 C 
BRANCH  20  21
ATOM     21  C   UNL A   1      33.858  23.124  25.622  1.00  0.00     0.009 A 
ATOM     22  C   UNL A   1      33.921  21.827  25.095  1.00  0.00     0.011 A 
ATOM     23  C   UNL A   1      35.041  23.721  26.091  1.00  0.00     0.050 A 
ATOM     24  C   UNL A   1      35.154  21.184  24.941  1.00  0.00     0.024 A 
ATOM     25  C   UNL A   1      36.268  23.095  25.894  1.00  0.00     0.142 A 
ATOM     26  C   UNL A   1      36.332  21.837  25.306  1.00  0.00     0.076 A 
ATOM     27  F   UNL A   1      37.388  23.764  26.212  1.00  0.00    -0.205 F 
ATOM     28  Cl  UNL A   1      37.848  21.101  24.965  1.00  0.00    -0.081 Cl
ENDBRANCH  20  21
ENDBRANCH  18  20
ENDBRANCH   4   7
ENDBRANCH   2   3
ENDBRANCH   1   2
BRANCH   1  29
ATOM     29  C   UNL A   1      34.901  29.289  27.669  1.00  0.00     0.118 C 
BRANCH  29  30
ATOM     30  N   UNL A   1      35.043  30.266  28.739  1.00  0.00    -0.352 N 
ATOM     31  C   UNL A   1      36.123  30.558  29.534  1.00  0.00     0.251 C 
ATOM     32  H   UNL A   1      34.236  30.801  28.921  1.00  0.00     0.163 HD
ATOM     33  O   UNL A   1      35.991  31.335  30.476  1.00  0.00    -0.269 OA
BRANCH  31  34
ATOM     34  C   UNL A   1      37.430  29.912  29.290  1.00  0.00     0.039 A 
ATOM     35  C   UNL A   1      37.967  29.967  28.003  1.00  0.00     0.014 A 
ATOM     36  C   UNL A   1      38.128  29.263  30.313  1.00  0.00     0.014 A 
ATOM     37  C   UNL A   1      39.236  29.440  27.762  1.00  0.00     0.010 A 
ATOM     38  C   UNL A   1      39.432  28.825  30.092  1.00  0.00     0.010 A 
ATOM     39  C   UNL A   1      40.001  28.908  28.814  1.00  0.00    -0.014 A 
BRANCH  39  40
ATOM     40  C   UNL A   1      41.400  28.471  28.577  1.00  0.00     0.031 A 
ATOM     41  C   UNL A   1      41.716  27.047  28.214  1.00  0.00     0.074 A 
ATOM     42  C   UNL A   1      42.399  29.367  28.712  1.00  0.00     0.049 A 
ATOM     43  N   UNL A   1      42.874  26.508  27.920  1.00  0.00    -0.248 NA
ATOM     44  C   UNL A   1      40.594  26.094  28.200  1.00  0.00     0.031 C 
ATOM     45  C   UNL A   1      42.231  30.761  29.130  1.00  0.00     0.029 A 
ATOM     46  N   UNL A   1      43.748  29.246  28.501  1.00  0.00    -0.354 N 
ATOM     47  C   UNL A   1      42.619  25.163  27.687  1.00  0.00     0.074 A 
ATOM     48  C   UNL A   1      41.211  24.952  27.939  1.00  0.00     0.031 C 
ATOM     49  C   UNL A   1      43.422  31.378  29.095  1.00  0.00     0.029 A 
ATOM     50  C   UNL A   1      44.443  30.417  28.691  1.00  0.00     0.049 A 
ATOM     51  H   UNL A   1      44.180  28.400  28.239  1.00  0.00     0.167 HD
ATOM     52  C   UNL A   1      43.474  24.197  27.273  1.00  0.00     0.037 A 
ATOM     53  C   UNL A   1      45.753  30.689  28.549  1.00  0.00     0.037 A 
ATOM     54  C   UNL A   1      44.876  24.412  27.017  1.00  0.00     0.049 A 
ATOM     55  C   UNL A   1      46.680  29.599  28.090  1.00  0.00     0.074 A 
ATOM     56  C   UNL A   1      45.813  23.512  26.540  1.00  0.00     0.029 A 
ATOM     57  N   UNL A   1      45.544  25.608  27.226  1.00  0.00    -0.354 N 
ATOM     58  N   UNL A   1      46.408  28.352  27.786  1.00  0.00    -0.248 NA
ATOM     59  C   UNL A   1      48.097  29.958  27.942  1.00  0.00     0.031 C 
ATOM     60  C   UNL A   1      47.059  24.148  26.516  1.00  0.00     0.029 A 
ATOM     61  C   UNL A   1      46.887  25.462  26.918  1.00  0.00     0.049 A 
ATOM     62  H   UNL A   1      45.126  26.441  27.547  1.00  0.00     0.167 HD
ATOM     63  C   UNL A   1      47.612  27.786  27.392  1.00  0.00     0.074 A 
ATOM     64  C   UNL A   1      48.609  28.834  27.466  1.00  0.00     0.031 C 
ATOM     65  C   UNL A   1      47.873  26.510  27.008  1.00  0.00     0.037 A 
BRANCH  52  66
ATOM     66  C   UNL A   1      42.915  22.816  27.070  1.00  0.00     0.057 A 
ATOM     67  C   UNL A   1      42.660  21.955  28.146  1.00  0.00     0.134 A 
ATOM     68  C   UNL A   1      42.590  22.356  25.787  1.00  0.00     0.134 A 
ATOM     69  F   UNL A   1      42.958  22.326  29.401  1.00  0.00    -0.206 F 
ATOM     70  C   UNL A   1      42.131  20.677  27.951  1.00  0.00     0.040 A 
ATOM     71  C   UNL A   1      42.031  21.093  25.583  1.00  0.00     0.040 A 
ATOM     72  F   UNL A   1      42.801  23.129  24.711  1.00  0.00    -0.206 F 
ATOM     73  C   UNL A   1      41.807  20.246  26.666  1.00  0.00     0.006 A 
ENDBRANCH  52  66
BRANCH  53  74
ATOM     74  C   UNL A   1      46.263  32.058  28.816  1.00  0.00     0.057 A 
ATOM     75  C   UNL A   1      46.344  33.014  27.797  1.00  0.00     0.134 A 
ATOM     76  C   UNL A   1      46.695  32.441  30.092  1.00  0.00     0.134 A 
ATOM     77  F   UNL A   1      45.963  32.705  26.548  1.00  0.00    -0.206 F 
ATOM     78  C   UNL A   1      46.860  34.291  28.030  1.00  0.00     0.040 A 
ATOM     79  C   UNL A   1      47.184  33.723  30.346  1.00  0.00     0.040 A 
ATOM     80  F   UNL A   1      46.634  31.575  31.115  1.00  0.00    -0.206 F 
ATOM     81  C   UNL A   1      47.277  34.649  29.310  1.00  0.00     0.006 A 
ENDBRANCH  53  74
BRANCH  65  82
ATOM     82  C   UNL A   1      49.290  26.194  26.622  1.00  0.00     0.057 A 
ATOM     83  C   UNL A   1      50.210  25.665  27.540  1.00  0.00     0.134 A 
ATOM     84  C   UNL A   1      49.744  26.424  25.317  1.00  0.00     0.134 A 
ATOM     85  F   UNL A   1      49.845  25.432  28.809  1.00  0.00    -0.206 F 
ATOM     86  C   UNL A   1      51.537  25.422  27.184  1.00  0.00     0.040 A 
ATOM     87  C   UNL A   1      51.060  26.151  24.941  1.00  0.00     0.040 A 
ATOM     88  F   UNL A   1      48.916  26.917  24.383  1.00  0.00    -0.206 F 
ATOM     89  C   UNL A   1      51.965  25.661  25.881  1.00  0.00     0.006 A 
ENDBRANCH  65  82
ENDBRANCH  39  40
ENDBRANCH  31  34
ENDBRANCH  29  30
ENDBRANCH   1  29
TORSDOF 12
ENDMDL
MODEL 2
REMARK VINA RESULT:     -12.5      4.641      8.241
REMARK SMILES CN1C(=O)C[C@H](C(=O)NCCCNC(=O)c2ccc(-c3c4nc(c(-c5c(F)cccc5F)c5ccc([nH]5)c(-c5c(F)cccc5F)c5nc(c(-c6c(F)cccc6F)c6ccc3[nH]6)C=C5)C=C4)cc2)C12CC[NH+](Cc1ccc(Cl)c(F)c1)CC2
REMARK SMILES IDX 11 1 10 2 9 3 7 4 8 5 6 7 1 8 2 9 3 10 70 11 4 12 5 13 71 14
REMARK SMILES IDX 84 15 72 16 83 17 73 18 74 20 75 21 76 22 82 23 77 24 80 25
REMARK SMILES IDX 78 26 81 27 79 28 12 29 13 30 14 31 15 33 16 34 17 35 69 36
REMARK SMILES IDX 18 37 68 38 19 39 20 40 21 41 62 42 22 43 67 44 61 45 63 46
REMARK SMILES IDX 23 47 66 48 60 49 59 50 24 52 50 53 33 54 49 55 34 56 37 57
REMARK SMILES IDX 48 58 64 59 35 60 36 61 47 63 65 64 38 65 25 66 26 67 31 68
REMARK SMILES IDX 27 69 28 70 30 71 32 72 29 73 51 74 52 75 57 76 53 77 54 78
REMARK SMILES IDX 56 79 58 80 55 81 39 82 40 83 45 84 41 85 42 86 44 87 46 88
REMARK SMILES IDX 43 89
REMARK H PARENT 9 6 73 19 13 32 63 51 37 62
REMARK Flexibility Score: inf
ROOT
ATOM      1  C   UNL A   1      31.593  31.446  26.503  1.00  0.00     0.042 C 
ENDROOT
BRANCH   1   2
ATOM      2  C   UNL A   1      31.419  29.986  26.884  1.00  0.00     0.117 C 
BRANCH   2   3
ATOM      3  N   UNL A   1      32.677  29.280  26.979  1.00  0.00    -0.356 N 
ATOM      4  C   UNL A   1      33.450  28.785  25.979  1.00  0.00     0.226 C 
ATOM      5  O   UNL A   1      34.656  28.751  26.212  1.00  0.00    -0.275 OA
ATOM      6  H   UNL A   1      33.019  29.140  27.891  1.00  0.00     0.163 HD
BRANCH   4   7
ATOM      7  C   UNL A   1      32.815  28.424  24.641  1.00  0.00     0.114 C 
ATOM      8  C   UNL A   1      32.899  25.641  22.064  1.00  0.00     0.147 C 
ATOM      9  N   UNL A   1      33.046  26.813  22.913  1.00  0.00    -0.339 N 
ATOM     10  C   UNL A   1      33.738  27.921  22.470  1.00  0.00     0.223 C 
ATOM     11  C   UNL A   1      32.543  26.913  24.309  1.00  0.00     0.065 C 
ATOM     12  O   UNL A   1      34.236  28.084  21.371  1.00  0.00    -0.275 OA
ATOM     13  C   UNL A   1      33.814  28.912  23.582  1.00  0.00     0.116 C 
ATOM     14  C   UNL A   1      31.026  26.568  24.316  1.00  0.00     0.091 C 
ATOM     15  C   UNL A   1      33.270  25.916  25.227  1.00  0.00     0.091 C 
ATOM     16  C   UNL A   1      30.419  26.308  25.693  1.00  0.00     0.265 C 
ATOM     17  C   UNL A   1      32.598  25.729  26.601  1.00  0.00     0.265 C 
ATOM     18  N   UNL A   1      31.180  25.399  26.535  1.00  0.00    -0.331 N 
ATOM     19  H   UNL A   1      30.811  25.607  27.463  1.00  0.00     0.348 HD
BRANCH  18  20
ATOM     20  C   UNL A   1      30.835  23.975  26.530  1.00  0.00     0.299 C 
BRANCH  20  21
ATOM     21  C   UNL A   1      31.906  23.021  26.045  1.00  0.00     0.009 A 
ATOM     22  C   UNL A   1      32.830  22.464  26.940  1.00  0.00     0.011 A 
ATOM     23  C   UNL A   1      31.939  22.614  24.700  1.00  0.00     0.050 A 
ATOM     24  C   UNL A   1      33.694  21.446  26.524  1.00  0.00     0.024 A 
ATOM     25  C   UNL A   1      32.769  21.570  24.303  1.00  0.00     0.142 A 
ATOM     26  C   UNL A   1      33.635  20.973  25.212  1.00  0.00     0.076 A 
ATOM     27  F   UNL A   1      32.659  21.104  23.049  1.00  0.00    -0.205 F 
ATOM     28  Cl  UNL A   1      34.589  19.617  24.757  1.00  0.00    -0.081 Cl
ENDBRANCH  20  21
ENDBRANCH  18  20
ENDBRANCH   4   7
ENDBRANCH   2   3
ENDBRANCH   1   2
BRANCH   1  29
ATOM     29  C   UNL A   1      32.802  32.134  27.126  1.00  0.00     0.118 C 
BRANCH  29  30
ATOM     30  N   UNL A   1      32.544  33.507  27.535  1.00  0.00    -0.352 N 
ATOM     31  C   UNL A   1      33.192  34.294  28.454  1.00  0.00     0.251 C 
ATOM     32  H   UNL A   1      31.783  33.939  27.081  1.00  0.00     0.163 HD
ATOM     33  O   UNL A   1      32.727  35.392  28.749  1.00  0.00    -0.269 OA
BRANCH  31  34
ATOM     34  C   UNL A   1      34.419  33.811  29.122  1.00  0.00     0.039 A 
ATOM     35  C   UNL A   1      34.290  32.873  30.148  1.00  0.00     0.014 A 
ATOM     36  C   UNL A   1      35.686  34.265  28.745  1.00  0.00     0.014 A 
ATOM     37  C   UNL A   1      35.434  32.336  30.740  1.00  0.00     0.010 A 
ATOM     38  C   UNL A   1      36.825  33.657  29.268  1.00  0.00     0.010 A 
ATOM     39  C   UNL A   1      36.712  32.687  30.272  1.00  0.00    -0.014 A 
BRANCH  39  40
ATOM     40  C   UNL A   1      37.919  32.013  30.815  1.00  0.00     0.031 A 
ATOM     41  C   UNL A   1      38.474  32.384  32.162  1.00  0.00     0.074 A 
ATOM     42  C   UNL A   1      38.532  31.068  30.073  1.00  0.00     0.049 A 
ATOM     43  N   UNL A   1      39.485  31.861  32.809  1.00  0.00    -0.248 NA
ATOM     44  C   UNL A   1      37.829  33.503  32.866  1.00  0.00     0.031 C 
ATOM     45  C   UNL A   1      38.135  30.668  28.721  1.00  0.00     0.029 A 
ATOM     46  N   UNL A   1      39.609  30.267  30.352  1.00  0.00    -0.354 N 
ATOM     47  C   UNL A   1      39.595  32.583  33.991  1.00  0.00     0.074 A 
ATOM     48  C   UNL A   1      38.592  33.624  33.942  1.00  0.00     0.031 C 
ATOM     49  C   UNL A   1      38.923  29.662  28.310  1.00  0.00     0.029 A 
ATOM     50  C   UNL A   1      39.905  29.373  29.350  1.00  0.00     0.049 A 
ATOM     51  H   UNL A   1      40.123  30.326  31.190  1.00  0.00     0.167 HD
ATOM     52  C   UNL A   1      40.435  32.380  35.034  1.00  0.00     0.037 A 
ATOM     53  C   UNL A   1      40.854  28.423  29.278  1.00  0.00     0.037 A 
ATOM     54  C   UNL A   1      41.429  31.338  35.083  1.00  0.00     0.049 A 
ATOM     55  C   UNL A   1      41.774  28.219  30.450  1.00  0.00     0.074 A 
ATOM     56  C   UNL A   1      42.288  31.014  36.118  1.00  0.00     0.029 A 
ATOM     57  N   UNL A   1      41.702  30.457  34.048  1.00  0.00    -0.354 N 
ATOM     58  N   UNL A   1      41.806  28.852  31.598  1.00  0.00    -0.248 NA
ATOM     59  C   UNL A   1      42.783  27.160  30.318  1.00  0.00     0.031 C 
ATOM     60  C   UNL A   1      43.121  29.976  35.687  1.00  0.00     0.029 A 
ATOM     61  C   UNL A   1      42.739  29.610  34.407  1.00  0.00     0.049 A 
ATOM     62  H   UNL A   1      41.230  30.436  33.183  1.00  0.00     0.167 HD
ATOM     63  C   UNL A   1      42.821  28.254  32.332  1.00  0.00     0.074 A 
ATOM     64  C   UNL A   1      43.358  27.189  31.511  1.00  0.00     0.031 C 
ATOM     65  C   UNL A   1      43.274  28.562  33.574  1.00  0.00     0.037 A 
BRANCH  52  66
ATOM     66  C   UNL A   1      40.313  33.306  36.213  1.00  0.00     0.057 A 
ATOM     67  C   UNL A   1      41.096  34.462  36.330  1.00  0.00     0.134 A 
ATOM     68  C   UNL A   1      39.375  33.060  37.224  1.00  0.00     0.134 A 
ATOM     69  F   UNL A   1      42.022  34.754  35.404  1.00  0.00    -0.206 F 
ATOM     70  C   UNL A   1      40.971  35.324  37.422  1.00  0.00     0.040 A 
ATOM     71  C   UNL A   1      39.219  33.929  38.304  1.00  0.00     0.040 A 
ATOM     72  F   UNL A   1      38.587  31.974  37.174  1.00  0.00    -0.206 F 
ATOM     73  C   UNL A   1      40.023  35.062  38.410  1.00  0.00     0.006 A 
ENDBRANCH  52  66
BRANCH  53  74
ATOM     74  C   UNL A   1      40.967  27.570  28.067  1.00  0.00     0.057 A 
ATOM     75  C   UNL A   1      41.745  27.964  26.972  1.00  0.00     0.134 A 
ATOM     76  C   UNL A   1      40.289  26.349  27.968  1.00  0.00     0.134 A 
ATOM     77  F   UNL A   1      42.405  29.131  26.996  1.00  0.00    -0.206 F 
ATOM     78  C   UNL A   1      41.825  27.188  25.814  1.00  0.00     0.040 A 
ATOM     79  C   UNL A   1      40.385  25.548  26.829  1.00  0.00     0.040 A 
ATOM     80  F   UNL A   1      39.535  25.909  28.987  1.00  0.00    -0.206 F 
ATOM     81  C   UNL A   1      41.146  25.973  25.743  1.00  0.00     0.006 A 
ENDBRANCH  53  74
BRANCH  65  82
ATOM     82  C   UNL A   1      44.391  27.717  34.118  1.00  0.00     0.057 A 
ATOM     83  C   UNL A   1      45.737  28.087  33.978  1.00  0.00     0.134 A 
ATOM     84  C   UNL A   1      44.120  26.516  34.787  1.00  0.00     0.134 A 
ATOM     85  F   UNL A   1      46.068  29.218  33.338  1.00  0.00    -0.206 F 
ATOM     86  C   UNL A   1      46.770  27.271  34.442  1.00  0.00     0.040 A 
ATOM     87  C   UNL A   1      45.145  25.710  35.286  1.00  0.00     0.040 A 
ATOM     88  F   UNL A   1      42.856  26.106  34.968  1.00  0.00    -0.206 F 
ATOM     89  C   UNL A   1      46.475  26.080  35.102  1.00  0.00     0.006 A 
ENDBRANCH  65  82
ENDBRANCH  39  40
ENDBRANCH  31  34
ENDBRANCH  29  30
ENDBRANCH   1  29
TORSDOF 12
ENDMDL
MODEL 3
REMARK VINA RESULT:     -12.4      5.023      7.416
REMARK SMILES CN1C(=O)C[C@H](C(=O)NCCCNC(=O)c2ccc(-c3c4nc(c(-c5c(F)cccc5F)c5ccc([nH]5)c(-c5c(F)cccc5F)c5nc(c(-c6c(F)cccc6F)c6ccc3[nH]6)C=C5)C=C4)cc2)C12CC[NH+](Cc1ccc(Cl)c(F)c1)CC2
REMARK SMILES IDX 11 1 10 2 9 3 7 4 8 5 6 7 1 8 2 9 3 10 70 11 4 12 5 13 71 14
REMARK SMILES IDX 84 15 72 16 83 17 73 18 74 20 75 21 76 22 82 23 77 24 80 25
REMARK SMILES IDX 78 26 81 27 79 28 12 29 13 30 14 31 15 33 16 34 17 35 69 36
REMARK SMILES IDX 18 37 68 38 19 39 20 40 21 41 62 42 22 43 67 44 61 45 63 46
REMARK SMILES IDX 23 47 66 48 60 49 59 50 24 52 50 53 33 54 49 55 34 56 37 57
REMARK SMILES IDX 48 58 64 59 35 60 36 61 47 63 65 64 38 65 25 66 26 67 31 68
REMARK SMILES IDX 27 69 28 70 30 71 32 72 29 73 51 74 52 75 57 76 53 77 54 78
REMARK SMILES IDX 56 79 58 80 55 81 39 82 40 83 45 84 41 85 42 86 44 87 46 88
REMARK SMILES IDX 43 89
REMARK H PARENT 9 6 73 19 13 32 63 51 37 62
REMARK Flexibility Score: inf
ROOT
ATOM      1  C   UNL A   1      31.247  32.064  26.885  1.00  0.00     0.042 C 
ENDROOT
BRANCH   1   2
ATOM      2  C   UNL A   1      31.421  30.884  25.946  1.00  0.00     0.117 C 
BRANCH   2   3
ATOM      3  N   UNL A   1      32.350  29.899  26.453  1.00  0.00    -0.356 N 
ATOM      4  C   UNL A   1      33.060  28.968  25.767  1.00  0.00     0.226 C 
ATOM      5  O   UNL A   1      34.139  28.655  26.264  1.00  0.00    -0.275 OA
ATOM      6  H   UNL A   1      32.485  29.904  27.429  1.00  0.00     0.163 HD
BRANCH   4   7
ATOM      7  C   UNL A   1      32.552  28.473  24.418  1.00  0.00     0.114 C 
ATOM      8  C   UNL A   1      32.967  25.510  22.086  1.00  0.00     0.147 C 
ATOM      9  N   UNL A   1      32.993  26.750  22.847  1.00  0.00    -0.339 N 
ATOM     10  C   UNL A   1      33.667  27.855  22.371  1.00  0.00     0.223 C 
ATOM     11  C   UNL A   1      32.376  26.930  24.188  1.00  0.00     0.065 C 
ATOM     12  O   UNL A   1      34.243  27.959  21.303  1.00  0.00    -0.275 OA
ATOM     13  C   UNL A   1      33.609  28.930  23.402  1.00  0.00     0.116 C 
ATOM     14  C   UNL A   1      30.880  26.508  24.107  1.00  0.00     0.091 C 
ATOM     15  C   UNL A   1      33.071  26.045  25.236  1.00  0.00     0.091 C 
ATOM     16  C   UNL A   1      30.177  26.324  25.450  1.00  0.00     0.265 C 
ATOM     17  C   UNL A   1      32.300  25.928  26.565  1.00  0.00     0.265 C 
ATOM     18  N   UNL A   1      30.909  25.521  26.417  1.00  0.00    -0.331 N 
ATOM     19  H   UNL A   1      30.457  25.780  27.295  1.00  0.00     0.348 HD
BRANCH  18  20
ATOM     20  C   UNL A   1      30.630  24.085  26.500  1.00  0.00     0.299 C 
BRANCH  20  21
ATOM     21  C   UNL A   1      31.712  23.156  25.993  1.00  0.00     0.009 A 
ATOM     22  C   UNL A   1      32.643  22.590  26.874  1.00  0.00     0.011 A 
ATOM     23  C   UNL A   1      31.749  22.781  24.639  1.00  0.00     0.050 A 
ATOM     24  C   UNL A   1      33.520  21.593  26.435  1.00  0.00     0.024 A 
ATOM     25  C   UNL A   1      32.592  21.757  24.218  1.00  0.00     0.142 A 
ATOM     26  C   UNL A   1      33.465  21.149  25.113  1.00  0.00     0.076 A 
ATOM     27  F   UNL A   1      32.487  21.318  22.953  1.00  0.00    -0.205 F 
ATOM     28  Cl  UNL A   1      34.436  19.816  24.626  1.00  0.00    -0.081 Cl
ENDBRANCH  20  21
ENDBRANCH  18  20
ENDBRANCH   4   7
ENDBRANCH   2   3
ENDBRANCH   1   2
BRANCH   1  29
ATOM     29  C   UNL A   1      32.533  32.803  27.235  1.00  0.00     0.118 C 
BRANCH  29  30
ATOM     30  N   UNL A   1      32.323  34.198  27.598  1.00  0.00    -0.352 N 
ATOM     31  C   UNL A   1      32.959  34.975  28.533  1.00  0.00     0.251 C 
ATOM     32  H   UNL A   1      31.611  34.655  27.092  1.00  0.00     0.163 HD
ATOM     33  O   UNL A   1      32.535  36.102  28.776  1.00  0.00    -0.269 OA
BRANCH  31  34
ATOM     34  C   UNL A   1      34.121  34.450  29.279  1.00  0.00     0.039 A 
ATOM     35  C   UNL A   1      33.900  33.873  30.532  1.00  0.00     0.014 A 
ATOM     36  C   UNL A   1      35.417  34.513  28.758  1.00  0.00     0.014 A 
ATOM     37  C   UNL A   1      34.965  33.293  31.223  1.00  0.00     0.010 A 
ATOM     38  C   UNL A   1      36.458  33.849  29.403  1.00  0.00     0.010 A 
ATOM     39  C   UNL A   1      36.244  33.232  30.643  1.00  0.00    -0.014 A 
BRANCH  39  40
ATOM     40  C   UNL A   1      37.341  32.497  31.323  1.00  0.00     0.031 A 
ATOM     41  C   UNL A   1      38.035  31.345  30.652  1.00  0.00     0.074 A 
ATOM     42  C   UNL A   1      37.699  32.863  32.571  1.00  0.00     0.049 A 
ATOM     43  N   UNL A   1      39.045  30.630  31.080  1.00  0.00    -0.248 NA
ATOM     44  C   UNL A   1      37.517  30.923  29.341  1.00  0.00     0.031 C 
ATOM     45  C   UNL A   1      37.055  33.917  33.359  1.00  0.00     0.029 A 
ATOM     46  N   UNL A   1      38.695  32.399  33.391  1.00  0.00    -0.354 N 
ATOM     47  C   UNL A   1      39.282  29.680  30.095  1.00  0.00     0.074 A 
ATOM     48  C   UNL A   1      38.269  29.865  29.079  1.00  0.00     0.031 C 
ATOM     49  C   UNL A   1      37.705  34.054  34.525  1.00  0.00     0.029 A 
ATOM     50  C   UNL A   1      38.785  33.074  34.585  1.00  0.00     0.049 A 
ATOM     51  H   UNL A   1      39.291  31.653  33.148  1.00  0.00     0.167 HD
ATOM     52  C   UNL A   1      40.270  28.755  30.027  1.00  0.00     0.037 A 
ATOM     53  C   UNL A   1      39.643  32.926  35.611  1.00  0.00     0.037 A 
ATOM     54  C   UNL A   1      41.282  28.577  31.037  1.00  0.00     0.049 A 
ATOM     55  C   UNL A   1      40.729  31.892  35.511  1.00  0.00     0.074 A 
ATOM     56  C   UNL A   1      42.359  27.707  31.035  1.00  0.00     0.029 A 
ATOM     57  N   UNL A   1      41.336  29.274  32.235  1.00  0.00    -0.354 N 
ATOM     58  N   UNL A   1      40.995  31.061  34.532  1.00  0.00    -0.248 NA
ATOM     59  C   UNL A   1      41.643  31.785  36.656  1.00  0.00     0.031 C 
ATOM     60  C   UNL A   1      43.030  27.838  32.256  1.00  0.00     0.029 A 
ATOM     61  C   UNL A   1      42.410  28.833  32.993  1.00  0.00     0.049 A 
ATOM     62  H   UNL A   1      40.705  29.980  32.507  1.00  0.00     0.167 HD
ATOM     63  C   UNL A   1      42.117  30.348  34.934  1.00  0.00     0.074 A 
ATOM     64  C   UNL A   1      42.498  30.868  36.230  1.00  0.00     0.031 C 
ATOM     65  C   UNL A   1      42.771  29.349  34.289  1.00  0.00     0.037 A 
BRANCH  52  66
ATOM     66  C   UNL A   1      40.305  27.864  28.816  1.00  0.00     0.057 A 
ATOM     67  C   UNL A   1      41.042  28.199  27.672  1.00  0.00     0.134 A 
ATOM     68  C   UNL A   1      39.626  26.639  28.808  1.00  0.00     0.134 A 
ATOM     69  F   UNL A   1      41.708  29.363  27.607  1.00  0.00    -0.206 F 
ATOM     70  C   UNL A   1      41.080  27.362  26.555  1.00  0.00     0.040 A 
ATOM     71  C   UNL A   1      39.681  25.780  27.709  1.00  0.00     0.040 A 
ATOM     72  F   UNL A   1      38.906  26.251  29.871  1.00  0.00    -0.206 F 
ATOM     73  C   UNL A   1      40.404  26.144  26.575  1.00  0.00     0.006 A 
ENDBRANCH  52  66
BRANCH  53  74
ATOM     74  C   UNL A   1      39.530  33.797  36.809  1.00  0.00     0.057 A 
ATOM     75  C   UNL A   1      38.804  33.392  37.935  1.00  0.00     0.134 A 
ATOM     76  C   UNL A   1      40.134  35.060  36.853  1.00  0.00     0.134 A 
ATOM     77  F   UNL A   1      38.187  32.201  37.950  1.00  0.00    -0.206 F 
ATOM     78  C   UNL A   1      38.660  34.221  39.050  1.00  0.00     0.040 A 
ATOM     79  C   UNL A   1      40.025  35.885  37.973  1.00  0.00     0.040 A 
ATOM     80  F   UNL A   1      40.853  35.503  35.811  1.00  0.00    -0.206 F 
ATOM     81  C   UNL A   1      39.276  35.470  39.072  1.00  0.00     0.006 A 
ENDBRANCH  53  74
BRANCH  65  82
ATOM     82  C   UNL A   1      43.976  28.773  34.978  1.00  0.00     0.057 A 
ATOM     83  C   UNL A   1      45.265  29.288  34.773  1.00  0.00     0.134 A 
ATOM     84  C   UNL A   1      43.849  27.687  35.853  1.00  0.00     0.134 A 
ATOM     85  F   UNL A   1      45.460  30.319  33.938  1.00  0.00    -0.206 F 
ATOM     86  C   UNL A   1      46.384  28.714  35.378  1.00  0.00     0.040 A 
ATOM     87  C   UNL A   1      44.957  27.128  36.491  1.00  0.00     0.040 A 
ATOM     88  F   UNL A   1      42.645  27.151  36.106  1.00  0.00    -0.206 F 
ATOM     89  C   UNL A   1      46.232  27.633  36.244  1.00  0.00     0.006 A 
ENDBRANCH  65  82
ENDBRANCH  39  40
ENDBRANCH  31  34
ENDBRANCH  29  30
ENDBRANCH   1  29
TORSDOF 12
ENDMDL
