MODEL 1
REMARK VINA RESULT:     -12.3      0.000      0.000
REMARK SMILES Cc1ccccc1[C@H](C(=O)NC[C@H]1CC[C@@H](C(=O)NCCCNC(=O)c2ccc(-c3c4nc(c(-c5c(F)cccc5F)c5ccc([nH]5)c(-c5c(F)cccc5F)c5nc(c(-c6c(F)cccc6F)c6ccc3[nH]6)C=C5)C=C4)cc2)CC1)[NH+](C)C
REMARK SMILES IDX 20 1 19 2 17 3 18 4 16 6 13 7 14 8 81 9 15 10 80 11 12 12
REMARK SMILES IDX 11 13 9 14 10 15 8 17 7 18 1 19 2 20 3 21 4 22 6 23 5 24
REMARK SMILES IDX 82 25 83 26 84 27 21 29 22 30 23 31 24 32 25 34 26 35 27 36
REMARK SMILES IDX 79 37 28 38 78 39 29 40 30 41 31 42 72 43 32 44 77 45 71 46
REMARK SMILES IDX 73 47 33 48 76 49 70 50 69 51 34 53 60 54 43 55 59 56 44 57
REMARK SMILES IDX 47 58 58 59 74 60 45 61 46 62 57 64 75 65 48 66 35 67 36 68
REMARK SMILES IDX 41 69 37 70 38 71 40 72 42 73 39 74 61 75 62 76 67 77 63 78
REMARK SMILES IDX 64 79 66 80 68 81 65 82 49 83 50 84 55 85 51 86 52 87 54 88
REMARK SMILES IDX 56 89 53 90
REMARK H PARENT 19 5 11 16 82 28 23 33 73 52 47 63
REMARK Flexibility Score: inf
ROOT
ATOM      1  C   UNL A   1      34.070  31.754  27.997  1.00  0.00     0.117 C 
ENDROOT
BRANCH   1   2
ATOM      2  N   UNL A   1      34.431  30.353  28.001  1.00  0.00    -0.356 N 
ATOM      3  C   UNL A   1      33.939  29.364  27.184  1.00  0.00     0.223 C 
ATOM      4  O   UNL A   1      34.804  28.603  26.722  1.00  0.00    -0.275 OA
ATOM      5  H   UNL A   1      35.105  30.077  28.663  1.00  0.00     0.163 HD
BRANCH   3   6
ATOM      6  C   UNL A   1      32.439  29.093  26.798  1.00  0.00     0.078 C 
ATOM      7  C   UNL A   1      30.517  27.039  25.431  1.00  0.00     0.008 C 
ATOM      8  C   UNL A   1      30.683  27.085  26.970  1.00  0.00     0.006 C 
ATOM      9  C   UNL A   1      31.600  27.845  24.709  1.00  0.00     0.006 C 
ATOM     10  C   UNL A   1      31.731  28.013  27.628  1.00  0.00     0.014 C 
ATOM     11  C   UNL A   1      31.983  29.180  25.344  1.00  0.00     0.014 C 
BRANCH   7  12
ATOM     12  C   UNL A   1      30.238  25.542  24.956  1.00  0.00     0.119 C 
BRANCH  12  13
ATOM     13  N   UNL A   1      29.942  24.507  25.957  1.00  0.00    -0.350 N 
ATOM     14  C   UNL A   1      30.654  23.453  26.503  1.00  0.00     0.283 C 
ATOM     15  O   UNL A   1      30.118  22.947  27.505  1.00  0.00    -0.268 OA
ATOM     16  H   UNL A   1      29.031  24.581  26.323  1.00  0.00     0.163 HD
BRANCH  14  17
ATOM     17  C   UNL A   1      31.983  22.780  25.914  1.00  0.00     0.305 C 
BRANCH  17  18
ATOM     18  C   UNL A   1      32.889  23.734  25.158  1.00  0.00     0.022 A 
ATOM     19  C   UNL A   1      32.322  22.340  23.123  1.00  0.00     0.045 C 
ATOM     20  C   UNL A   1      32.928  23.585  23.763  1.00  0.00    -0.041 A 
ATOM     21  C   UNL A   1      33.517  24.628  23.036  1.00  0.00     0.004 A 
ATOM     22  C   UNL A   1      34.284  25.630  23.620  1.00  0.00     0.000 A 
ATOM     23  C   UNL A   1      33.663  24.755  25.752  1.00  0.00     0.011 A 
ATOM     24  C   UNL A   1      34.405  25.658  24.990  1.00  0.00     0.001 A 
ENDBRANCH  17  18
BRANCH  17  25
ATOM     25  N   UNL A   1      32.572  21.779  26.832  1.00  0.00    -0.326 N 
ATOM     26  C   UNL A   1      33.243  20.651  26.196  1.00  0.00     0.333 C 
ATOM     27  C   UNL A   1      33.251  22.317  27.986  1.00  0.00     0.333 C 
ATOM     28  H   UNL A   1      31.738  21.348  27.232  1.00  0.00     0.348 HD
ENDBRANCH  17  25
ENDBRANCH  14  17
ENDBRANCH  12  13
ENDBRANCH   7  12
ENDBRANCH   3   6
ENDBRANCH   1   2
BRANCH   1  29
ATOM     29  C   UNL A   1      34.823  32.738  28.896  1.00  0.00     0.042 C 
BRANCH  29  30
ATOM     30  C   UNL A   1      36.296  33.079  28.482  1.00  0.00     0.118 C 
BRANCH  30  31
ATOM     31  N   UNL A   1      37.403  32.616  29.327  1.00  0.00    -0.352 N 
ATOM     32  C   UNL A   1      38.086  31.408  29.557  1.00  0.00     0.251 C 
ATOM     33  H   UNL A   1      37.765  33.347  29.880  1.00  0.00     0.163 HD
ATOM     34  O   UNL A   1      39.167  31.443  30.122  1.00  0.00    -0.269 OA
BRANCH  32  35
ATOM     35  C   UNL A   1      37.650  30.102  29.030  1.00  0.00     0.039 A 
ATOM     36  C   UNL A   1      37.468  29.176  30.072  1.00  0.00     0.014 A 
ATOM     37  C   UNL A   1      38.114  29.693  27.794  1.00  0.00     0.014 A 
ATOM     38  C   UNL A   1      38.352  28.119  30.123  1.00  0.00     0.010 A 
ATOM     39  C   UNL A   1      38.983  28.626  27.823  1.00  0.00     0.010 A 
ATOM     40  C   UNL A   1      39.237  28.006  29.061  1.00  0.00    -0.014 A 
BRANCH  40  41
ATOM     41  C   UNL A   1      40.626  27.616  29.264  1.00  0.00     0.031 A 
ATOM     42  C   UNL A   1      41.085  26.321  28.751  1.00  0.00     0.074 A 
ATOM     43  C   UNL A   1      41.507  28.517  29.766  1.00  0.00     0.049 A 
ATOM     44  N   UNL A   1      42.237  25.816  29.017  1.00  0.00    -0.248 NA
ATOM     45  C   UNL A   1      40.236  25.440  27.958  1.00  0.00     0.031 C 
ATOM     46  C   UNL A   1      42.963  28.504  29.640  1.00  0.00     0.029 A 
ATOM     47  N   UNL A   1      41.269  29.572  30.646  1.00  0.00    -0.354 N 
ATOM     48  C   UNL A   1      42.402  24.720  28.211  1.00  0.00     0.074 A 
ATOM     49  C   UNL A   1      41.091  24.450  27.684  1.00  0.00     0.031 C 
ATOM     50  C   UNL A   1      43.498  29.330  30.553  1.00  0.00     0.029 A 
ATOM     51  C   UNL A   1      42.423  29.790  31.412  1.00  0.00     0.049 A 
ATOM     52  H   UNL A   1      40.429  30.079  30.716  1.00  0.00     0.167 HD
ATOM     53  C   UNL A   1      43.668  24.273  27.998  1.00  0.00     0.037 A 
ATOM     54  C   UNL A   1      42.407  29.613  32.768  1.00  0.00     0.037 A 
ATOM     55  C   UNL A   1      44.580  24.835  29.003  1.00  0.00     0.049 A 
ATOM     56  C   UNL A   1      43.229  28.431  33.249  1.00  0.00     0.074 A 
ATOM     57  C   UNL A   1      45.556  25.817  28.980  1.00  0.00     0.029 A 
ATOM     58  N   UNL A   1      44.325  24.574  30.349  1.00  0.00    -0.354 N 
ATOM     59  N   UNL A   1      43.766  27.542  32.456  1.00  0.00    -0.248 NA
ATOM     60  C   UNL A   1      43.485  28.132  34.658  1.00  0.00     0.031 C 
ATOM     61  C   UNL A   1      45.798  26.222  30.326  1.00  0.00     0.029 A 
ATOM     62  C   UNL A   1      45.006  25.456  31.165  1.00  0.00     0.049 A 
ATOM     63  H   UNL A   1      43.737  23.854  30.675  1.00  0.00     0.167 HD
ATOM     64  C   UNL A   1      44.328  26.536  33.196  1.00  0.00     0.074 A 
ATOM     65  C   UNL A   1      44.173  26.979  34.569  1.00  0.00     0.031 C 
ATOM     66  C   UNL A   1      44.827  25.404  32.616  1.00  0.00     0.037 A 
BRANCH  53  67
ATOM     67  C   UNL A   1      44.117  23.489  26.780  1.00  0.00     0.057 A 
ATOM     68  C   UNL A   1      44.834  24.134  25.752  1.00  0.00     0.134 A 
ATOM     69  C   UNL A   1      43.779  22.151  26.483  1.00  0.00     0.134 A 
ATOM     70  F   UNL A   1      45.219  25.412  25.864  1.00  0.00    -0.206 F 
ATOM     71  C   UNL A   1      45.170  23.507  24.541  1.00  0.00     0.040 A 
ATOM     72  C   UNL A   1      44.145  21.502  25.295  1.00  0.00     0.040 A 
ATOM     73  F   UNL A   1      43.029  21.394  27.286  1.00  0.00    -0.206 F 
ATOM     74  C   UNL A   1      44.833  22.183  24.310  1.00  0.00     0.006 A 
ENDBRANCH  53  67
BRANCH  54  75
ATOM     75  C   UNL A   1      41.154  30.108  33.395  1.00  0.00     0.057 A 
ATOM     76  C   UNL A   1      41.027  31.494  33.595  1.00  0.00     0.134 A 
ATOM     77  C   UNL A   1      39.975  29.355  33.376  1.00  0.00     0.134 A 
ATOM     78  F   UNL A   1      42.120  32.272  33.633  1.00  0.00    -0.206 F 
ATOM     79  C   UNL A   1      39.779  32.121  33.637  1.00  0.00     0.040 A 
ATOM     80  C   UNL A   1      38.720  29.973  33.421  1.00  0.00     0.040 A 
ATOM     81  F   UNL A   1      40.018  28.030  33.173  1.00  0.00    -0.206 F 
ATOM     82  C   UNL A   1      38.620  31.361  33.508  1.00  0.00     0.006 A 
ENDBRANCH  54  75
BRANCH  66  83
ATOM     83  C   UNL A   1      45.216  24.142  33.353  1.00  0.00     0.057 A 
ATOM     84  C   UNL A   1      46.446  23.947  34.000  1.00  0.00     0.134 A 
ATOM     85  C   UNL A   1      44.261  23.123  33.569  1.00  0.00     0.134 A 
ATOM     86  F   UNL A   1      47.410  24.877  33.975  1.00  0.00    -0.206 F 
ATOM     87  C   UNL A   1      46.723  22.802  34.762  1.00  0.00     0.040 A 
ATOM     88  C   UNL A   1      44.506  22.008  34.375  1.00  0.00     0.040 A 
ATOM     89  F   UNL A   1      43.035  23.185  33.026  1.00  0.00    -0.206 F 
ATOM     90  C   UNL A   1      45.748  21.835  34.965  1.00  0.00     0.006 A 
ENDBRANCH  66  83
ENDBRANCH  40  41
ENDBRANCH  32  35
ENDBRANCH  30  31
ENDBRANCH  29  30
ENDBRANCH   1  29
TORSDOF 15
ENDMDL
MODEL 2
REMARK VINA RESULT:     -12.3      3.691      9.177
REMARK SMILES Cc1ccccc1[C@H](C(=O)NC[C@H]1CC[C@@H](C(=O)NCCCNC(=O)c2ccc(-c3c4nc(c(-c5c(F)cccc5F)c5ccc([nH]5)c(-c5c(F)cccc5F)c5nc(c(-c6c(F)cccc6F)c6ccc3[nH]6)C=C5)C=C4)cc2)CC1)[NH+](C)C
REMARK SMILES IDX 20 1 19 2 17 3 18 4 16 6 13 7 14 8 81 9 15 10 80 11 12 12
REMARK SMILES IDX 11 13 9 14 10 15 8 17 7 18 1 19 2 20 3 21 4 22 6 23 5 24
REMARK SMILES IDX 82 25 83 26 84 27 21 29 22 30 23 31 24 32 25 34 26 35 27 36
REMARK SMILES IDX 79 37 28 38 78 39 29 40 30 41 31 42 72 43 32 44 77 45 71 46
REMARK SMILES IDX 73 47 33 48 76 49 70 50 69 51 34 53 60 54 43 55 59 56 44 57
REMARK SMILES IDX 47 58 58 59 74 60 45 61 46 62 57 64 75 65 48 66 35 67 36 68
REMARK SMILES IDX 41 69 37 70 38 71 40 72 42 73 39 74 61 75 62 76 67 77 63 78
REMARK SMILES IDX 64 79 66 80 68 81 65 82 49 83 50 84 55 85 51 86 52 87 54 88
REMARK SMILES IDX 56 89 53 90
REMARK H PARENT 19 5 11 16 82 28 23 33 73 52 47 63
REMARK Flexibility Score: inf
ROOT
ATOM      1  C   UNL A   1      39.609  21.886  26.146  1.00  0.00     0.117 C 
ENDROOT
BRANCH   1   2
ATOM      2  N   UNL A   1      38.839  23.102  26.006  1.00  0.00    -0.356 N 
ATOM      3  C   UNL A   1      37.487  23.211  25.788  1.00  0.00     0.223 C 
ATOM      4  O   UNL A   1      36.922  24.065  26.488  1.00  0.00    -0.275 OA
ATOM      5  H   UNL A   1      39.339  23.947  26.075  1.00  0.00     0.163 HD
BRANCH   3   6
ATOM      6  C   UNL A   1      36.610  22.402  24.763  1.00  0.00     0.078 C 
ATOM      7  C   UNL A   1      33.850  22.352  23.293  1.00  0.00     0.008 C 
ATOM      8  C   UNL A   1      35.119  22.909  22.602  1.00  0.00     0.006 C 
ATOM      9  C   UNL A   1      34.048  22.162  24.799  1.00  0.00     0.006 C 
ATOM     10  C   UNL A   1      36.448  23.052  23.380  1.00  0.00     0.014 C 
ATOM     11  C   UNL A   1      35.400  21.603  25.236  1.00  0.00     0.014 C 
BRANCH   7  12
ATOM     12  C   UNL A   1      32.560  23.145  22.788  1.00  0.00     0.119 C 
BRANCH  12  13
ATOM     13  N   UNL A   1      32.672  24.052  21.637  1.00  0.00    -0.350 N 
ATOM     14  C   UNL A   1      32.688  25.428  21.485  1.00  0.00     0.283 C 
ATOM     15  O   UNL A   1      33.036  25.805  20.351  1.00  0.00    -0.268 OA
ATOM     16  H   UNL A   1      32.756  23.573  20.781  1.00  0.00     0.163 HD
BRANCH  14  17
ATOM     17  C   UNL A   1      32.202  26.522  22.549  1.00  0.00     0.305 C 
BRANCH  17  18
ATOM     18  C   UNL A   1      32.430  26.133  23.998  1.00  0.00     0.022 A 
ATOM     19  C   UNL A   1      29.911  26.248  24.213  1.00  0.00     0.045 C 
ATOM     20  C   UNL A   1      31.282  25.865  24.760  1.00  0.00    -0.041 A 
ATOM     21  C   UNL A   1      31.481  25.228  25.992  1.00  0.00     0.004 A 
ATOM     22  C   UNL A   1      32.726  25.107  26.600  1.00  0.00     0.000 A 
ATOM     23  C   UNL A   1      33.695  26.004  24.611  1.00  0.00     0.011 A 
ATOM     24  C   UNL A   1      33.838  25.554  25.924  1.00  0.00     0.001 A 
ENDBRANCH  17  18
BRANCH  17  25
ATOM     25  N   UNL A   1      32.475  27.908  22.108  1.00  0.00    -0.326 N 
ATOM     26  C   UNL A   1      31.425  28.881  22.388  1.00  0.00     0.333 C 
ATOM     27  C   UNL A   1      33.818  28.382  22.341  1.00  0.00     0.333 C 
ATOM     28  H   UNL A   1      32.432  27.816  21.093  1.00  0.00     0.348 HD
ENDBRANCH  17  25
ENDBRANCH  14  17
ENDBRANCH  12  13
ENDBRANCH   7  12
ENDBRANCH   3   6
ENDBRANCH   1   2
BRANCH   1  29
ATOM     29  C   UNL A   1      40.841  21.864  27.056  1.00  0.00     0.042 C 
BRANCH  29  30
ATOM     30  C   UNL A   1      42.075  22.708  26.583  1.00  0.00     0.118 C 
BRANCH  30  31
ATOM     31  N   UNL A   1      42.504  23.861  27.383  1.00  0.00    -0.352 N 
ATOM     32  C   UNL A   1      41.931  25.056  27.854  1.00  0.00     0.251 C 
ATOM     33  H   UNL A   1      43.444  23.775  27.666  1.00  0.00     0.163 HD
ATOM     34  O   UNL A   1      42.493  25.662  28.752  1.00  0.00    -0.269 OA
BRANCH  32  35
ATOM     35  C   UNL A   1      40.611  25.559  27.432  1.00  0.00     0.039 A 
ATOM     36  C   UNL A   1      40.744  26.553  26.447  1.00  0.00     0.014 A 
ATOM     37  C   UNL A   1      39.593  25.620  28.365  1.00  0.00     0.014 A 
ATOM     38  C   UNL A   1      40.384  27.833  26.806  1.00  0.00     0.010 A 
ATOM     39  C   UNL A   1      39.206  26.891  28.722  1.00  0.00     0.010 A 
ATOM     40  C   UNL A   1      39.797  27.980  28.055  1.00  0.00    -0.014 A 
BRANCH  40  41
ATOM     41  C   UNL A   1      40.109  29.114  28.915  1.00  0.00     0.031 A 
ATOM     42  C   UNL A   1      39.105  30.167  29.099  1.00  0.00     0.074 A 
ATOM     43  C   UNL A   1      41.242  29.096  29.661  1.00  0.00     0.049 A 
ATOM     44  N   UNL A   1      39.338  31.279  29.700  1.00  0.00    -0.248 NA
ATOM     45  C   UNL A   1      37.763  30.085  28.533  1.00  0.00     0.031 C 
ATOM     46  C   UNL A   1      41.523  29.867  30.871  1.00  0.00     0.029 A 
ATOM     47  N   UNL A   1      42.459  28.476  29.383  1.00  0.00    -0.354 N 
ATOM     48  C   UNL A   1      38.136  31.916  29.868  1.00  0.00     0.074 A 
ATOM     49  C   UNL A   1      37.223  31.210  29.011  1.00  0.00     0.031 C 
ATOM     50  C   UNL A   1      42.845  29.858  31.108  1.00  0.00     0.029 A 
ATOM     51  C   UNL A   1      43.490  29.218  29.978  1.00  0.00     0.049 A 
ATOM     52  H   UNL A   1      42.574  27.653  28.857  1.00  0.00     0.167 HD
ATOM     53  C   UNL A   1      38.057  32.879  30.825  1.00  0.00     0.037 A 
ATOM     54  C   UNL A   1      44.451  29.818  29.212  1.00  0.00     0.037 A 
ATOM     55  C   UNL A   1      39.403  33.310  31.223  1.00  0.00     0.049 A 
ATOM     56  C   UNL A   1      44.387  31.335  29.213  1.00  0.00     0.074 A 
ATOM     57  C   UNL A   1      40.195  33.101  32.340  1.00  0.00     0.029 A 
ATOM     58  N   UNL A   1      40.245  33.839  30.245  1.00  0.00    -0.354 N 
ATOM     59  N   UNL A   1      43.411  32.026  29.739  1.00  0.00    -0.248 NA
ATOM     60  C   UNL A   1      45.394  32.196  28.593  1.00  0.00     0.031 C 
ATOM     61  C   UNL A   1      41.541  33.399  31.981  1.00  0.00     0.029 A 
ATOM     62  C   UNL A   1      41.561  33.835  30.666  1.00  0.00     0.049 A 
ATOM     63  H   UNL A   1      39.943  34.173  29.369  1.00  0.00     0.167 HD
ATOM     64  C   UNL A   1      43.578  33.356  29.462  1.00  0.00     0.074 A 
ATOM     65  C   UNL A   1      44.863  33.417  28.789  1.00  0.00     0.031 C 
ATOM     66  C   UNL A   1      42.623  34.285  29.767  1.00  0.00     0.037 A 
BRANCH  53  67
ATOM     67  C   UNL A   1      36.782  33.292  31.534  1.00  0.00     0.057 A 
ATOM     68  C   UNL A   1      36.544  32.873  32.858  1.00  0.00     0.134 A 
ATOM     69  C   UNL A   1      35.695  33.982  30.954  1.00  0.00     0.134 A 
ATOM     70  F   UNL A   1      37.465  32.189  33.551  1.00  0.00    -0.206 F 
ATOM     71  C   UNL A   1      35.334  33.107  33.532  1.00  0.00     0.040 A 
ATOM     72  C   UNL A   1      34.498  34.259  31.631  1.00  0.00     0.040 A 
ATOM     73  F   UNL A   1      35.686  34.388  29.683  1.00  0.00    -0.206 F 
ATOM     74  C   UNL A   1      34.307  33.809  32.923  1.00  0.00     0.006 A 
ENDBRANCH  53  67
BRANCH  54  75
ATOM     75  C   UNL A   1      44.886  28.971  28.071  1.00  0.00     0.057 A 
ATOM     76  C   UNL A   1      45.781  27.921  28.341  1.00  0.00     0.134 A 
ATOM     77  C   UNL A   1      44.138  28.885  26.893  1.00  0.00     0.134 A 
ATOM     78  F   UNL A   1      46.536  27.948  29.452  1.00  0.00    -0.206 F 
ATOM     79  C   UNL A   1      45.831  26.773  27.548  1.00  0.00     0.040 A 
ATOM     80  C   UNL A   1      44.183  27.741  26.088  1.00  0.00     0.040 A 
ATOM     81  F   UNL A   1      43.252  29.841  26.578  1.00  0.00    -0.206 F 
ATOM     82  C   UNL A   1      44.998  26.664  26.438  1.00  0.00     0.006 A 
ENDBRANCH  54  75
BRANCH  66  83
ATOM     83  C   UNL A   1      42.600  35.712  29.268  1.00  0.00     0.057 A 
ATOM     84  C   UNL A   1      43.373  36.753  29.802  1.00  0.00     0.134 A 
ATOM     85  C   UNL A   1      41.890  36.041  28.091  1.00  0.00     0.134 A 
ATOM     86  F   UNL A   1      44.183  36.562  30.854  1.00  0.00    -0.206 F 
ATOM     87  C   UNL A   1      43.400  38.038  29.240  1.00  0.00     0.040 A 
ATOM     88  C   UNL A   1      41.956  37.300  27.488  1.00  0.00     0.040 A 
ATOM     89  F   UNL A   1      41.122  35.139  27.460  1.00  0.00    -0.206 F 
ATOM     90  C   UNL A   1      42.702  38.312  28.071  1.00  0.00     0.006 A 
ENDBRANCH  66  83
ENDBRANCH  40  41
ENDBRANCH  32  35
ENDBRANCH  30  31
ENDBRANCH  29  30
ENDBRANCH   1  29
TORSDOF 15
ENDMDL
MODEL 3
REMARK VINA RESULT:     -12.3      3.365      8.830
REMARK SMILES Cc1ccccc1[C@H](C(=O)NC[C@H]1CC[C@@H](C(=O)NCCCNC(=O)c2ccc(-c3c4nc(c(-c5c(F)cccc5F)c5ccc([nH]5)c(-c5c(F)cccc5F)c5nc(c(-c6c(F)cccc6F)c6ccc3[nH]6)C=C5)C=C4)cc2)CC1)[NH+](C)C
REMARK SMILES IDX 20 1 19 2 17 3 18 4 16 6 13 7 14 8 81 9 15 10 80 11 12 12
REMARK SMILES IDX 11 13 9 14 10 15 8 17 7 18 1 19 2 20 3 21 4 22 6 23 5 24
REMARK SMILES IDX 82 25 83 26 84 27 21 29 22 30 23 31 24 32 25 34 26 35 27 36
REMARK SMILES IDX 79 37 28 38 78 39 29 40 30 41 31 42 72 43 32 44 77 45 71 46
REMARK SMILES IDX 73 47 33 48 76 49 70 50 69 51 34 53 60 54 43 55 59 56 44 57
REMARK SMILES IDX 47 58 58 59 74 60 45 61 46 62 57 64 75 65 48 66 35 67 36 68
REMARK SMILES IDX 41 69 37 70 38 71 40 72 42 73 39 74 61 75 62 76 67 77 63 78
REMARK SMILES IDX 64 79 66 80 68 81 65 82 49 83 50 84 55 85 51 86 52 87 54 88
REMARK SMILES IDX 56 89 53 90
REMARK H PARENT 19 5 11 16 82 28 23 33 73 52 47 63
REMARK Flexibility Score: inf
ROOT
ATOM      1  C   UNL A   1      39.012  21.606  25.757  1.00  0.00     0.117 C 
ENDROOT
BRANCH   1   2
ATOM      2  N   UNL A   1      37.669  21.124  25.988  1.00  0.00    -0.356 N 
ATOM      3  C   UNL A   1      36.558  21.350  25.212  1.00  0.00     0.223 C 
ATOM      4  O   UNL A   1      35.860  20.344  25.010  1.00  0.00    -0.275 OA
ATOM      5  H   UNL A   1      37.534  20.572  26.792  1.00  0.00     0.163 HD
BRANCH   3   6
ATOM      6  C   UNL A   1      36.083  22.712  24.586  1.00  0.00     0.078 C 
ATOM      7  C   UNL A   1      33.726  24.766  24.504  1.00  0.00     0.008 C 
ATOM      8  C   UNL A   1      34.955  24.988  25.420  1.00  0.00     0.006 C 
ATOM      9  C   UNL A   1      33.671  23.342  23.945  1.00  0.00     0.006 C 
ATOM     10  C   UNL A   1      36.052  23.905  25.552  1.00  0.00     0.014 C 
ATOM     11  C   UNL A   1      35.003  22.737  23.508  1.00  0.00     0.014 C 
BRANCH   7  12
ATOM     12  C   UNL A   1      32.417  25.366  25.191  1.00  0.00     0.119 C 
BRANCH  12  13
ATOM     13  N   UNL A   1      32.245  26.824  25.273  1.00  0.00    -0.350 N 
ATOM     14  C   UNL A   1      31.555  27.763  24.526  1.00  0.00     0.283 C 
ATOM     15  O   UNL A   1      31.475  28.879  25.069  1.00  0.00    -0.268 OA
ATOM     16  H   UNL A   1      32.730  27.222  26.032  1.00  0.00     0.163 HD
BRANCH  14  17
ATOM     17  C   UNL A   1      30.983  27.582  23.041  1.00  0.00     0.305 C 
BRANCH  17  18
ATOM     18  C   UNL A   1      29.821  28.496  22.699  1.00  0.00     0.022 A 
ATOM     19  C   UNL A   1      28.369  26.702  23.736  1.00  0.00     0.045 C 
ATOM     20  C   UNL A   1      28.560  28.108  23.178  1.00  0.00    -0.041 A 
ATOM     21  C   UNL A   1      27.546  29.073  23.128  1.00  0.00     0.004 A 
ATOM     22  C   UNL A   1      27.647  30.253  22.399  1.00  0.00     0.000 A 
ATOM     23  C   UNL A   1      29.927  29.697  21.965  1.00  0.00     0.011 A 
ATOM     24  C   UNL A   1      28.833  30.539  21.763  1.00  0.00     0.001 A 
ENDBRANCH  17  18
BRANCH  17  25
ATOM     25  N   UNL A   1      32.051  27.344  22.043  1.00  0.00    -0.326 N 
ATOM     26  C   UNL A   1      33.346  27.942  22.345  1.00  0.00     0.333 C 
ATOM     27  C   UNL A   1      32.111  26.007  21.504  1.00  0.00     0.333 C 
ATOM     28  H   UNL A   1      31.725  27.900  21.252  1.00  0.00     0.348 HD
ENDBRANCH  17  25
ENDBRANCH  14  17
ENDBRANCH  12  13
ENDBRANCH   7  12
ENDBRANCH   3   6
ENDBRANCH   1   2
BRANCH   1  29
ATOM     29  C   UNL A   1      40.194  20.943  26.470  1.00  0.00     0.042 C 
BRANCH  29  30
ATOM     30  C   UNL A   1      41.612  21.552  26.189  1.00  0.00     0.118 C 
BRANCH  30  31
ATOM     31  N   UNL A   1      42.117  22.623  27.055  1.00  0.00    -0.352 N 
ATOM     32  C   UNL A   1      41.679  23.889  27.488  1.00  0.00     0.251 C 
ATOM     33  H   UNL A   1      42.996  22.396  27.436  1.00  0.00     0.163 HD
ATOM     34  O   UNL A   1      42.222  24.399  28.453  1.00  0.00    -0.269 OA
BRANCH  32  35
ATOM     35  C   UNL A   1      40.503  24.586  26.937  1.00  0.00     0.039 A 
ATOM     36  C   UNL A   1      40.893  25.619  26.066  1.00  0.00     0.014 A 
ATOM     37  C   UNL A   1      39.375  24.715  27.726  1.00  0.00     0.014 A 
ATOM     38  C   UNL A   1      40.641  26.908  26.481  1.00  0.00     0.010 A 
ATOM     39  C   UNL A   1      39.096  25.999  28.134  1.00  0.00     0.010 A 
ATOM     40  C   UNL A   1      39.902  27.045  27.648  1.00  0.00    -0.014 A 
BRANCH  40  41
ATOM     41  C   UNL A   1      40.220  28.068  28.635  1.00  0.00     0.031 A 
ATOM     42  C   UNL A   1      39.351  29.244  28.749  1.00  0.00     0.074 A 
ATOM     43  C   UNL A   1      41.204  27.840  29.542  1.00  0.00     0.049 A 
ATOM     44  N   UNL A   1      39.632  30.272  29.467  1.00  0.00    -0.248 NA
ATOM     45  C   UNL A   1      38.121  29.393  27.980  1.00  0.00     0.031 C 
ATOM     46  C   UNL A   1      41.386  28.489  30.839  1.00  0.00     0.029 A 
ATOM     47  N   UNL A   1      42.354  27.066  29.403  1.00  0.00    -0.354 N 
ATOM     48  C   UNL A   1      38.516  31.067  29.501  1.00  0.00     0.074 A 
ATOM     49  C   UNL A   1      37.667  30.554  28.459  1.00  0.00     0.031 C 
ATOM     50  C   UNL A   1      42.637  28.273  31.274  1.00  0.00     0.029 A 
ATOM     51  C   UNL A   1      43.366  27.613  30.207  1.00  0.00     0.049 A 
ATOM     52  H   UNL A   1      42.442  26.268  28.835  1.00  0.00     0.167 HD
ATOM     53  C   UNL A   1      38.412  31.974  30.510  1.00  0.00     0.037 A 
ATOM     54  C   UNL A   1      44.511  28.110  29.649  1.00  0.00     0.037 A 
ATOM     55  C   UNL A   1      39.722  32.179  31.143  1.00  0.00     0.049 A 
ATOM     56  C   UNL A   1      44.653  29.618  29.763  1.00  0.00     0.074 A 
ATOM     57  C   UNL A   1      40.285  31.790  32.347  1.00  0.00     0.029 A 
ATOM     58  N   UNL A   1      40.776  32.636  30.352  1.00  0.00    -0.354 N 
ATOM     59  N   UNL A   1      43.706  30.411  30.189  1.00  0.00    -0.248 NA
ATOM     60  C   UNL A   1      45.854  30.357  29.378  1.00  0.00     0.031 C 
ATOM     61  C   UNL A   1      41.700  31.909  32.224  1.00  0.00     0.029 A 
ATOM     62  C   UNL A   1      41.993  32.414  30.967  1.00  0.00     0.049 A 
ATOM     63  H   UNL A   1      40.667  33.061  29.470  1.00  0.00     0.167 HD
ATOM     64  C   UNL A   1      44.095  31.717  30.051  1.00  0.00     0.074 A 
ATOM     65  C   UNL A   1      45.469  31.629  29.589  1.00  0.00     0.031 C 
ATOM     66  C   UNL A   1      43.238  32.756  30.280  1.00  0.00     0.037 A 
BRANCH  53  67
ATOM     67  C   UNL A   1      37.107  32.526  31.047  1.00  0.00     0.057 A 
ATOM     68  C   UNL A   1      36.982  33.904  31.317  1.00  0.00     0.134 A 
ATOM     69  C   UNL A   1      35.984  31.767  31.444  1.00  0.00     0.134 A 
ATOM     70  F   UNL A   1      37.964  34.766  31.019  1.00  0.00    -0.206 F 
ATOM     71  C   UNL A   1      35.853  34.467  31.933  1.00  0.00     0.040 A 
ATOM     72  C   UNL A   1      34.834  32.323  32.022  1.00  0.00     0.040 A 
ATOM     73  F   UNL A   1      35.937  30.437  31.354  1.00  0.00    -0.206 F 
ATOM     74  C   UNL A   1      34.768  33.678  32.282  1.00  0.00     0.006 A 
ENDBRANCH  53  67
BRANCH  54  75
ATOM     75  C   UNL A   1      45.007  27.277  28.522  1.00  0.00     0.057 A 
ATOM     76  C   UNL A   1      45.674  26.081  28.839  1.00  0.00     0.134 A 
ATOM     77  C   UNL A   1      44.473  27.389  27.235  1.00  0.00     0.134 A 
ATOM     78  F   UNL A   1      46.219  25.915  30.055  1.00  0.00    -0.206 F 
ATOM     79  C   UNL A   1      45.691  24.993  27.964  1.00  0.00     0.040 A 
ATOM     80  C   UNL A   1      44.486  26.305  26.349  1.00  0.00     0.040 A 
ATOM     81  F   UNL A   1      43.808  28.494  26.867  1.00  0.00    -0.206 F 
ATOM     82  C   UNL A   1      45.058  25.091  26.729  1.00  0.00     0.006 A 
ENDBRANCH  54  75
BRANCH  66  83
ATOM     83  C   UNL A   1      43.489  34.198  29.902  1.00  0.00     0.057 A 
ATOM     84  C   UNL A   1      43.547  34.674  28.583  1.00  0.00     0.134 A 
ATOM     85  C   UNL A   1      43.518  35.199  30.898  1.00  0.00     0.134 A 
ATOM     86  F   UNL A   1      43.422  33.853  27.531  1.00  0.00    -0.206 F 
ATOM     87  C   UNL A   1      43.676  36.037  28.279  1.00  0.00     0.040 A 
ATOM     88  C   UNL A   1      43.587  36.564  30.605  1.00  0.00     0.040 A 
ATOM     89  F   UNL A   1      43.454  34.892  32.203  1.00  0.00    -0.206 F 
ATOM     90  C   UNL A   1      43.681  36.989  29.290  1.00  0.00     0.006 A 
ENDBRANCH  66  83
ENDBRANCH  40  41
ENDBRANCH  32  35
ENDBRANCH  30  31
ENDBRANCH  29  30
ENDBRANCH   1  29
TORSDOF 15
ENDMDL
