MODEL 1
REMARK VINA RESULT:     -13.2      0.000      0.000
REMARK SMILES [NH3+][C@@]1(C(=O)NCCCNC(=O)c2ccc(-c3c4nc(c(-c5c(F)cccc5F)c5ccc([nH]5)c(-c5c(F)cccc5F)c5nc(c(-c6c(F)cccc6F)c6ccc3[nH]6)C=C5)C=C4)cc2)c2ccccc2C[C@H]1C(=O)OCC1c2ccccc2-c2ccccc21
REMARK SMILES IDX 6 1 5 2 3 3 4 4 2 6 66 7 73 8 67 9 71 10 72 11 68 12 70 13
REMARK SMILES IDX 69 14 1 15 74 19 75 20 76 21 77 22 78 23 79 24 90 25 80 26
REMARK SMILES IDX 84 27 85 28 89 29 81 30 83 31 86 32 88 33 82 34 87 35 7 36
REMARK SMILES IDX 8 37 9 38 10 39 11 41 12 42 13 43 65 44 14 45 64 46 15 47
REMARK SMILES IDX 16 48 17 49 58 50 18 51 63 52 57 53 59 54 19 55 62 56 56 57
REMARK SMILES IDX 55 58 20 60 46 61 29 62 45 63 30 64 33 65 44 66 60 67 31 68
REMARK SMILES IDX 32 69 43 71 61 72 34 73 21 74 22 75 27 76 23 77 24 78 26 79
REMARK SMILES IDX 28 80 25 81 47 82 48 83 53 84 49 85 50 86 52 87 54 88 51 89
REMARK SMILES IDX 35 90 36 91 41 92 37 93 38 94 40 95 42 96 39 97
REMARK H PARENT 5 5 1 16 1 17 1 18 9 40 59 59 33 70
REMARK Flexibility Score: inf
ROOT
ATOM      1  C   UNL A   1      31.910  29.181  25.606  1.00  0.00     0.118 C 
ENDROOT
BRANCH   1   2
ATOM      2  N   UNL A   1      33.027  29.222  24.682  1.00  0.00    -0.350 N 
ATOM      3  C   UNL A   1      33.269  28.569  23.513  1.00  0.00     0.287 C 
ATOM      4  O   UNL A   1      34.260  28.964  22.879  1.00  0.00    -0.267 OA
ATOM      5  H   UNL A   1      33.747  29.837  24.952  1.00  0.00     0.163 HD
BRANCH   3   6
ATOM      6  C   UNL A   1      32.366  27.416  22.937  1.00  0.00     0.213 C 
ATOM      7  C   UNL A   1      30.906  27.812  22.903  1.00  0.00     0.026 A 
ATOM      8  C   UNL A   1      32.362  26.159  23.844  1.00  0.00     0.179 C 
ATOM      9  C   UNL A   1      30.342  28.923  22.285  1.00  0.00     0.011 A 
ATOM     10  C   UNL A   1      30.109  26.917  23.619  1.00  0.00    -0.037 A 
ATOM     11  C   UNL A   1      30.915  25.849  24.281  1.00  0.00     0.059 C 
ATOM     12  C   UNL A   1      28.967  29.125  22.400  1.00  0.00     0.001 A 
ATOM     13  C   UNL A   1      28.742  27.108  23.735  1.00  0.00     0.004 A 
ATOM     14  C   UNL A   1      28.172  28.221  23.120  1.00  0.00     0.000 A 
BRANCH   6  15
ATOM     15  N   UNL A   1      32.824  27.137  21.561  1.00  0.00    -0.340 N 
ATOM     16  H   UNL A   1      32.792  27.996  21.011  1.00  0.00     0.345 HD
ATOM     17  H   UNL A   1      32.216  26.438  21.134  1.00  0.00     0.345 HD
ATOM     18  H   UNL A   1      33.782  26.785  21.586  1.00  0.00     0.345 HD
ENDBRANCH   6  15
BRANCH   8  19
ATOM     19  C   UNL A   1      33.033  24.929  23.270  1.00  0.00     0.316 C 
ATOM     20  O   UNL A   1      32.529  24.290  22.352  1.00  0.00    -0.252 OA
BRANCH  19  21
ATOM     21  O   UNL A   1      34.280  24.712  23.787  1.00  0.00    -0.464 OA
BRANCH  21  22
ATOM     22  C   UNL A   1      34.477  25.173  25.137  1.00  0.00     0.246 C 
BRANCH  22  23
ATOM     23  C   UNL A   1      34.585  24.027  26.162  1.00  0.00     0.088 C 
ATOM     24  C   UNL A   1      35.927  23.332  25.942  1.00  0.00    -0.029 A 
ATOM     25  C   UNL A   1      33.617  22.907  25.818  1.00  0.00    -0.029 A 
ATOM     26  C   UNL A   1      37.199  23.799  26.236  1.00  0.00     0.005 A 
ATOM     27  C   UNL A   1      35.723  22.093  25.292  1.00  0.00    -0.014 A 
ATOM     28  C   UNL A   1      34.300  21.857  25.172  1.00  0.00    -0.014 A 
ATOM     29  C   UNL A   1      32.249  22.866  26.023  1.00  0.00     0.005 A 
ATOM     30  C   UNL A   1      38.286  23.003  25.872  1.00  0.00     0.000 A 
ATOM     31  C   UNL A   1      36.802  21.306  24.933  1.00  0.00     0.009 A 
ATOM     32  C   UNL A   1      33.588  20.835  24.571  1.00  0.00     0.009 A 
ATOM     33  C   UNL A   1      31.535  21.815  25.452  1.00  0.00     0.000 A 
ATOM     34  C   UNL A   1      38.090  21.769  25.225  1.00  0.00     0.001 A 
ATOM     35  C   UNL A   1      32.194  20.831  24.696  1.00  0.00     0.001 A 
ENDBRANCH  22  23
ENDBRANCH  21  22
ENDBRANCH  19  21
ENDBRANCH   8  19
ENDBRANCH   3   6
ENDBRANCH   1   2
BRANCH   1  36
ATOM     36  C   UNL A   1      32.316  28.672  26.981  1.00  0.00     0.042 C 
BRANCH  36  37
ATOM     37  C   UNL A   1      33.751  29.017  27.351  1.00  0.00     0.118 C 
BRANCH  37  38
ATOM     38  N   UNL A   1      33.872  30.316  28.003  1.00  0.00    -0.352 N 
ATOM     39  C   UNL A   1      34.918  30.870  28.707  1.00  0.00     0.251 C 
ATOM     40  H   UNL A   1      33.075  30.890  27.928  1.00  0.00     0.163 HD
ATOM     41  O   UNL A   1      34.754  31.909  29.331  1.00  0.00    -0.269 OA
BRANCH  39  42
ATOM     42  C   UNL A   1      36.229  30.185  28.740  1.00  0.00     0.039 A 
ATOM     43  C   UNL A   1      36.661  29.530  29.891  1.00  0.00     0.014 A 
ATOM     44  C   UNL A   1      37.046  30.222  27.607  1.00  0.00     0.014 A 
ATOM     45  C   UNL A   1      37.981  29.109  29.987  1.00  0.00     0.010 A 
ATOM     46  C   UNL A   1      38.341  29.699  27.669  1.00  0.00     0.010 A 
ATOM     47  C   UNL A   1      38.842  29.198  28.881  1.00  0.00    -0.014 A 
BRANCH  47  48
ATOM     48  C   UNL A   1      40.263  28.790  29.030  1.00  0.00     0.031 A 
ATOM     49  C   UNL A   1      40.723  27.428  28.581  1.00  0.00     0.074 A 
ATOM     50  C   UNL A   1      41.157  29.674  29.514  1.00  0.00     0.049 A 
ATOM     51  N   UNL A   1      41.924  26.906  28.618  1.00  0.00    -0.248 NA
ATOM     52  C   UNL A   1      39.701  26.528  28.024  1.00  0.00     0.031 C 
ATOM     53  C   UNL A   1      40.841  31.028  29.973  1.00  0.00     0.029 A 
ATOM     54  N   UNL A   1      42.515  29.574  29.679  1.00  0.00    -0.354 N 
ATOM     55  C   UNL A   1      41.798  25.618  28.113  1.00  0.00     0.074 A 
ATOM     56  C   UNL A   1      40.398  25.422  27.806  1.00  0.00     0.031 C 
ATOM     57  C   UNL A   1      41.977  31.649  30.322  1.00  0.00     0.029 A 
ATOM     58  C   UNL A   1      43.090  30.718  30.175  1.00  0.00     0.049 A 
ATOM     59  H   UNL A   1      43.027  28.762  29.464  1.00  0.00     0.167 HD
ATOM     60  C   UNL A   1      42.762  24.685  27.911  1.00  0.00     0.037 A 
ATOM     61  C   UNL A   1      44.369  30.985  30.494  1.00  0.00     0.037 A 
ATOM     62  C   UNL A   1      44.159  24.888  28.196  1.00  0.00     0.049 A 
ATOM     63  C   UNL A   1      45.409  29.918  30.304  1.00  0.00     0.074 A 
ATOM     64  C   UNL A   1      45.216  24.018  27.993  1.00  0.00     0.029 A 
ATOM     65  N   UNL A   1      44.693  26.042  28.749  1.00  0.00    -0.354 N 
ATOM     66  N   UNL A   1      45.276  28.713  29.810  1.00  0.00    -0.248 NA
ATOM     67  C   UNL A   1      46.775  30.250  30.729  1.00  0.00     0.031 C 
ATOM     68  C   UNL A   1      46.383  24.627  28.469  1.00  0.00     0.029 A 
ATOM     69  C   UNL A   1      46.060  25.896  28.923  1.00  0.00     0.049 A 
ATOM     70  H   UNL A   1      44.177  26.847  28.985  1.00  0.00     0.167 HD
ATOM     71  C   UNL A   1      46.541  28.144  29.852  1.00  0.00     0.074 A 
ATOM     72  C   UNL A   1      47.432  29.148  30.397  1.00  0.00     0.031 C 
ATOM     73  C   UNL A   1      46.931  26.900  29.479  1.00  0.00     0.037 A 
BRANCH  60  74
ATOM     74  C   UNL A   1      42.330  23.349  27.376  1.00  0.00     0.057 A 
ATOM     75  C   UNL A   1      41.914  22.334  28.248  1.00  0.00     0.134 A 
ATOM     76  C   UNL A   1      42.340  23.056  26.006  1.00  0.00     0.134 A 
ATOM     77  F   UNL A   1      41.885  22.544  29.573  1.00  0.00    -0.206 F 
ATOM     78  C   UNL A   1      41.524  21.079  27.778  1.00  0.00     0.040 A 
ATOM     79  C   UNL A   1      41.928  21.814  25.521  1.00  0.00     0.040 A 
ATOM     80  F   UNL A   1      42.713  23.987  25.114  1.00  0.00    -0.206 F 
ATOM     81  C   UNL A   1      41.523  20.818  26.409  1.00  0.00     0.006 A 
ENDBRANCH  60  74
BRANCH  61  82
ATOM     82  C   UNL A   1      44.733  32.312  31.048  1.00  0.00     0.057 A 
ATOM     83  C   UNL A   1      45.140  33.361  30.215  1.00  0.00     0.134 A 
ATOM     84  C   UNL A   1      44.678  32.564  32.423  1.00  0.00     0.134 A 
ATOM     85  F   UNL A   1      45.219  33.180  28.888  1.00  0.00    -0.206 F 
ATOM     86  C   UNL A   1      45.491  34.610  30.729  1.00  0.00     0.040 A 
ATOM     87  C   UNL A   1      44.999  33.816  32.949  1.00  0.00     0.040 A 
ATOM     88  F   UNL A   1      44.277  31.604  33.269  1.00  0.00    -0.206 F 
ATOM     89  C   UNL A   1      45.413  34.841  32.100  1.00  0.00     0.006 A 
ENDBRANCH  61  82
BRANCH  73  90
ATOM     90  C   UNL A   1      48.386  26.572  29.639  1.00  0.00     0.057 A 
ATOM     91  C   UNL A   1      48.853  25.938  30.797  1.00  0.00     0.134 A 
ATOM     92  C   UNL A   1      49.325  26.886  28.648  1.00  0.00     0.134 A 
ATOM     93  F   UNL A   1      48.007  25.615  31.787  1.00  0.00    -0.206 F 
ATOM     94  C   UNL A   1      50.203  25.624  30.961  1.00  0.00     0.040 A 
ATOM     95  C   UNL A   1      50.673  26.552  28.790  1.00  0.00     0.040 A 
ATOM     96  F   UNL A   1      48.938  27.478  27.507  1.00  0.00    -0.206 F 
ATOM     97  C   UNL A   1      51.116  25.924  29.952  1.00  0.00     0.006 A 
ENDBRANCH  73  90
ENDBRANCH  47  48
ENDBRANCH  39  42
ENDBRANCH  37  38
ENDBRANCH  36  37
ENDBRANCH   1  36
TORSDOF 15
ENDMDL
MODEL 2
REMARK VINA RESULT:     -13.1      0.733      5.840
REMARK SMILES [NH3+][C@@]1(C(=O)NCCCNC(=O)c2ccc(-c3c4nc(c(-c5c(F)cccc5F)c5ccc([nH]5)c(-c5c(F)cccc5F)c5nc(c(-c6c(F)cccc6F)c6ccc3[nH]6)C=C5)C=C4)cc2)c2ccccc2C[C@H]1C(=O)OCC1c2ccccc2-c2ccccc21
REMARK SMILES IDX 6 1 5 2 3 3 4 4 2 6 66 7 73 8 67 9 71 10 72 11 68 12 70 13
REMARK SMILES IDX 69 14 1 15 74 19 75 20 76 21 77 22 78 23 79 24 90 25 80 26
REMARK SMILES IDX 84 27 85 28 89 29 81 30 83 31 86 32 88 33 82 34 87 35 7 36
REMARK SMILES IDX 8 37 9 38 10 39 11 41 12 42 13 43 65 44 14 45 64 46 15 47
REMARK SMILES IDX 16 48 17 49 58 50 18 51 63 52 57 53 59 54 19 55 62 56 56 57
REMARK SMILES IDX 55 58 20 60 46 61 29 62 45 63 30 64 33 65 44 66 60 67 31 68
REMARK SMILES IDX 32 69 43 71 61 72 34 73 21 74 22 75 27 76 23 77 24 78 26 79
REMARK SMILES IDX 28 80 25 81 47 82 48 83 53 84 49 85 50 86 52 87 54 88 51 89
REMARK SMILES IDX 35 90 36 91 41 92 37 93 38 94 40 95 42 96 39 97
REMARK H PARENT 5 5 1 16 1 17 1 18 9 40 59 59 33 70
REMARK Flexibility Score: inf
ROOT
ATOM      1  C   UNL A   1      31.716  29.320  25.653  1.00  0.00     0.118 C 
ENDROOT
BRANCH   1   2
ATOM      2  N   UNL A   1      32.762  29.254  24.650  1.00  0.00    -0.350 N 
ATOM      3  C   UNL A   1      32.845  28.600  23.460  1.00  0.00     0.287 C 
ATOM      4  O   UNL A   1      33.826  28.894  22.760  1.00  0.00    -0.267 OA
ATOM      5  H   UNL A   1      33.563  29.781  24.873  1.00  0.00     0.163 HD
BRANCH   3   6
ATOM      6  C   UNL A   1      31.781  27.564  22.939  1.00  0.00     0.213 C 
ATOM      7  C   UNL A   1      30.419  28.200  22.768  1.00  0.00     0.026 A 
ATOM      8  C   UNL A   1      31.508  26.432  23.962  1.00  0.00     0.179 C 
ATOM      9  C   UNL A   1      30.093  29.318  22.008  1.00  0.00     0.011 A 
ATOM     10  C   UNL A   1      29.440  27.538  23.512  1.00  0.00    -0.037 A 
ATOM     11  C   UNL A   1      30.009  26.425  24.329  1.00  0.00     0.059 C 
ATOM     12  C   UNL A   1      28.772  29.765  22.009  1.00  0.00     0.001 A 
ATOM     13  C   UNL A   1      28.125  27.973  23.516  1.00  0.00     0.004 A 
ATOM     14  C   UNL A   1      27.794  29.095  22.758  1.00  0.00     0.000 A 
BRANCH   6  15
ATOM     15  N   UNL A   1      32.250  27.064  21.631  1.00  0.00    -0.340 N 
ATOM     16  H   UNL A   1      32.483  26.073  21.709  1.00  0.00     0.345 HD
ATOM     17  H   UNL A   1      33.077  27.586  21.344  1.00  0.00     0.345 HD
ATOM     18  H   UNL A   1      31.512  27.186  20.937  1.00  0.00     0.345 HD
ENDBRANCH   6  15
BRANCH   8  19
ATOM     19  C   UNL A   1      31.977  25.050  23.558  1.00  0.00     0.316 C 
ATOM     20  O   UNL A   1      31.220  24.245  23.025  1.00  0.00    -0.252 OA
BRANCH  19  21
ATOM     21  O   UNL A   1      33.322  24.872  23.728  1.00  0.00    -0.464 OA
BRANCH  21  22
ATOM     22  C   UNL A   1      33.776  23.507  23.665  1.00  0.00     0.246 C 
BRANCH  22  23
ATOM     23  C   UNL A   1      33.977  22.868  25.053  1.00  0.00     0.088 C 
ATOM     24  C   UNL A   1      35.474  22.875  25.355  1.00  0.00    -0.029 A 
ATOM     25  C   UNL A   1      33.697  21.376  25.002  1.00  0.00    -0.029 A 
ATOM     26  C   UNL A   1      36.287  23.955  25.665  1.00  0.00     0.005 A 
ATOM     27  C   UNL A   1      35.998  21.570  25.206  1.00  0.00    -0.014 A 
ATOM     28  C   UNL A   1      34.906  20.656  24.938  1.00  0.00    -0.014 A 
ATOM     29  C   UNL A   1      32.470  20.737  24.964  1.00  0.00     0.005 A 
ATOM     30  C   UNL A   1      37.652  23.716  25.830  1.00  0.00     0.000 A 
ATOM     31  C   UNL A   1      37.351  21.337  25.371  1.00  0.00     0.009 A 
ATOM     32  C   UNL A   1      34.893  19.301  24.661  1.00  0.00     0.009 A 
ATOM     33  C   UNL A   1      32.455  19.365  24.725  1.00  0.00     0.000 A 
ATOM     34  C   UNL A   1      38.180  22.420  25.683  1.00  0.00     0.001 A 
ATOM     35  C   UNL A   1      33.655  18.661  24.532  1.00  0.00     0.001 A 
ENDBRANCH  22  23
ENDBRANCH  21  22
ENDBRANCH  19  21
ENDBRANCH   8  19
ENDBRANCH   3   6
ENDBRANCH   1   2
BRANCH   1  36
ATOM     36  C   UNL A   1      32.109  28.620  26.945  1.00  0.00     0.042 C 
BRANCH  36  37
ATOM     37  C   UNL A   1      33.525  28.944  27.398  1.00  0.00     0.118 C 
BRANCH  37  38
ATOM     38  N   UNL A   1      33.651  30.291  27.944  1.00  0.00    -0.352 N 
ATOM     39  C   UNL A   1      34.709  30.903  28.579  1.00  0.00     0.251 C 
ATOM     40  H   UNL A   1      32.850  30.854  27.843  1.00  0.00     0.163 HD
ATOM     41  O   UNL A   1      34.553  31.986  29.124  1.00  0.00    -0.269 OA
BRANCH  39  42
ATOM     42  C   UNL A   1      36.025  30.229  28.634  1.00  0.00     0.039 A 
ATOM     43  C   UNL A   1      36.452  29.596  29.799  1.00  0.00     0.014 A 
ATOM     44  C   UNL A   1      36.853  30.256  27.508  1.00  0.00     0.014 A 
ATOM     45  C   UNL A   1      37.774  29.187  29.913  1.00  0.00     0.010 A 
ATOM     46  C   UNL A   1      38.151  29.744  27.590  1.00  0.00     0.010 A 
ATOM     47  C   UNL A   1      38.645  29.266  28.815  1.00  0.00    -0.014 A 
BRANCH  47  48
ATOM     48  C   UNL A   1      40.067  28.872  28.982  1.00  0.00     0.031 A 
ATOM     49  C   UNL A   1      41.046  29.792  29.665  1.00  0.00     0.074 A 
ATOM     50  C   UNL A   1      40.467  27.652  28.575  1.00  0.00     0.049 A 
ATOM     51  N   UNL A   1      42.319  29.608  29.914  1.00  0.00    -0.248 NA
ATOM     52  C   UNL A   1      40.532  31.093  30.122  1.00  0.00     0.031 C 
ATOM     53  C   UNL A   1      39.615  26.663  27.910  1.00  0.00     0.029 A 
ATOM     54  N   UNL A   1      41.684  27.027  28.679  1.00  0.00    -0.354 N 
ATOM     55  C   UNL A   1      42.760  30.772  30.533  1.00  0.00     0.074 A 
ATOM     56  C   UNL A   1      41.627  31.670  30.593  1.00  0.00     0.031 C 
ATOM     57  C   UNL A   1      40.320  25.540  27.710  1.00  0.00     0.029 A 
ATOM     58  C   UNL A   1      41.688  25.752  28.170  1.00  0.00     0.049 A 
ATOM     59  H   UNL A   1      42.477  27.451  29.079  1.00  0.00     0.167 HD
ATOM     60  C   UNL A   1      43.992  31.063  31.019  1.00  0.00     0.037 A 
ATOM     61  C   UNL A   1      42.687  24.856  28.066  1.00  0.00     0.037 A 
ATOM     62  C   UNL A   1      45.114  30.160  30.977  1.00  0.00     0.049 A 
ATOM     63  C   UNL A   1      44.053  25.221  28.569  1.00  0.00     0.074 A 
ATOM     64  C   UNL A   1      46.392  30.348  31.475  1.00  0.00     0.029 A 
ATOM     65  N   UNL A   1      45.092  28.898  30.403  1.00  0.00    -0.354 N 
ATOM     66  N   UNL A   1      44.448  26.318  29.167  1.00  0.00    -0.248 NA
ATOM     67  C   UNL A   1      45.114  24.226  28.372  1.00  0.00     0.031 C 
ATOM     68  C   UNL A   1      47.157  29.220  31.158  1.00  0.00     0.029 A 
ATOM     69  C   UNL A   1      46.341  28.308  30.506  1.00  0.00     0.049 A 
ATOM     70  H   UNL A   1      44.303  28.482  29.984  1.00  0.00     0.167 HD
ATOM     71  C   UNL A   1      45.800  26.142  29.428  1.00  0.00     0.074 A 
ATOM     72  C   UNL A   1      46.149  24.820  28.947  1.00  0.00     0.031 C 
ATOM     73  C   UNL A   1      46.676  26.997  30.010  1.00  0.00     0.037 A 
BRANCH  60  74
ATOM     74  C   UNL A   1      44.196  32.427  31.615  1.00  0.00     0.057 A 
ATOM     75  C   UNL A   1      43.955  32.652  32.977  1.00  0.00     0.134 A 
ATOM     76  C   UNL A   1      44.611  33.521  30.845  1.00  0.00     0.134 A 
ATOM     77  F   UNL A   1      43.550  31.649  33.771  1.00  0.00    -0.206 F 
ATOM     78  C   UNL A   1      44.121  33.913  33.551  1.00  0.00     0.040 A 
ATOM     79  C   UNL A   1      44.805  34.782  31.413  1.00  0.00     0.040 A 
ATOM     80  F   UNL A   1      44.873  33.374  29.538  1.00  0.00    -0.206 F 
ATOM     81  C   UNL A   1      44.555  34.982  32.770  1.00  0.00     0.006 A 
ENDBRANCH  60  74
BRANCH  61  82
ATOM     82  C   UNL A   1      42.435  23.536  27.439  1.00  0.00     0.057 A 
ATOM     83  C   UNL A   1      42.572  23.349  26.057  1.00  0.00     0.134 A 
ATOM     84  C   UNL A   1      42.054  22.429  28.204  1.00  0.00     0.134 A 
ATOM     85  F   UNL A   1      42.929  24.373  25.268  1.00  0.00    -0.206 F 
ATOM     86  C   UNL A   1      42.329  22.112  25.458  1.00  0.00     0.040 A 
ATOM     87  C   UNL A   1      41.834  21.179  27.623  1.00  0.00     0.040 A 
ATOM     88  F   UNL A   1      41.924  22.542  29.534  1.00  0.00    -0.206 F 
ATOM     89  C   UNL A   1      41.967  21.021  26.245  1.00  0.00     0.006 A 
ENDBRANCH  61  82
BRANCH  73  90
ATOM     90  C   UNL A   1      48.088  26.517  30.164  1.00  0.00     0.057 A 
ATOM     91  C   UNL A   1      48.482  25.806  31.305  1.00  0.00     0.134 A 
ATOM     92  C   UNL A   1      49.060  26.759  29.184  1.00  0.00     0.134 A 
ATOM     93  F   UNL A   1      47.602  25.546  32.284  1.00  0.00    -0.206 F 
ATOM     94  C   UNL A   1      49.791  25.351  31.464  1.00  0.00     0.040 A 
ATOM     95  C   UNL A   1      50.365  26.285  29.320  1.00  0.00     0.040 A 
ATOM     96  F   UNL A   1      48.742  27.419  28.060  1.00  0.00    -0.206 F 
ATOM     97  C   UNL A   1      50.736  25.582  30.466  1.00  0.00     0.006 A 
ENDBRANCH  73  90
ENDBRANCH  47  48
ENDBRANCH  39  42
ENDBRANCH  37  38
ENDBRANCH  36  37
ENDBRANCH   1  36
TORSDOF 15
ENDMDL
MODEL 3
REMARK VINA RESULT:     -13.1      2.525      6.844
REMARK SMILES [NH3+][C@@]1(C(=O)NCCCNC(=O)c2ccc(-c3c4nc(c(-c5c(F)cccc5F)c5ccc([nH]5)c(-c5c(F)cccc5F)c5nc(c(-c6c(F)cccc6F)c6ccc3[nH]6)C=C5)C=C4)cc2)c2ccccc2C[C@H]1C(=O)OCC1c2ccccc2-c2ccccc21
REMARK SMILES IDX 6 1 5 2 3 3 4 4 2 6 66 7 73 8 67 9 71 10 72 11 68 12 70 13
REMARK SMILES IDX 69 14 1 15 74 19 75 20 76 21 77 22 78 23 79 24 90 25 80 26
REMARK SMILES IDX 84 27 85 28 89 29 81 30 83 31 86 32 88 33 82 34 87 35 7 36
REMARK SMILES IDX 8 37 9 38 10 39 11 41 12 42 13 43 65 44 14 45 64 46 15 47
REMARK SMILES IDX 16 48 17 49 58 50 18 51 63 52 57 53 59 54 19 55 62 56 56 57
REMARK SMILES IDX 55 58 20 60 46 61 29 62 45 63 30 64 33 65 44 66 60 67 31 68
REMARK SMILES IDX 32 69 43 71 61 72 34 73 21 74 22 75 27 76 23 77 24 78 26 79
REMARK SMILES IDX 28 80 25 81 47 82 48 83 53 84 49 85 50 86 52 87 54 88 51 89
REMARK SMILES IDX 35 90 36 91 41 92 37 93 38 94 40 95 42 96 39 97
REMARK H PARENT 5 5 1 16 1 17 1 18 9 40 59 59 33 70
REMARK Flexibility Score: inf
ROOT
ATOM      1  C   UNL A   1      32.012  29.473  25.722  1.00  0.00     0.118 C 
ENDROOT
BRANCH   1   2
ATOM      2  N   UNL A   1      33.050  29.497  24.710  1.00  0.00    -0.350 N 
ATOM      3  C   UNL A   1      33.139  28.922  23.479  1.00  0.00     0.287 C 
ATOM      4  O   UNL A   1      34.107  29.283  22.792  1.00  0.00    -0.267 OA
ATOM      5  H   UNL A   1      33.840  30.029  24.960  1.00  0.00     0.163 HD
BRANCH   3   6
ATOM      6  C   UNL A   1      32.096  27.894  22.902  1.00  0.00     0.213 C 
ATOM      7  C   UNL A   1      30.740  28.532  22.693  1.00  0.00     0.026 A 
ATOM      8  C   UNL A   1      31.788  26.744  23.894  1.00  0.00     0.179 C 
ATOM      9  C   UNL A   1      30.440  29.663  21.943  1.00  0.00     0.011 A 
ATOM     10  C   UNL A   1      29.736  27.855  23.390  1.00  0.00    -0.037 A 
ATOM     11  C   UNL A   1      30.277  26.728  24.206  1.00  0.00     0.059 C 
ATOM     12  C   UNL A   1      29.119  30.109  21.905  1.00  0.00     0.001 A 
ATOM     13  C   UNL A   1      28.421  28.289  23.355  1.00  0.00     0.004 A 
ATOM     14  C   UNL A   1      28.115  29.424  22.605  1.00  0.00     0.000 A 
BRANCH   6  15
ATOM     15  N   UNL A   1      32.612  27.418  21.603  1.00  0.00    -0.340 N 
ATOM     16  H   UNL A   1      33.603  27.188  21.694  1.00  0.00     0.345 HD
ATOM     17  H   UNL A   1      32.497  28.150  20.902  1.00  0.00     0.345 HD
ATOM     18  H   UNL A   1      32.095  26.587  21.315  1.00  0.00     0.345 HD
ENDBRANCH   6  15
BRANCH   8  19
ATOM     19  C   UNL A   1      32.273  25.369  23.482  1.00  0.00     0.316 C 
ATOM     20  O   UNL A   1      31.547  24.585  22.880  1.00  0.00    -0.252 OA
BRANCH  19  21
ATOM     21  O   UNL A   1      33.604  25.177  23.731  1.00  0.00    -0.464 OA
BRANCH  21  22
ATOM     22  C   UNL A   1      34.083  25.718  24.976  1.00  0.00     0.246 C 
BRANCH  22  23
ATOM     23  C   UNL A   1      34.222  24.659  26.087  1.00  0.00     0.088 C 
ATOM     24  C   UNL A   1      35.161  23.569  25.575  1.00  0.00    -0.029 A 
ATOM     25  C   UNL A   1      32.929  23.877  26.247  1.00  0.00    -0.029 A 
ATOM     26  C   UNL A   1      36.533  23.635  25.378  1.00  0.00     0.005 A 
ATOM     27  C   UNL A   1      34.416  22.419  25.230  1.00  0.00    -0.014 A 
ATOM     28  C   UNL A   1      33.032  22.630  25.600  1.00  0.00    -0.014 A 
ATOM     29  C   UNL A   1      31.761  24.276  26.872  1.00  0.00     0.005 A 
ATOM     30  C   UNL A   1      37.165  22.520  24.826  1.00  0.00     0.000 A 
ATOM     31  C   UNL A   1      35.046  21.315  24.684  1.00  0.00     0.009 A 
ATOM     32  C   UNL A   1      31.906  21.846  25.423  1.00  0.00     0.009 A 
ATOM     33  C   UNL A   1      30.635  23.467  26.730  1.00  0.00     0.000 A 
ATOM     34  C   UNL A   1      36.430  21.371  24.481  1.00  0.00     0.001 A 
ATOM     35  C   UNL A   1      30.697  22.284  25.976  1.00  0.00     0.001 A 
ENDBRANCH  22  23
ENDBRANCH  21  22
ENDBRANCH  19  21
ENDBRANCH   8  19
ENDBRANCH   3   6
ENDBRANCH   1   2
BRANCH   1  36
ATOM     36  C   UNL A   1      31.603  30.870  26.163  1.00  0.00     0.042 C 
BRANCH  36  37
ATOM     37  C   UNL A   1      32.646  31.555  27.035  1.00  0.00     0.118 C 
BRANCH  37  38
ATOM     38  N   UNL A   1      32.306  32.940  27.343  1.00  0.00    -0.352 N 
ATOM     39  C   UNL A   1      32.950  33.864  28.136  1.00  0.00     0.251 C 
ATOM     40  H   UNL A   1      31.482  33.267  26.914  1.00  0.00     0.163 HD
ATOM     41  O   UNL A   1      32.405  34.923  28.408  1.00  0.00    -0.269 OA
BRANCH  39  42
ATOM     42  C   UNL A   1      34.286  33.555  28.691  1.00  0.00     0.039 A 
ATOM     43  C   UNL A   1      35.442  33.863  27.976  1.00  0.00     0.014 A 
ATOM     44  C   UNL A   1      34.379  32.923  29.935  1.00  0.00     0.014 A 
ATOM     45  C   UNL A   1      36.664  33.351  28.393  1.00  0.00     0.010 A 
ATOM     46  C   UNL A   1      35.626  32.504  30.407  1.00  0.00     0.010 A 
ATOM     47  C   UNL A   1      36.770  32.654  29.608  1.00  0.00    -0.014 A 
BRANCH  47  48
ATOM     48  C   UNL A   1      38.079  32.071  30.000  1.00  0.00     0.031 A 
ATOM     49  C   UNL A   1      38.950  32.754  31.023  1.00  0.00     0.074 A 
ATOM     50  C   UNL A   1      38.458  30.887  29.481  1.00  0.00     0.049 A 
ATOM     51  N   UNL A   1      40.113  32.384  31.498  1.00  0.00    -0.248 NA
ATOM     52  C   UNL A   1      38.456  34.023  31.580  1.00  0.00     0.031 C 
ATOM     53  C   UNL A   1      37.700  30.119  28.491  1.00  0.00     0.029 A 
ATOM     54  N   UNL A   1      39.562  30.112  29.729  1.00  0.00    -0.354 N 
ATOM     55  C   UNL A   1      40.498  33.380  32.388  1.00  0.00     0.074 A 
ATOM     56  C   UNL A   1      39.460  34.388  32.363  1.00  0.00     0.031 C 
ATOM     57  C   UNL A   1      38.335  28.963  28.252  1.00  0.00     0.029 A 
ATOM     58  C   UNL A   1      39.576  28.937  29.019  1.00  0.00     0.049 A 
ATOM     59  H   UNL A   1      40.276  30.374  30.354  1.00  0.00     0.167 HD
ATOM     60  C   UNL A   1      41.607  33.444  33.165  1.00  0.00     0.037 A 
ATOM     61  C   UNL A   1      40.493  27.955  28.974  1.00  0.00     0.037 A 
ATOM     62  C   UNL A   1      42.629  32.430  33.205  1.00  0.00     0.049 A 
ATOM     63  C   UNL A   1      41.735  28.074  29.810  1.00  0.00     0.074 A 
ATOM     64  C   UNL A   1      43.772  32.387  33.986  1.00  0.00     0.029 A 
ATOM     65  N   UNL A   1      42.633  31.281  32.430  1.00  0.00    -0.354 N 
ATOM     66  N   UNL A   1      42.074  29.013  30.658  1.00  0.00    -0.248 NA
ATOM     67  C   UNL A   1      42.726  26.999  29.670  1.00  0.00     0.031 C 
ATOM     68  C   UNL A   1      44.492  31.236  33.646  1.00  0.00     0.029 A 
ATOM     69  C   UNL A   1      43.772  30.537  32.690  1.00  0.00     0.049 A 
ATOM     70  H   UNL A   1      41.929  31.030  31.788  1.00  0.00     0.167 HD
ATOM     71  C   UNL A   1      43.311  28.638  31.163  1.00  0.00     0.074 A 
ATOM     72  C   UNL A   1      43.649  27.372  30.544  1.00  0.00     0.031 C 
ATOM     73  C   UNL A   1      44.100  29.285  32.056  1.00  0.00     0.037 A 
BRANCH  60  74
ATOM     74  C   UNL A   1      41.783  34.669  34.018  1.00  0.00     0.057 A 
ATOM     75  C   UNL A   1      42.454  35.793  33.519  1.00  0.00     0.134 A 
ATOM     76  C   UNL A   1      41.309  34.734  35.335  1.00  0.00     0.134 A 
ATOM     77  F   UNL A   1      42.939  35.797  32.268  1.00  0.00    -0.206 F 
ATOM     78  C   UNL A   1      42.645  36.937  34.297  1.00  0.00     0.040 A 
ATOM     79  C   UNL A   1      41.472  35.881  36.114  1.00  0.00     0.040 A 
ATOM     80  F   UNL A   1      40.646  33.699  35.871  1.00  0.00    -0.206 F 
ATOM     81  C   UNL A   1      42.147  36.985  35.597  1.00  0.00     0.006 A 
ENDBRANCH  60  74
BRANCH  61  82
ATOM     82  C   UNL A   1      40.281  26.783  28.089  1.00  0.00     0.057 A 
ATOM     83  C   UNL A   1      39.504  25.693  28.500  1.00  0.00     0.134 A 
ATOM     84  C   UNL A   1      40.845  26.728  26.810  1.00  0.00     0.134 A 
ATOM     85  F   UNL A   1      38.941  25.683  29.718  1.00  0.00    -0.206 F 
ATOM     86  C   UNL A   1      39.306  24.584  27.677  1.00  0.00     0.040 A 
ATOM     87  C   UNL A   1      40.633  25.638  25.965  1.00  0.00     0.040 A 
ATOM     88  F   UNL A   1      41.582  27.751  26.354  1.00  0.00    -0.206 F 
ATOM     89  C   UNL A   1      39.866  24.560  26.401  1.00  0.00     0.006 A 
ENDBRANCH  61  82
BRANCH  73  90
ATOM     90  C   UNL A   1      45.395  28.621  32.418  1.00  0.00     0.057 A 
ATOM     91  C   UNL A   1      45.456  27.696  33.468  1.00  0.00     0.134 A 
ATOM     92  C   UNL A   1      46.584  28.899  31.730  1.00  0.00     0.134 A 
ATOM     93  F   UNL A   1      44.356  27.390  34.172  1.00  0.00    -0.206 F 
ATOM     94  C   UNL A   1      46.652  27.068  33.818  1.00  0.00     0.040 A 
ATOM     95  C   UNL A   1      47.780  28.256  32.053  1.00  0.00     0.040 A 
ATOM     96  F   UNL A   1      46.589  29.762  30.703  1.00  0.00    -0.206 F 
ATOM     97  C   UNL A   1      47.818  27.341  33.104  1.00  0.00     0.006 A 
ENDBRANCH  73  90
ENDBRANCH  47  48
ENDBRANCH  39  42
ENDBRANCH  37  38
ENDBRANCH  36  37
ENDBRANCH   1  36
TORSDOF 15
ENDMDL
